MODEL 1
REMARK VINA RESULT:      -8.9      0.000      0.000
REMARK  28 active torsions:
REMARK  status: ('A' for Active; 'I' for Inactive)
REMARK    1  A    between atoms: C_2  and  O_3 
REMARK    2  A    between atoms: C_2  and  C_4 
REMARK    3  A    between atoms: C_4  and  C_5 
REMARK    4  A    between atoms: C_5  and  C_6 
REMARK    5  A    between atoms: C_7  and  C_8 
REMARK    6  A    between atoms: C_8  and  C_9 
REMARK    7  A    between atoms: C_9  and  O_11 
REMARK    8  A    between atoms: C_28  and  C_29 
REMARK    9  A    between atoms: C_29  and  C_30 
REMARK   10  A    between atoms: C_30  and  O_32 
REMARK   11  A    between atoms: C_33  and  C_34 
REMARK   12  A    between atoms: C_34  and  C_35 
REMARK   13  A    between atoms: C_35  and  C_36 
REMARK   14  A    between atoms: C_36  and  O_38 
REMARK   15  A    between atoms: C_39  and  C_40 
REMARK   16  A    between atoms: C_40  and  C_41 
REMARK   17  A    between atoms: C_41  and  C_42 
REMARK   18  A    between atoms: C_42  and  O_44 
REMARK   19  A    between atoms: C_45  and  C_46 
REMARK   20  A    between atoms: C_46  and  C_47 
REMARK   21  A    between atoms: C_47  and  O_49 
REMARK   22  A    between atoms: C_50  and  C_51 
REMARK   23  A    between atoms: C_51  and  C_52 
REMARK   24  A    between atoms: C_52  and  O_54 
REMARK   25  A    between atoms: C_55  and  C_56 
REMARK   26  A    between atoms: C_56  and  C_57 
REMARK   27  A    between atoms: C_57  and  C_58 
REMARK   28  A    between atoms: C_58  and  O_60 
ROOT
ATOM      1  O   UNK d   0     -12.626  -7.091  -5.863  0.00  0.00    -0.650 OA
ATOM      2  C   UNK d   0     -12.963  -6.702  -7.004  0.00  0.00     0.139 C 
ENDROOT
BRANCH   2   3
ATOM      3  O   UNK d   0     -12.272  -5.672  -7.595  0.00  0.00    -0.776 OA
ATOM      4  H   UNK d   0     -11.254  -5.705  -7.690  0.00  0.00     0.167 HD
ENDBRANCH   2   3
BRANCH   2   5
ATOM      5  C   UNK d   0     -14.103  -7.351  -7.710  0.00  0.00     0.115 C 
BRANCH   5   6
ATOM      6  C   UNK d   0     -13.813  -7.446  -9.184  0.00  0.00     0.052 C 
BRANCH   6   7
ATOM      7  C   UNK d   0     -15.060  -7.657 -10.009  0.00  0.00    -0.020 A 
ATOM      8  C   UNK d   0     -15.695  -6.774 -10.737  0.00  0.00    -0.011 A 
ATOM      9  C   UNK d   0     -16.841  -7.435 -11.339  0.00  0.00     0.067 A 
ATOM     10  C   UNK d   0     -17.876  -7.069 -12.213  0.00  0.00     0.062 C 
ATOM     11  N   UNK d   0     -16.830  -8.717 -10.919  0.00  0.00    -0.248 NA
ATOM     12  C   UNK d   0     -18.740  -7.923 -12.908  0.00  0.00     0.041 A 
ATOM     13  N   UNK d   0     -19.387  -9.038 -12.518  0.00  0.00    -0.355 N 
ATOM     14  C   UNK d   0     -18.987  -7.679 -14.271  0.00  0.00    -0.022 A 
ATOM     15  C   UNK d   0     -20.033  -9.511 -13.600  0.00  0.00     0.042 A 
ATOM     16  H   UNK d   0     -19.404  -9.470 -11.493  0.00  0.00     0.166 HD
ATOM     17  C   UNK d   0     -20.857 -10.645 -13.749  0.00  0.00     0.062 C 
ATOM     18  C   UNK d   0     -19.806  -8.686 -14.718  0.00  0.00    -0.013 A 
ATOM     19  C   UNK d   0     -20.659 -11.921 -13.286  0.00  0.00     0.067 A 
ATOM     20  N   UNK d   0     -19.666 -12.100 -12.412  0.00  0.00    -0.248 NA
ATOM     21  C   UNK d   0     -21.268 -13.221 -13.514  0.00  0.00    -0.011 A 
ATOM     22  C   UNK d   0     -19.580 -13.423 -12.052  0.00  0.00     0.066 A 
ATOM     23  C   UNK d   0     -18.609 -13.745 -11.116  0.00  0.00     0.062 C 
ATOM     24  C   UNK d   0     -20.630 -14.096 -12.792  0.00  0.00    -0.020 A 
ATOM     25  C   UNK d   0     -17.760 -12.871 -10.420  0.00  0.00     0.041 A 
ATOM     26  N   UNK d   0     -17.105 -11.772 -10.812  0.00  0.00    -0.355 N 
ATOM     27  C   UNK d   0     -17.516 -13.114  -9.051  0.00  0.00    -0.022 A 
ATOM     28  C   UNK d   0     -16.453 -11.302  -9.736  0.00  0.00     0.042 A 
ATOM     29  H   UNK d   0     -17.081 -11.344 -11.844  0.00  0.00     0.166 HD
ATOM     30  C   UNK d   0     -15.623 -10.181  -9.576  0.00  0.00     0.062 C 
ATOM     31  C   UNK d   0     -16.690 -12.126  -8.610  0.00  0.00    -0.013 A 
ATOM     32  C   UNK d   0     -15.783  -8.915 -10.116  0.00  0.00     0.066 A 
BRANCH   8  33
ATOM     33  C   UNK d   0     -15.334  -5.356 -10.922  0.00  0.00     0.151 C 
BRANCH  33  34
ATOM     34  C   UNK d   0     -15.613  -4.536  -9.730  0.00  0.00     0.143 C 
ATOM     35  O   UNK d   0     -16.778  -4.292  -9.384  0.00  0.00    -0.650 OA
BRANCH  34  36
ATOM     36  O   UNK d   0     -14.565  -4.033  -8.995  0.00  0.00    -0.776 OA
ATOM     37  H   UNK d   0     -13.589  -4.254  -9.236  0.00  0.00     0.167 HD
ENDBRANCH  34  36
ENDBRANCH  33  34
ENDBRANCH   8  33
BRANCH  31  38
ATOM     38  C   UNK d   0     -16.167 -11.964  -7.202  0.00  0.00     0.151 C 
BRANCH  38  39
ATOM     39  C   UNK d   0     -16.738 -10.823  -6.518  0.00  0.00     0.143 C 
ATOM     40  O   UNK d   0     -16.043 -10.010  -5.884  0.00  0.00    -0.650 OA
BRANCH  39  41
ATOM     41  O   UNK d   0     -18.116 -10.614  -6.566  0.00  0.00    -0.776 OA
ATOM     42  H   UNK d   0     -18.622 -11.047  -7.345  0.00  0.00     0.167 HD
ENDBRANCH  39  41
ENDBRANCH  38  39
ENDBRANCH  31  38
BRANCH  27  43
ATOM     43  C   UNK d   0     -18.026 -14.226  -8.169  0.00  0.00     0.052 C 
BRANCH  43  44
ATOM     44  C   UNK d   0     -17.189 -15.462  -8.234  0.00  0.00     0.115 C 
BRANCH  44  45
ATOM     45  C   UNK d   0     -18.100 -16.573  -8.615  0.00  0.00     0.139 C 
ATOM     46  O   UNK d   0     -17.636 -17.506  -9.315  0.00  0.00    -0.650 OA
BRANCH  45  47
ATOM     47  O   UNK d   0     -19.422 -16.620  -8.228  0.00  0.00    -0.776 OA
ATOM     48  H   UNK d   0     -20.163 -17.038  -8.814  0.00  0.00     0.167 HD
ENDBRANCH  45  47
ENDBRANCH  44  45
ENDBRANCH  43  44
ENDBRANCH  27  43
BRANCH  24  49
ATOM     49  C   UNK d   0     -20.941 -15.532 -12.691  0.00  0.00     0.052 C 
BRANCH  49  50
ATOM     50  C   UNK d   0     -22.152 -15.746 -11.819  0.00  0.00     0.115 C 
BRANCH  50  51
ATOM     51  C   UNK d   0     -21.917 -15.975 -10.400  0.00  0.00     0.139 C 
ATOM     52  O   UNK d   0     -21.977 -17.114  -9.879  0.00  0.00    -0.650 OA
BRANCH  51  53
ATOM     53  O   UNK d   0     -21.615 -14.904  -9.573  0.00  0.00    -0.776 OA
ATOM     54  H   UNK d   0     -20.751 -14.414  -9.726  0.00  0.00     0.167 HD
ENDBRANCH  51  53
ENDBRANCH  50  51
ENDBRANCH  49  50
ENDBRANCH  24  49
BRANCH  21  55
ATOM     55  C   UNK d   0     -22.428 -13.451 -14.425  0.00  0.00     0.151 C 
BRANCH  55  56
ATOM     56  C   UNK d   0     -23.605 -12.662 -14.031  0.00  0.00     0.143 C 
ATOM     57  O   UNK d   0     -23.959 -11.630 -14.635  0.00  0.00    -0.650 OA
BRANCH  56  58
ATOM     58  O   UNK d   0     -24.344 -13.102 -12.934  0.00  0.00    -0.776 OA
ATOM     59  H   UNK d   0     -24.950 -12.382 -12.500  0.00  0.00     0.167 HD
ENDBRANCH  56  58
ENDBRANCH  55  56
ENDBRANCH  21  55
BRANCH  18  60
ATOM     60  C   UNK d   0     -20.316  -8.821 -16.132  0.00  0.00     0.151 C 
BRANCH  60  61
ATOM     61  C   UNK d   0     -21.770  -8.614 -16.058  0.00  0.00     0.143 C 
ATOM     62  O   UNK d   0     -22.359  -7.656 -15.554  0.00  0.00    -0.650 OA
BRANCH  61  63
ATOM     63  O   UNK d   0     -22.555  -9.640 -16.635  0.00  0.00    -0.776 OA
ATOM     64  H   UNK d   0     -23.263  -9.431 -17.317  0.00  0.00     0.167 HD
ENDBRANCH  61  63
ENDBRANCH  60  61
ENDBRANCH  18  60
BRANCH  14  65
ATOM     65  C   UNK d   0     -18.593  -6.525 -15.148  0.00  0.00     0.052 C 
BRANCH  65  66
ATOM     66  C   UNK d   0     -17.187  -6.612 -15.626  0.00  0.00     0.115 C 
BRANCH  66  67
ATOM     67  C   UNK d   0     -16.886  -6.338 -17.003  0.00  0.00     0.139 C 
ATOM     68  O   UNK d   0     -17.806  -6.522 -17.881  0.00  0.00    -0.650 OA
BRANCH  67  69
ATOM     69  O   UNK d   0     -15.682  -5.881 -17.538  0.00  0.00    -0.776 OA
ATOM     70  H   UNK d   0     -14.943  -6.590 -17.649  0.00  0.00     0.167 HD
ENDBRANCH  67  69
ENDBRANCH  66  67
ENDBRANCH  65  66
ENDBRANCH  14  65
ENDBRANCH   6   7
ENDBRANCH   5   6
ENDBRANCH   2   5
TORSDOF 28
ENDMDL
MODEL 2
REMARK VINA RESULT:      -8.8      2.548      5.525
REMARK  28 active torsions:
REMARK  status: ('A' for Active; 'I' for Inactive)
REMARK    1  A    between atoms: C_2  and  O_3 
REMARK    2  A    between atoms: C_2  and  C_4 
REMARK    3  A    between atoms: C_4  and  C_5 
REMARK    4  A    between atoms: C_5  and  C_6 
REMARK    5  A    between atoms: C_7  and  C_8 
REMARK    6  A    between atoms: C_8  and  C_9 
REMARK    7  A    between atoms: C_9  and  O_11 
REMARK    8  A    between atoms: C_28  and  C_29 
REMARK    9  A    between atoms: C_29  and  C_30 
REMARK   10  A    between atoms: C_30  and  O_32 
REMARK   11  A    between atoms: C_33  and  C_34 
REMARK   12  A    between atoms: C_34  and  C_35 
REMARK   13  A    between atoms: C_35  and  C_36 
REMARK   14  A    between atoms: C_36  and  O_38 
REMARK   15  A    between atoms: C_39  and  C_40 
REMARK   16  A    between atoms: C_40  and  C_41 
REMARK   17  A    between atoms: C_41  and  C_42 
REMARK   18  A    between atoms: C_42  and  O_44 
REMARK   19  A    between atoms: C_45  and  C_46 
REMARK   20  A    between atoms: C_46  and  C_47 
REMARK   21  A    between atoms: C_47  and  O_49 
REMARK   22  A    between atoms: C_50  and  C_51 
REMARK   23  A    between atoms: C_51  and  C_52 
REMARK   24  A    between atoms: C_52  and  O_54 
REMARK   25  A    between atoms: C_55  and  C_56 
REMARK   26  A    between atoms: C_56  and  C_57 
REMARK   27  A    between atoms: C_57  and  C_58 
REMARK   28  A    between atoms: C_58  and  O_60 
ROOT
ATOM      1  O   UNK d   0     -15.867  -0.673 -13.579  0.00  0.00    -0.650 OA
ATOM      2  C   UNK d   0     -15.847  -1.923 -13.555  0.00  0.00     0.139 C 
ENDROOT
BRANCH   2   3
ATOM      3  O   UNK d   0     -15.437  -2.569 -12.414  0.00  0.00    -0.776 OA
ATOM      4  H   UNK d   0     -14.492  -2.441 -12.046  0.00  0.00     0.167 HD
ENDBRANCH   2   3
BRANCH   2   5
ATOM      5  C   UNK d   0     -16.264  -2.701 -14.756  0.00  0.00     0.115 C 
BRANCH   5   6
ATOM      6  C   UNK d   0     -15.517  -4.006 -14.813  0.00  0.00     0.052 C 
BRANCH   6   7
ATOM      7  C   UNK d   0     -16.438  -5.201 -14.868  0.00  0.00    -0.020 A 
ATOM      8  C   UNK d   0     -17.392  -5.435 -15.733  0.00  0.00    -0.011 A 
ATOM      9  C   UNK d   0     -18.011  -6.702 -15.381  0.00  0.00     0.067 A 
ATOM     10  C   UNK d   0     -19.039  -7.504 -15.899  0.00  0.00     0.062 C 
ATOM     11  N   UNK d   0     -17.374  -7.168 -14.286  0.00  0.00    -0.248 NA
ATOM     12  C   UNK d   0     -19.312  -8.840 -15.583  0.00  0.00     0.041 A 
ATOM     13  N   UNK d   0     -19.326  -9.487 -14.402  0.00  0.00    -0.355 N 
ATOM     14  C   UNK d   0     -19.575  -9.746 -16.627  0.00  0.00    -0.022 A 
ATOM     15  C   UNK d   0     -19.583 -10.781 -14.671  0.00  0.00     0.042 A 
ATOM     16  H   UNK d   0     -19.176  -9.034 -13.397  0.00  0.00     0.166 HD
ATOM     17  C   UNK d   0     -19.709 -11.886 -13.805  0.00  0.00     0.062 C 
ATOM     18  C   UNK d   0     -19.745 -10.982 -16.055  0.00  0.00    -0.013 A 
ATOM     19  C   UNK d   0     -18.918 -12.245 -12.744  0.00  0.00     0.067 A 
ATOM     20  N   UNK d   0     -18.019 -11.348 -12.329  0.00  0.00    -0.248 NA
ATOM     21  C   UNK d   0     -18.771 -13.419 -11.900  0.00  0.00    -0.011 A 
ATOM     22  C   UNK d   0     -17.295 -11.851 -11.276  0.00  0.00     0.066 A 
ATOM     23  C   UNK d   0     -16.347 -11.004 -10.720  0.00  0.00     0.062 C 
ATOM     24  C   UNK d   0     -17.817 -13.183 -11.046  0.00  0.00    -0.020 A 
ATOM     25  C   UNK d   0     -16.097  -9.661 -11.043  0.00  0.00     0.041 A 
ATOM     26  N   UNK d   0     -16.069  -9.021 -12.218  0.00  0.00    -0.355 N 
ATOM     27  C   UNK d   0     -15.838  -8.752  -9.994  0.00  0.00    -0.022 A 
ATOM     28  C   UNK d   0     -15.804  -7.732 -11.954  0.00  0.00     0.042 A 
ATOM     29  H   UNK d   0     -16.209  -9.479 -13.228  0.00  0.00     0.166 HD
ATOM     30  C   UNK d   0     -15.667  -6.625 -12.805  0.00  0.00     0.062 C 
ATOM     31  C   UNK d   0     -15.652  -7.529 -10.562  0.00  0.00    -0.013 A 
ATOM     32  C   UNK d   0     -16.417  -6.312 -13.928  0.00  0.00     0.066 A 
BRANCH   8  33
ATOM     33  C   UNK d   0     -17.790  -4.577 -16.865  0.00  0.00     0.151 C 
BRANCH  33  34
ATOM     34  C   UNK d   0     -17.026  -4.863 -18.093  0.00  0.00     0.143 C 
ATOM     35  O   UNK d   0     -17.465  -5.645 -18.948  0.00  0.00    -0.650 OA
BRANCH  34  36
ATOM     36  O   UNK d   0     -15.809  -4.252 -18.288  0.00  0.00    -0.776 OA
ATOM     37  H   UNK d   0     -14.931  -4.787 -18.253  0.00  0.00     0.167 HD
ENDBRANCH  34  36
ENDBRANCH  33  34
ENDBRANCH   8  33
BRANCH  31  38
ATOM     38  C   UNK d   0     -15.360  -6.241  -9.828  0.00  0.00     0.151 C 
BRANCH  38  39
ATOM     39  C   UNK d   0     -13.970  -6.116  -9.444  0.00  0.00     0.143 C 
ATOM     40  O   UNK d   0     -13.046  -6.128 -10.277  0.00  0.00    -0.650 OA
BRANCH  39  41
ATOM     41  O   UNK d   0     -13.640  -5.975  -8.097  0.00  0.00    -0.776 OA
ATOM     42  H   UNK d   0     -13.730  -5.036  -7.695  0.00  0.00     0.167 HD
ENDBRANCH  39  41
ENDBRANCH  38  39
ENDBRANCH  31  38
BRANCH  27  43
ATOM     43  C   UNK d   0     -15.761  -9.000  -8.508  0.00  0.00     0.052 C 
BRANCH  43  44
ATOM     44  C   UNK d   0     -17.098  -9.017  -7.842  0.00  0.00     0.115 C 
BRANCH  44  45
ATOM     45  C   UNK d   0     -17.125 -10.225  -6.976  0.00  0.00     0.139 C 
ATOM     46  O   UNK d   0     -18.244 -10.700  -6.659  0.00  0.00    -0.650 OA
BRANCH  45  47
ATOM     47  O   UNK d   0     -15.982 -10.841  -6.517  0.00  0.00    -0.776 OA
ATOM     48  H   UNK d   0     -16.000 -11.647  -5.872  0.00  0.00     0.167 HD
ENDBRANCH  45  47
ENDBRANCH  44  45
ENDBRANCH  43  44
ENDBRANCH  27  43
BRANCH  24  49
ATOM     49  C   UNK d   0     -17.363 -14.092  -9.979  0.00  0.00     0.052 C 
BRANCH  49  50
ATOM     50  C   UNK d   0     -17.646 -13.493  -8.625  0.00  0.00     0.115 C 
BRANCH  50  51
ATOM     51  C   UNK d   0     -16.849 -13.975  -7.505  0.00  0.00     0.139 C 
ATOM     52  O   UNK d   0     -15.833 -14.694  -7.658  0.00  0.00    -0.650 OA
BRANCH  51  53
ATOM     53  O   UNK d   0     -17.213 -13.641  -6.210  0.00  0.00    -0.776 OA
ATOM     54  H   UNK d   0     -16.738 -12.876  -5.765  0.00  0.00     0.167 HD
ENDBRANCH  51  53
ENDBRANCH  50  51
ENDBRANCH  49  50
ENDBRANCH  24  49
BRANCH  21  55
ATOM     55  C   UNK d   0     -19.602 -14.651 -12.032  0.00  0.00     0.151 C 
BRANCH  55  56
ATOM     56  C   UNK d   0     -20.865 -14.548 -11.284  0.00  0.00     0.143 C 
ATOM     57  O   UNK d   0     -21.955 -14.292 -11.832  0.00  0.00    -0.650 OA
BRANCH  56  58
ATOM     58  O   UNK d   0     -20.820 -14.748  -9.905  0.00  0.00    -0.776 OA
ATOM     59  H   UNK d   0     -20.598 -13.903  -9.349  0.00  0.00     0.167 HD
ENDBRANCH  56  58
ENDBRANCH  55  56
ENDBRANCH  21  55
BRANCH  18  60
ATOM     60  C   UNK d   0     -20.039 -12.252 -16.814  0.00  0.00     0.151 C 
BRANCH  60  61
ATOM     61  C   UNK d   0     -18.731 -12.810 -17.190  0.00  0.00     0.143 C 
ATOM     62  O   UNK d   0     -17.661 -12.655 -16.601  0.00  0.00    -0.650 OA
BRANCH  61  63
ATOM     63  O   UNK d   0     -18.730 -13.607 -18.360  0.00  0.00    -0.776 OA
ATOM     64  H   UNK d   0     -17.906 -14.107 -18.646  0.00  0.00     0.167 HD
ENDBRANCH  61  63
ENDBRANCH  60  61
ENDBRANCH  18  60
BRANCH  14  65
ATOM     65  C   UNK d   0     -19.773  -9.516 -18.098  0.00  0.00     0.052 C 
BRANCH  65  66
ATOM     66  C   UNK d   0     -18.530  -9.085 -18.792  0.00  0.00     0.115 C 
BRANCH  66  67
ATOM     67  C   UNK d   0     -17.416  -9.986 -18.882  0.00  0.00     0.139 C 
ATOM     68  O   UNK d   0     -17.257 -10.660 -19.965  0.00  0.00    -0.650 OA
BRANCH  67  69
ATOM     69  O   UNK d   0     -16.444 -10.240 -17.914  0.00  0.00    -0.776 OA
ATOM     70  H   UNK d   0     -15.526 -10.544 -18.270  0.00  0.00     0.167 HD
ENDBRANCH  67  69
ENDBRANCH  66  67
ENDBRANCH  65  66
ENDBRANCH  14  65
ENDBRANCH   6   7
ENDBRANCH   5   6
ENDBRANCH   2   5
TORSDOF 28
ENDMDL
MODEL 3
REMARK VINA RESULT:      -8.8      3.608      8.532
REMARK  28 active torsions:
REMARK  status: ('A' for Active; 'I' for Inactive)
REMARK    1  A    between atoms: C_2  and  O_3 
REMARK    2  A    between atoms: C_2  and  C_4 
REMARK    3  A    between atoms: C_4  and  C_5 
REMARK    4  A    between atoms: C_5  and  C_6 
REMARK    5  A    between atoms: C_7  and  C_8 
REMARK    6  A    between atoms: C_8  and  C_9 
REMARK    7  A    between atoms: C_9  and  O_11 
REMARK    8  A    between atoms: C_28  and  C_29 
REMARK    9  A    between atoms: C_29  and  C_30 
REMARK   10  A    between atoms: C_30  and  O_32 
REMARK   11  A    between atoms: C_33  and  C_34 
REMARK   12  A    between atoms: C_34  and  C_35 
REMARK   13  A    between atoms: C_35  and  C_36 
REMARK   14  A    between atoms: C_36  and  O_38 
REMARK   15  A    between atoms: C_39  and  C_40 
REMARK   16  A    between atoms: C_40  and  C_41 
REMARK   17  A    between atoms: C_41  and  C_42 
REMARK   18  A    between atoms: C_42  and  O_44 
REMARK   19  A    between atoms: C_45  and  C_46 
REMARK   20  A    between atoms: C_46  and  C_47 
REMARK   21  A    between atoms: C_47  and  O_49 
REMARK   22  A    between atoms: C_50  and  C_51 
REMARK   23  A    between atoms: C_51  and  C_52 
REMARK   24  A    between atoms: C_52  and  O_54 
REMARK   25  A    between atoms: C_55  and  C_56 
REMARK   26  A    between atoms: C_56  and  C_57 
REMARK   27  A    between atoms: C_57  and  C_58 
REMARK   28  A    between atoms: C_58  and  O_60 
ROOT
ATOM      1  O   UNK d   0     -16.770  -5.533 -22.593  0.00  0.00    -0.650 OA
ATOM      2  C   UNK d   0     -17.274  -6.662 -22.398  0.00  0.00     0.139 C 
ENDROOT
BRANCH   2   3
ATOM      3  O   UNK d   0     -18.106  -7.202 -23.349  0.00  0.00    -0.776 OA
ATOM      4  H   UNK d   0     -18.797  -7.913 -23.102  0.00  0.00     0.167 HD
ENDBRANCH   2   3
BRANCH   2   5
ATOM      5  C   UNK d   0     -16.972  -7.409 -21.144  0.00  0.00     0.115 C 
BRANCH   5   6
ATOM      6  C   UNK d   0     -18.000  -7.093 -20.093  0.00  0.00     0.052 C 
BRANCH   6   7
ATOM      7  C   UNK d   0     -17.620  -7.621 -18.730  0.00  0.00    -0.020 A 
ATOM      8  C   UNK d   0     -16.759  -7.110 -17.888  0.00  0.00    -0.011 A 
ATOM      9  C   UNK d   0     -16.720  -7.968 -16.715  0.00  0.00     0.067 A 
ATOM     10  C   UNK d   0     -16.045  -7.971 -15.485  0.00  0.00     0.062 C 
ATOM     11  N   UNK d   0     -17.586  -8.981 -16.931  0.00  0.00    -0.248 NA
ATOM     12  C   UNK d   0     -16.347  -8.739 -14.355  0.00  0.00     0.041 A 
ATOM     13  N   UNK d   0     -16.695 -10.034 -14.230  0.00  0.00    -0.355 N 
ATOM     14  C   UNK d   0     -16.365  -8.116 -13.094  0.00  0.00    -0.022 A 
ATOM     15  C   UNK d   0     -16.942 -10.246 -12.923  0.00  0.00     0.042 A 
ATOM     16  H   UNK d   0     -16.747 -10.787 -15.046  0.00  0.00     0.166 HD
ATOM     17  C   UNK d   0     -17.338 -11.417 -12.247  0.00  0.00     0.062 C 
ATOM     18  C   UNK d   0     -16.746  -9.066 -12.180  0.00  0.00    -0.013 A 
ATOM     19  C   UNK d   0     -18.300 -12.331 -12.596  0.00  0.00     0.067 A 
ATOM     20  N   UNK d   0     -18.810 -12.233 -13.826  0.00  0.00    -0.248 NA
ATOM     21  C   UNK d   0     -18.971 -13.442 -11.942  0.00  0.00    -0.011 A 
ATOM     22  C   UNK d   0     -19.766 -13.198 -14.024  0.00  0.00     0.066 A 
ATOM     23  C   UNK d   0     -20.354 -13.235 -15.280  0.00  0.00     0.062 C 
ATOM     24  C   UNK d   0     -19.831 -13.943 -12.782  0.00  0.00    -0.020 A 
ATOM     25  C   UNK d   0     -20.027 -12.463 -16.406  0.00  0.00     0.041 A 
ATOM     26  N   UNK d   0     -19.695 -11.173 -16.532  0.00  0.00    -0.355 N 
ATOM     27  C   UNK d   0     -20.005 -13.091 -17.671  0.00  0.00    -0.022 A 
ATOM     28  C   UNK d   0     -19.458 -10.957 -17.835  0.00  0.00     0.042 A 
ATOM     29  H   UNK d   0     -19.654 -10.414 -15.712  0.00  0.00     0.166 HD
ATOM     30  C   UNK d   0     -19.072  -9.795 -18.523  0.00  0.00     0.062 C 
ATOM     31  C   UNK d   0     -19.645 -12.145 -18.581  0.00  0.00    -0.013 A 
ATOM     32  C   UNK d   0     -18.160  -8.830 -18.126  0.00  0.00     0.066 A 
BRANCH   8  33
ATOM     33  C   UNK d   0     -15.955  -5.888 -18.076  0.00  0.00     0.151 C 
BRANCH  33  34
ATOM     34  C   UNK d   0     -16.561  -4.704 -17.440  0.00  0.00     0.143 C 
ATOM     35  O   UNK d   0     -15.991  -4.122 -16.506  0.00  0.00    -0.650 OA
BRANCH  34  36
ATOM     36  O   UNK d   0     -17.776  -4.242 -17.891  0.00  0.00    -0.776 OA
ATOM     37  H   UNK d   0     -18.094  -4.426 -18.852  0.00  0.00     0.167 HD
ENDBRANCH  34  36
ENDBRANCH  33  34
ENDBRANCH   8  33
BRANCH  31  38
ATOM     38  C   UNK d   0     -19.475 -12.357 -20.067  0.00  0.00     0.151 C 
BRANCH  38  39
ATOM     39  C   UNK d   0     -18.114 -12.684 -20.436  0.00  0.00     0.143 C 
ATOM     40  O   UNK d   0     -17.142 -11.999 -20.069  0.00  0.00    -0.650 OA
BRANCH  39  41
ATOM     41  O   UNK d   0     -17.868 -13.804 -21.229  0.00  0.00    -0.776 OA
ATOM     42  H   UNK d   0     -17.978 -13.686 -22.241  0.00  0.00     0.167 HD
ENDBRANCH  39  41
ENDBRANCH  38  39
ENDBRANCH  31  38
BRANCH  27  43
ATOM     43  C   UNK d   0     -20.308 -14.522 -18.036  0.00  0.00     0.052 C 
BRANCH  43  44
ATOM     44  C   UNK d   0     -19.083 -15.355 -18.232  0.00  0.00     0.115 C 
BRANCH  44  45
ATOM     45  C   UNK d   0     -19.409 -16.348 -19.288  0.00  0.00     0.139 C 
ATOM     46  O   UNK d   0     -19.736 -15.920 -20.423  0.00  0.00    -0.650 OA
BRANCH  45  47
ATOM     47  O   UNK d   0     -19.361 -17.709 -19.075  0.00  0.00    -0.776 OA
ATOM     48  H   UNK d   0     -18.781 -18.140 -18.337  0.00  0.00     0.167 HD
ENDBRANCH  45  47
ENDBRANCH  44  45
ENDBRANCH  43  44
ENDBRANCH  27  43
BRANCH  24  49
ATOM     49  C   UNK d   0     -20.699 -15.108 -12.544  0.00  0.00     0.052 C 
BRANCH  49  50
ATOM     50  C   UNK d   0     -22.118 -14.663 -12.298  0.00  0.00     0.115 C 
BRANCH  50  51
ATOM     51  C   UNK d   0     -22.650 -14.852 -10.955  0.00  0.00     0.139 C 
ATOM     52  O   UNK d   0     -23.879 -14.934 -10.720  0.00  0.00    -0.650 OA
BRANCH  51  53
ATOM     53  O   UNK d   0     -21.781 -14.944  -9.879  0.00  0.00    -0.776 OA
ATOM     54  H   UNK d   0     -20.800 -15.049 -10.068  0.00  0.00     0.167 HD
ENDBRANCH  51  53
ENDBRANCH  50  51
ENDBRANCH  49  50
ENDBRANCH  24  49
BRANCH  21  55
ATOM     55  C   UNK d   0     -18.680 -13.890 -10.548  0.00  0.00     0.151 C 
BRANCH  55  56
ATOM     56  C   UNK d   0     -17.640 -14.930 -10.509  0.00  0.00     0.143 C 
ATOM     57  O   UNK d   0     -16.431 -14.669 -10.359  0.00  0.00    -0.650 OA
BRANCH  56  58
ATOM     58  O   UNK d   0     -18.044 -16.257 -10.647  0.00  0.00    -0.776 OA
ATOM     59  H   UNK d   0     -18.725 -16.581  -9.937  0.00  0.00     0.167 HD
ENDBRANCH  56  58
ENDBRANCH  55  56
ENDBRANCH  21  55
BRANCH  18  60
ATOM     60  C   UNK d   0     -16.905  -8.827 -10.699  0.00  0.00     0.151 C 
BRANCH  60  61
ATOM     61  C   UNK d   0     -15.845  -9.611 -10.047  0.00  0.00     0.143 C 
ATOM     62  O   UNK d   0     -15.986 -10.463  -9.169  0.00  0.00    -0.650 OA
BRANCH  61  63
ATOM     63  O   UNK d   0     -14.530  -9.339 -10.496  0.00  0.00    -0.776 OA
ATOM     64  H   UNK d   0     -14.344  -8.576 -11.122  0.00  0.00     0.167 HD
ENDBRANCH  61  63
ENDBRANCH  60  61
ENDBRANCH  18  60
BRANCH  14  65
ATOM     65  C   UNK d   0     -15.959  -6.730 -12.678  0.00  0.00     0.052 C 
BRANCH  65  66
ATOM     66  C   UNK d   0     -14.511  -6.620 -12.357  0.00  0.00     0.115 C 
BRANCH  66  67
ATOM     67  C   UNK d   0     -14.101  -6.021 -11.118  0.00  0.00     0.139 C 
ATOM     68  O   UNK d   0     -14.448  -4.805 -10.881  0.00  0.00    -0.650 OA
BRANCH  67  69
ATOM     69  O   UNK d   0     -13.347  -6.600 -10.098  0.00  0.00    -0.776 OA
ATOM     70  H   UNK d   0     -12.325  -6.576 -10.228  0.00  0.00     0.167 HD
ENDBRANCH  67  69
ENDBRANCH  66  67
ENDBRANCH  65  66
ENDBRANCH  14  65
ENDBRANCH   6   7
ENDBRANCH   5   6
ENDBRANCH   2   5
TORSDOF 28
ENDMDL
MODEL 4
REMARK VINA RESULT:      -8.7      2.452      8.162
REMARK  28 active torsions:
REMARK  status: ('A' for Active; 'I' for Inactive)
REMARK    1  A    between atoms: C_2  and  O_3 
REMARK    2  A    between atoms: C_2  and  C_4 
REMARK    3  A    between atoms: C_4  and  C_5 
REMARK    4  A    between atoms: C_5  and  C_6 
REMARK    5  A    between atoms: C_7  and  C_8 
REMARK    6  A    between atoms: C_8  and  C_9 
REMARK    7  A    between atoms: C_9  and  O_11 
REMARK    8  A    between atoms: C_28  and  C_29 
REMARK    9  A    between atoms: C_29  and  C_30 
REMARK   10  A    between atoms: C_30  and  O_32 
REMARK   11  A    between atoms: C_33  and  C_34 
REMARK   12  A    between atoms: C_34  and  C_35 
REMARK   13  A    between atoms: C_35  and  C_36 
REMARK   14  A    between atoms: C_36  and  O_38 
REMARK   15  A    between atoms: C_39  and  C_40 
REMARK   16  A    between atoms: C_40  and  C_41 
REMARK   17  A    between atoms: C_41  and  C_42 
REMARK   18  A    between atoms: C_42  and  O_44 
REMARK   19  A    between atoms: C_45  and  C_46 
REMARK   20  A    between atoms: C_46  and  C_47 
REMARK   21  A    between atoms: C_47  and  O_49 
REMARK   22  A    between atoms: C_50  and  C_51 
REMARK   23  A    between atoms: C_51  and  C_52 
REMARK   24  A    between atoms: C_52  and  O_54 
REMARK   25  A    between atoms: C_55  and  C_56 
REMARK   26  A    between atoms: C_56  and  C_57 
REMARK   27  A    between atoms: C_57  and  C_58 
REMARK   28  A    between atoms: C_58  and  O_60 
ROOT
ATOM      1  O   UNK d   0     -18.915  -9.636  -6.832  0.00  0.00    -0.650 OA
ATOM      2  C   UNK d   0     -17.669  -9.565  -6.913  0.00  0.00     0.139 C 
ENDROOT
BRANCH   2   3
ATOM      3  O   UNK d   0     -17.087  -8.393  -7.334  0.00  0.00    -0.776 OA
ATOM      4  H   UNK d   0     -17.611  -7.516  -7.340  0.00  0.00     0.167 HD
ENDBRANCH   2   3
BRANCH   2   5
ATOM      5  C   UNK d   0     -16.827 -10.742  -6.556  0.00  0.00     0.115 C 
BRANCH   5   6
ATOM      6  C   UNK d   0     -15.872 -11.054  -7.676  0.00  0.00     0.052 C 
BRANCH   6   7
ATOM      7  C   UNK d   0     -16.569 -11.590  -8.903  0.00  0.00    -0.020 A 
ATOM      8  C   UNK d   0     -17.254 -12.700  -9.011  0.00  0.00    -0.011 A 
ATOM      9  C   UNK d   0     -17.729 -12.798 -10.381  0.00  0.00     0.067 A 
ATOM     10  C   UNK d   0     -18.509 -13.701 -11.121  0.00  0.00     0.062 C 
ATOM     11  N   UNK d   0     -17.282 -11.708 -11.039  0.00  0.00    -0.248 NA
ATOM     12  C   UNK d   0     -19.098 -13.486 -12.371  0.00  0.00     0.041 A 
ATOM     13  N   UNK d   0     -18.621 -12.899 -13.486  0.00  0.00    -0.355 N 
ATOM     14  C   UNK d   0     -20.436 -13.870 -12.569  0.00  0.00    -0.022 A 
ATOM     15  C   UNK d   0     -19.626 -12.894 -14.383  0.00  0.00     0.042 A 
ATOM     16  H   UNK d   0     -17.590 -12.514 -13.643  0.00  0.00     0.166 HD
ATOM     17  C   UNK d   0     -19.669 -12.405 -15.703  0.00  0.00     0.062 C 
ATOM     18  C   UNK d   0     -20.780 -13.495 -13.843  0.00  0.00    -0.013 A 
ATOM     19  C   UNK d   0     -19.197 -11.217 -16.199  0.00  0.00     0.067 A 
ATOM     20  N   UNK d   0     -18.418 -10.492 -15.392  0.00  0.00    -0.248 NA
ATOM     21  C   UNK d   0     -19.335 -10.474 -17.441  0.00  0.00    -0.011 A 
ATOM     22  C   UNK d   0     -18.037  -9.329 -16.016  0.00  0.00     0.066 A 
ATOM     23  C   UNK d   0     -17.189  -8.496 -15.301  0.00  0.00     0.062 C 
ATOM     24  C   UNK d   0     -18.657  -9.369 -17.325  0.00  0.00    -0.020 A 
ATOM     25  C   UNK d   0     -16.598  -8.736 -14.051  0.00  0.00     0.041 A 
ATOM     26  N   UNK d   0     -17.076  -9.306 -12.938  0.00  0.00    -0.355 N 
ATOM     27  C   UNK d   0     -15.253  -8.354 -13.855  0.00  0.00    -0.022 A 
ATOM     28  C   UNK d   0     -16.079  -9.304 -12.039  0.00  0.00     0.042 A 
ATOM     29  H   UNK d   0     -18.116  -9.683 -12.779  0.00  0.00     0.166 HD
ATOM     30  C   UNK d   0     -16.025  -9.778 -10.719  0.00  0.00     0.062 C 
ATOM     31  C   UNK d   0     -14.916  -8.710 -12.586  0.00  0.00    -0.013 A 
ATOM     32  C   UNK d   0     -16.578 -10.941 -10.206  0.00  0.00     0.066 A 
BRANCH   8  33
ATOM     33  C   UNK d   0     -17.507 -13.691  -7.949  0.00  0.00     0.151 C 
BRANCH  33  34
ATOM     34  C   UNK d   0     -16.437 -14.699  -7.843  0.00  0.00     0.143 C 
ATOM     35  O   UNK d   0     -16.014 -15.066  -6.738  0.00  0.00    -0.650 OA
BRANCH  34  36
ATOM     36  O   UNK d   0     -15.901 -15.238  -8.990  0.00  0.00    -0.776 OA
ATOM     37  H   UNK d   0     -15.154 -15.945  -8.950  0.00  0.00     0.167 HD
ENDBRANCH  34  36
ENDBRANCH  33  34
ENDBRANCH   8  33
BRANCH  31  38
ATOM     38  C   UNK d   0     -13.569  -8.512 -11.932  0.00  0.00     0.151 C 
BRANCH  38  39
ATOM     39  C   UNK d   0     -13.567  -7.436 -10.964  0.00  0.00     0.143 C 
ATOM     40  O   UNK d   0     -14.271  -6.419 -11.097  0.00  0.00    -0.650 OA
BRANCH  39  41
ATOM     41  O   UNK d   0     -12.753  -7.529  -9.836  0.00  0.00    -0.776 OA
ATOM     42  H   UNK d   0     -12.378  -8.457  -9.612  0.00  0.00     0.167 HD
ENDBRANCH  39  41
ENDBRANCH  38  39
ENDBRANCH  31  38
BRANCH  27  43
ATOM     43  C   UNK d   0     -14.301  -7.677 -14.809  0.00  0.00     0.052 C 
BRANCH  43  44
ATOM     44  C   UNK d   0     -14.083  -6.231 -14.500  0.00  0.00     0.115 C 
BRANCH  44  45
ATOM     45  C   UNK d   0     -15.252  -5.498 -15.053  0.00  0.00     0.139 C 
ATOM     46  O   UNK d   0     -16.011  -4.903 -14.250  0.00  0.00    -0.650 OA
BRANCH  45  47
ATOM     47  O   UNK d   0     -15.528  -5.443 -16.402  0.00  0.00    -0.776 OA
ATOM     48  H   UNK d   0     -15.636  -4.553 -16.915  0.00  0.00     0.167 HD
ENDBRANCH  45  47
ENDBRANCH  44  45
ENDBRANCH  43  44
ENDBRANCH  27  43
BRANCH  24  49
ATOM     49  C   UNK d   0     -18.493  -8.338 -18.365  0.00  0.00     0.052 C 
BRANCH  49  50
ATOM     50  C   UNK d   0     -17.041  -8.204 -18.747  0.00  0.00     0.115 C 
BRANCH  50  51
ATOM     51  C   UNK d   0     -16.497  -9.205 -19.655  0.00  0.00     0.139 C 
ATOM     52  O   UNK d   0     -16.354  -8.997 -20.883  0.00  0.00    -0.650 OA
BRANCH  51  53
ATOM     53  O   UNK d   0     -16.119 -10.445 -19.163  0.00  0.00    -0.776 OA
ATOM     54  H   UNK d   0     -16.162 -10.596 -18.170  0.00  0.00     0.167 HD
ENDBRANCH  51  53
ENDBRANCH  50  51
ENDBRANCH  49  50
ENDBRANCH  24  49
BRANCH  21  55
ATOM     55  C   UNK d   0     -20.126 -10.949 -18.614  0.00  0.00     0.151 C 
BRANCH  55  56
ATOM     56  C   UNK d   0     -19.416 -11.990 -19.373  0.00  0.00     0.143 C 
ATOM     57  O   UNK d   0     -18.568 -11.726 -20.248  0.00  0.00    -0.650 OA
BRANCH  56  58
ATOM     58  O   UNK d   0     -19.718 -13.320 -19.089  0.00  0.00    -0.776 OA
ATOM     59  H   UNK d   0     -19.729 -13.559 -18.081  0.00  0.00     0.167 HD
ENDBRANCH  56  58
ENDBRANCH  55  56
ENDBRANCH  21  55
BRANCH  18  60
ATOM     60  C   UNK d   0     -22.135 -13.708 -14.472  0.00  0.00     0.151 C 
BRANCH  60  61
ATOM     61  C   UNK d   0     -22.954 -12.555 -14.069  0.00  0.00     0.143 C 
ATOM     62  O   UNK d   0     -22.687 -11.363 -14.230  0.00  0.00    -0.650 OA
BRANCH  61  63
ATOM     63  O   UNK d   0     -24.175 -12.876 -13.430  0.00  0.00    -0.776 OA
ATOM     64  H   UNK d   0     -25.047 -12.501 -13.760  0.00  0.00     0.167 HD
ENDBRANCH  61  63
ENDBRANCH  60  61
ENDBRANCH  18  60
BRANCH  14  65
ATOM     65  C   UNK d   0     -21.374 -14.646 -11.687  0.00  0.00     0.052 C 
BRANCH  65  66
ATOM     66  C   UNK d   0     -21.226 -16.119 -11.834  0.00  0.00     0.115 C 
BRANCH  66  67
ATOM     67  C   UNK d   0     -21.774 -16.992 -10.835  0.00  0.00     0.139 C 
ATOM     68  O   UNK d   0     -22.408 -16.471  -9.845  0.00  0.00    -0.650 OA
BRANCH  67  69
ATOM     69  O   UNK d   0     -21.709 -18.384 -10.791  0.00  0.00    -0.776 OA
ATOM     70  H   UNK d   0     -21.122 -18.829 -11.510  0.00  0.00     0.167 HD
ENDBRANCH  67  69
ENDBRANCH  66  67
ENDBRANCH  65  66
ENDBRANCH  14  65
ENDBRANCH   6   7
ENDBRANCH   5   6
ENDBRANCH   2   5
TORSDOF 28
ENDMDL
MODEL 5
REMARK VINA RESULT:      -8.7      1.629      1.991
REMARK  28 active torsions:
REMARK  status: ('A' for Active; 'I' for Inactive)
REMARK    1  A    between atoms: C_2  and  O_3 
REMARK    2  A    between atoms: C_2  and  C_4 
REMARK    3  A    between atoms: C_4  and  C_5 
REMARK    4  A    between atoms: C_5  and  C_6 
REMARK    5  A    between atoms: C_7  and  C_8 
REMARK    6  A    between atoms: C_8  and  C_9 
REMARK    7  A    between atoms: C_9  and  O_11 
REMARK    8  A    between atoms: C_28  and  C_29 
REMARK    9  A    between atoms: C_29  and  C_30 
REMARK   10  A    between atoms: C_30  and  O_32 
REMARK   11  A    between atoms: C_33  and  C_34 
REMARK   12  A    between atoms: C_34  and  C_35 
REMARK   13  A    between atoms: C_35  and  C_36 
REMARK   14  A    between atoms: C_36  and  O_38 
REMARK   15  A    between atoms: C_39  and  C_40 
REMARK   16  A    between atoms: C_40  and  C_41 
REMARK   17  A    between atoms: C_41  and  C_42 
REMARK   18  A    between atoms: C_42  and  O_44 
REMARK   19  A    between atoms: C_45  and  C_46 
REMARK   20  A    between atoms: C_46  and  C_47 
REMARK   21  A    between atoms: C_47  and  O_49 
REMARK   22  A    between atoms: C_50  and  C_51 
REMARK   23  A    between atoms: C_51  and  C_52 
REMARK   24  A    between atoms: C_52  and  O_54 
REMARK   25  A    between atoms: C_55  and  C_56 
REMARK   26  A    between atoms: C_56  and  C_57 
REMARK   27  A    between atoms: C_57  and  C_58 
REMARK   28  A    between atoms: C_58  and  O_60 
ROOT
ATOM      1  O   UNK d   0     -14.150  -6.228  -5.457  0.00  0.00    -0.650 OA
ATOM      2  C   UNK d   0     -14.054  -6.683  -6.619  0.00  0.00     0.139 C 
ENDROOT
BRANCH   2   3
ATOM      3  O   UNK d   0     -13.394  -7.870  -6.824  0.00  0.00    -0.776 OA
ATOM      4  H   UNK d   0     -13.877  -8.766  -6.726  0.00  0.00     0.167 HD
ENDBRANCH   2   3
BRANCH   2   5
ATOM      5  C   UNK d   0     -14.650  -5.940  -7.765  0.00  0.00     0.115 C 
BRANCH   5   6
ATOM      6  C   UNK d   0     -14.118  -6.480  -9.065  0.00  0.00     0.052 C 
BRANCH   6   7
ATOM      7  C   UNK d   0     -15.202  -7.066  -9.937  0.00  0.00    -0.020 A 
ATOM      8  C   UNK d   0     -15.838  -6.482 -10.921  0.00  0.00    -0.011 A 
ATOM      9  C   UNK d   0     -16.797  -7.433 -11.458  0.00  0.00     0.067 A 
ATOM     10  C   UNK d   0     -17.740  -7.442 -12.497  0.00  0.00     0.062 C 
ATOM     11  N   UNK d   0     -16.681  -8.568 -10.738  0.00  0.00    -0.248 NA
ATOM     12  C   UNK d   0     -18.384  -8.556 -13.047  0.00  0.00     0.041 A 
ATOM     13  N   UNK d   0     -18.932  -9.639 -12.465  0.00  0.00    -0.355 N 
ATOM     14  C   UNK d   0     -18.471  -8.670 -14.447  0.00  0.00    -0.022 A 
ATOM     15  C   UNK d   0     -19.358 -10.442 -13.460  0.00  0.00     0.042 A 
ATOM     16  H   UNK d   0     -19.035  -9.824 -11.373  0.00  0.00     0.166 HD
ATOM     17  C   UNK d   0     -20.002 -11.694 -13.411  0.00  0.00     0.062 C 
ATOM     18  C   UNK d   0     -19.085  -9.867 -14.716  0.00  0.00    -0.013 A 
ATOM     19  C   UNK d   0     -19.709 -12.784 -12.632  0.00  0.00     0.067 A 
ATOM     20  N   UNK d   0     -18.831 -12.602 -11.642  0.00  0.00    -0.248 NA
ATOM     21  C   UNK d   0     -20.111 -14.180 -12.596  0.00  0.00    -0.011 A 
ATOM     22  C   UNK d   0     -18.628 -13.779 -10.963  0.00  0.00     0.066 A 
ATOM     23  C   UNK d   0     -17.763 -13.724  -9.880  0.00  0.00     0.062 C 
ATOM     24  C   UNK d   0     -19.472 -14.758 -11.620  0.00  0.00    -0.020 A 
ATOM     25  C   UNK d   0     -17.136 -12.592  -9.336  0.00  0.00     0.041 A 
ATOM     26  N   UNK d   0     -16.577 -11.523  -9.915  0.00  0.00    -0.355 N 
ATOM     27  C   UNK d   0     -17.053 -12.476  -7.932  0.00  0.00    -0.022 A 
ATOM     28  C   UNK d   0     -16.145 -10.725  -8.926  0.00  0.00     0.042 A 
ATOM     29  H   UNK d   0     -16.466 -11.343 -11.013  0.00  0.00     0.166 HD
ATOM     30  C   UNK d   0     -15.494  -9.482  -8.960  0.00  0.00     0.062 C 
ATOM     31  C   UNK d   0     -16.428 -11.298  -7.663  0.00  0.00    -0.013 A 
ATOM     32  C   UNK d   0     -15.738  -8.413  -9.808  0.00  0.00     0.066 A 
BRANCH   8  33
ATOM     33  C   UNK d   0     -15.638  -5.105 -11.410  0.00  0.00     0.151 C 
BRANCH  33  34
ATOM     34  C   UNK d   0     -15.075  -5.059 -12.771  0.00  0.00     0.143 C 
ATOM     35  O   UNK d   0     -15.547  -4.301 -13.630  0.00  0.00    -0.650 OA
BRANCH  34  36
ATOM     36  O   UNK d   0     -14.011  -5.871 -13.090  0.00  0.00    -0.776 OA
ATOM     37  H   UNK d   0     -13.282  -5.563 -13.748  0.00  0.00     0.167 HD
ENDBRANCH  34  36
ENDBRANCH  33  34
ENDBRANCH   8  33
BRANCH  31  38
ATOM     38  C   UNK d   0     -16.129 -10.740  -6.291  0.00  0.00     0.151 C 
BRANCH  38  39
ATOM     39  C   UNK d   0     -16.861  -9.524  -6.007  0.00  0.00     0.143 C 
ATOM     40  O   UNK d   0     -18.056  -9.379  -6.320  0.00  0.00    -0.650 OA
BRANCH  39  41
ATOM     41  O   UNK d   0     -16.217  -8.470  -5.359  0.00  0.00    -0.776 OA
ATOM     42  H   UNK d   0     -15.466  -8.719  -4.709  0.00  0.00     0.167 HD
ENDBRANCH  39  41
ENDBRANCH  38  39
ENDBRANCH  31  38
BRANCH  27  43
ATOM     43  C   UNK d   0     -17.534 -13.425  -6.862  0.00  0.00     0.052 C 
BRANCH  43  44
ATOM     44  C   UNK d   0     -16.748 -14.695  -6.801  0.00  0.00     0.115 C 
BRANCH  44  45
ATOM     45  C   UNK d   0     -17.598 -15.686  -6.092  0.00  0.00     0.139 C 
ATOM     46  O   UNK d   0     -17.331 -15.943  -4.892  0.00  0.00    -0.650 OA
BRANCH  45  47
ATOM     47  O   UNK d   0     -18.662 -16.324  -6.692  0.00  0.00    -0.776 OA
ATOM     48  H   UNK d   0     -18.801 -16.340  -7.715  0.00  0.00     0.167 HD
ENDBRANCH  45  47
ENDBRANCH  44  45
ENDBRANCH  43  44
ENDBRANCH  27  43
BRANCH  24  49
ATOM     49  C   UNK d   0     -19.609 -16.164 -11.203  0.00  0.00     0.052 C 
BRANCH  49  50
ATOM     50  C   UNK d   0     -20.218 -16.246  -9.826  0.00  0.00     0.115 C 
BRANCH  50  51
ATOM     51  C   UNK d   0     -21.668 -16.154  -9.734  0.00  0.00     0.139 C 
ATOM     52  O   UNK d   0     -22.408 -17.165  -9.682  0.00  0.00    -0.650 OA
BRANCH  51  53
ATOM     53  O   UNK d   0     -22.277 -14.909  -9.704  0.00  0.00    -0.776 OA
ATOM     54  H   UNK d   0     -21.691 -14.095  -9.636  0.00  0.00     0.167 HD
ENDBRANCH  51  53
ENDBRANCH  50  51
ENDBRANCH  49  50
ENDBRANCH  24  49
BRANCH  21  55
ATOM     55  C   UNK d   0     -21.096 -14.791 -13.538  0.00  0.00     0.151 C 
BRANCH  55  56
ATOM     56  C   UNK d   0     -22.407 -14.129 -13.470  0.00  0.00     0.143 C 
ATOM     57  O   UNK d   0     -23.147 -14.197 -12.469  0.00  0.00    -0.650 OA
BRANCH  56  58
ATOM     58  O   UNK d   0     -22.824 -13.398 -14.582  0.00  0.00    -0.776 OA
ATOM     59  H   UNK d   0     -22.518 -13.781 -15.494  0.00  0.00     0.167 HD
ENDBRANCH  56  58
ENDBRANCH  55  56
ENDBRANCH  21  55
BRANCH  18  60
ATOM     60  C   UNK d   0     -19.375 -10.399 -16.098  0.00  0.00     0.151 C 
BRANCH  60  61
ATOM     61  C   UNK d   0     -20.805 -10.152 -16.335  0.00  0.00     0.143 C 
ATOM     62  O   UNK d   0     -21.370  -9.059 -16.391  0.00  0.00    -0.650 OA
BRANCH  61  63
ATOM     63  O   UNK d   0     -21.595 -11.313 -16.514  0.00  0.00    -0.776 OA
ATOM     64  H   UNK d   0     -21.471 -12.120 -15.929  0.00  0.00     0.167 HD
ENDBRANCH  61  63
ENDBRANCH  60  61
ENDBRANCH  18  60
BRANCH  14  65
ATOM     65  C   UNK d   0     -18.109  -7.699 -15.534  0.00  0.00     0.052 C 
BRANCH  65  66
ATOM     66  C   UNK d   0     -16.798  -7.997 -16.169  0.00  0.00     0.115 C 
BRANCH  66  67
ATOM     67  C   UNK d   0     -15.599  -7.415 -15.634  0.00  0.00     0.139 C 
ATOM     68  O   UNK d   0     -14.990  -8.029 -14.682  0.00  0.00    -0.650 OA
BRANCH  67  69
ATOM     69  O   UNK d   0     -14.982  -6.226 -16.022  0.00  0.00    -0.776 OA
ATOM     70  H   UNK d   0     -13.981  -6.144 -15.789  0.00  0.00     0.167 HD
ENDBRANCH  67  69
ENDBRANCH  66  67
ENDBRANCH  65  66
ENDBRANCH  14  65
ENDBRANCH   6   7
ENDBRANCH   5   6
ENDBRANCH   2   5
TORSDOF 28
ENDMDL
MODEL 6
REMARK VINA RESULT:      -8.7      2.946      6.241
REMARK  28 active torsions:
REMARK  status: ('A' for Active; 'I' for Inactive)
REMARK    1  A    between atoms: C_2  and  O_3 
REMARK    2  A    between atoms: C_2  and  C_4 
REMARK    3  A    between atoms: C_4  and  C_5 
REMARK    4  A    between atoms: C_5  and  C_6 
REMARK    5  A    between atoms: C_7  and  C_8 
REMARK    6  A    between atoms: C_8  and  C_9 
REMARK    7  A    between atoms: C_9  and  O_11 
REMARK    8  A    between atoms: C_28  and  C_29 
REMARK    9  A    between atoms: C_29  and  C_30 
REMARK   10  A    between atoms: C_30  and  O_32 
REMARK   11  A    between atoms: C_33  and  C_34 
REMARK   12  A    between atoms: C_34  and  C_35 
REMARK   13  A    between atoms: C_35  and  C_36 
REMARK   14  A    between atoms: C_36  and  O_38 
REMARK   15  A    between atoms: C_39  and  C_40 
REMARK   16  A    between atoms: C_40  and  C_41 
REMARK   17  A    between atoms: C_41  and  C_42 
REMARK   18  A    between atoms: C_42  and  O_44 
REMARK   19  A    between atoms: C_45  and  C_46 
REMARK   20  A    between atoms: C_46  and  C_47 
REMARK   21  A    between atoms: C_47  and  O_49 
REMARK   22  A    between atoms: C_50  and  C_51 
REMARK   23  A    between atoms: C_51  and  C_52 
REMARK   24  A    between atoms: C_52  and  O_54 
REMARK   25  A    between atoms: C_55  and  C_56 
REMARK   26  A    between atoms: C_56  and  C_57 
REMARK   27  A    between atoms: C_57  and  C_58 
REMARK   28  A    between atoms: C_58  and  O_60 
ROOT
ATOM      1  O   UNK d   0     -15.646  -3.982 -13.812  0.00  0.00    -0.650 OA
ATOM      2  C   UNK d   0     -15.218  -4.551 -14.841  0.00  0.00     0.139 C 
ENDROOT
BRANCH   2   3
ATOM      3  O   UNK d   0     -13.940  -5.056 -14.850  0.00  0.00    -0.776 OA
ATOM      4  H   UNK d   0     -13.242  -4.737 -14.174  0.00  0.00     0.167 HD
ENDBRANCH   2   3
BRANCH   2   5
ATOM      5  C   UNK d   0     -16.090  -4.679 -16.043  0.00  0.00     0.115 C 
BRANCH   5   6
ATOM      6  C   UNK d   0     -15.691  -5.886 -16.847  0.00  0.00     0.052 C 
BRANCH   6   7
ATOM      7  C   UNK d   0     -16.651  -7.039 -16.679  0.00  0.00    -0.020 A 
ATOM      8  C   UNK d   0     -17.559  -7.452 -17.527  0.00  0.00    -0.011 A 
ATOM      9  C   UNK d   0     -18.245  -8.584 -16.927  0.00  0.00     0.067 A 
ATOM     10  C   UNK d   0     -19.270  -9.465 -17.308  0.00  0.00     0.062 C 
ATOM     11  N   UNK d   0     -17.696  -8.788 -15.712  0.00  0.00    -0.248 NA
ATOM     12  C   UNK d   0     -19.612 -10.679 -16.704  0.00  0.00     0.041 A 
ATOM     13  N   UNK d   0     -19.723 -11.023 -15.407  0.00  0.00    -0.355 N 
ATOM     14  C   UNK d   0     -19.844 -11.803 -17.518  0.00  0.00    -0.022 A 
ATOM     15  C   UNK d   0     -20.012 -12.338 -15.377  0.00  0.00     0.042 A 
ATOM     16  H   UNK d   0     -19.619 -10.346 -14.531  0.00  0.00     0.166 HD
ATOM     17  C   UNK d   0     -20.233 -13.200 -14.284  0.00  0.00     0.062 C 
ATOM     18  C   UNK d   0     -20.096 -12.862 -16.681  0.00  0.00    -0.013 A 
ATOM     19  C   UNK d   0     -19.522 -13.311 -13.116  0.00  0.00     0.067 A 
ATOM     20  N   UNK d   0     -18.618 -12.361 -12.866  0.00  0.00    -0.248 NA
ATOM     21  C   UNK d   0     -19.473 -14.251 -12.009  0.00  0.00    -0.011 A 
ATOM     22  C   UNK d   0     -17.980 -12.612 -11.676  0.00  0.00     0.066 A 
ATOM     23  C   UNK d   0     -17.036 -11.678 -11.273  0.00  0.00     0.062 C 
ATOM     24  C   UNK d   0     -18.565 -13.839 -11.172  0.00  0.00    -0.020 A 
ATOM     25  C   UNK d   0     -16.717 -10.458 -11.888  0.00  0.00     0.041 A 
ATOM     26  N   UNK d   0     -16.591 -10.119 -13.177  0.00  0.00    -0.355 N 
ATOM     27  C   UNK d   0     -16.488  -9.329 -11.071  0.00  0.00    -0.022 A 
ATOM     28  C   UNK d   0     -16.295  -8.810 -13.210  0.00  0.00     0.042 A 
ATOM     29  H   UNK d   0     -16.686 -10.803 -14.056  0.00  0.00     0.166 HD
ATOM     30  C   UNK d   0     -16.063  -7.943 -14.289  0.00  0.00     0.062 C 
ATOM     31  C   UNK d   0     -16.221  -8.283 -11.899  0.00  0.00    -0.013 A 
ATOM     32  C   UNK d   0     -16.730  -7.892 -15.502  0.00  0.00     0.066 A 
BRANCH   8  33
ATOM     33  C   UNK d   0     -17.853  -6.883 -18.855  0.00  0.00     0.151 C 
BRANCH  33  34
ATOM     34  C   UNK d   0     -17.429  -7.762 -19.959  0.00  0.00     0.143 C 
ATOM     35  O   UNK d   0     -18.118  -7.876 -20.983  0.00  0.00    -0.650 OA
BRANCH  34  36
ATOM     36  O   UNK d   0     -16.252  -8.467 -19.848  0.00  0.00    -0.776 OA
ATOM     37  H   UNK d   0     -16.176  -9.436 -20.185  0.00  0.00     0.167 HD
ENDBRANCH  34  36
ENDBRANCH  33  34
ENDBRANCH   8  33
BRANCH  31  38
ATOM     38  C   UNK d   0     -15.927  -6.863 -11.474  0.00  0.00     0.151 C 
BRANCH  38  39
ATOM     39  C   UNK d   0     -14.512  -6.611 -11.300  0.00  0.00     0.143 C 
ATOM     40  O   UNK d   0     -13.765  -6.324 -12.252  0.00  0.00    -0.650 OA
BRANCH  39  41
ATOM     41  O   UNK d   0     -13.953  -6.687 -10.024  0.00  0.00    -0.776 OA
ATOM     42  H   UNK d   0     -14.598  -6.601  -9.232  0.00  0.00     0.167 HD
ENDBRANCH  39  41
ENDBRANCH  38  39
ENDBRANCH  31  38
BRANCH  27  43
ATOM     43  C   UNK d   0     -16.512  -9.215  -9.567  0.00  0.00     0.052 C 
BRANCH  43  44
ATOM     44  C   UNK d   0     -15.234  -9.643  -8.922  0.00  0.00     0.115 C 
BRANCH  44  45
ATOM     45  C   UNK d   0     -15.609 -10.439  -7.724  0.00  0.00     0.139 C 
ATOM     46  O   UNK d   0     -15.952  -9.820  -6.686  0.00  0.00    -0.650 OA
BRANCH  45  47
ATOM     47  O   UNK d   0     -15.601 -11.817  -7.710  0.00  0.00    -0.776 OA
ATOM     48  H   UNK d   0     -15.683 -12.386  -8.568  0.00  0.00     0.167 HD
ENDBRANCH  45  47
ENDBRANCH  44  45
ENDBRANCH  43  44
ENDBRANCH  27  43
BRANCH  24  49
ATOM     49  C   UNK d   0     -18.212 -14.474  -9.890  0.00  0.00     0.052 C 
BRANCH  49  50
ATOM     50  C   UNK d   0     -16.868 -15.149  -9.992  0.00  0.00     0.115 C 
BRANCH  50  51
ATOM     51  C   UNK d   0     -16.283 -15.654  -8.758  0.00  0.00     0.139 C 
ATOM     52  O   UNK d   0     -16.120 -16.878  -8.537  0.00  0.00    -0.650 OA
BRANCH  51  53
ATOM     53  O   UNK d   0     -15.885 -14.764  -7.772  0.00  0.00    -0.776 OA
ATOM     54  H   UNK d   0     -16.594 -14.348  -7.193  0.00  0.00     0.167 HD
ENDBRANCH  51  53
ENDBRANCH  50  51
ENDBRANCH  49  50
ENDBRANCH  24  49
BRANCH  21  55
ATOM     55  C   UNK d   0     -20.340 -15.461 -11.901  0.00  0.00     0.151 C 
BRANCH  55  56
ATOM     56  C   UNK d   0     -21.632 -15.158 -11.266  0.00  0.00     0.143 C 
ATOM     57  O   UNK d   0     -22.698 -15.078 -11.908  0.00  0.00    -0.650 OA
BRANCH  56  58
ATOM     58  O   UNK d   0     -21.646 -14.956  -9.887  0.00  0.00    -0.776 OA
ATOM     59  H   UNK d   0     -22.294 -15.571  -9.362  0.00  0.00     0.167 HD
ENDBRANCH  56  58
ENDBRANCH  55  56
ENDBRANCH  21  55
BRANCH  18  60
ATOM     60  C   UNK d   0     -20.390 -14.270 -17.134  0.00  0.00     0.151 C 
BRANCH  60  61
ATOM     61  C   UNK d   0     -19.250 -14.672 -17.972  0.00  0.00     0.143 C 
ATOM     62  O   UNK d   0     -19.291 -15.298 -19.031  0.00  0.00    -0.650 OA
BRANCH  61  63
ATOM     63  O   UNK d   0     -17.978 -14.284 -17.484  0.00  0.00    -0.776 OA
ATOM     64  H   UNK d   0     -17.739 -14.394 -16.515  0.00  0.00     0.167 HD
ENDBRANCH  61  63
ENDBRANCH  60  61
ENDBRANCH  18  60
BRANCH  14  65
ATOM     65  C   UNK d   0     -19.942 -11.928 -19.012  0.00  0.00     0.052 C 
BRANCH  65  66
ATOM     66  C   UNK d   0     -18.876 -11.180 -19.730  0.00  0.00     0.115 C 
BRANCH  66  67
ATOM     67  C   UNK d   0     -17.540 -11.705 -19.766  0.00  0.00     0.139 C 
ATOM     68  O   UNK d   0     -17.223 -12.513 -20.714  0.00  0.00    -0.650 OA
BRANCH  67  69
ATOM     69  O   UNK d   0     -16.497 -11.446 -18.876  0.00  0.00    -0.776 OA
ATOM     70  H   UNK d   0     -16.743 -10.883 -18.050  0.00  0.00     0.167 HD
ENDBRANCH  67  69
ENDBRANCH  66  67
ENDBRANCH  65  66
ENDBRANCH  14  65
ENDBRANCH   6   7
ENDBRANCH   5   6
ENDBRANCH   2   5
TORSDOF 28
ENDMDL
MODEL 7
REMARK VINA RESULT:      -8.7      3.472     10.759
REMARK  28 active torsions:
REMARK  status: ('A' for Active; 'I' for Inactive)
REMARK    1  A    between atoms: C_2  and  O_3 
REMARK    2  A    between atoms: C_2  and  C_4 
REMARK    3  A    between atoms: C_4  and  C_5 
REMARK    4  A    between atoms: C_5  and  C_6 
REMARK    5  A    between atoms: C_7  and  C_8 
REMARK    6  A    between atoms: C_8  and  C_9 
REMARK    7  A    between atoms: C_9  and  O_11 
REMARK    8  A    between atoms: C_28  and  C_29 
REMARK    9  A    between atoms: C_29  and  C_30 
REMARK   10  A    between atoms: C_30  and  O_32 
REMARK   11  A    between atoms: C_33  and  C_34 
REMARK   12  A    between atoms: C_34  and  C_35 
REMARK   13  A    between atoms: C_35  and  C_36 
REMARK   14  A    between atoms: C_36  and  O_38 
REMARK   15  A    between atoms: C_39  and  C_40 
REMARK   16  A    between atoms: C_40  and  C_41 
REMARK   17  A    between atoms: C_41  and  C_42 
REMARK   18  A    between atoms: C_42  and  O_44 
REMARK   19  A    between atoms: C_45  and  C_46 
REMARK   20  A    between atoms: C_46  and  C_47 
REMARK   21  A    between atoms: C_47  and  O_49 
REMARK   22  A    between atoms: C_50  and  C_51 
REMARK   23  A    between atoms: C_51  and  C_52 
REMARK   24  A    between atoms: C_52  and  O_54 
REMARK   25  A    between atoms: C_55  and  C_56 
REMARK   26  A    between atoms: C_56  and  C_57 
REMARK   27  A    between atoms: C_57  and  C_58 
REMARK   28  A    between atoms: C_58  and  O_60 
ROOT
ATOM      1  O   UNK d   0     -17.710  -6.184 -23.889  0.00  0.00    -0.650 OA
ATOM      2  C   UNK d   0     -17.600  -5.898 -22.676  0.00  0.00     0.139 C 
ENDROOT
BRANCH   2   3
ATOM      3  O   UNK d   0     -16.730  -4.905 -22.294  0.00  0.00    -0.776 OA
ATOM      4  H   UNK d   0     -16.136  -5.013 -21.469  0.00  0.00     0.167 HD
ENDBRANCH   2   3
BRANCH   2   5
ATOM      5  C   UNK d   0     -18.406  -6.631 -21.659  0.00  0.00     0.115 C 
BRANCH   5   6
ATOM      6  C   UNK d   0     -17.606  -7.769 -21.086  0.00  0.00     0.052 C 
BRANCH   6   7
ATOM      7  C   UNK d   0     -18.020  -8.119 -19.677  0.00  0.00    -0.020 A 
ATOM      8  C   UNK d   0     -18.918  -8.995 -19.303  0.00  0.00    -0.011 A 
ATOM      9  C   UNK d   0     -18.978  -8.978 -17.851  0.00  0.00     0.067 A 
ATOM     10  C   UNK d   0     -19.692  -9.668 -16.859  0.00  0.00     0.062 C 
ATOM     11  N   UNK d   0     -18.087  -8.059 -17.424  0.00  0.00    -0.248 NA
ATOM     12  C   UNK d   0     -19.413  -9.712 -15.489  0.00  0.00     0.041 A 
ATOM     13  N   UNK d   0     -19.044  -8.745 -14.628  0.00  0.00    -0.355 N 
ATOM     14  C   UNK d   0     -19.447 -10.953 -14.827  0.00  0.00    -0.022 A 
ATOM     15  C   UNK d   0     -18.836  -9.341 -13.439  0.00  0.00     0.042 A 
ATOM     16  H   UNK d   0     -18.951  -7.659 -14.852  0.00  0.00     0.166 HD
ATOM     17  C   UNK d   0     -18.439  -8.796 -12.201  0.00  0.00     0.062 C 
ATOM     18  C   UNK d   0     -19.078 -10.725 -13.524  0.00  0.00    -0.013 A 
ATOM     19  C   UNK d   0     -17.449  -7.884 -11.938  0.00  0.00     0.067 A 
ATOM     20  N   UNK d   0     -16.902  -7.265 -12.987  0.00  0.00    -0.248 NA
ATOM     21  C   UNK d   0     -16.779  -7.384 -10.749  0.00  0.00    -0.011 A 
ATOM     22  C   UNK d   0     -15.922  -6.399 -12.571  0.00  0.00     0.066 A 
ATOM     23  C   UNK d   0     -15.293  -5.658 -13.562  0.00  0.00     0.062 C 
ATOM     24  C   UNK d   0     -15.883  -6.519 -11.127  0.00  0.00    -0.020 A 
ATOM     25  C   UNK d   0     -15.598  -5.619 -14.931  0.00  0.00     0.041 A 
ATOM     26  N   UNK d   0     -15.950  -6.583 -15.790  0.00  0.00    -0.355 N 
ATOM     27  C   UNK d   0     -15.567  -4.373 -15.594  0.00  0.00    -0.022 A 
ATOM     28  C   UNK d   0     -16.149  -5.992 -16.979  0.00  0.00     0.042 A 
ATOM     29  H   UNK d   0     -16.032  -7.675 -15.566  0.00  0.00     0.166 HD
ATOM     30  C   UNK d   0     -16.534  -6.523 -18.220  0.00  0.00     0.062 C 
ATOM     31  C   UNK d   0     -15.915  -4.600 -16.890  0.00  0.00    -0.013 A 
ATOM     32  C   UNK d   0     -17.477  -7.507 -18.473  0.00  0.00     0.066 A 
BRANCH   8  33
ATOM     33  C   UNK d   0     -19.738  -9.851 -20.180  0.00  0.00     0.151 C 
BRANCH  33  34
ATOM     34  C   UNK d   0     -21.118  -9.356 -20.333  0.00  0.00     0.143 C 
ATOM     35  O   UNK d   0     -22.016  -9.728 -19.565  0.00  0.00    -0.650 OA
BRANCH  34  36
ATOM     36  O   UNK d   0     -21.409  -8.469 -21.344  0.00  0.00    -0.776 OA
ATOM     37  H   UNK d   0     -20.730  -7.755 -21.641  0.00  0.00     0.167 HD
ENDBRANCH  34  36
ENDBRANCH  33  34
ENDBRANCH   8  33
BRANCH  31  38
ATOM     38  C   UNK d   0     -16.033  -3.557 -17.977  0.00  0.00     0.151 C 
BRANCH  38  39
ATOM     39  C   UNK d   0     -17.322  -3.575 -18.635  0.00  0.00     0.143 C 
ATOM     40  O   UNK d   0     -18.389  -3.687 -18.006  0.00  0.00    -0.650 OA
BRANCH  39  41
ATOM     41  O   UNK d   0     -17.385  -3.462 -20.024  0.00  0.00    -0.776 OA
ATOM     42  H   UNK d   0     -16.522  -3.189 -20.504  0.00  0.00     0.167 HD
ENDBRANCH  39  41
ENDBRANCH  38  39
ENDBRANCH  31  38
BRANCH  27  43
ATOM     43  C   UNK d   0     -15.225  -3.007 -15.052  0.00  0.00     0.052 C 
BRANCH  43  44
ATOM     44  C   UNK d   0     -16.401  -2.089 -14.979  0.00  0.00     0.115 C 
BRANCH  44  45
ATOM     45  C   UNK d   0     -16.258  -1.316 -13.717  0.00  0.00     0.139 C 
ATOM     46  O   UNK d   0     -16.436  -0.074 -13.761  0.00  0.00    -0.650 OA
BRANCH  45  47
ATOM     47  O   UNK d   0     -15.946  -1.905 -12.511  0.00  0.00    -0.776 OA
ATOM     48  H   UNK d   0     -16.252  -2.859 -12.258  0.00  0.00     0.167 HD
ENDBRANCH  45  47
ENDBRANCH  44  45
ENDBRANCH  43  44
ENDBRANCH  27  43
BRANCH  24  49
ATOM     49  C   UNK d   0     -15.000  -5.740 -10.242  0.00  0.00     0.052 C 
BRANCH  49  50
ATOM     50  C   UNK d   0     -15.624  -4.406  -9.920  0.00  0.00     0.115 C 
BRANCH  50  51
ATOM     51  C   UNK d   0     -16.084  -4.199  -8.554  0.00  0.00     0.139 C 
ATOM     52  O   UNK d   0     -15.929  -5.055  -7.651  0.00  0.00    -0.650 OA
BRANCH  51  53
ATOM     53  O   UNK d   0     -16.724  -3.016  -8.217  0.00  0.00    -0.776 OA
ATOM     54  H   UNK d   0     -16.233  -2.151  -8.365  0.00  0.00     0.167 HD
ENDBRANCH  51  53
ENDBRANCH  50  51
ENDBRANCH  49  50
ENDBRANCH  24  49
BRANCH  21  55
ATOM     55  C   UNK d   0     -17.106  -7.821  -9.360  0.00  0.00     0.151 C 
BRANCH  55  56
ATOM     56  C   UNK d   0     -16.407  -9.062  -8.992  0.00  0.00     0.143 C 
ATOM     57  O   UNK d   0     -15.177  -9.211  -9.135  0.00  0.00    -0.650 OA
BRANCH  56  58
ATOM     58  O   UNK d   0     -17.167 -10.104  -8.464  0.00  0.00    -0.776 OA
ATOM     59  H   UNK d   0     -16.733 -11.042  -8.538  0.00  0.00     0.167 HD
ENDBRANCH  56  58
ENDBRANCH  55  56
ENDBRANCH  21  55
BRANCH  18  60
ATOM     60  C   UNK d   0     -18.972 -11.787 -12.458  0.00  0.00     0.151 C 
BRANCH  60  61
ATOM     61  C   UNK d   0     -17.557 -11.819 -12.059  0.00  0.00     0.143 C 
ATOM     62  O   UNK d   0     -17.106 -11.728 -10.917  0.00  0.00    -0.650 OA
BRANCH  61  63
ATOM     63  O   UNK d   0     -16.635 -11.971 -13.122  0.00  0.00    -0.776 OA
ATOM     64  H   UNK d   0     -15.650 -12.061 -12.944  0.00  0.00     0.167 HD
ENDBRANCH  61  63
ENDBRANCH  60  61
ENDBRANCH  18  60
BRANCH  14  65
ATOM     65  C   UNK d   0     -19.893 -12.307 -15.303  0.00  0.00     0.052 C 
BRANCH  65  66
ATOM     66  C   UNK d   0     -18.861 -13.007 -16.113  0.00  0.00     0.115 C 
BRANCH  66  67
ATOM     67  C   UNK d   0     -19.145 -13.360 -17.476  0.00  0.00     0.139 C 
ATOM     68  O   UNK d   0     -18.442 -14.284 -18.030  0.00  0.00    -0.650 OA
BRANCH  67  69
ATOM     69  O   UNK d   0     -20.117 -12.815 -18.313  0.00  0.00    -0.776 OA
ATOM     70  H   UNK d   0     -20.047 -11.801 -18.480  0.00  0.00     0.167 HD
ENDBRANCH  67  69
ENDBRANCH  66  67
ENDBRANCH  65  66
ENDBRANCH  14  65
ENDBRANCH   6   7
ENDBRANCH   5   6
ENDBRANCH   2   5
TORSDOF 28
ENDMDL
MODEL 8
REMARK VINA RESULT:      -8.6      4.013      9.687
REMARK  28 active torsions:
REMARK  status: ('A' for Active; 'I' for Inactive)
REMARK    1  A    between atoms: C_2  and  O_3 
REMARK    2  A    between atoms: C_2  and  C_4 
REMARK    3  A    between atoms: C_4  and  C_5 
REMARK    4  A    between atoms: C_5  and  C_6 
REMARK    5  A    between atoms: C_7  and  C_8 
REMARK    6  A    between atoms: C_8  and  C_9 
REMARK    7  A    between atoms: C_9  and  O_11 
REMARK    8  A    between atoms: C_28  and  C_29 
REMARK    9  A    between atoms: C_29  and  C_30 
REMARK   10  A    between atoms: C_30  and  O_32 
REMARK   11  A    between atoms: C_33  and  C_34 
REMARK   12  A    between atoms: C_34  and  C_35 
REMARK   13  A    between atoms: C_35  and  C_36 
REMARK   14  A    between atoms: C_36  and  O_38 
REMARK   15  A    between atoms: C_39  and  C_40 
REMARK   16  A    between atoms: C_40  and  C_41 
REMARK   17  A    between atoms: C_41  and  C_42 
REMARK   18  A    between atoms: C_42  and  O_44 
REMARK   19  A    between atoms: C_45  and  C_46 
REMARK   20  A    between atoms: C_46  and  C_47 
REMARK   21  A    between atoms: C_47  and  O_49 
REMARK   22  A    between atoms: C_50  and  C_51 
REMARK   23  A    between atoms: C_51  and  C_52 
REMARK   24  A    between atoms: C_52  and  O_54 
REMARK   25  A    between atoms: C_55  and  C_56 
REMARK   26  A    between atoms: C_56  and  C_57 
REMARK   27  A    between atoms: C_57  and  C_58 
REMARK   28  A    between atoms: C_58  and  O_60 
ROOT
ATOM      1  O   UNK d   0     -15.660  -7.592  -8.460  0.00  0.00    -0.650 OA
ATOM      2  C   UNK d   0     -16.469  -8.426  -8.926  0.00  0.00     0.139 C 
ENDROOT
BRANCH   2   3
ATOM      3  O   UNK d   0     -17.766  -8.432  -8.473  0.00  0.00    -0.776 OA
ATOM      4  H   UNK d   0     -18.439  -7.732  -8.792  0.00  0.00     0.167 HD
ENDBRANCH   2   3
BRANCH   2   5
ATOM      5  C   UNK d   0     -16.024  -9.402  -9.962  0.00  0.00     0.115 C 
BRANCH   5   6
ATOM      6  C   UNK d   0     -17.205 -10.172 -10.488  0.00  0.00     0.052 C 
BRANCH   6   7
ATOM      7  C   UNK d   0     -17.145 -10.378 -11.982  0.00  0.00    -0.020 A 
ATOM      8  C   UNK d   0     -17.174 -11.513 -12.633  0.00  0.00    -0.011 A 
ATOM      9  C   UNK d   0     -17.082 -11.214 -14.052  0.00  0.00     0.067 A 
ATOM     10  C   UNK d   0     -17.080 -11.954 -15.245  0.00  0.00     0.062 C 
ATOM     11  N   UNK d   0     -16.994  -9.873 -14.175  0.00  0.00    -0.248 NA
ATOM     12  C   UNK d   0     -17.264 -11.468 -16.544  0.00  0.00     0.041 A 
ATOM     13  N   UNK d   0     -16.777 -10.373 -17.158  0.00  0.00    -0.355 N 
ATOM     14  C   UNK d   0     -18.137 -12.152 -17.409  0.00  0.00    -0.022 A 
ATOM     15  C   UNK d   0     -17.324 -10.341 -18.388  0.00  0.00     0.042 A 
ATOM     16  H   UNK d   0     -16.045  -9.649 -16.738  0.00  0.00     0.166 HD
ATOM     17  C   UNK d   0     -17.156  -9.416 -19.438  0.00  0.00     0.062 C 
ATOM     18  C   UNK d   0     -18.183 -11.440 -18.582  0.00  0.00    -0.013 A 
ATOM     19  C   UNK d   0     -17.146  -8.046 -19.387  0.00  0.00     0.067 A 
ATOM     20  N   UNK d   0     -17.088  -7.486 -18.176  0.00  0.00    -0.248 NA
ATOM     21  C   UNK d   0     -17.198  -6.964 -20.356  0.00  0.00    -0.011 A 
ATOM     22  C   UNK d   0     -17.100  -6.117 -18.282  0.00  0.00     0.066 A 
ATOM     23  C   UNK d   0     -17.005  -5.406 -17.095  0.00  0.00     0.062 C 
ATOM     24  C   UNK d   0     -17.175  -5.838 -19.703  0.00  0.00    -0.020 A 
ATOM     25  C   UNK d   0     -16.808  -5.913 -15.802  0.00  0.00     0.041 A 
ATOM     26  N   UNK d   0     -17.304  -6.993 -15.186  0.00  0.00    -0.355 N 
ATOM     27  C   UNK d   0     -15.928  -5.228 -14.935  0.00  0.00    -0.022 A 
ATOM     28  C   UNK d   0     -16.767  -7.022 -13.956  0.00  0.00     0.042 A 
ATOM     29  H   UNK d   0     -18.048  -7.714 -15.606  0.00  0.00     0.166 HD
ATOM     30  C   UNK d   0     -16.932  -7.931 -12.899  0.00  0.00     0.062 C 
ATOM     31  C   UNK d   0     -15.896  -5.924 -13.766  0.00  0.00    -0.013 A 
ATOM     32  C   UNK d   0     -17.027  -9.312 -12.965  0.00  0.00     0.066 A 
BRANCH   8  33
ATOM     33  C   UNK d   0     -17.275 -12.864 -12.052  0.00  0.00     0.151 C 
BRANCH  33  34
ATOM     34  C   UNK d   0     -18.670 -13.316 -11.899  0.00  0.00     0.143 C 
ATOM     35  O   UNK d   0     -19.385 -13.521 -12.890  0.00  0.00    -0.650 OA
BRANCH  34  36
ATOM     36  O   UNK d   0     -19.182 -13.511 -10.637  0.00  0.00    -0.776 OA
ATOM     37  H   UNK d   0     -18.669 -13.205  -9.799  0.00  0.00     0.167 HD
ENDBRANCH  34  36
ENDBRANCH  33  34
ENDBRANCH   8  33
BRANCH  31  38
ATOM     38  C   UNK d   0     -15.078  -5.576 -12.544  0.00  0.00     0.151 C 
BRANCH  38  39
ATOM     39  C   UNK d   0     -13.945  -6.457 -12.358  0.00  0.00     0.143 C 
ATOM     40  O   UNK d   0     -13.731  -7.047 -11.284  0.00  0.00    -0.650 OA
BRANCH  39  41
ATOM     41  O   UNK d   0     -13.054  -6.662 -13.411  0.00  0.00    -0.776 OA
ATOM     42  H   UNK d   0     -12.367  -5.922 -13.585  0.00  0.00     0.167 HD
ENDBRANCH  39  41
ENDBRANCH  38  39
ENDBRANCH  31  38
BRANCH  27  43
ATOM     43  C   UNK d   0     -15.138  -3.965 -15.174  0.00  0.00     0.052 C 
BRANCH  43  44
ATOM     44  C   UNK d   0     -15.942  -2.720 -14.982  0.00  0.00     0.115 C 
BRANCH  44  45
ATOM     45  C   UNK d   0     -15.394  -2.042 -13.779  0.00  0.00     0.139 C 
ATOM     46  O   UNK d   0     -14.260  -1.510 -13.866  0.00  0.00    -0.650 OA
BRANCH  45  47
ATOM     47  O   UNK d   0     -16.078  -1.969 -12.585  0.00  0.00    -0.776 OA
ATOM     48  H   UNK d   0     -15.607  -2.002 -11.667  0.00  0.00     0.167 HD
ENDBRANCH  45  47
ENDBRANCH  44  45
ENDBRANCH  43  44
ENDBRANCH  27  43
BRANCH  24  49
ATOM     49  C   UNK d   0     -17.172  -4.490 -20.296  0.00  0.00     0.052 C 
BRANCH  49  50
ATOM     50  C   UNK d   0     -18.545  -4.141 -20.812  0.00  0.00     0.115 C 
BRANCH  50  51
ATOM     51  C   UNK d   0     -18.624  -3.517 -22.125  0.00  0.00     0.139 C 
ATOM     52  O   UNK d   0     -18.416  -4.149 -23.188  0.00  0.00    -0.650 OA
BRANCH  51  53
ATOM     53  O   UNK d   0     -18.936  -2.170 -22.228  0.00  0.00    -0.776 OA
ATOM     54  H   UNK d   0     -18.555  -1.540 -21.544  0.00  0.00     0.167 HD
ENDBRANCH  51  53
ENDBRANCH  50  51
ENDBRANCH  49  50
ENDBRANCH  24  49
BRANCH  21  55
ATOM     55  C   UNK d   0     -17.261  -7.168 -21.833  0.00  0.00     0.151 C 
BRANCH  55  56
ATOM     56  C   UNK d   0     -18.640  -7.365 -22.305  0.00  0.00     0.143 C 
ATOM     57  O   UNK d   0     -19.594  -7.578 -21.531  0.00  0.00    -0.650 OA
BRANCH  56  58
ATOM     58  O   UNK d   0     -18.871  -7.308 -23.678  0.00  0.00    -0.776 OA
ATOM     59  H   UNK d   0     -19.866  -7.381 -23.956  0.00  0.00     0.167 HD
ENDBRANCH  56  58
ENDBRANCH  55  56
ENDBRANCH  21  55
BRANCH  18  60
ATOM     60  C   UNK d   0     -19.008 -11.813 -19.789  0.00  0.00     0.151 C 
BRANCH  60  61
ATOM     61  C   UNK d   0     -18.208 -12.794 -20.537  0.00  0.00     0.143 C 
ATOM     62  O   UNK d   0     -17.068 -12.641 -20.978  0.00  0.00    -0.650 OA
BRANCH  61  63
ATOM     63  O   UNK d   0     -18.839 -14.042 -20.761  0.00  0.00    -0.776 OA
ATOM     64  H   UNK d   0     -19.063 -14.654 -19.997  0.00  0.00     0.167 HD
ENDBRANCH  61  63
ENDBRANCH  60  61
ENDBRANCH  18  60
BRANCH  14  65
ATOM     65  C   UNK d   0     -18.847 -13.466 -17.249  0.00  0.00     0.052 C 
BRANCH  65  66
ATOM     66  C   UNK d   0     -20.193 -13.329 -16.630  0.00  0.00     0.115 C 
BRANCH  66  67
ATOM     67  C   UNK d   0     -20.917 -14.503 -16.232  0.00  0.00     0.139 C 
ATOM     68  O   UNK d   0     -21.609 -15.127 -17.118  0.00  0.00    -0.650 OA
BRANCH  67  69
ATOM     69  O   UNK d   0     -20.973 -15.082 -14.965  0.00  0.00    -0.776 OA
ATOM     70  H   UNK d   0     -20.139 -14.952 -14.375  0.00  0.00     0.167 HD
ENDBRANCH  67  69
ENDBRANCH  66  67
ENDBRANCH  65  66
ENDBRANCH  14  65
ENDBRANCH   6   7
ENDBRANCH   5   6
ENDBRANCH   2   5
TORSDOF 28
ENDMDL
MODEL 9
REMARK VINA RESULT:      -8.6      3.038      7.992
REMARK  28 active torsions:
REMARK  status: ('A' for Active; 'I' for Inactive)
REMARK    1  A    between atoms: C_2  and  O_3 
REMARK    2  A    between atoms: C_2  and  C_4 
REMARK    3  A    between atoms: C_4  and  C_5 
REMARK    4  A    between atoms: C_5  and  C_6 
REMARK    5  A    between atoms: C_7  and  C_8 
REMARK    6  A    between atoms: C_8  and  C_9 
REMARK    7  A    between atoms: C_9  and  O_11 
REMARK    8  A    between atoms: C_28  and  C_29 
REMARK    9  A    between atoms: C_29  and  C_30 
REMARK   10  A    between atoms: C_30  and  O_32 
REMARK   11  A    between atoms: C_33  and  C_34 
REMARK   12  A    between atoms: C_34  and  C_35 
REMARK   13  A    between atoms: C_35  and  C_36 
REMARK   14  A    between atoms: C_36  and  O_38 
REMARK   15  A    between atoms: C_39  and  C_40 
REMARK   16  A    between atoms: C_40  and  C_41 
REMARK   17  A    between atoms: C_41  and  C_42 
REMARK   18  A    between atoms: C_42  and  O_44 
REMARK   19  A    between atoms: C_45  and  C_46 
REMARK   20  A    between atoms: C_46  and  C_47 
REMARK   21  A    between atoms: C_47  and  O_49 
REMARK   22  A    between atoms: C_50  and  C_51 
REMARK   23  A    between atoms: C_51  and  C_52 
REMARK   24  A    between atoms: C_52  and  O_54 
REMARK   25  A    between atoms: C_55  and  C_56 
REMARK   26  A    between atoms: C_56  and  C_57 
REMARK   27  A    between atoms: C_57  and  C_58 
REMARK   28  A    between atoms: C_58  and  O_60 
ROOT
ATOM      1  O   UNK d   0     -17.830  -8.167 -20.459  0.00  0.00    -0.650 OA
ATOM      2  C   UNK d   0     -17.364  -7.128 -19.941  0.00  0.00     0.139 C 
ENDROOT
BRANCH   2   3
ATOM      3  O   UNK d   0     -17.933  -5.913 -20.239  0.00  0.00    -0.776 OA
ATOM      4  H   UNK d   0     -17.668  -5.068 -19.730  0.00  0.00     0.167 HD
ENDBRANCH   2   3
BRANCH   2   5
ATOM      5  C   UNK d   0     -16.203  -7.212 -19.010  0.00  0.00     0.115 C 
BRANCH   5   6
ATOM      6  C   UNK d   0     -16.498  -6.452 -17.745  0.00  0.00     0.052 C 
BRANCH   6   7
ATOM      7  C   UNK d   0     -16.385  -7.314 -16.510  0.00  0.00    -0.020 A 
ATOM      8  C   UNK d   0     -15.580  -7.149 -15.493  0.00  0.00    -0.011 A 
ATOM      9  C   UNK d   0     -15.825  -8.229 -14.551  0.00  0.00     0.067 A 
ATOM     10  C   UNK d   0     -15.329  -8.609 -13.295  0.00  0.00     0.062 C 
ATOM     11  N   UNK d   0     -16.792  -9.009 -15.079  0.00  0.00    -0.248 NA
ATOM     12  C   UNK d   0     -15.889  -9.535 -12.407  0.00  0.00     0.041 A 
ATOM     13  N   UNK d   0     -16.436 -10.747 -12.619  0.00  0.00    -0.355 N 
ATOM     14  C   UNK d   0     -15.985  -9.199 -11.045  0.00  0.00    -0.022 A 
ATOM     15  C   UNK d   0     -16.884 -11.185 -11.427  0.00  0.00     0.042 A 
ATOM     16  H   UNK d   0     -16.487 -11.290 -13.588  0.00  0.00     0.166 HD
ATOM     17  C   UNK d   0     -17.535 -12.386 -11.082  0.00  0.00     0.062 C 
ATOM     18  C   UNK d   0     -16.620 -10.241 -10.416  0.00  0.00    -0.013 A 
ATOM     19  C   UNK d   0     -18.564 -13.025 -11.724  0.00  0.00     0.067 A 
ATOM     20  N   UNK d   0     -18.884 -12.583 -12.943  0.00  0.00    -0.248 NA
ATOM     21  C   UNK d   0     -19.472 -14.117 -11.414  0.00  0.00    -0.011 A 
ATOM     22  C   UNK d   0     -19.936 -13.305 -13.451  0.00  0.00     0.066 A 
ATOM     23  C   UNK d   0     -20.348 -12.973 -14.733  0.00  0.00     0.062 C 
ATOM     24  C   UNK d   0     -20.275 -14.273 -12.427  0.00  0.00    -0.020 A 
ATOM     25  C   UNK d   0     -19.764 -12.049 -15.613  0.00  0.00     0.041 A 
ATOM     26  N   UNK d   0     -19.234 -10.838 -15.405  0.00  0.00    -0.355 N 
ATOM     27  C   UNK d   0     -19.664 -12.389 -16.980  0.00  0.00    -0.022 A 
ATOM     28  C   UNK d   0     -18.794 -10.395 -16.594  0.00  0.00     0.042 A 
ATOM     29  H   UNK d   0     -19.193 -10.289 -14.433  0.00  0.00     0.166 HD
ATOM     30  C   UNK d   0     -18.154  -9.199 -16.954  0.00  0.00     0.062 C 
ATOM     31  C   UNK d   0     -19.051 -11.349 -17.608  0.00  0.00    -0.013 A 
ATOM     32  C   UNK d   0     -17.172  -8.512 -16.257  0.00  0.00     0.066 A 
BRANCH   8  33
ATOM     33  C   UNK d   0     -14.588  -6.072 -15.314  0.00  0.00     0.151 C 
BRANCH  33  34
ATOM     34  C   UNK d   0     -15.180  -4.838 -14.767  0.00  0.00     0.143 C 
ATOM     35  O   UNK d   0     -16.071  -4.886 -13.907  0.00  0.00    -0.650 OA
BRANCH  34  36
ATOM     36  O   UNK d   0     -14.735  -3.617 -15.220  0.00  0.00    -0.776 OA
ATOM     37  H   UNK d   0     -15.383  -2.830 -15.359  0.00  0.00     0.167 HD
ENDBRANCH  34  36
ENDBRANCH  33  34
ENDBRANCH   8  33
BRANCH  31  38
ATOM     38  C   UNK d   0     -18.715 -11.267 -19.079  0.00  0.00     0.151 C 
BRANCH  38  39
ATOM     39  C   UNK d   0     -17.424 -11.841 -19.393  0.00  0.00     0.143 C 
ATOM     40  O   UNK d   0     -16.512 -11.927 -18.553  0.00  0.00    -0.650 OA
BRANCH  39  41
ATOM     41  O   UNK d   0     -17.182 -12.321 -20.680  0.00  0.00    -0.776 OA
ATOM     42  H   UNK d   0     -17.888 -12.947 -21.080  0.00  0.00     0.167 HD
ENDBRANCH  39  41
ENDBRANCH  38  39
ENDBRANCH  31  38
BRANCH  27  43
ATOM     43  C   UNK d   0     -20.122 -13.637 -17.694  0.00  0.00     0.052 C 
BRANCH  43  44
ATOM     44  C   UNK d   0     -19.008 -14.585 -17.998  0.00  0.00     0.115 C 
BRANCH  44  45
ATOM     45  C   UNK d   0     -19.348 -15.238 -19.289  0.00  0.00     0.139 C 
ATOM     46  O   UNK d   0     -20.001 -16.310 -19.256  0.00  0.00    -0.650 OA
BRANCH  45  47
ATOM     47  O   UNK d   0     -18.982 -14.715 -20.510  0.00  0.00    -0.776 OA
ATOM     48  H   UNK d   0     -19.201 -15.179 -21.407  0.00  0.00     0.167 HD
ENDBRANCH  45  47
ENDBRANCH  44  45
ENDBRANCH  43  44
ENDBRANCH  27  43
BRANCH  24  49
ATOM     49  C   UNK d   0     -21.329 -15.294 -12.551  0.00  0.00     0.052 C 
BRANCH  49  50
ATOM     50  C   UNK d   0     -22.661 -14.726 -12.136  0.00  0.00     0.115 C 
BRANCH  50  51
ATOM     51  C   UNK d   0     -23.109 -15.005 -10.778  0.00  0.00     0.139 C 
ATOM     52  O   UNK d   0     -23.923 -14.270 -10.170  0.00  0.00    -0.650 OA
BRANCH  51  53
ATOM     53  O   UNK d   0     -22.627 -16.121 -10.111  0.00  0.00    -0.776 OA
ATOM     54  H   UNK d   0     -22.210 -15.990  -9.206  0.00  0.00     0.167 HD
ENDBRANCH  51  53
ENDBRANCH  50  51
ENDBRANCH  49  50
ENDBRANCH  24  49
BRANCH  21  55
ATOM     55  C   UNK d   0     -19.440 -14.893 -10.139  0.00  0.00     0.151 C 
BRANCH  55  56
ATOM     56  C   UNK d   0     -18.488 -16.013 -10.199  0.00  0.00     0.143 C 
ATOM     57  O   UNK d   0     -18.778 -17.120 -10.694  0.00  0.00    -0.650 OA
BRANCH  56  58
ATOM     58  O   UNK d   0     -17.212 -15.809  -9.676  0.00  0.00    -0.776 OA
ATOM     59  H   UNK d   0     -17.050 -16.230  -8.743  0.00  0.00     0.167 HD
ENDBRANCH  56  58
ENDBRANCH  55  56
ENDBRANCH  21  55
BRANCH  18  60
ATOM     60  C   UNK d   0     -16.939 -10.297  -8.943  0.00  0.00     0.151 C 
BRANCH  60  61
ATOM     61  C   UNK d   0     -15.776 -10.927  -8.301  0.00  0.00     0.143 C 
ATOM     62  O   UNK d   0     -15.620 -12.125  -8.060  0.00  0.00    -0.650 OA
BRANCH  61  63
ATOM     63  O   UNK d   0     -14.737 -10.039  -7.930  0.00  0.00    -0.776 OA
ATOM     64  H   UNK d   0     -14.608  -9.165  -8.408  0.00  0.00     0.167 HD
ENDBRANCH  61  63
ENDBRANCH  60  61
ENDBRANCH  18  60
BRANCH  14  65
ATOM     65  C   UNK d   0     -15.441  -8.024 -10.283  0.00  0.00     0.052 C 
BRANCH  65  66
ATOM     66  C   UNK d   0     -16.502  -7.098  -9.805  0.00  0.00     0.115 C 
BRANCH  66  67
ATOM     67  C   UNK d   0     -16.407  -6.523  -8.493  0.00  0.00     0.139 C 
ATOM     68  O   UNK d   0     -15.931  -7.243  -7.540  0.00  0.00    -0.650 OA
BRANCH  67  69
ATOM     69  O   UNK d   0     -16.776  -5.238  -8.096  0.00  0.00    -0.776 OA
ATOM     70  H   UNK d   0     -16.001  -4.581  -7.927  0.00  0.00     0.167 HD
ENDBRANCH  67  69
ENDBRANCH  66  67
ENDBRANCH  65  66
ENDBRANCH  14  65
ENDBRANCH   6   7
ENDBRANCH   5   6
ENDBRANCH   2   5
TORSDOF 28
ENDMDL
MODEL 10
REMARK VINA RESULT:      -8.6      3.140      7.441
REMARK  28 active torsions:
REMARK  status: ('A' for Active; 'I' for Inactive)
REMARK    1  A    between atoms: C_2  and  O_3 
REMARK    2  A    between atoms: C_2  and  C_4 
REMARK    3  A    between atoms: C_4  and  C_5 
REMARK    4  A    between atoms: C_5  and  C_6 
REMARK    5  A    between atoms: C_7  and  C_8 
REMARK    6  A    between atoms: C_8  and  C_9 
REMARK    7  A    between atoms: C_9  and  O_11 
REMARK    8  A    between atoms: C_28  and  C_29 
REMARK    9  A    between atoms: C_29  and  C_30 
REMARK   10  A    between atoms: C_30  and  O_32 
REMARK   11  A    between atoms: C_33  and  C_34 
REMARK   12  A    between atoms: C_34  and  C_35 
REMARK   13  A    between atoms: C_35  and  C_36 
REMARK   14  A    between atoms: C_36  and  O_38 
REMARK   15  A    between atoms: C_39  and  C_40 
REMARK   16  A    between atoms: C_40  and  C_41 
REMARK   17  A    between atoms: C_41  and  C_42 
REMARK   18  A    between atoms: C_42  and  O_44 
REMARK   19  A    between atoms: C_45  and  C_46 
REMARK   20  A    between atoms: C_46  and  C_47 
REMARK   21  A    between atoms: C_47  and  O_49 
REMARK   22  A    between atoms: C_50  and  C_51 
REMARK   23  A    between atoms: C_51  and  C_52 
REMARK   24  A    between atoms: C_52  and  O_54 
REMARK   25  A    between atoms: C_55  and  C_56 
REMARK   26  A    between atoms: C_56  and  C_57 
REMARK   27  A    between atoms: C_57  and  C_58 
REMARK   28  A    between atoms: C_58  and  O_60 
ROOT
ATOM      1  O   UNK d   0     -19.073  -5.420 -15.586  0.00  0.00    -0.650 OA
ATOM      2  C   UNK d   0     -17.974  -5.231 -16.154  0.00  0.00     0.139 C 
ENDROOT
BRANCH   2   3
ATOM      3  O   UNK d   0     -17.119  -4.272 -15.666  0.00  0.00    -0.776 OA
ATOM      4  H   UNK d   0     -17.444  -3.563 -15.005  0.00  0.00     0.167 HD
ENDBRANCH   2   3
BRANCH   2   5
ATOM      5  C   UNK d   0     -17.601  -6.040 -17.349  0.00  0.00     0.115 C 
BRANCH   5   6
ATOM      6  C   UNK d   0     -16.251  -6.673 -17.144  0.00  0.00     0.052 C 
BRANCH   6   7
ATOM      7  C   UNK d   0     -16.233  -7.638 -15.983  0.00  0.00    -0.020 A 
ATOM      8  C   UNK d   0     -15.474  -7.591 -14.918  0.00  0.00    -0.011 A 
ATOM      9  C   UNK d   0     -15.806  -8.734 -14.084  0.00  0.00     0.067 A 
ATOM     10  C   UNK d   0     -15.388  -9.237 -12.842  0.00  0.00     0.062 C 
ATOM     11  N   UNK d   0     -16.772  -9.428 -14.722  0.00  0.00    -0.248 NA
ATOM     12  C   UNK d   0     -16.025 -10.210 -12.064  0.00  0.00     0.041 A 
ATOM     13  N   UNK d   0     -16.604 -11.377 -12.404  0.00  0.00    -0.355 N 
ATOM     14  C   UNK d   0     -16.179  -9.984 -10.684  0.00  0.00    -0.022 A 
ATOM     15  C   UNK d   0     -17.128 -11.894 -11.276  0.00  0.00     0.042 A 
ATOM     16  H   UNK d   0     -16.625 -11.836 -13.417  0.00  0.00     0.166 HD
ATOM     17  C   UNK d   0     -17.838 -13.093 -11.065  0.00  0.00     0.062 C 
ATOM     18  C   UNK d   0     -16.881 -11.049 -10.177  0.00  0.00    -0.013 A 
ATOM     19  C   UNK d   0     -18.855 -13.635 -11.808  0.00  0.00     0.067 A 
ATOM     20  N   UNK d   0     -19.097 -13.081 -12.998  0.00  0.00    -0.248 NA
ATOM     21  C   UNK d   0     -19.816 -14.712 -11.634  0.00  0.00    -0.011 A 
ATOM     22  C   UNK d   0     -20.147 -13.715 -13.616  0.00  0.00     0.066 A 
ATOM     23  C   UNK d   0     -20.481 -13.263 -14.883  0.00  0.00     0.062 C 
ATOM     24  C   UNK d   0     -20.572 -14.751 -12.694  0.00  0.00    -0.020 A 
ATOM     25  C   UNK d   0     -19.820 -12.293 -15.653  0.00  0.00     0.041 A 
ATOM     26  N   UNK d   0     -19.258 -11.125 -15.318  0.00  0.00    -0.355 N 
ATOM     27  C   UNK d   0     -19.663 -12.522 -17.037  0.00  0.00    -0.022 A 
ATOM     28  C   UNK d   0     -18.743 -10.603 -16.442  0.00  0.00     0.042 A 
ATOM     29  H   UNK d   0     -19.247 -10.661 -14.301  0.00  0.00     0.166 HD
ATOM     30  C   UNK d   0     -18.043  -9.408 -16.668  0.00  0.00     0.062 C 
ATOM     31  C   UNK d   0     -18.982 -11.458 -17.544  0.00  0.00    -0.013 A 
ATOM     32  C   UNK d   0     -17.074  -8.821 -15.870  0.00  0.00     0.066 A 
BRANCH   8  33
ATOM     33  C   UNK d   0     -14.456  -6.573 -14.601  0.00  0.00     0.151 C 
BRANCH  33  34
ATOM     34  C   UNK d   0     -14.736  -5.857 -13.344  0.00  0.00     0.143 C 
ATOM     35  O   UNK d   0     -14.015  -6.014 -12.348  0.00  0.00    -0.650 OA
BRANCH  34  36
ATOM     36  O   UNK d   0     -15.814  -5.005 -13.277  0.00  0.00    -0.776 OA
ATOM     37  H   UNK d   0     -16.673  -5.269 -12.776  0.00  0.00     0.167 HD
ENDBRANCH  34  36
ENDBRANCH  33  34
ENDBRANCH   8  33
BRANCH  31  38
ATOM     38  C   UNK d   0     -18.569 -11.269 -18.985  0.00  0.00     0.151 C 
BRANCH  38  39
ATOM     39  C   UNK d   0     -17.385 -12.024 -19.335  0.00  0.00     0.143 C 
ATOM     40  O   UNK d   0     -17.223 -12.523 -20.462  0.00  0.00    -0.650 OA
BRANCH  39  41
ATOM     41  O   UNK d   0     -16.382 -12.206 -18.383  0.00  0.00    -0.776 OA
ATOM     42  H   UNK d   0     -16.573 -12.879 -17.634  0.00  0.00     0.167 HD
ENDBRANCH  39  41
ENDBRANCH  38  39
ENDBRANCH  31  38
BRANCH  27  43
ATOM     43  C   UNK d   0     -20.128 -13.687 -17.875  0.00  0.00     0.052 C 
BRANCH  43  44
ATOM     44  C   UNK d   0     -19.108 -14.772 -17.996  0.00  0.00     0.115 C 
BRANCH  44  45
ATOM     45  C   UNK d   0     -19.325 -15.413 -19.319  0.00  0.00     0.139 C 
ATOM     46  O   UNK d   0     -19.501 -16.656 -19.353  0.00  0.00    -0.650 OA
BRANCH  45  47
ATOM     47  O   UNK d   0     -19.348 -14.702 -20.499  0.00  0.00    -0.776 OA
ATOM     48  H   UNK d   0     -19.126 -13.694 -20.551  0.00  0.00     0.167 HD
ENDBRANCH  45  47
ENDBRANCH  44  45
ENDBRANCH  43  44
ENDBRANCH  27  43
BRANCH  24  49
ATOM     49  C   UNK d   0     -21.654 -15.716 -12.954  0.00  0.00     0.052 C 
BRANCH  49  50
ATOM     50  C   UNK d   0     -21.263 -16.654 -14.067  0.00  0.00     0.115 C 
BRANCH  50  51
ATOM     51  C   UNK d   0     -20.726 -17.953 -13.684  0.00  0.00     0.139 C 
ATOM     52  O   UNK d   0     -20.346 -18.802 -14.524  0.00  0.00    -0.650 OA
BRANCH  51  53
ATOM     53  O   UNK d   0     -20.624 -18.284 -12.341  0.00  0.00    -0.776 OA
ATOM     54  H   UNK d   0     -21.471 -18.376 -11.809  0.00  0.00     0.167 HD
ENDBRANCH  51  53
ENDBRANCH  50  51
ENDBRANCH  49  50
ENDBRANCH  24  49
BRANCH  21  55
ATOM     55  C   UNK d   0     -19.877 -15.591 -10.430  0.00  0.00     0.151 C 
BRANCH  55  56
ATOM     56  C   UNK d   0     -21.256 -15.789  -9.960  0.00  0.00     0.143 C 
ATOM     57  O   UNK d   0     -21.811 -16.905  -9.946  0.00  0.00    -0.650 OA
BRANCH  56  58
ATOM     58  O   UNK d   0     -21.957 -14.669  -9.515  0.00  0.00    -0.776 OA
ATOM     59  H   UNK d   0     -22.003 -14.564  -8.485  0.00  0.00     0.167 HD
ENDBRANCH  56  58
ENDBRANCH  55  56
ENDBRANCH  21  55
BRANCH  18  60
ATOM     60  C   UNK d   0     -17.277 -11.214  -8.730  0.00  0.00     0.151 C 
BRANCH  60  61
ATOM     61  C   UNK d   0     -16.227 -12.040  -8.116  0.00  0.00     0.143 C 
ATOM     62  O   UNK d   0     -16.159 -13.270  -8.110  0.00  0.00    -0.650 OA
BRANCH  61  63
ATOM     63  O   UNK d   0     -15.195 -11.320  -7.469  0.00  0.00    -0.776 OA
ATOM     64  H   UNK d   0     -14.544 -11.782  -6.859  0.00  0.00     0.167 HD
ENDBRANCH  61  63
ENDBRANCH  60  61
ENDBRANCH  18  60
BRANCH  14  65
ATOM     65  C   UNK d   0     -15.632  -8.899  -9.800  0.00  0.00     0.052 C 
BRANCH  65  66
ATOM     66  C   UNK d   0     -16.631  -7.841  -9.493  0.00  0.00     0.115 C 
BRANCH  66  67
ATOM     67  C   UNK d   0     -16.756  -6.706 -10.363  0.00  0.00     0.139 C 
ATOM     68  O   UNK d   0     -17.502  -6.811 -11.405  0.00  0.00    -0.650 OA
BRANCH  67  69
ATOM     69  O   UNK d   0     -16.153  -5.455 -10.227  0.00  0.00    -0.776 OA
ATOM     70  H   UNK d   0     -16.534  -4.707 -10.824  0.00  0.00     0.167 HD
ENDBRANCH  67  69
ENDBRANCH  66  67
ENDBRANCH  65  66
ENDBRANCH  14  65
ENDBRANCH   6   7
ENDBRANCH   5   6
ENDBRANCH   2   5
TORSDOF 28
ENDMDL
MODEL 11
REMARK VINA RESULT:      -8.6      2.935      8.690
REMARK  28 active torsions:
REMARK  status: ('A' for Active; 'I' for Inactive)
REMARK    1  A    between atoms: C_2  and  O_3 
REMARK    2  A    between atoms: C_2  and  C_4 
REMARK    3  A    between atoms: C_4  and  C_5 
REMARK    4  A    between atoms: C_5  and  C_6 
REMARK    5  A    between atoms: C_7  and  C_8 
REMARK    6  A    between atoms: C_8  and  C_9 
REMARK    7  A    between atoms: C_9  and  O_11 
REMARK    8  A    between atoms: C_28  and  C_29 
REMARK    9  A    between atoms: C_29  and  C_30 
REMARK   10  A    between atoms: C_30  and  O_32 
REMARK   11  A    between atoms: C_33  and  C_34 
REMARK   12  A    between atoms: C_34  and  C_35 
REMARK   13  A    between atoms: C_35  and  C_36 
REMARK   14  A    between atoms: C_36  and  O_38 
REMARK   15  A    between atoms: C_39  and  C_40 
REMARK   16  A    between atoms: C_40  and  C_41 
REMARK   17  A    between atoms: C_41  and  C_42 
REMARK   18  A    between atoms: C_42  and  O_44 
REMARK   19  A    between atoms: C_45  and  C_46 
REMARK   20  A    between atoms: C_46  and  C_47 
REMARK   21  A    between atoms: C_47  and  O_49 
REMARK   22  A    between atoms: C_50  and  C_51 
REMARK   23  A    between atoms: C_51  and  C_52 
REMARK   24  A    between atoms: C_52  and  O_54 
REMARK   25  A    between atoms: C_55  and  C_56 
REMARK   26  A    between atoms: C_56  and  C_57 
REMARK   27  A    between atoms: C_57  and  C_58 
REMARK   28  A    between atoms: C_58  and  O_60 
ROOT
ATOM      1  O   UNK d   0     -13.875  -6.375  -7.555  0.00  0.00    -0.650 OA
ATOM      2  C   UNK d   0     -13.430  -6.496  -8.718  0.00  0.00     0.139 C 
ENDROOT
BRANCH   2   3
ATOM      3  O   UNK d   0     -12.175  -7.022  -8.907  0.00  0.00    -0.776 OA
ATOM      4  H   UNK d   0     -12.037  -7.878  -9.448  0.00  0.00     0.167 HD
ENDBRANCH   2   3
BRANCH   2   5
ATOM      5  C   UNK d   0     -14.257  -6.073  -9.884  0.00  0.00     0.115 C 
BRANCH   5   6
ATOM      6  C   UNK d   0     -15.687  -6.499  -9.686  0.00  0.00     0.052 C 
BRANCH   6   7
ATOM      7  C   UNK d   0     -16.074  -7.662 -10.568  0.00  0.00    -0.020 A 
ATOM      8  C   UNK d   0     -16.136  -8.927 -10.240  0.00  0.00    -0.011 A 
ATOM      9  C   UNK d   0     -16.546  -9.673 -11.418  0.00  0.00     0.067 A 
ATOM     10  C   UNK d   0     -16.811 -11.017 -11.724  0.00  0.00     0.062 C 
ATOM     11  N   UNK d   0     -16.706  -8.783 -12.420  0.00  0.00    -0.248 NA
ATOM     12  C   UNK d   0     -17.469 -11.514 -12.854  0.00  0.00     0.041 A 
ATOM     13  N   UNK d   0     -17.373 -11.180 -14.155  0.00  0.00    -0.355 N 
ATOM     14  C   UNK d   0     -18.458 -12.501 -12.686  0.00  0.00    -0.022 A 
ATOM     15  C   UNK d   0     -18.281 -11.923 -14.815  0.00  0.00     0.042 A 
ATOM     16  H   UNK d   0     -16.665 -10.447 -14.599  0.00  0.00     0.166 HD
ATOM     17  C   UNK d   0     -18.598 -11.971 -16.188  0.00  0.00     0.062 C 
ATOM     18  C   UNK d   0     -18.981 -12.764 -13.928  0.00  0.00    -0.013 A 
ATOM     19  C   UNK d   0     -18.779 -10.935 -17.068  0.00  0.00     0.067 A 
ATOM     20  N   UNK d   0     -18.425  -9.717 -16.649  0.00  0.00    -0.248 NA
ATOM     21  C   UNK d   0     -19.299 -10.789 -18.417  0.00  0.00    -0.011 A 
ATOM     22  C   UNK d   0     -18.677  -8.785 -17.626  0.00  0.00     0.066 A 
ATOM     23  C   UNK d   0     -18.320  -7.476 -17.336  0.00  0.00     0.062 C 
ATOM     24  C   UNK d   0     -19.241  -9.528 -18.736  0.00  0.00    -0.020 A 
ATOM     25  C   UNK d   0     -17.648  -6.999 -16.201  0.00  0.00     0.041 A 
ATOM     26  N   UNK d   0     -17.753  -7.321 -14.906  0.00  0.00    -0.355 N 
ATOM     27  C   UNK d   0     -16.653  -6.012 -16.370  0.00  0.00    -0.022 A 
ATOM     28  C   UNK d   0     -16.855  -6.575 -14.244  0.00  0.00     0.042 A 
ATOM     29  H   UNK d   0     -18.473  -8.050 -14.459  0.00  0.00     0.166 HD
ATOM     30  C   UNK d   0     -16.536  -6.510 -12.878  0.00  0.00     0.062 C 
ATOM     31  C   UNK d   0     -16.146  -5.738 -15.137  0.00  0.00    -0.013 A 
ATOM     32  C   UNK d   0     -16.438  -7.555 -11.973  0.00  0.00     0.066 A 
BRANCH   8  33
ATOM     33  C   UNK d   0     -15.841  -9.514  -8.919  0.00  0.00     0.151 C 
BRANCH  33  34
ATOM     34  C   UNK d   0     -17.059  -9.831  -8.152  0.00  0.00     0.143 C 
ATOM     35  O   UNK d   0     -17.287 -10.988  -7.769  0.00  0.00    -0.650 OA
BRANCH  34  36
ATOM     36  O   UNK d   0     -17.954  -8.828  -7.859  0.00  0.00    -0.776 OA
ATOM     37  H   UNK d   0     -18.932  -9.038  -7.620  0.00  0.00     0.167 HD
ENDBRANCH  34  36
ENDBRANCH  33  34
ENDBRANCH   8  33
BRANCH  31  38
ATOM     38  C   UNK d   0     -15.044  -4.752 -14.825  0.00  0.00     0.151 C 
BRANCH  38  39
ATOM     39  C   UNK d   0     -15.545  -3.499 -14.300  0.00  0.00     0.143 C 
ATOM     40  O   UNK d   0     -16.119  -2.660 -15.015  0.00  0.00    -0.650 OA
BRANCH  39  41
ATOM     41  O   UNK d   0     -15.385  -3.211 -12.944  0.00  0.00    -0.776 OA
ATOM     42  H   UNK d   0     -15.705  -3.923 -12.280  0.00  0.00     0.167 HD
ENDBRANCH  39  41
ENDBRANCH  38  39
ENDBRANCH  31  38
BRANCH  27  43
ATOM     43  C   UNK d   0     -16.180  -5.335 -17.632  0.00  0.00     0.052 C 
BRANCH  43  44
ATOM     44  C   UNK d   0     -16.780  -3.982 -17.837  0.00  0.00     0.115 C 
BRANCH  44  45
ATOM     45  C   UNK d   0     -17.302  -3.955 -19.229  0.00  0.00     0.139 C 
ATOM     46  O   UNK d   0     -18.293  -3.225 -19.475  0.00  0.00    -0.650 OA
BRANCH  45  47
ATOM     47  O   UNK d   0     -16.741  -4.690 -20.251  0.00  0.00    -0.776 OA
ATOM     48  H   UNK d   0     -17.273  -4.986 -21.086  0.00  0.00     0.167 HD
ENDBRANCH  45  47
ENDBRANCH  44  45
ENDBRANCH  43  44
ENDBRANCH  27  43
BRANCH  24  49
ATOM     49  C   UNK d   0     -19.631  -8.940 -20.029  0.00  0.00     0.052 C 
BRANCH  49  50
ATOM     50  C   UNK d   0     -18.622  -7.907 -20.462  0.00  0.00     0.115 C 
BRANCH  50  51
ATOM     51  C   UNK d   0     -18.994  -7.039 -21.571  0.00  0.00     0.139 C 
ATOM     52  O   UNK d   0     -19.378  -5.857 -21.405  0.00  0.00    -0.650 OA
BRANCH  51  53
ATOM     53  O   UNK d   0     -18.931  -7.519 -22.870  0.00  0.00    -0.776 OA
ATOM     54  H   UNK d   0     -18.891  -6.853 -23.621  0.00  0.00     0.167 HD
ENDBRANCH  51  53
ENDBRANCH  50  51
ENDBRANCH  49  50
ENDBRANCH  24  49
BRANCH  21  55
ATOM     55  C   UNK d   0     -19.796 -11.925 -19.248  0.00  0.00     0.151 C 
BRANCH  55  56
ATOM     56  C   UNK d   0     -18.723 -12.532 -20.050  0.00  0.00     0.143 C 
ATOM     57  O   UNK d   0     -17.575 -12.050 -20.117  0.00  0.00    -0.650 OA
BRANCH  56  58
ATOM     58  O   UNK d   0     -19.021 -13.696 -20.757  0.00  0.00    -0.776 OA
ATOM     59  H   UNK d   0     -18.490 -13.818 -21.638  0.00  0.00     0.167 HD
ENDBRANCH  56  58
ENDBRANCH  55  56
ENDBRANCH  21  55
BRANCH  18  60
ATOM     60  C   UNK d   0     -20.080 -13.758 -14.211  0.00  0.00     0.151 C 
BRANCH  60  61
ATOM     61  C   UNK d   0     -21.341 -13.060 -13.917  0.00  0.00     0.143 C 
ATOM     62  O   UNK d   0     -21.660 -11.924 -14.269  0.00  0.00    -0.650 OA
BRANCH  61  63
ATOM     63  O   UNK d   0     -22.271 -13.797 -13.146  0.00  0.00    -0.776 OA
ATOM     64  H   UNK d   0     -21.967 -14.391 -12.395  0.00  0.00     0.167 HD
ENDBRANCH  61  63
ENDBRANCH  60  61
ENDBRANCH  18  60
BRANCH  14  65
ATOM     65  C   UNK d   0     -18.872 -13.277 -11.468  0.00  0.00     0.052 C 
BRANCH  65  66
ATOM     66  C   UNK d   0     -17.862 -14.285 -11.049  0.00  0.00     0.115 C 
BRANCH  66  67
ATOM     67  C   UNK d   0     -17.474 -14.373  -9.669  0.00  0.00     0.139 C 
ATOM     68  O   UNK d   0     -16.630 -15.280  -9.325  0.00  0.00    -0.650 OA
BRANCH  67  69
ATOM     69  O   UNK d   0     -17.907 -13.577  -8.609  0.00  0.00    -0.776 OA
ATOM     70  H   UNK d   0     -17.316 -13.594  -7.766  0.00  0.00     0.167 HD
ENDBRANCH  67  69
ENDBRANCH  66  67
ENDBRANCH  65  66
ENDBRANCH  14  65
ENDBRANCH   6   7
ENDBRANCH   5   6
ENDBRANCH   2   5
TORSDOF 28
ENDMDL
MODEL 12
REMARK VINA RESULT:      -8.5      3.040      8.571
REMARK  28 active torsions:
REMARK  status: ('A' for Active; 'I' for Inactive)
REMARK    1  A    between atoms: C_2  and  O_3 
REMARK    2  A    between atoms: C_2  and  C_4 
REMARK    3  A    between atoms: C_4  and  C_5 
REMARK    4  A    between atoms: C_5  and  C_6 
REMARK    5  A    between atoms: C_7  and  C_8 
REMARK    6  A    between atoms: C_8  and  C_9 
REMARK    7  A    between atoms: C_9  and  O_11 
REMARK    8  A    between atoms: C_28  and  C_29 
REMARK    9  A    between atoms: C_29  and  C_30 
REMARK   10  A    between atoms: C_30  and  O_32 
REMARK   11  A    between atoms: C_33  and  C_34 
REMARK   12  A    between atoms: C_34  and  C_35 
REMARK   13  A    between atoms: C_35  and  C_36 
REMARK   14  A    between atoms: C_36  and  O_38 
REMARK   15  A    between atoms: C_39  and  C_40 
REMARK   16  A    between atoms: C_40  and  C_41 
REMARK   17  A    between atoms: C_41  and  C_42 
REMARK   18  A    between atoms: C_42  and  O_44 
REMARK   19  A    between atoms: C_45  and  C_46 
REMARK   20  A    between atoms: C_46  and  C_47 
REMARK   21  A    between atoms: C_47  and  O_49 
REMARK   22  A    between atoms: C_50  and  C_51 
REMARK   23  A    between atoms: C_51  and  C_52 
REMARK   24  A    between atoms: C_52  and  O_54 
REMARK   25  A    between atoms: C_55  and  C_56 
REMARK   26  A    between atoms: C_56  and  C_57 
REMARK   27  A    between atoms: C_57  and  C_58 
REMARK   28  A    between atoms: C_58  and  O_60 
ROOT
ATOM      1  O   UNK d   0     -20.542 -17.428 -16.722  0.00  0.00    -0.650 OA
ATOM      2  C   UNK d   0     -20.918 -16.299 -16.336  0.00  0.00     0.139 C 
ENDROOT
BRANCH   2   3
ATOM      3  O   UNK d   0     -21.008 -16.043 -14.989  0.00  0.00    -0.776 OA
ATOM      4  H   UNK d   0     -21.888 -16.169 -14.485  0.00  0.00     0.167 HD
ENDBRANCH   2   3
BRANCH   2   5
ATOM      5  C   UNK d   0     -21.266 -15.246 -17.331  0.00  0.00     0.115 C 
BRANCH   5   6
ATOM      6  C   UNK d   0     -21.595 -13.957 -16.627  0.00  0.00     0.052 C 
BRANCH   6   7
ATOM      7  C   UNK d   0     -20.395 -13.053 -16.478  0.00  0.00    -0.020 A 
ATOM      8  C   UNK d   0     -19.766 -12.399 -17.421  0.00  0.00    -0.011 A 
ATOM      9  C   UNK d   0     -18.671 -11.671 -16.803  0.00  0.00     0.067 A 
ATOM     10  C   UNK d   0     -17.665 -10.794 -17.238  0.00  0.00     0.062 C 
ATOM     11  N   UNK d   0     -18.703 -11.944 -15.482  0.00  0.00    -0.248 NA
ATOM     12  C   UNK d   0     -16.862  -9.966 -16.446  0.00  0.00     0.041 A 
ATOM     13  N   UNK d   0     -16.233 -10.196 -15.278  0.00  0.00    -0.355 N 
ATOM     14  C   UNK d   0     -16.669  -8.628 -16.837  0.00  0.00    -0.022 A 
ATOM     15  C   UNK d   0     -15.653  -9.037 -14.914  0.00  0.00     0.042 A 
ATOM     16  H   UNK d   0     -16.184 -11.163 -14.731  0.00  0.00     0.166 HD
ATOM     17  C   UNK d   0     -14.874  -8.721 -13.783  0.00  0.00     0.062 C 
ATOM     18  C   UNK d   0     -15.905  -8.031 -15.866  0.00  0.00    -0.013 A 
ATOM     19  C   UNK d   0     -15.091  -9.046 -12.468  0.00  0.00     0.067 A 
ATOM     20  N   UNK d   0     -16.048  -9.942 -12.217  0.00  0.00    -0.248 NA
ATOM     21  C   UNK d   0     -14.534  -8.644 -11.187  0.00  0.00    -0.011 A 
ATOM     22  C   UNK d   0     -16.160 -10.154 -10.864  0.00  0.00     0.066 A 
ATOM     23  C   UNK d   0     -17.097 -11.095 -10.463  0.00  0.00     0.062 C 
ATOM     24  C   UNK d   0     -15.167  -9.293 -10.252  0.00  0.00    -0.020 A 
ATOM     25  C   UNK d   0     -17.884 -11.926 -11.275  0.00  0.00     0.041 A 
ATOM     26  N   UNK d   0     -18.522 -11.693 -12.429  0.00  0.00    -0.355 N 
ATOM     27  C   UNK d   0     -18.074 -13.269 -10.884  0.00  0.00    -0.022 A 
ATOM     28  C   UNK d   0     -19.109 -12.845 -12.790  0.00  0.00     0.042 A 
ATOM     29  H   UNK d   0     -18.579 -10.718 -12.971  0.00  0.00     0.166 HD
ATOM     30  C   UNK d   0     -19.894 -13.171 -13.907  0.00  0.00     0.062 C 
ATOM     31  C   UNK d   0     -18.846 -13.859 -11.837  0.00  0.00    -0.013 A 
ATOM     32  C   UNK d   0     -19.718 -12.769 -15.221  0.00  0.00     0.066 A 
BRANCH   8  33
ATOM     33  C   UNK d   0     -20.090 -12.392 -18.860  0.00  0.00     0.151 C 
BRANCH  33  34
ATOM     34  C   UNK d   0     -19.069 -13.072 -19.677  0.00  0.00     0.143 C 
ATOM     35  O   UNK d   0     -18.914 -14.300 -19.610  0.00  0.00    -0.650 OA
BRANCH  34  36
ATOM     36  O   UNK d   0     -18.278 -12.330 -20.524  0.00  0.00    -0.776 OA
ATOM     37  H   UNK d   0     -18.398 -11.312 -20.612  0.00  0.00     0.167 HD
ENDBRANCH  34  36
ENDBRANCH  33  34
ENDBRANCH   8  33
BRANCH  31  38
ATOM     38  C   UNK d   0     -19.299 -15.300 -11.852  0.00  0.00     0.151 C 
BRANCH  38  39
ATOM     39  C   UNK d   0     -20.658 -15.467 -11.382  0.00  0.00     0.143 C 
ATOM     40  O   UNK d   0     -21.116 -14.816 -10.426  0.00  0.00    -0.650 OA
BRANCH  39  41
ATOM     41  O   UNK d   0     -21.495 -16.386 -12.014  0.00  0.00    -0.776 OA
ATOM     42  H   UNK d   0     -22.504 -16.230 -11.923  0.00  0.00     0.167 HD
ENDBRANCH  39  41
ENDBRANCH  38  39
ENDBRANCH  31  38
BRANCH  27  43
ATOM     43  C   UNK d   0     -17.560 -13.994  -9.665  0.00  0.00     0.052 C 
BRANCH  43  44
ATOM     44  C   UNK d   0     -16.521 -15.021  -9.983  0.00  0.00     0.115 C 
BRANCH  44  45
ATOM     45  C   UNK d   0     -16.140 -15.651  -8.692  0.00  0.00     0.139 C 
ATOM     46  O   UNK d   0     -16.154 -16.905  -8.619  0.00  0.00    -0.650 OA
BRANCH  45  47
ATOM     47  O   UNK d   0     -15.769 -14.920  -7.584  0.00  0.00    -0.776 OA
ATOM     48  H   UNK d   0     -15.332 -15.348  -6.752  0.00  0.00     0.167 HD
ENDBRANCH  45  47
ENDBRANCH  44  45
ENDBRANCH  43  44
ENDBRANCH  27  43
BRANCH  24  49
ATOM     49  C   UNK d   0     -14.897  -9.216  -8.806  0.00  0.00     0.052 C 
BRANCH  49  50
ATOM     50  C   UNK d   0     -15.811  -8.210  -8.155  0.00  0.00     0.115 C 
BRANCH  50  51
ATOM     51  C   UNK d   0     -15.244  -7.384  -7.097  0.00  0.00     0.139 C 
ATOM     52  O   UNK d   0     -14.088  -6.903  -7.161  0.00  0.00    -0.650 OA
BRANCH  51  53
ATOM     53  O   UNK d   0     -15.995  -7.110  -5.964  0.00  0.00    -0.776 OA
ATOM     54  H   UNK d   0     -16.048  -7.813  -5.247  0.00  0.00     0.167 HD
ENDBRANCH  51  53
ENDBRANCH  50  51
ENDBRANCH  49  50
ENDBRANCH  24  49
BRANCH  21  55
ATOM     55  C   UNK d   0     -13.426  -7.657 -11.031  0.00  0.00     0.151 C 
BRANCH  55  56
ATOM     56  C   UNK d   0     -13.924  -6.274 -10.965  0.00  0.00     0.143 C 
ATOM     57  O   UNK d   0     -14.436  -5.694 -11.943  0.00  0.00    -0.650 OA
BRANCH  56  58
ATOM     58  O   UNK d   0     -13.810  -5.600  -9.750  0.00  0.00    -0.776 OA
ATOM     59  H   UNK d   0     -12.933  -5.784  -9.230  0.00  0.00     0.167 HD
ENDBRANCH  56  58
ENDBRANCH  55  56
ENDBRANCH  21  55
BRANCH  18  60
ATOM     60  C   UNK d   0     -15.464  -6.588 -15.880  0.00  0.00     0.151 C 
BRANCH  60  61
ATOM     61  C   UNK d   0     -16.559  -5.826 -15.261  0.00  0.00     0.143 C 
ATOM     62  O   UNK d   0     -17.490  -5.263 -15.837  0.00  0.00    -0.650 OA
BRANCH  61  63
ATOM     63  O   UNK d   0     -16.515  -5.746 -13.848  0.00  0.00    -0.776 OA
ATOM     64  H   UNK d   0     -16.186  -6.518 -13.295  0.00  0.00     0.167 HD
ENDBRANCH  61  63
ENDBRANCH  60  61
ENDBRANCH  18  60
BRANCH  14  65
ATOM     65  C   UNK d   0     -17.066  -7.907 -18.094  0.00  0.00     0.052 C 
BRANCH  65  66
ATOM     66  C   UNK d   0     -15.962  -7.819 -19.087  0.00  0.00     0.115 C 
BRANCH  66  67
ATOM     67  C   UNK d   0     -15.939  -8.719 -20.206  0.00  0.00     0.139 C 
ATOM     68  O   UNK d   0     -15.414  -8.314 -21.308  0.00  0.00    -0.650 OA
BRANCH  67  69
ATOM     69  O   UNK d   0     -16.427 -10.024 -20.262  0.00  0.00    -0.776 OA
ATOM     70  H   UNK d   0     -15.939 -10.711 -19.669  0.00  0.00     0.167 HD
ENDBRANCH  67  69
ENDBRANCH  66  67
ENDBRANCH  65  66
ENDBRANCH  14  65
ENDBRANCH   6   7
ENDBRANCH   5   6
ENDBRANCH   2   5
TORSDOF 28
ENDMDL
MODEL 13
REMARK VINA RESULT:      -8.5      1.690      2.012
REMARK  28 active torsions:
REMARK  status: ('A' for Active; 'I' for Inactive)
REMARK    1  A    between atoms: C_2  and  O_3 
REMARK    2  A    between atoms: C_2  and  C_4 
REMARK    3  A    between atoms: C_4  and  C_5 
REMARK    4  A    between atoms: C_5  and  C_6 
REMARK    5  A    between atoms: C_7  and  C_8 
REMARK    6  A    between atoms: C_8  and  C_9 
REMARK    7  A    between atoms: C_9  and  O_11 
REMARK    8  A    between atoms: C_28  and  C_29 
REMARK    9  A    between atoms: C_29  and  C_30 
REMARK   10  A    between atoms: C_30  and  O_32 
REMARK   11  A    between atoms: C_33  and  C_34 
REMARK   12  A    between atoms: C_34  and  C_35 
REMARK   13  A    between atoms: C_35  and  C_36 
REMARK   14  A    between atoms: C_36  and  O_38 
REMARK   15  A    between atoms: C_39  and  C_40 
REMARK   16  A    between atoms: C_40  and  C_41 
REMARK   17  A    between atoms: C_41  and  C_42 
REMARK   18  A    between atoms: C_42  and  O_44 
REMARK   19  A    between atoms: C_45  and  C_46 
REMARK   20  A    between atoms: C_46  and  C_47 
REMARK   21  A    between atoms: C_47  and  O_49 
REMARK   22  A    between atoms: C_50  and  C_51 
REMARK   23  A    between atoms: C_51  and  C_52 
REMARK   24  A    between atoms: C_52  and  O_54 
REMARK   25  A    between atoms: C_55  and  C_56 
REMARK   26  A    between atoms: C_56  and  C_57 
REMARK   27  A    between atoms: C_57  and  C_58 
REMARK   28  A    between atoms: C_58  and  O_60 
ROOT
ATOM      1  O   UNK d   0     -12.669  -7.262  -6.441  0.00  0.00    -0.650 OA
ATOM      2  C   UNK d   0     -13.850  -6.849  -6.470  0.00  0.00     0.139 C 
ENDROOT
BRANCH   2   3
ATOM      3  O   UNK d   0     -14.171  -5.683  -5.817  0.00  0.00    -0.776 OA
ATOM      4  H   UNK d   0     -14.628  -4.912  -6.308  0.00  0.00     0.167 HD
ENDBRANCH   2   3
BRANCH   2   5
ATOM      5  C   UNK d   0     -14.894  -7.617  -7.205  0.00  0.00     0.115 C 
BRANCH   5   6
ATOM      6  C   UNK d   0     -14.417  -7.938  -8.596  0.00  0.00     0.052 C 
BRANCH   6   7
ATOM      7  C   UNK d   0     -15.554  -8.146  -9.567  0.00  0.00    -0.020 A 
ATOM      8  C   UNK d   0     -16.140  -7.246 -10.315  0.00  0.00    -0.011 A 
ATOM      9  C   UNK d   0     -17.184  -7.912 -11.077  0.00  0.00     0.067 A 
ATOM     10  C   UNK d   0     -18.130  -7.534 -12.042  0.00  0.00     0.062 C 
ATOM     11  N   UNK d   0     -17.167  -9.215 -10.726  0.00  0.00    -0.248 NA
ATOM     12  C   UNK d   0     -18.875  -8.378 -12.874  0.00  0.00     0.041 A 
ATOM     13  N   UNK d   0     -19.516  -9.534 -12.618  0.00  0.00    -0.355 N 
ATOM     14  C   UNK d   0     -18.979  -8.066 -14.242  0.00  0.00    -0.022 A 
ATOM     15  C   UNK d   0     -20.017  -9.968 -13.790  0.00  0.00     0.042 A 
ATOM     16  H   UNK d   0     -19.628 -10.024 -11.626  0.00  0.00     0.166 HD
ATOM     17  C   UNK d   0     -20.771 -11.120 -14.090  0.00  0.00     0.062 C 
ATOM     18  C   UNK d   0     -19.701  -9.074 -14.831  0.00  0.00    -0.013 A 
ATOM     19  C   UNK d   0     -20.574 -12.413 -13.674  0.00  0.00     0.067 A 
ATOM     20  N   UNK d   0     -19.678 -12.606 -12.704  0.00  0.00    -0.248 NA
ATOM     21  C   UNK d   0     -21.100 -13.718 -14.037  0.00  0.00    -0.011 A 
ATOM     22  C   UNK d   0     -19.578 -13.943 -12.406  0.00  0.00     0.066 A 
ATOM     23  C   UNK d   0     -18.705 -14.283 -11.383  0.00  0.00     0.062 C 
ATOM     24  C   UNK d   0     -20.510 -14.610 -13.294  0.00  0.00    -0.020 A 
ATOM     25  C   UNK d   0     -17.976 -13.420 -10.552  0.00  0.00     0.041 A 
ATOM     26  N   UNK d   0     -17.326 -12.278 -10.809  0.00  0.00    -0.355 N 
ATOM     27  C   UNK d   0     -17.875 -13.731  -9.178  0.00  0.00    -0.022 A 
ATOM     28  C   UNK d   0     -16.817 -11.847  -9.643  0.00  0.00     0.042 A 
ATOM     29  H   UNK d   0     -17.205 -11.793 -11.808  0.00  0.00     0.166 HD
ATOM     30  C   UNK d   0     -16.058 -10.709  -9.332  0.00  0.00     0.062 C 
ATOM     31  C   UNK d   0     -17.145 -12.741  -8.596  0.00  0.00    -0.013 A 
ATOM     32  C   UNK d   0     -16.209  -9.421  -9.821  0.00  0.00     0.066 A 
BRANCH   8  33
ATOM     33  C   UNK d   0     -15.819  -5.809 -10.385  0.00  0.00     0.151 C 
BRANCH  33  34
ATOM     34  C   UNK d   0     -14.904  -5.481 -11.493  0.00  0.00     0.143 C 
ATOM     35  O   UNK d   0     -13.736  -5.896 -11.497  0.00  0.00    -0.650 OA
BRANCH  34  36
ATOM     36  O   UNK d   0     -15.355  -4.704 -12.534  0.00  0.00    -0.776 OA
ATOM     37  H   UNK d   0     -16.237  -4.178 -12.466  0.00  0.00     0.167 HD
ENDBRANCH  34  36
ENDBRANCH  33  34
ENDBRANCH   8  33
BRANCH  31  38
ATOM     38  C   UNK d   0     -16.789 -12.640  -7.131  0.00  0.00     0.151 C 
BRANCH  38  39
ATOM     39  C   UNK d   0     -17.106 -11.346  -6.563  0.00  0.00     0.143 C 
ATOM     40  O   UNK d   0     -18.263 -10.889  -6.556  0.00  0.00    -0.650 OA
BRANCH  39  41
ATOM     41  O   UNK d   0     -16.089 -10.575  -6.001  0.00  0.00    -0.776 OA
ATOM     42  H   UNK d   0     -15.127 -10.870  -6.193  0.00  0.00     0.167 HD
ENDBRANCH  39  41
ENDBRANCH  38  39
ENDBRANCH  31  38
BRANCH  27  43
ATOM     43  C   UNK d   0     -18.434 -14.908  -8.419  0.00  0.00     0.052 C 
BRANCH  43  44
ATOM     44  C   UNK d   0     -17.629 -16.156  -8.588  0.00  0.00     0.115 C 
BRANCH  44  45
ATOM     45  C   UNK d   0     -18.598 -17.256  -8.832  0.00  0.00     0.139 C 
ATOM     46  O   UNK d   0     -18.353 -18.065  -9.761  0.00  0.00    -0.650 OA
BRANCH  45  47
ATOM     47  O   UNK d   0     -19.741 -17.425  -8.082  0.00  0.00    -0.776 OA
ATOM     48  H   UNK d   0     -20.057 -16.737  -7.379  0.00  0.00     0.167 HD
ENDBRANCH  45  47
ENDBRANCH  44  45
ENDBRANCH  43  44
ENDBRANCH  27  43
BRANCH  24  49
ATOM     49  C   UNK d   0     -20.772 -16.059 -13.304  0.00  0.00     0.052 C 
BRANCH  49  50
ATOM     50  C   UNK d   0     -21.928 -16.390 -12.395  0.00  0.00     0.115 C 
BRANCH  50  51
ATOM     51  C   UNK d   0     -21.606 -16.851 -11.051  0.00  0.00     0.139 C 
ATOM     52  O   UNK d   0     -21.702 -16.113 -10.042  0.00  0.00    -0.650 OA
BRANCH  51  53
ATOM     53  O   UNK d   0     -21.173 -18.154 -10.858  0.00  0.00    -0.776 OA
ATOM     54  H   UNK d   0     -20.258 -18.297 -10.468  0.00  0.00     0.167 HD
ENDBRANCH  51  53
ENDBRANCH  50  51
ENDBRANCH  49  50
ENDBRANCH  24  49
BRANCH  21  55
ATOM     55  C   UNK d   0     -22.141 -13.938 -15.084  0.00  0.00     0.151 C 
BRANCH  55  56
ATOM     56  C   UNK d   0     -21.548 -14.194 -16.405  0.00  0.00     0.143 C 
ATOM     57  O   UNK d   0     -21.622 -15.301 -16.975  0.00  0.00    -0.650 OA
BRANCH  56  58
ATOM     58  O   UNK d   0     -20.878 -13.144 -17.031  0.00  0.00    -0.776 OA
ATOM     59  H   UNK d   0     -19.973 -13.401 -17.466  0.00  0.00     0.167 HD
ENDBRANCH  56  58
ENDBRANCH  55  56
ENDBRANCH  21  55
BRANCH  18  60
ATOM     60  C   UNK d   0     -20.044  -9.148 -16.298  0.00  0.00     0.151 C 
BRANCH  60  61
ATOM     61  C   UNK d   0     -19.123 -10.136 -16.880  0.00  0.00     0.143 C 
ATOM     62  O   UNK d   0     -18.029 -10.483 -16.435  0.00  0.00    -0.650 OA
BRANCH  61  63
ATOM     63  O   UNK d   0     -19.568 -10.740 -18.081  0.00  0.00    -0.776 OA
ATOM     64  H   UNK d   0     -19.234 -10.423 -18.974  0.00  0.00     0.167 HD
ENDBRANCH  61  63
ENDBRANCH  60  61
ENDBRANCH  18  60
BRANCH  14  65
ATOM     65  C   UNK d   0     -18.538  -6.852 -15.008  0.00  0.00     0.052 C 
BRANCH  65  66
ATOM     66  C   UNK d   0     -17.289  -7.076 -15.784  0.00  0.00     0.115 C 
BRANCH  66  67
ATOM     67  C   UNK d   0     -16.183  -7.756 -15.172  0.00  0.00     0.139 C 
ATOM     68  O   UNK d   0     -15.424  -7.097 -14.370  0.00  0.00    -0.650 OA
BRANCH  67  69
ATOM     69  O   UNK d   0     -15.803  -9.088 -15.337  0.00  0.00    -0.776 OA
ATOM     70  H   UNK d   0     -15.096  -9.266 -16.064  0.00  0.00     0.167 HD
ENDBRANCH  67  69
ENDBRANCH  66  67
ENDBRANCH  65  66
ENDBRANCH  14  65
ENDBRANCH   6   7
ENDBRANCH   5   6
ENDBRANCH   2   5
TORSDOF 28
ENDMDL
MODEL 14
REMARK VINA RESULT:      -8.5      2.376      8.639
REMARK  28 active torsions:
REMARK  status: ('A' for Active; 'I' for Inactive)
REMARK    1  A    between atoms: C_2  and  O_3 
REMARK    2  A    between atoms: C_2  and  C_4 
REMARK    3  A    between atoms: C_4  and  C_5 
REMARK    4  A    between atoms: C_5  and  C_6 
REMARK    5  A    between atoms: C_7  and  C_8 
REMARK    6  A    between atoms: C_8  and  C_9 
REMARK    7  A    between atoms: C_9  and  O_11 
REMARK    8  A    between atoms: C_28  and  C_29 
REMARK    9  A    between atoms: C_29  and  C_30 
REMARK   10  A    between atoms: C_30  and  O_32 
REMARK   11  A    between atoms: C_33  and  C_34 
REMARK   12  A    between atoms: C_34  and  C_35 
REMARK   13  A    between atoms: C_35  and  C_36 
REMARK   14  A    between atoms: C_36  and  O_38 
REMARK   15  A    between atoms: C_39  and  C_40 
REMARK   16  A    between atoms: C_40  and  C_41 
REMARK   17  A    between atoms: C_41  and  C_42 
REMARK   18  A    between atoms: C_42  and  O_44 
REMARK   19  A    between atoms: C_45  and  C_46 
REMARK   20  A    between atoms: C_46  and  C_47 
REMARK   21  A    between atoms: C_47  and  O_49 
REMARK   22  A    between atoms: C_50  and  C_51 
REMARK   23  A    between atoms: C_51  and  C_52 
REMARK   24  A    between atoms: C_52  and  O_54 
REMARK   25  A    between atoms: C_55  and  C_56 
REMARK   26  A    between atoms: C_56  and  C_57 
REMARK   27  A    between atoms: C_57  and  C_58 
REMARK   28  A    between atoms: C_58  and  O_60 
ROOT
ATOM      1  O   UNK d   0     -18.267  -8.240  -6.013  0.00  0.00    -0.650 OA
ATOM      2  C   UNK d   0     -18.207  -9.487  -6.093  0.00  0.00     0.139 C 
ENDROOT
BRANCH   2   3
ATOM      3  O   UNK d   0     -19.371 -10.214  -6.168  0.00  0.00    -0.776 OA
ATOM      4  H   UNK d   0     -19.807 -10.421  -7.069  0.00  0.00     0.167 HD
ENDBRANCH   2   3
BRANCH   2   5
ATOM      5  C   UNK d   0     -16.884 -10.173  -6.106  0.00  0.00     0.115 C 
BRANCH   5   6
ATOM      6  C   UNK d   0     -16.994 -11.496  -6.815  0.00  0.00     0.052 C 
BRANCH   6   7
ATOM      7  C   UNK d   0     -16.894 -11.361  -8.316  0.00  0.00    -0.020 A 
ATOM      8  C   UNK d   0     -17.138 -12.277  -9.218  0.00  0.00    -0.011 A 
ATOM      9  C   UNK d   0     -16.899 -11.689 -10.525  0.00  0.00     0.067 A 
ATOM     10  C   UNK d   0     -16.993 -12.115 -11.859  0.00  0.00     0.062 C 
ATOM     11  N   UNK d   0     -16.506 -10.414 -10.325  0.00  0.00    -0.248 NA
ATOM     12  C   UNK d   0     -16.987 -11.314 -13.007  0.00  0.00     0.041 A 
ATOM     13  N   UNK d   0     -16.231 -10.251 -13.341  0.00  0.00    -0.355 N 
ATOM     14  C   UNK d   0     -17.939 -11.559 -14.013  0.00  0.00    -0.022 A 
ATOM     15  C   UNK d   0     -16.685  -9.811 -14.530  0.00  0.00     0.042 A 
ATOM     16  H   UNK d   0     -15.382  -9.832 -12.758  0.00  0.00     0.166 HD
ATOM     17  C   UNK d   0     -16.253  -8.734 -15.330  0.00  0.00     0.062 C 
ATOM     18  C   UNK d   0     -17.755 -10.606 -14.983  0.00  0.00    -0.013 A 
ATOM     19  C   UNK d   0     -15.939  -7.452 -14.955  0.00  0.00     0.067 A 
ATOM     20  N   UNK d   0     -15.828  -7.216 -13.646  0.00  0.00    -0.248 NA
ATOM     21  C   UNK d   0     -15.690  -6.195 -15.640  0.00  0.00    -0.011 A 
ATOM     22  C   UNK d   0     -15.527  -5.894 -13.424  0.00  0.00     0.066 A 
ATOM     23  C   UNK d   0     -15.345  -5.516 -12.102  0.00  0.00     0.062 C 
ATOM     24  C   UNK d   0     -15.454  -5.286 -14.738  0.00  0.00    -0.020 A 
ATOM     25  C   UNK d   0     -15.343  -6.339 -10.965  0.00  0.00     0.041 A 
ATOM     26  N   UNK d   0     -16.104  -7.386 -10.625  0.00  0.00    -0.355 N 
ATOM     27  C   UNK d   0     -14.384  -6.095  -9.957  0.00  0.00    -0.022 A 
ATOM     28  C   UNK d   0     -15.660  -7.822  -9.436  0.00  0.00     0.042 A 
ATOM     29  H   UNK d   0     -16.964  -7.800 -11.208  0.00  0.00     0.166 HD
ATOM     30  C   UNK d   0     -16.085  -8.885  -8.625  0.00  0.00     0.062 C 
ATOM     31  C   UNK d   0     -14.577  -7.029  -8.986  0.00  0.00    -0.013 A 
ATOM     32  C   UNK d   0     -16.484 -10.153  -9.017  0.00  0.00     0.066 A 
BRANCH   8  33
ATOM     33  C   UNK d   0     -17.573 -13.665  -8.974  0.00  0.00     0.151 C 
BRANCH  33  34
ATOM     34  C   UNK d   0     -16.443 -14.593  -8.791  0.00  0.00     0.143 C 
ATOM     35  O   UNK d   0     -15.827 -14.642  -7.717  0.00  0.00    -0.650 OA
BRANCH  34  36
ATOM     36  O   UNK d   0     -16.069 -15.415  -9.829  0.00  0.00    -0.776 OA
ATOM     37  H   UNK d   0     -15.082 -15.655  -9.991  0.00  0.00     0.167 HD
ENDBRANCH  34  36
ENDBRANCH  33  34
ENDBRANCH   8  33
BRANCH  31  38
ATOM     38  C   UNK d   0     -13.775  -7.170  -7.714  0.00  0.00     0.151 C 
BRANCH  38  39
ATOM     39  C   UNK d   0     -14.352  -6.445  -6.602  0.00  0.00     0.143 C 
ATOM     40  O   UNK d   0     -13.849  -5.398  -6.158  0.00  0.00    -0.650 OA
BRANCH  39  41
ATOM     41  O   UNK d   0     -15.515  -6.924  -6.000  0.00  0.00    -0.776 OA
ATOM     42  H   UNK d   0     -15.402  -7.679  -5.316  0.00  0.00     0.167 HD
ENDBRANCH  39  41
ENDBRANCH  38  39
ENDBRANCH  31  38
BRANCH  27  43
ATOM     43  C   UNK d   0     -13.319  -5.029  -9.886  0.00  0.00     0.052 C 
BRANCH  43  44
ATOM     44  C   UNK d   0     -13.801  -3.752  -9.278  0.00  0.00     0.115 C 
BRANCH  44  45
ATOM     45  C   UNK d   0     -12.630  -3.135  -8.603  0.00  0.00     0.139 C 
ATOM     46  O   UNK d   0     -12.051  -2.180  -9.178  0.00  0.00    -0.650 OA
BRANCH  45  47
ATOM     47  O   UNK d   0     -12.162  -3.562  -7.379  0.00  0.00    -0.776 OA
ATOM     48  H   UNK d   0     -12.599  -4.334  -6.851  0.00  0.00     0.167 HD
ENDBRANCH  45  47
ENDBRANCH  44  45
ENDBRANCH  43  44
ENDBRANCH  27  43
BRANCH  24  49
ATOM     49  C   UNK d   0     -15.115  -3.876 -14.995  0.00  0.00     0.052 C 
BRANCH  49  50
ATOM     50  C   UNK d   0     -16.366  -3.037 -15.046  0.00  0.00     0.115 C 
BRANCH  50  51
ATOM     51  C   UNK d   0     -16.451  -1.913 -14.123  0.00  0.00     0.139 C 
ATOM     52  O   UNK d   0     -15.879  -1.910 -13.007  0.00  0.00    -0.650 OA
BRANCH  51  53
ATOM     53  O   UNK d   0     -17.190  -0.793 -14.471  0.00  0.00    -0.776 OA
ATOM     54  H   UNK d   0     -18.188  -0.829 -14.361  0.00  0.00     0.167 HD
ENDBRANCH  51  53
ENDBRANCH  50  51
ENDBRANCH  49  50
ENDBRANCH  24  49
BRANCH  21  55
ATOM     55  C   UNK d   0     -15.710  -6.034 -17.124  0.00  0.00     0.151 C 
BRANCH  55  56
ATOM     56  C   UNK d   0     -17.076  -5.852 -17.640  0.00  0.00     0.143 C 
ATOM     57  O   UNK d   0     -17.640  -4.741 -17.680  0.00  0.00    -0.650 OA
BRANCH  56  58
ATOM     58  O   UNK d   0     -17.751  -6.981 -18.101  0.00  0.00    -0.776 OA
ATOM     59  H   UNK d   0     -18.764  -6.844 -18.271  0.00  0.00     0.167 HD
ENDBRANCH  56  58
ENDBRANCH  55  56
ENDBRANCH  21  55
BRANCH  18  60
ATOM     60  C   UNK d   0     -18.570 -10.490 -16.247  0.00  0.00     0.151 C 
BRANCH  60  61
ATOM     61  C   UNK d   0     -19.664  -9.557 -15.938  0.00  0.00     0.143 C 
ATOM     62  O   UNK d   0     -20.661  -9.783 -15.252  0.00  0.00    -0.650 OA
BRANCH  61  63
ATOM     63  O   UNK d   0     -19.532  -8.265 -16.503  0.00  0.00    -0.776 OA
ATOM     64  H   UNK d   0     -20.040  -8.007 -17.330  0.00  0.00     0.167 HD
ENDBRANCH  61  63
ENDBRANCH  60  61
ENDBRANCH  18  60
BRANCH  14  65
ATOM     65  C   UNK d   0     -18.933 -12.674 -14.172  0.00  0.00     0.052 C 
BRANCH  65  66
ATOM     66  C   UNK d   0     -20.084 -12.565 -13.236  0.00  0.00     0.115 C 
BRANCH  66  67
ATOM     67  C   UNK d   0     -20.683 -13.756 -12.703  0.00  0.00     0.139 C 
ATOM     68  O   UNK d   0     -20.555 -13.998 -11.446  0.00  0.00    -0.650 OA
BRANCH  67  69
ATOM     69  O   UNK d   0     -21.414 -14.725 -13.389  0.00  0.00    -0.776 OA
ATOM     70  H   UNK d   0     -22.305 -15.006 -12.955  0.00  0.00     0.167 HD
ENDBRANCH  67  69
ENDBRANCH  66  67
ENDBRANCH  65  66
ENDBRANCH  14  65
ENDBRANCH   6   7
ENDBRANCH   5   6
ENDBRANCH   2   5
TORSDOF 28
ENDMDL
MODEL 15
REMARK VINA RESULT:      -8.5      2.870      8.174
REMARK  28 active torsions:
REMARK  status: ('A' for Active; 'I' for Inactive)
REMARK    1  A    between atoms: C_2  and  O_3 
REMARK    2  A    between atoms: C_2  and  C_4 
REMARK    3  A    between atoms: C_4  and  C_5 
REMARK    4  A    between atoms: C_5  and  C_6 
REMARK    5  A    between atoms: C_7  and  C_8 
REMARK    6  A    between atoms: C_8  and  C_9 
REMARK    7  A    between atoms: C_9  and  O_11 
REMARK    8  A    between atoms: C_28  and  C_29 
REMARK    9  A    between atoms: C_29  and  C_30 
REMARK   10  A    between atoms: C_30  and  O_32 
REMARK   11  A    between atoms: C_33  and  C_34 
REMARK   12  A    between atoms: C_34  and  C_35 
REMARK   13  A    between atoms: C_35  and  C_36 
REMARK   14  A    between atoms: C_36  and  O_38 
REMARK   15  A    between atoms: C_39  and  C_40 
REMARK   16  A    between atoms: C_40  and  C_41 
REMARK   17  A    between atoms: C_41  and  C_42 
REMARK   18  A    between atoms: C_42  and  O_44 
REMARK   19  A    between atoms: C_45  and  C_46 
REMARK   20  A    between atoms: C_46  and  C_47 
REMARK   21  A    between atoms: C_47  and  O_49 
REMARK   22  A    between atoms: C_50  and  C_51 
REMARK   23  A    between atoms: C_51  and  C_52 
REMARK   24  A    between atoms: C_52  and  O_54 
REMARK   25  A    between atoms: C_55  and  C_56 
REMARK   26  A    between atoms: C_56  and  C_57 
REMARK   27  A    between atoms: C_57  and  C_58 
REMARK   28  A    between atoms: C_58  and  O_60 
ROOT
ATOM      1  O   UNK d   0     -18.370  -3.270 -19.386  0.00  0.00    -0.650 OA
ATOM      2  C   UNK d   0     -17.187  -3.576 -19.654  0.00  0.00     0.139 C 
ENDROOT
BRANCH   2   3
ATOM      3  O   UNK d   0     -16.718  -3.399 -20.933  0.00  0.00    -0.776 OA
ATOM      4  H   UNK d   0     -17.360  -3.319 -21.724  0.00  0.00     0.167 HD
ENDBRANCH   2   3
BRANCH   2   5
ATOM      5  C   UNK d   0     -16.299  -4.128 -18.592  0.00  0.00     0.115 C 
BRANCH   5   6
ATOM      6  C   UNK d   0     -16.752  -3.651 -17.238  0.00  0.00     0.052 C 
BRANCH   6   7
ATOM      7  C   UNK d   0     -16.573  -4.696 -16.163  0.00  0.00    -0.020 A 
ATOM      8  C   UNK d   0     -15.823  -4.621 -15.094  0.00  0.00    -0.011 A 
ATOM      9  C   UNK d   0     -15.965  -5.869 -14.363  0.00  0.00     0.067 A 
ATOM     10  C   UNK d   0     -15.463  -6.403 -13.165  0.00  0.00     0.062 C 
ATOM     11  N   UNK d   0     -16.816  -6.648 -15.062  0.00  0.00    -0.248 NA
ATOM     12  C   UNK d   0     -15.934  -7.526 -12.476  0.00  0.00     0.041 A 
ATOM     13  N   UNK d   0     -16.327  -8.737 -12.917  0.00  0.00    -0.355 N 
ATOM     14  C   UNK d   0     -16.110  -7.446 -11.083  0.00  0.00    -0.022 A 
ATOM     15  C   UNK d   0     -16.754  -9.423 -11.840  0.00  0.00     0.042 A 
ATOM     16  H   UNK d   0     -16.284  -9.106 -13.966  0.00  0.00     0.166 HD
ATOM     17  C   UNK d   0     -17.266 -10.732 -11.735  0.00  0.00     0.062 C 
ATOM     18  C   UNK d   0     -16.633  -8.646 -10.672  0.00  0.00    -0.013 A 
ATOM     19  C   UNK d   0     -18.193 -11.361 -12.527  0.00  0.00     0.067 A 
ATOM     20  N   UNK d   0     -18.527 -10.752 -13.667  0.00  0.00    -0.248 NA
ATOM     21  C   UNK d   0     -18.972 -12.585 -12.451  0.00  0.00    -0.011 A 
ATOM     22  C   UNK d   0     -19.470 -11.489 -14.342  0.00  0.00     0.066 A 
ATOM     23  C   UNK d   0     -19.882 -10.988 -15.568  0.00  0.00     0.062 C 
ATOM     24  C   UNK d   0     -19.721 -12.652 -13.514  0.00  0.00    -0.020 A 
ATOM     25  C   UNK d   0     -19.387  -9.865 -16.249  0.00  0.00     0.041 A 
ATOM     26  N   UNK d   0     -19.011  -8.657 -15.813  0.00  0.00    -0.355 N 
ATOM     27  C   UNK d   0     -19.207  -9.948 -17.647  0.00  0.00    -0.022 A 
ATOM     28  C   UNK d   0     -18.593  -7.967 -16.886  0.00  0.00     0.042 A 
ATOM     29  H   UNK d   0     -19.064  -8.284 -14.760  0.00  0.00     0.166 HD
ATOM     30  C   UNK d   0     -18.090  -6.662 -17.006  0.00  0.00     0.062 C 
ATOM     31  C   UNK d   0     -18.705  -8.752 -18.058  0.00  0.00    -0.013 A 
ATOM     32  C   UNK d   0     -17.218  -6.000 -16.156  0.00  0.00     0.066 A 
BRANCH   8  33
ATOM     33  C   UNK d   0     -14.973  -3.487 -14.687  0.00  0.00     0.151 C 
BRANCH  33  34
ATOM     34  C   UNK d   0     -15.655  -2.566 -13.760  0.00  0.00     0.143 C 
ATOM     35  O   UNK d   0     -16.388  -1.662 -14.185  0.00  0.00    -0.650 OA
BRANCH  34  36
ATOM     36  O   UNK d   0     -15.473  -2.715 -12.404  0.00  0.00    -0.776 OA
ATOM     37  H   UNK d   0     -15.137  -3.602 -12.005  0.00  0.00     0.167 HD
ENDBRANCH  34  36
ENDBRANCH  33  34
ENDBRANCH   8  33
BRANCH  31  38
ATOM     38  C   UNK d   0     -18.339  -8.379 -19.476  0.00  0.00     0.151 C 
BRANCH  38  39
ATOM     39  C   UNK d   0     -16.922  -8.506 -19.742  0.00  0.00     0.143 C 
ATOM     40  O   UNK d   0     -16.089  -7.685 -19.318  0.00  0.00    -0.650 OA
BRANCH  39  41
ATOM     41  O   UNK d   0     -16.459  -9.582 -20.498  0.00  0.00    -0.776 OA
ATOM     42  H   UNK d   0     -15.698 -10.137 -20.094  0.00  0.00     0.167 HD
ENDBRANCH  39  41
ENDBRANCH  38  39
ENDBRANCH  31  38
BRANCH  27  43
ATOM     43  C   UNK d   0     -19.492 -11.096 -18.583  0.00  0.00     0.052 C 
BRANCH  43  44
ATOM     44  C   UNK d   0     -18.653 -12.302 -18.311  0.00  0.00     0.115 C 
BRANCH  44  45
ATOM     45  C   UNK d   0     -17.420 -12.156 -19.128  0.00  0.00     0.139 C 
ATOM     46  O   UNK d   0     -17.513 -12.308 -20.371  0.00  0.00    -0.650 OA
BRANCH  45  47
ATOM     47  O   UNK d   0     -16.192 -11.855 -18.580  0.00  0.00    -0.776 OA
ATOM     48  H   UNK d   0     -15.606 -11.072 -18.913  0.00  0.00     0.167 HD
ENDBRANCH  45  47
ENDBRANCH  44  45
ENDBRANCH  43  44
ENDBRANCH  27  43
BRANCH  24  49
ATOM     49  C   UNK d   0     -20.641 -13.748 -13.861  0.00  0.00     0.052 C 
BRANCH  49  50
ATOM     50  C   UNK d   0     -22.045 -13.224 -14.023  0.00  0.00     0.115 C 
BRANCH  50  51
ATOM     51  C   UNK d   0     -23.002 -13.549 -12.974  0.00  0.00     0.139 C 
ATOM     52  O   UNK d   0     -22.694 -14.225 -11.964  0.00  0.00    -0.650 OA
BRANCH  51  53
ATOM     53  O   UNK d   0     -24.311 -13.106 -13.078  0.00  0.00    -0.776 OA
ATOM     54  H   UNK d   0     -24.895 -13.509 -13.790  0.00  0.00     0.167 HD
ENDBRANCH  51  53
ENDBRANCH  50  51
ENDBRANCH  49  50
ENDBRANCH  24  49
BRANCH  21  55
ATOM     55  C   UNK d   0     -18.885 -13.563 -11.326  0.00  0.00     0.151 C 
BRANCH  55  56
ATOM     56  C   UNK d   0     -17.599 -13.473 -10.617  0.00  0.00     0.143 C 
ATOM     57  O   UNK d   0     -16.537 -13.928 -11.085  0.00  0.00    -0.650 OA
BRANCH  56  58
ATOM     58  O   UNK d   0     -17.587 -12.851  -9.370  0.00  0.00    -0.776 OA
ATOM     59  H   UNK d   0     -17.043 -11.970  -9.327  0.00  0.00     0.167 HD
ENDBRANCH  56  58
ENDBRANCH  55  56
ENDBRANCH  21  55
BRANCH  18  60
ATOM     60  C   UNK d   0     -16.987  -8.993  -9.247  0.00  0.00     0.151 C 
BRANCH  60  61
ATOM     61  C   UNK d   0     -15.877  -9.817  -8.744  0.00  0.00     0.143 C 
ATOM     62  O   UNK d   0     -15.953 -10.773  -7.973  0.00  0.00    -0.650 OA
BRANCH  61  63
ATOM     63  O   UNK d   0     -14.593  -9.449  -9.215  0.00  0.00    -0.776 OA
ATOM     64  H   UNK d   0     -14.280  -8.495  -9.175  0.00  0.00     0.167 HD
ENDBRANCH  61  63
ENDBRANCH  60  61
ENDBRANCH  18  60
BRANCH  14  65
ATOM     65  C   UNK d   0     -15.732  -6.367 -10.107  0.00  0.00     0.052 C 
BRANCH  65  66
ATOM     66  C   UNK d   0     -16.908  -5.748  -9.440  0.00  0.00     0.115 C 
BRANCH  66  67
ATOM     67  C   UNK d   0     -16.805  -4.421  -8.903  0.00  0.00     0.139 C 
ATOM     68  O   UNK d   0     -16.645  -4.283  -7.634  0.00  0.00    -0.650 OA
BRANCH  67  69
ATOM     69  O   UNK d   0     -16.857  -3.213  -9.597  0.00  0.00    -0.776 OA
ATOM     70  H   UNK d   0     -16.216  -2.477  -9.266  0.00  0.00     0.167 HD
ENDBRANCH  67  69
ENDBRANCH  66  67
ENDBRANCH  65  66
ENDBRANCH  14  65
ENDBRANCH   6   7
ENDBRANCH   5   6
ENDBRANCH   2   5
TORSDOF 28
ENDMDL
MODEL 16
REMARK VINA RESULT:      -8.4      2.380      8.062
REMARK  28 active torsions:
REMARK  status: ('A' for Active; 'I' for Inactive)
REMARK    1  A    between atoms: C_2  and  O_3 
REMARK    2  A    between atoms: C_2  and  C_4 
REMARK    3  A    between atoms: C_4  and  C_5 
REMARK    4  A    between atoms: C_5  and  C_6 
REMARK    5  A    between atoms: C_7  and  C_8 
REMARK    6  A    between atoms: C_8  and  C_9 
REMARK    7  A    between atoms: C_9  and  O_11 
REMARK    8  A    between atoms: C_28  and  C_29 
REMARK    9  A    between atoms: C_29  and  C_30 
REMARK   10  A    between atoms: C_30  and  O_32 
REMARK   11  A    between atoms: C_33  and  C_34 
REMARK   12  A    between atoms: C_34  and  C_35 
REMARK   13  A    between atoms: C_35  and  C_36 
REMARK   14  A    between atoms: C_36  and  O_38 
REMARK   15  A    between atoms: C_39  and  C_40 
REMARK   16  A    between atoms: C_40  and  C_41 
REMARK   17  A    between atoms: C_41  and  C_42 
REMARK   18  A    between atoms: C_42  and  O_44 
REMARK   19  A    between atoms: C_45  and  C_46 
REMARK   20  A    between atoms: C_46  and  C_47 
REMARK   21  A    between atoms: C_47  and  O_49 
REMARK   22  A    between atoms: C_50  and  C_51 
REMARK   23  A    between atoms: C_51  and  C_52 
REMARK   24  A    between atoms: C_52  and  O_54 
REMARK   25  A    between atoms: C_55  and  C_56 
REMARK   26  A    between atoms: C_56  and  C_57 
REMARK   27  A    between atoms: C_57  and  C_58 
REMARK   28  A    between atoms: C_58  and  O_60 
ROOT
ATOM      1  O   UNK d   0     -16.050  -6.902  -5.889  0.00  0.00    -0.650 OA
ATOM      2  C   UNK d   0     -14.956  -7.507  -5.873  0.00  0.00     0.139 C 
ENDROOT
BRANCH   2   3
ATOM      3  O   UNK d   0     -13.818  -6.832  -5.501  0.00  0.00    -0.776 OA
ATOM      4  H   UNK d   0     -13.176  -7.222  -4.808  0.00  0.00     0.167 HD
ENDBRANCH   2   3
BRANCH   2   5
ATOM      5  C   UNK d   0     -14.890  -8.946  -6.256  0.00  0.00     0.115 C 
BRANCH   5   6
ATOM      6  C   UNK d   0     -16.274  -9.535  -6.294  0.00  0.00     0.052 C 
BRANCH   6   7
ATOM      7  C   UNK d   0     -16.576 -10.228  -7.601  0.00  0.00    -0.020 A 
ATOM      8  C   UNK d   0     -16.852 -11.493  -7.789  0.00  0.00    -0.011 A 
ATOM      9  C   UNK d   0     -17.061 -11.696  -9.213  0.00  0.00     0.067 A 
ATOM     10  C   UNK d   0     -17.397 -12.777 -10.043  0.00  0.00     0.062 C 
ATOM     11  N   UNK d   0     -16.887 -10.502  -9.818  0.00  0.00    -0.248 NA
ATOM     12  C   UNK d   0     -17.830 -12.721 -11.373  0.00  0.00     0.041 A 
ATOM     13  N   UNK d   0     -17.402 -11.983 -12.414  0.00  0.00    -0.355 N 
ATOM     14  C   UNK d   0     -18.934 -13.501 -11.762  0.00  0.00    -0.022 A 
ATOM     15  C   UNK d   0     -18.211 -12.269 -13.452  0.00  0.00     0.042 A 
ATOM     16  H   UNK d   0     -16.533 -11.289 -12.421  0.00  0.00     0.166 HD
ATOM     17  C   UNK d   0     -18.207 -11.780 -14.774  0.00  0.00     0.062 C 
ATOM     18  C   UNK d   0     -19.184 -13.216 -13.081  0.00  0.00    -0.013 A 
ATOM     19  C   UNK d   0     -18.065 -10.490 -15.216  0.00  0.00     0.067 A 
ATOM     20  N   UNK d   0     -17.683  -9.581 -14.316  0.00  0.00    -0.248 NA
ATOM     21  C   UNK d   0     -18.242  -9.793 -16.479  0.00  0.00    -0.011 A 
ATOM     22  C   UNK d   0     -17.599  -8.339 -14.898  0.00  0.00     0.066 A 
ATOM     23  C   UNK d   0     -17.174  -7.303 -14.080  0.00  0.00     0.062 C 
ATOM     24  C   UNK d   0     -17.972  -8.534 -16.285  0.00  0.00    -0.020 A 
ATOM     25  C   UNK d   0     -16.731  -7.381 -12.751  0.00  0.00     0.041 A 
ATOM     26  N   UNK d   0     -17.166  -8.104 -11.712  0.00  0.00    -0.355 N 
ATOM     27  C   UNK d   0     -15.620  -6.602 -12.362  0.00  0.00    -0.022 A 
ATOM     28  C   UNK d   0     -16.367  -7.815 -10.673  0.00  0.00     0.042 A 
ATOM     29  H   UNK d   0     -18.046  -8.793 -11.703  0.00  0.00     0.166 HD
ATOM     30  C   UNK d   0     -16.364  -8.286  -9.351  0.00  0.00     0.062 C 
ATOM     31  C   UNK d   0     -15.382  -6.870 -11.049  0.00  0.00    -0.013 A 
ATOM     32  C   UNK d   0     -16.593  -9.577  -8.903  0.00  0.00     0.066 A 
BRANCH   8  33
ATOM     33  C   UNK d   0     -16.936 -12.543  -6.758  0.00  0.00     0.151 C 
BRANCH  33  34
ATOM     34  C   UNK d   0     -16.976 -13.902  -7.328  0.00  0.00     0.143 C 
ATOM     35  O   UNK d   0     -15.931 -14.498  -7.626  0.00  0.00    -0.650 OA
BRANCH  34  36
ATOM     36  O   UNK d   0     -18.192 -14.513  -7.533  0.00  0.00    -0.776 OA
ATOM     37  H   UNK d   0     -18.670 -15.018  -6.775  0.00  0.00     0.167 HD
ENDBRANCH  34  36
ENDBRANCH  33  34
ENDBRANCH   8  33
BRANCH  31  38
ATOM     38  C   UNK d   0     -14.279  -6.277 -10.204  0.00  0.00     0.151 C 
BRANCH  38  39
ATOM     39  C   UNK d   0     -13.033  -7.005 -10.316  0.00  0.00     0.143 C 
ATOM     40  O   UNK d   0     -11.932  -6.480 -10.075  0.00  0.00    -0.650 OA
BRANCH  39  41
ATOM     41  O   UNK d   0     -13.053  -8.344 -10.706  0.00  0.00    -0.776 OA
ATOM     42  H   UNK d   0     -13.909  -8.870 -10.508  0.00  0.00     0.167 HD
ENDBRANCH  39  41
ENDBRANCH  38  39
ENDBRANCH  31  38
BRANCH  27  43
ATOM     43  C   UNK d   0     -14.798  -5.633 -13.174  0.00  0.00     0.052 C 
BRANCH  43  44
ATOM     44  C   UNK d   0     -14.137  -6.264 -14.356  0.00  0.00     0.115 C 
BRANCH  44  45
ATOM     45  C   UNK d   0     -13.092  -7.176 -13.822  0.00  0.00     0.139 C 
ATOM     46  O   UNK d   0     -13.306  -8.412 -13.867  0.00  0.00    -0.650 OA
BRANCH  45  47
ATOM     47  O   UNK d   0     -11.906  -6.721 -13.288  0.00  0.00    -0.776 OA
ATOM     48  H   UNK d   0     -11.106  -7.343 -13.090  0.00  0.00     0.167 HD
ENDBRANCH  45  47
ENDBRANCH  44  45
ENDBRANCH  43  44
ENDBRANCH  27  43
BRANCH  24  49
ATOM     49  C   UNK d   0     -17.987  -7.475 -17.309  0.00  0.00     0.052 C 
BRANCH  49  50
ATOM     50  C   UNK d   0     -16.602  -6.912 -17.502  0.00  0.00     0.115 C 
BRANCH  50  51
ATOM     51  C   UNK d   0     -16.451  -5.467 -17.396  0.00  0.00     0.139 C 
ATOM     52  O   UNK d   0     -16.783  -4.825 -16.372  0.00  0.00    -0.650 OA
BRANCH  51  53
ATOM     53  O   UNK d   0     -15.923  -4.753 -18.461  0.00  0.00    -0.776 OA
ATOM     54  H   UNK d   0     -15.105  -4.193 -18.298  0.00  0.00     0.167 HD
ENDBRANCH  51  53
ENDBRANCH  50  51
ENDBRANCH  49  50
ENDBRANCH  24  49
BRANCH  21  55
ATOM     55  C   UNK d   0     -18.658 -10.458 -17.749  0.00  0.00     0.151 C 
BRANCH  55  56
ATOM     56  C   UNK d   0     -17.503 -10.856 -18.568  0.00  0.00     0.143 C 
ATOM     57  O   UNK d   0     -16.376 -11.077 -18.082  0.00  0.00    -0.650 OA
BRANCH  56  58
ATOM     58  O   UNK d   0     -17.696 -10.988 -19.942  0.00  0.00    -0.776 OA
ATOM     59  H   UNK d   0     -17.755 -11.964 -20.283  0.00  0.00     0.167 HD
ENDBRANCH  56  58
ENDBRANCH  55  56
ENDBRANCH  21  55
BRANCH  18  60
ATOM     60  C   UNK d   0     -20.293 -13.827 -13.903  0.00  0.00     0.151 C 
BRANCH  60  61
ATOM     61  C   UNK d   0     -21.475 -12.981 -13.677  0.00  0.00     0.143 C 
ATOM     62  O   UNK d   0     -21.631 -11.813 -14.032  0.00  0.00    -0.650 OA
BRANCH  61  63
ATOM     63  O   UNK d   0     -22.534 -13.603 -12.973  0.00  0.00    -0.776 OA
ATOM     64  H   UNK d   0     -23.491 -13.459 -13.243  0.00  0.00     0.167 HD
ENDBRANCH  61  63
ENDBRANCH  60  61
ENDBRANCH  18  60
BRANCH  14  65
ATOM     65  C   UNK d   0     -19.701 -14.557 -11.017  0.00  0.00     0.052 C 
BRANCH  65  66
ATOM     66  C   UNK d   0     -18.979 -15.856 -10.942  0.00  0.00     0.115 C 
BRANCH  66  67
ATOM     67  C   UNK d   0     -19.404 -16.852 -10.000  0.00  0.00     0.139 C 
ATOM     68  O   UNK d   0     -19.479 -18.075 -10.391  0.00  0.00    -0.650 OA
BRANCH  67  69
ATOM     69  O   UNK d   0     -19.762 -16.667  -8.665  0.00  0.00    -0.776 OA
ATOM     70  H   UNK d   0     -19.362 -15.836  -8.205  0.00  0.00     0.167 HD
ENDBRANCH  67  69
ENDBRANCH  66  67
ENDBRANCH  65  66
ENDBRANCH  14  65
ENDBRANCH   6   7
ENDBRANCH   5   6
ENDBRANCH   2   5
TORSDOF 28
ENDMDL
MODEL 17
REMARK VINA RESULT:      -8.4      2.384      7.864
REMARK  28 active torsions:
REMARK  status: ('A' for Active; 'I' for Inactive)
REMARK    1  A    between atoms: C_2  and  O_3 
REMARK    2  A    between atoms: C_2  and  C_4 
REMARK    3  A    between atoms: C_4  and  C_5 
REMARK    4  A    between atoms: C_5  and  C_6 
REMARK    5  A    between atoms: C_7  and  C_8 
REMARK    6  A    between atoms: C_8  and  C_9 
REMARK    7  A    between atoms: C_9  and  O_11 
REMARK    8  A    between atoms: C_28  and  C_29 
REMARK    9  A    between atoms: C_29  and  C_30 
REMARK   10  A    between atoms: C_30  and  O_32 
REMARK   11  A    between atoms: C_33  and  C_34 
REMARK   12  A    between atoms: C_34  and  C_35 
REMARK   13  A    between atoms: C_35  and  C_36 
REMARK   14  A    between atoms: C_36  and  O_38 
REMARK   15  A    between atoms: C_39  and  C_40 
REMARK   16  A    between atoms: C_40  and  C_41 
REMARK   17  A    between atoms: C_41  and  C_42 
REMARK   18  A    between atoms: C_42  and  O_44 
REMARK   19  A    between atoms: C_45  and  C_46 
REMARK   20  A    between atoms: C_46  and  C_47 
REMARK   21  A    between atoms: C_47  and  O_49 
REMARK   22  A    between atoms: C_50  and  C_51 
REMARK   23  A    between atoms: C_51  and  C_52 
REMARK   24  A    between atoms: C_52  and  O_54 
REMARK   25  A    between atoms: C_55  and  C_56 
REMARK   26  A    between atoms: C_56  and  C_57 
REMARK   27  A    between atoms: C_57  and  C_58 
REMARK   28  A    between atoms: C_58  and  O_60 
ROOT
ATOM      1  O   UNK d   0     -16.481  -7.906  -5.394  0.00  0.00    -0.650 OA
ATOM      2  C   UNK d   0     -17.409  -7.705  -6.209  0.00  0.00     0.139 C 
ENDROOT
BRANCH   2   3
ATOM      3  O   UNK d   0     -18.685  -8.100  -5.888  0.00  0.00    -0.776 OA
ATOM      4  H   UNK d   0     -19.441  -8.049  -6.573  0.00  0.00     0.167 HD
ENDBRANCH   2   3
BRANCH   2   5
ATOM      5  C   UNK d   0     -17.128  -7.043  -7.514  0.00  0.00     0.115 C 
BRANCH   5   6
ATOM      6  C   UNK d   0     -15.948  -7.695  -8.182  0.00  0.00     0.052 C 
BRANCH   6   7
ATOM      7  C   UNK d   0     -16.348  -8.840  -9.081  0.00  0.00    -0.020 A 
ATOM      8  C   UNK d   0     -16.336 -10.118  -8.800  0.00  0.00    -0.011 A 
ATOM      9  C   UNK d   0     -16.797 -10.836  -9.976  0.00  0.00     0.067 A 
ATOM     10  C   UNK d   0     -17.028 -12.178 -10.317  0.00  0.00     0.062 C 
ATOM     11  N   UNK d   0     -17.062  -9.918 -10.928  0.00  0.00    -0.248 NA
ATOM     12  C   UNK d   0     -17.743 -12.662 -11.418  0.00  0.00     0.041 A 
ATOM     13  N   UNK d   0     -17.752 -12.275 -12.708  0.00  0.00    -0.355 N 
ATOM     14  C   UNK d   0     -18.677 -13.696 -11.222  0.00  0.00    -0.022 A 
ATOM     15  C   UNK d   0     -18.673 -13.032 -13.334  0.00  0.00     0.042 A 
ATOM     16  H   UNK d   0     -17.107 -11.496 -13.170  0.00  0.00     0.166 HD
ATOM     17  C   UNK d   0     -19.083 -13.042 -14.682  0.00  0.00     0.062 C 
ATOM     18  C   UNK d   0     -19.274 -13.934 -12.435  0.00  0.00    -0.013 A 
ATOM     19  C   UNK d   0     -19.367 -11.983 -15.506  0.00  0.00     0.067 A 
ATOM     20  N   UNK d   0     -19.034 -10.767 -15.064  0.00  0.00    -0.248 NA
ATOM     21  C   UNK d   0     -19.986 -11.810 -16.809  0.00  0.00    -0.011 A 
ATOM     22  C   UNK d   0     -19.392  -9.812 -15.983  0.00  0.00     0.066 A 
ATOM     23  C   UNK d   0     -19.068  -8.501 -15.667  0.00  0.00     0.062 C 
ATOM     24  C   UNK d   0     -20.001 -10.537 -17.081  0.00  0.00    -0.020 A 
ATOM     25  C   UNK d   0     -18.338  -8.037 -14.562  0.00  0.00     0.041 A 
ATOM     26  N   UNK d   0     -18.340  -8.411 -13.277  0.00  0.00    -0.355 N 
ATOM     27  C   UNK d   0     -17.398  -7.002 -14.760  0.00  0.00    -0.022 A 
ATOM     28  C   UNK d   0     -17.429  -7.652 -12.648  0.00  0.00     0.042 A 
ATOM     29  H   UNK d   0     -18.997  -9.187 -12.811  0.00  0.00     0.166 HD
ATOM     30  C   UNK d   0     -17.018  -7.624 -11.306  0.00  0.00     0.062 C 
ATOM     31  C   UNK d   0     -16.818  -6.753 -13.554  0.00  0.00    -0.013 A 
ATOM     32  C   UNK d   0     -16.814  -8.697 -10.452  0.00  0.00     0.066 A 
BRANCH   8  33
ATOM     33  C   UNK d   0     -15.926 -10.740  -7.527  0.00  0.00     0.151 C 
BRANCH  33  34
ATOM     34  C   UNK d   0     -17.016 -11.498  -6.886  0.00  0.00     0.143 C 
ATOM     35  O   UNK d   0     -18.106 -10.961  -6.641  0.00  0.00    -0.650 OA
BRANCH  34  36
ATOM     36  O   UNK d   0     -16.817 -12.818  -6.554  0.00  0.00    -0.776 OA
ATOM     37  H   UNK d   0     -17.017 -13.167  -5.607  0.00  0.00     0.167 HD
ENDBRANCH  34  36
ENDBRANCH  33  34
ENDBRANCH   8  33
BRANCH  31  38
ATOM     38  C   UNK d   0     -15.738  -5.732 -13.279  0.00  0.00     0.151 C 
BRANCH  38  39
ATOM     39  C   UNK d   0     -14.412  -6.218 -13.597  0.00  0.00     0.143 C 
ATOM     40  O   UNK d   0     -13.776  -5.814 -14.586  0.00  0.00    -0.650 OA
BRANCH  39  41
ATOM     41  O   UNK d   0     -13.814  -7.171 -12.774  0.00  0.00    -0.776 OA
ATOM     42  H   UNK d   0     -12.962  -7.617 -13.127  0.00  0.00     0.167 HD
ENDBRANCH  39  41
ENDBRANCH  38  39
ENDBRANCH  31  38
BRANCH  27  43
ATOM     43  C   UNK d   0     -17.043  -6.259 -16.023  0.00  0.00     0.052 C 
BRANCH  43  44
ATOM     44  C   UNK d   0     -17.853  -5.020 -16.227  0.00  0.00     0.115 C 
BRANCH  44  45
ATOM     45  C   UNK d   0     -16.897  -3.946 -16.603  0.00  0.00     0.139 C 
ATOM     46  O   UNK d   0     -16.256  -4.073 -17.675  0.00  0.00    -0.650 OA
BRANCH  45  47
ATOM     47  O   UNK d   0     -16.694  -2.823 -15.831  0.00  0.00    -0.776 OA
ATOM     48  H   UNK d   0     -15.817  -2.650 -15.313  0.00  0.00     0.167 HD
ENDBRANCH  45  47
ENDBRANCH  44  45
ENDBRANCH  43  44
ENDBRANCH  27  43
BRANCH  24  49
ATOM     49  C   UNK d   0     -20.505  -9.919 -18.320  0.00  0.00     0.052 C 
BRANCH  49  50
ATOM     50  C   UNK d   0     -22.009  -9.835 -18.290  0.00  0.00     0.115 C 
BRANCH  50  51
ATOM     51  C   UNK d   0     -22.644  -9.741 -16.982  0.00  0.00     0.139 C 
ATOM     52  O   UNK d   0     -23.181 -10.724 -16.419  0.00  0.00    -0.650 OA
BRANCH  51  53
ATOM     53  O   UNK d   0     -22.670  -8.524 -16.318  0.00  0.00    -0.776 OA
ATOM     54  H   UNK d   0     -23.352  -7.842 -16.601  0.00  0.00     0.167 HD
ENDBRANCH  51  53
ENDBRANCH  50  51
ENDBRANCH  49  50
ENDBRANCH  24  49
BRANCH  21  55
ATOM     55  C   UNK d   0     -20.494 -12.935 -17.649  0.00  0.00     0.151 C 
BRANCH  55  56
ATOM     56  C   UNK d   0     -19.430 -13.535 -18.469  0.00  0.00     0.143 C 
ATOM     57  O   UNK d   0     -18.824 -14.572 -18.134  0.00  0.00    -0.650 OA
BRANCH  56  58
ATOM     58  O   UNK d   0     -19.100 -12.903 -19.667  0.00  0.00    -0.776 OA
ATOM     59  H   UNK d   0     -19.329 -13.442 -20.521  0.00  0.00     0.167 HD
ENDBRANCH  56  58
ENDBRANCH  55  56
ENDBRANCH  21  55
BRANCH  18  60
ATOM     60  C   UNK d   0     -20.349 -14.964 -12.682  0.00  0.00     0.151 C 
BRANCH  60  61
ATOM     61  C   UNK d   0     -21.624 -14.298 -12.374  0.00  0.00     0.143 C 
ATOM     62  O   UNK d   0     -22.176 -13.412 -13.028  0.00  0.00    -0.650 OA
BRANCH  61  63
ATOM     63  O   UNK d   0     -22.266 -14.742 -11.193  0.00  0.00    -0.776 OA
ATOM     64  H   UNK d   0     -21.893 -15.504 -10.655  0.00  0.00     0.167 HD
ENDBRANCH  61  63
ENDBRANCH  60  61
ENDBRANCH  18  60
BRANCH  14  65
ATOM     65  C   UNK d   0     -18.973 -14.534 -10.011  0.00  0.00     0.052 C 
BRANCH  65  66
ATOM     66  C   UNK d   0     -18.220 -15.816  -9.993  0.00  0.00     0.115 C 
BRANCH  66  67
ATOM     67  C   UNK d   0     -16.885 -15.850  -9.466  0.00  0.00     0.139 C 
ATOM     68  O   UNK d   0     -16.556 -14.986  -8.572  0.00  0.00    -0.650 OA
BRANCH  67  69
ATOM     69  O   UNK d   0     -15.855 -16.727  -9.806  0.00  0.00    -0.776 OA
ATOM     70  H   UNK d   0     -14.923 -16.485  -9.442  0.00  0.00     0.167 HD
ENDBRANCH  67  69
ENDBRANCH  66  67
ENDBRANCH  65  66
ENDBRANCH  14  65
ENDBRANCH   6   7
ENDBRANCH   5   6
ENDBRANCH   2   5
TORSDOF 28
ENDMDL
MODEL 18
REMARK VINA RESULT:      -8.3      2.324      5.225
REMARK  28 active torsions:
REMARK  status: ('A' for Active; 'I' for Inactive)
REMARK    1  A    between atoms: C_2  and  O_3 
REMARK    2  A    between atoms: C_2  and  C_4 
REMARK    3  A    between atoms: C_4  and  C_5 
REMARK    4  A    between atoms: C_5  and  C_6 
REMARK    5  A    between atoms: C_7  and  C_8 
REMARK    6  A    between atoms: C_8  and  C_9 
REMARK    7  A    between atoms: C_9  and  O_11 
REMARK    8  A    between atoms: C_28  and  C_29 
REMARK    9  A    between atoms: C_29  and  C_30 
REMARK   10  A    between atoms: C_30  and  O_32 
REMARK   11  A    between atoms: C_33  and  C_34 
REMARK   12  A    between atoms: C_34  and  C_35 
REMARK   13  A    between atoms: C_35  and  C_36 
REMARK   14  A    between atoms: C_36  and  O_38 
REMARK   15  A    between atoms: C_39  and  C_40 
REMARK   16  A    between atoms: C_40  and  C_41 
REMARK   17  A    between atoms: C_41  and  C_42 
REMARK   18  A    between atoms: C_42  and  O_44 
REMARK   19  A    between atoms: C_45  and  C_46 
REMARK   20  A    between atoms: C_46  and  C_47 
REMARK   21  A    between atoms: C_47  and  O_49 
REMARK   22  A    between atoms: C_50  and  C_51 
REMARK   23  A    between atoms: C_51  and  C_52 
REMARK   24  A    between atoms: C_52  and  O_54 
REMARK   25  A    between atoms: C_55  and  C_56 
REMARK   26  A    between atoms: C_56  and  C_57 
REMARK   27  A    between atoms: C_57  and  C_58 
REMARK   28  A    between atoms: C_58  and  O_60 
ROOT
ATOM      1  O   UNK d   0     -14.392  -2.488 -14.840  0.00  0.00    -0.650 OA
ATOM      2  C   UNK d   0     -15.476  -3.112 -14.829  0.00  0.00     0.139 C 
ENDROOT
BRANCH   2   3
ATOM      3  O   UNK d   0     -16.527  -2.650 -15.585  0.00  0.00    -0.776 OA
ATOM      4  H   UNK d   0     -17.480  -2.981 -15.421  0.00  0.00     0.167 HD
ENDBRANCH   2   3
BRANCH   2   5
ATOM      5  C   UNK d   0     -15.622  -4.343 -14.002  0.00  0.00     0.115 C 
BRANCH   5   6
ATOM      6  C   UNK d   0     -15.332  -5.563 -14.834  0.00  0.00     0.052 C 
BRANCH   6   7
ATOM      7  C   UNK d   0     -16.467  -6.558 -14.821  0.00  0.00    -0.020 A 
ATOM      8  C   UNK d   0     -17.514  -6.586 -15.606  0.00  0.00    -0.011 A 
ATOM      9  C   UNK d   0     -18.335  -7.719 -15.213  0.00  0.00     0.067 A 
ATOM     10  C   UNK d   0     -19.537  -8.298 -15.649  0.00  0.00     0.062 C 
ATOM     11  N   UNK d   0     -17.715  -8.323 -14.178  0.00  0.00    -0.248 NA
ATOM     12  C   UNK d   0     -20.035  -9.564 -15.322  0.00  0.00     0.041 A 
ATOM     13  N   UNK d   0     -20.079 -10.223 -14.148  0.00  0.00    -0.355 N 
ATOM     14  C   UNK d   0     -20.550 -10.379 -16.346  0.00  0.00    -0.022 A 
ATOM     15  C   UNK d   0     -20.601 -11.437 -14.403  0.00  0.00     0.042 A 
ATOM     16  H   UNK d   0     -19.766  -9.830 -13.156  0.00  0.00     0.166 HD
ATOM     17  C   UNK d   0     -20.868 -12.517 -13.538  0.00  0.00     0.062 C 
ATOM     18  C   UNK d   0     -20.908 -11.572 -15.771  0.00  0.00    -0.013 A 
ATOM     19  C   UNK d   0     -20.078 -13.044 -12.548  0.00  0.00     0.067 A 
ATOM     20  N   UNK d   0     -18.994 -12.345 -12.203  0.00  0.00    -0.248 NA
ATOM     21  C   UNK d   0     -20.093 -14.243 -11.727  0.00  0.00    -0.011 A 
ATOM     22  C   UNK d   0     -18.298 -13.001 -11.217  0.00  0.00     0.066 A 
ATOM     23  C   UNK d   0     -17.164 -12.364 -10.735  0.00  0.00     0.062 C 
ATOM     24  C   UNK d   0     -19.047 -14.214 -10.953  0.00  0.00    -0.020 A 
ATOM     25  C   UNK d   0     -16.687 -11.087 -11.068  0.00  0.00     0.041 A 
ATOM     26  N   UNK d   0     -16.630 -10.438 -12.237  0.00  0.00    -0.355 N 
ATOM     27  C   UNK d   0     -16.175 -10.268 -10.038  0.00  0.00    -0.022 A 
ATOM     28  C   UNK d   0     -16.102  -9.229 -11.987  0.00  0.00     0.042 A 
ATOM     29  H   UNK d   0     -16.935 -10.838 -13.235  0.00  0.00     0.166 HD
ATOM     30  C   UNK d   0     -15.822  -8.149 -12.839  0.00  0.00     0.062 C 
ATOM     31  C   UNK d   0     -15.803  -9.090 -10.610  0.00  0.00    -0.013 A 
ATOM     32  C   UNK d   0     -16.585  -7.673 -13.894  0.00  0.00     0.066 A 
BRANCH   8  33
ATOM     33  C   UNK d   0     -17.829  -5.643 -16.695  0.00  0.00     0.151 C 
BRANCH  33  34
ATOM     34  C   UNK d   0     -17.152  -5.985 -17.959  0.00  0.00     0.143 C 
ATOM     35  O   UNK d   0     -17.725  -6.663 -18.824  0.00  0.00    -0.650 OA
BRANCH  34  36
ATOM     36  O   UNK d   0     -15.867  -5.546 -18.178  0.00  0.00    -0.776 OA
ATOM     37  H   UNK d   0     -15.676  -4.580 -18.477  0.00  0.00     0.167 HD
ENDBRANCH  34  36
ENDBRANCH  33  34
ENDBRANCH   8  33
BRANCH  31  38
ATOM     38  C   UNK d   0     -15.212  -7.899  -9.894  0.00  0.00     0.151 C 
BRANCH  38  39
ATOM     39  C   UNK d   0     -16.210  -6.926  -9.504  0.00  0.00     0.143 C 
ATOM     40  O   UNK d   0     -16.344  -6.544  -8.328  0.00  0.00    -0.650 OA
BRANCH  39  41
ATOM     41  O   UNK d   0     -17.057  -6.387 -10.472  0.00  0.00    -0.776 OA
ATOM     42  H   UNK d   0     -17.995  -6.794 -10.542  0.00  0.00     0.167 HD
ENDBRANCH  39  41
ENDBRANCH  38  39
ENDBRANCH  31  38
BRANCH  27  43
ATOM     43  C   UNK d   0     -16.029 -10.559  -8.565  0.00  0.00     0.052 C 
BRANCH  43  44
ATOM     44  C   UNK d   0     -16.976  -9.780  -7.712  0.00  0.00     0.115 C 
BRANCH  44  45
ATOM     45  C   UNK d   0     -17.736 -10.771  -6.907  0.00  0.00     0.139 C 
ATOM     46  O   UNK d   0     -17.295 -11.946  -6.845  0.00  0.00    -0.650 OA
BRANCH  45  47
ATOM     47  O   UNK d   0     -18.891 -10.453  -6.226  0.00  0.00    -0.776 OA
ATOM     48  H   UNK d   0     -19.818 -10.825  -6.491  0.00  0.00     0.167 HD
ENDBRANCH  45  47
ENDBRANCH  44  45
ENDBRANCH  43  44
ENDBRANCH  27  43
BRANCH  24  49
ATOM     49  C   UNK d   0     -18.692 -15.216  -9.933  0.00  0.00     0.052 C 
BRANCH  49  50
ATOM     50  C   UNK d   0     -17.776 -16.259 -10.519  0.00  0.00     0.115 C 
BRANCH  50  51
ATOM     51  C   UNK d   0     -18.363 -17.550 -10.851  0.00  0.00     0.139 C 
ATOM     52  O   UNK d   0     -17.806 -18.370 -11.618  0.00  0.00    -0.650 OA
BRANCH  51  53
ATOM     53  O   UNK d   0     -19.589 -17.905 -10.310  0.00  0.00    -0.776 OA
ATOM     54  H   UNK d   0     -20.423 -17.626 -10.796  0.00  0.00     0.167 HD
ENDBRANCH  51  53
ENDBRANCH  50  51
ENDBRANCH  49  50
ENDBRANCH  24  49
BRANCH  21  55
ATOM     55  C   UNK d   0     -21.154 -15.291 -11.799  0.00  0.00     0.151 C 
BRANCH  55  56
ATOM     56  C   UNK d   0     -22.157 -15.135 -10.734  0.00  0.00     0.143 C 
ATOM     57  O   UNK d   0     -23.080 -14.299 -10.794  0.00  0.00    -0.650 OA
BRANCH  56  58
ATOM     58  O   UNK d   0     -22.054 -15.964  -9.618  0.00  0.00    -0.776 OA
ATOM     59  H   UNK d   0     -22.490 -16.898  -9.728  0.00  0.00     0.167 HD
ENDBRANCH  56  58
ENDBRANCH  55  56
ENDBRANCH  21  55
BRANCH  18  60
ATOM     60  C   UNK d   0     -21.501 -12.746 -16.511  0.00  0.00     0.151 C 
BRANCH  60  61
ATOM     61  C   UNK d   0     -20.380 -13.659 -16.784  0.00  0.00     0.143 C 
ATOM     62  O   UNK d   0     -19.411 -13.447 -17.514  0.00  0.00    -0.650 OA
BRANCH  61  63
ATOM     63  O   UNK d   0     -20.447 -14.909 -16.123  0.00  0.00    -0.776 OA
ATOM     64  H   UNK d   0     -21.328 -15.299 -15.839  0.00  0.00     0.167 HD
ENDBRANCH  61  63
ENDBRANCH  60  61
ENDBRANCH  18  60
BRANCH  14  65
ATOM     65  C   UNK d   0     -20.817 -10.082 -17.795  0.00  0.00     0.052 C 
BRANCH  65  66
ATOM     66  C   UNK d   0     -19.630 -10.309 -18.663  0.00  0.00     0.115 C 
BRANCH  66  67
ATOM     67  C   UNK d   0     -19.801 -10.900 -19.961  0.00  0.00     0.139 C 
ATOM     68  O   UNK d   0     -20.461 -10.246 -20.850  0.00  0.00    -0.650 OA
BRANCH  67  69
ATOM     69  O   UNK d   0     -19.330 -12.135 -20.405  0.00  0.00    -0.776 OA
ATOM     70  H   UNK d   0     -19.680 -12.958 -19.893  0.00  0.00     0.167 HD
ENDBRANCH  67  69
ENDBRANCH  66  67
ENDBRANCH  65  66
ENDBRANCH  14  65
ENDBRANCH   6   7
ENDBRANCH   5   6
ENDBRANCH   2   5
TORSDOF 28
ENDMDL
MODEL 19
REMARK VINA RESULT:      -8.3      2.568      3.981
REMARK  28 active torsions:
REMARK  status: ('A' for Active; 'I' for Inactive)
REMARK    1  A    between atoms: C_2  and  O_3 
REMARK    2  A    between atoms: C_2  and  C_4 
REMARK    3  A    between atoms: C_4  and  C_5 
REMARK    4  A    between atoms: C_5  and  C_6 
REMARK    5  A    between atoms: C_7  and  C_8 
REMARK    6  A    between atoms: C_8  and  C_9 
REMARK    7  A    between atoms: C_9  and  O_11 
REMARK    8  A    between atoms: C_28  and  C_29 
REMARK    9  A    between atoms: C_29  and  C_30 
REMARK   10  A    between atoms: C_30  and  O_32 
REMARK   11  A    between atoms: C_33  and  C_34 
REMARK   12  A    between atoms: C_34  and  C_35 
REMARK   13  A    between atoms: C_35  and  C_36 
REMARK   14  A    between atoms: C_36  and  O_38 
REMARK   15  A    between atoms: C_39  and  C_40 
REMARK   16  A    between atoms: C_40  and  C_41 
REMARK   17  A    between atoms: C_41  and  C_42 
REMARK   18  A    between atoms: C_42  and  O_44 
REMARK   19  A    between atoms: C_45  and  C_46 
REMARK   20  A    between atoms: C_46  and  C_47 
REMARK   21  A    between atoms: C_47  and  O_49 
REMARK   22  A    between atoms: C_50  and  C_51 
REMARK   23  A    between atoms: C_51  and  C_52 
REMARK   24  A    between atoms: C_52  and  O_54 
REMARK   25  A    between atoms: C_55  and  C_56 
REMARK   26  A    between atoms: C_56  and  C_57 
REMARK   27  A    between atoms: C_57  and  C_58 
REMARK   28  A    between atoms: C_58  and  O_60 
ROOT
ATOM      1  O   UNK d   0     -13.180  -8.961 -13.324  0.00  0.00    -0.650 OA
ATOM      2  C   UNK d   0     -13.581  -8.251 -12.374  0.00  0.00     0.139 C 
ENDROOT
BRANCH   2   3
ATOM      3  O   UNK d   0     -13.225  -8.582 -11.089  0.00  0.00    -0.776 OA
ATOM      4  H   UNK d   0     -12.666  -7.946 -10.516  0.00  0.00     0.167 HD
ENDBRANCH   2   3
BRANCH   2   5
ATOM      5  C   UNK d   0     -14.436  -7.059 -12.640  0.00  0.00     0.115 C 
BRANCH   5   6
ATOM      6  C   UNK d   0     -15.669  -7.105 -11.779  0.00  0.00     0.052 C 
BRANCH   6   7
ATOM      7  C   UNK d   0     -16.727  -8.033 -12.327  0.00  0.00    -0.020 A 
ATOM      8  C   UNK d   0     -17.585  -7.788 -13.283  0.00  0.00    -0.011 A 
ATOM      9  C   UNK d   0     -18.407  -8.974 -13.457  0.00  0.00     0.067 A 
ATOM     10  C   UNK d   0     -19.460  -9.362 -14.301  0.00  0.00     0.062 C 
ATOM     11  N   UNK d   0     -17.984  -9.890 -12.561  0.00  0.00    -0.248 NA
ATOM     12  C   UNK d   0     -19.946 -10.658 -14.508  0.00  0.00     0.041 A 
ATOM     13  N   UNK d   0     -20.197 -11.659 -13.644  0.00  0.00    -0.355 N 
ATOM     14  C   UNK d   0     -20.192 -11.090 -15.824  0.00  0.00    -0.022 A 
ATOM     15  C   UNK d   0     -20.588 -12.718 -14.378  0.00  0.00     0.042 A 
ATOM     16  H   UNK d   0     -20.118 -11.613 -12.535  0.00  0.00     0.166 HD
ATOM     17  C   UNK d   0     -20.970 -14.014 -13.980  0.00  0.00     0.062 C 
ATOM     18  C   UNK d   0     -20.598 -12.399 -15.750  0.00  0.00    -0.013 A 
ATOM     19  C   UNK d   0     -20.376 -14.846 -13.065  0.00  0.00     0.067 A 
ATOM     20  N   UNK d   0     -19.426 -14.313 -12.292  0.00  0.00    -0.248 NA
ATOM     21  C   UNK d   0     -20.496 -16.245 -12.692  0.00  0.00    -0.011 A 
ATOM     22  C   UNK d   0     -18.915 -15.263 -11.441  0.00  0.00     0.066 A 
ATOM     23  C   UNK d   0     -17.942 -14.835 -10.551  0.00  0.00     0.062 C 
ATOM     24  C   UNK d   0     -19.636 -16.484 -11.745  0.00  0.00    -0.020 A 
ATOM     25  C   UNK d   0     -17.476 -13.526 -10.350  0.00  0.00     0.041 A 
ATOM     26  N   UNK d   0     -17.212 -12.535 -11.211  0.00  0.00    -0.355 N 
ATOM     27  C   UNK d   0     -17.233 -13.092  -9.029  0.00  0.00    -0.022 A 
ATOM     28  C   UNK d   0     -16.813 -11.481 -10.482  0.00  0.00     0.042 A 
ATOM     29  H   UNK d   0     -17.282 -12.587 -12.325  0.00  0.00     0.166 HD
ATOM     30  C   UNK d   0     -16.422 -10.189 -10.865  0.00  0.00     0.062 C 
ATOM     31  C   UNK d   0     -16.815 -11.799  -9.103  0.00  0.00    -0.013 A 
ATOM     32  C   UNK d   0     -16.974  -9.386 -11.850  0.00  0.00     0.066 A 
BRANCH   8  33
ATOM     33  C   UNK d   0     -17.717  -6.540 -14.056  0.00  0.00     0.151 C 
BRANCH  33  34
ATOM     34  C   UNK d   0     -17.293  -6.689 -15.460  0.00  0.00     0.143 C 
ATOM     35  O   UNK d   0     -16.206  -7.212 -15.744  0.00  0.00    -0.650 OA
BRANCH  34  36
ATOM     36  O   UNK d   0     -18.117  -6.240 -16.466  0.00  0.00    -0.776 OA
ATOM     37  H   UNK d   0     -18.254  -5.235 -16.635  0.00  0.00     0.167 HD
ENDBRANCH  34  36
ENDBRANCH  33  34
ENDBRANCH   8  33
BRANCH  31  38
ATOM     38  C   UNK d   0     -16.450 -10.912  -7.935  0.00  0.00     0.151 C 
BRANCH  38  39
ATOM     39  C   UNK d   0     -17.579 -10.168  -7.421  0.00  0.00     0.143 C 
ATOM     40  O   UNK d   0     -18.327 -10.620  -6.536  0.00  0.00    -0.650 OA
BRANCH  39  41
ATOM     41  O   UNK d   0     -17.850  -8.896  -7.926  0.00  0.00    -0.776 OA
ATOM     42  H   UNK d   0     -18.521  -8.840  -8.698  0.00  0.00     0.167 HD
ENDBRANCH  39  41
ENDBRANCH  38  39
ENDBRANCH  31  38
BRANCH  27  43
ATOM     43  C   UNK d   0     -17.380 -13.845  -7.730  0.00  0.00     0.052 C 
BRANCH  43  44
ATOM     44  C   UNK d   0     -16.289 -14.840  -7.498  0.00  0.00     0.115 C 
BRANCH  44  45
ATOM     45  C   UNK d   0     -16.928 -16.182  -7.514  0.00  0.00     0.139 C 
ATOM     46  O   UNK d   0     -17.927 -16.370  -6.777  0.00  0.00    -0.650 OA
BRANCH  45  47
ATOM     47  O   UNK d   0     -16.475 -17.216  -8.304  0.00  0.00    -0.776 OA
ATOM     48  H   UNK d   0     -15.552 -17.660  -8.169  0.00  0.00     0.167 HD
ENDBRANCH  45  47
ENDBRANCH  44  45
ENDBRANCH  43  44
ENDBRANCH  27  43
BRANCH  24  49
ATOM     49  C   UNK d   0     -19.447 -17.768 -11.047  0.00  0.00     0.052 C 
BRANCH  49  50
ATOM     50  C   UNK d   0     -19.974 -17.680  -9.637  0.00  0.00     0.115 C 
BRANCH  50  51
ATOM     51  C   UNK d   0     -21.420 -17.661  -9.468  0.00  0.00     0.139 C 
ATOM     52  O   UNK d   0     -22.121 -18.700  -9.517  0.00  0.00    -0.650 OA
BRANCH  51  53
ATOM     53  O   UNK d   0     -22.069 -16.457  -9.245  0.00  0.00    -0.776 OA
ATOM     54  H   UNK d   0     -22.082 -15.779  -9.987  0.00  0.00     0.167 HD
ENDBRANCH  51  53
ENDBRANCH  50  51
ENDBRANCH  49  50
ENDBRANCH  24  49
BRANCH  21  55
ATOM     55  C   UNK d   0     -21.461 -17.196 -13.319  0.00  0.00     0.151 C 
BRANCH  55  56
ATOM     56  C   UNK d   0     -20.857 -17.938 -14.436  0.00  0.00     0.143 C 
ATOM     57  O   UNK d   0     -20.301 -19.045 -14.290  0.00  0.00    -0.650 OA
BRANCH  56  58
ATOM     58  O   UNK d   0     -20.919 -17.364 -15.705  0.00  0.00    -0.776 OA
ATOM     59  H   UNK d   0     -21.876 -17.225 -16.075  0.00  0.00     0.167 HD
ENDBRANCH  56  58
ENDBRANCH  55  56
ENDBRANCH  21  55
BRANCH  18  60
ATOM     60  C   UNK d   0     -20.959 -13.261 -16.934  0.00  0.00     0.151 C 
BRANCH  60  61
ATOM     61  C   UNK d   0     -19.770 -14.078 -17.217  0.00  0.00     0.143 C 
ATOM     62  O   UNK d   0     -18.595 -13.708 -17.209  0.00  0.00    -0.650 OA
BRANCH  61  63
ATOM     63  O   UNK d   0     -20.031 -15.434 -17.529  0.00  0.00    -0.776 OA
ATOM     64  H   UNK d   0     -19.982 -16.147 -16.824  0.00  0.00     0.167 HD
ENDBRANCH  61  63
ENDBRANCH  60  61
ENDBRANCH  18  60
BRANCH  14  65
ATOM     65  C   UNK d   0     -20.169 -10.337 -17.124  0.00  0.00     0.052 C 
BRANCH  65  66
ATOM     66  C   UNK d   0     -18.880 -10.476 -17.854  0.00  0.00     0.115 C 
BRANCH  66  67
ATOM     67  C   UNK d   0     -18.113  -9.305 -18.174  0.00  0.00     0.139 C 
ATOM     68  O   UNK d   0     -16.830  -9.382 -18.136  0.00  0.00    -0.650 OA
BRANCH  67  69
ATOM     69  O   UNK d   0     -18.590  -8.045 -18.534  0.00  0.00    -0.776 OA
ATOM     70  H   UNK d   0     -18.215  -7.253 -17.993  0.00  0.00     0.167 HD
ENDBRANCH  67  69
ENDBRANCH  66  67
ENDBRANCH  65  66
ENDBRANCH  14  65
ENDBRANCH   6   7
ENDBRANCH   5   6
ENDBRANCH   2   5
TORSDOF 28
ENDMDL
MODEL 20
REMARK VINA RESULT:      -8.3      2.200      7.455
REMARK  28 active torsions:
REMARK  status: ('A' for Active; 'I' for Inactive)
REMARK    1  A    between atoms: C_2  and  O_3 
REMARK    2  A    between atoms: C_2  and  C_4 
REMARK    3  A    between atoms: C_4  and  C_5 
REMARK    4  A    between atoms: C_5  and  C_6 
REMARK    5  A    between atoms: C_7  and  C_8 
REMARK    6  A    between atoms: C_8  and  C_9 
REMARK    7  A    between atoms: C_9  and  O_11 
REMARK    8  A    between atoms: C_28  and  C_29 
REMARK    9  A    between atoms: C_29  and  C_30 
REMARK   10  A    between atoms: C_30  and  O_32 
REMARK   11  A    between atoms: C_33  and  C_34 
REMARK   12  A    between atoms: C_34  and  C_35 
REMARK   13  A    between atoms: C_35  and  C_36 
REMARK   14  A    between atoms: C_36  and  O_38 
REMARK   15  A    between atoms: C_39  and  C_40 
REMARK   16  A    between atoms: C_40  and  C_41 
REMARK   17  A    between atoms: C_41  and  C_42 
REMARK   18  A    between atoms: C_42  and  O_44 
REMARK   19  A    between atoms: C_45  and  C_46 
REMARK   20  A    between atoms: C_46  and  C_47 
REMARK   21  A    between atoms: C_47  and  O_49 
REMARK   22  A    between atoms: C_50  and  C_51 
REMARK   23  A    between atoms: C_51  and  C_52 
REMARK   24  A    between atoms: C_52  and  O_54 
REMARK   25  A    between atoms: C_55  and  C_56 
REMARK   26  A    between atoms: C_56  and  C_57 
REMARK   27  A    between atoms: C_57  and  C_58 
REMARK   28  A    between atoms: C_58  and  O_60 
ROOT
ATOM      1  O   UNK d   0     -17.896  -4.006 -18.332  0.00  0.00    -0.650 OA
ATOM      2  C   UNK d   0     -16.925  -4.625 -17.844  0.00  0.00     0.139 C 
ENDROOT
BRANCH   2   3
ATOM      3  O   UNK d   0     -15.664  -4.088 -17.945  0.00  0.00    -0.776 OA
ATOM      4  H   UNK d   0     -15.062  -4.301 -18.743  0.00  0.00     0.167 HD
ENDBRANCH   2   3
BRANCH   2   5
ATOM      5  C   UNK d   0     -17.137  -5.933 -17.161  0.00  0.00     0.115 C 
BRANCH   5   6
ATOM      6  C   UNK d   0     -17.917  -5.733 -15.890  0.00  0.00     0.052 C 
BRANCH   6   7
ATOM      7  C   UNK d   0     -17.443  -6.628 -14.770  0.00  0.00    -0.020 A 
ATOM      8  C   UNK d   0     -16.547  -6.356 -13.856  0.00  0.00    -0.011 A 
ATOM      9  C   UNK d   0     -16.417  -7.523 -13.000  0.00  0.00     0.067 A 
ATOM     10  C   UNK d   0     -15.670  -7.866 -11.862  0.00  0.00     0.062 C 
ATOM     11  N   UNK d   0     -17.266  -8.461 -13.469  0.00  0.00    -0.248 NA
ATOM     12  C   UNK d   0     -15.884  -8.950 -11.003  0.00  0.00     0.041 A 
ATOM     13  N   UNK d   0     -16.190 -10.236 -11.258  0.00  0.00    -0.355 N 
ATOM     14  C   UNK d   0     -15.844  -8.735  -9.613  0.00  0.00    -0.022 A 
ATOM     15  C   UNK d   0     -16.353 -10.841 -10.066  0.00  0.00     0.042 A 
ATOM     16  H   UNK d   0     -16.269 -10.712 -12.260  0.00  0.00     0.166 HD
ATOM     17  C   UNK d   0     -16.677 -12.177  -9.756  0.00  0.00     0.062 C 
ATOM     18  C   UNK d   0     -16.144  -9.931  -9.011  0.00  0.00    -0.013 A 
ATOM     19  C   UNK d   0     -17.633 -12.984 -10.317  0.00  0.00     0.067 A 
ATOM     20  N   UNK d   0     -18.217 -12.544 -11.435  0.00  0.00    -0.248 NA
ATOM     21  C   UNK d   0     -18.235 -14.268  -9.998  0.00  0.00    -0.011 A 
ATOM     22  C   UNK d   0     -19.158 -13.446 -11.868  0.00  0.00     0.066 A 
ATOM     23  C   UNK d   0     -19.817 -13.130 -13.047  0.00  0.00     0.062 C 
ATOM     24  C   UNK d   0     -19.129 -14.531 -10.907  0.00  0.00    -0.020 A 
ATOM     25  C   UNK d   0     -19.578 -12.043 -13.902  0.00  0.00     0.041 A 
ATOM     26  N   UNK d   0     -19.289 -10.761 -13.648  0.00  0.00    -0.355 N 
ATOM     27  C   UNK d   0     -19.614 -12.261 -15.296  0.00  0.00    -0.022 A 
ATOM     28  C   UNK d   0     -19.135 -10.154 -14.836  0.00  0.00     0.042 A 
ATOM     29  H   UNK d   0     -19.220 -10.282 -12.641  0.00  0.00     0.166 HD
ATOM     30  C   UNK d   0     -18.821  -8.824 -15.158  0.00  0.00     0.062 C 
ATOM     31  C   UNK d   0     -19.334 -11.071 -15.895  0.00  0.00    -0.013 A 
ATOM     32  C   UNK d   0     -17.914  -7.984 -14.533  0.00  0.00     0.066 A 
BRANCH   8  33
ATOM     33  C   UNK d   0     -15.789  -5.100 -13.705  0.00  0.00     0.151 C 
BRANCH  33  34
ATOM     34  C   UNK d   0     -14.638  -5.015 -14.622  0.00  0.00     0.143 C 
ATOM     35  O   UNK d   0     -13.832  -5.951 -14.721  0.00  0.00    -0.650 OA
BRANCH  34  36
ATOM     36  O   UNK d   0     -14.459  -3.878 -15.377  0.00  0.00    -0.776 OA
ATOM     37  H   UNK d   0     -14.074  -3.925 -16.330  0.00  0.00     0.167 HD
ENDBRANCH  34  36
ENDBRANCH  33  34
ENDBRANCH   8  33
BRANCH  31  38
ATOM     38  C   UNK d   0     -19.247 -10.820 -17.382  0.00  0.00     0.151 C 
BRANCH  38  39
ATOM     39  C   UNK d   0     -17.949 -11.150 -17.932  0.00  0.00     0.143 C 
ATOM     40  O   UNK d   0     -16.908 -10.569 -17.577  0.00  0.00    -0.650 OA
BRANCH  39  41
ATOM     41  O   UNK d   0     -17.847 -12.154 -18.895  0.00  0.00    -0.776 OA
ATOM     42  H   UNK d   0     -17.571 -13.084 -18.565  0.00  0.00     0.167 HD
ENDBRANCH  39  41
ENDBRANCH  38  39
ENDBRANCH  31  38
BRANCH  27  43
ATOM     43  C   UNK d   0     -19.901 -13.529 -16.061  0.00  0.00     0.052 C 
BRANCH  43  44
ATOM     44  C   UNK d   0     -21.266 -14.079 -15.803  0.00  0.00     0.115 C 
BRANCH  44  45
ATOM     45  C   UNK d   0     -21.128 -15.559 -15.774  0.00  0.00     0.139 C 
ATOM     46  O   UNK d   0     -21.148 -16.176 -16.868  0.00  0.00    -0.650 OA
BRANCH  45  47
ATOM     47  O   UNK d   0     -20.976 -16.272 -14.605  0.00  0.00    -0.776 OA
ATOM     48  H   UNK d   0     -21.722 -16.867 -14.210  0.00  0.00     0.167 HD
ENDBRANCH  45  47
ENDBRANCH  44  45
ENDBRANCH  43  44
ENDBRANCH  27  43
BRANCH  24  49
ATOM     49  C   UNK d   0     -19.951 -15.750 -10.990  0.00  0.00     0.052 C 
BRANCH  49  50
ATOM     50  C   UNK d   0     -21.084 -15.688  -9.998  0.00  0.00     0.115 C 
BRANCH  50  51
ATOM     51  C   UNK d   0     -22.395 -15.312 -10.509  0.00  0.00     0.139 C 
ATOM     52  O   UNK d   0     -22.772 -15.587 -11.673  0.00  0.00    -0.650 OA
BRANCH  51  53
ATOM     53  O   UNK d   0     -23.277 -14.619  -9.694  0.00  0.00    -0.776 OA
ATOM     54  H   UNK d   0     -23.673 -13.763 -10.042  0.00  0.00     0.167 HD
ENDBRANCH  51  53
ENDBRANCH  50  51
ENDBRANCH  49  50
ENDBRANCH  24  49
BRANCH  21  55
ATOM     55  C   UNK d   0     -17.850 -15.101  -8.820  0.00  0.00     0.151 C 
BRANCH  55  56
ATOM     56  C   UNK d   0     -16.958 -16.208  -9.195  0.00  0.00     0.143 C 
ATOM     57  O   UNK d   0     -17.235 -17.403  -8.972  0.00  0.00    -0.650 OA
BRANCH  56  58
ATOM     58  O   UNK d   0     -15.757 -15.889  -9.826  0.00  0.00    -0.776 OA
ATOM     59  H   UNK d   0     -15.747 -14.972 -10.307  0.00  0.00     0.167 HD
ENDBRANCH  56  58
ENDBRANCH  55  56
ENDBRANCH  21  55
BRANCH  18  60
ATOM     60  C   UNK d   0     -16.222 -10.154  -7.521  0.00  0.00     0.151 C 
BRANCH  60  61
ATOM     61  C   UNK d   0     -17.638  -9.989  -7.161  0.00  0.00     0.143 C 
ATOM     62  O   UNK d   0     -18.325  -8.976  -7.296  0.00  0.00    -0.650 OA
BRANCH  61  63
ATOM     63  O   UNK d   0     -18.255 -11.134  -6.602  0.00  0.00    -0.776 OA
ATOM     64  H   UNK d   0     -18.408 -11.209  -5.612  0.00  0.00     0.167 HD
ENDBRANCH  61  63
ENDBRANCH  60  61
ENDBRANCH  18  60
BRANCH  14  65
ATOM     65  C   UNK d   0     -15.451  -7.521  -8.820  0.00  0.00     0.052 C 
BRANCH  65  66
ATOM     66  C   UNK d   0     -13.979  -7.313  -8.765  0.00  0.00     0.115 C 
BRANCH  66  67
ATOM     67  C   UNK d   0     -13.364  -6.898  -7.536  0.00  0.00     0.139 C 
ATOM     68  O   UNK d   0     -14.000  -6.076  -6.779  0.00  0.00    -0.650 OA
BRANCH  67  69
ATOM     69  O   UNK d   0     -12.121  -7.279  -7.033  0.00  0.00    -0.776 OA
ATOM     70  H   UNK d   0     -11.446  -6.516  -6.882  0.00  0.00     0.167 HD
ENDBRANCH  67  69
ENDBRANCH  66  67
ENDBRANCH  65  66
ENDBRANCH  14  65
ENDBRANCH   6   7
ENDBRANCH   5   6
ENDBRANCH   2   5
TORSDOF 28
ENDMDL
