MODEL 1
REMARK VINA RESULT:     -10.2      0.000      0.000
REMARK  28 active torsions:
REMARK  status: ('A' for Active; 'I' for Inactive)
REMARK    1  A    between atoms: C_2  and  O_3 
REMARK    2  A    between atoms: C_2  and  C_4 
REMARK    3  A    between atoms: C_4  and  C_5 
REMARK    4  A    between atoms: C_5  and  C_6 
REMARK    5  A    between atoms: C_7  and  C_8 
REMARK    6  A    between atoms: C_8  and  C_9 
REMARK    7  A    between atoms: C_9  and  O_11 
REMARK    8  A    between atoms: C_28  and  C_29 
REMARK    9  A    between atoms: C_29  and  C_30 
REMARK   10  A    between atoms: C_30  and  O_32 
REMARK   11  A    between atoms: C_33  and  C_34 
REMARK   12  A    between atoms: C_34  and  C_35 
REMARK   13  A    between atoms: C_35  and  C_36 
REMARK   14  A    between atoms: C_36  and  O_38 
REMARK   15  A    between atoms: C_39  and  C_40 
REMARK   16  A    between atoms: C_40  and  C_41 
REMARK   17  A    between atoms: C_41  and  C_42 
REMARK   18  A    between atoms: C_42  and  O_44 
REMARK   19  A    between atoms: C_45  and  C_46 
REMARK   20  A    between atoms: C_46  and  C_47 
REMARK   21  A    between atoms: C_47  and  O_49 
REMARK   22  A    between atoms: C_50  and  C_51 
REMARK   23  A    between atoms: C_51  and  C_52 
REMARK   24  A    between atoms: C_52  and  O_54 
REMARK   25  A    between atoms: C_55  and  C_56 
REMARK   26  A    between atoms: C_56  and  C_57 
REMARK   27  A    between atoms: C_57  and  C_58 
REMARK   28  A    between atoms: C_58  and  O_60 
ROOT
ATOM      1  O   UNK d   0       0.785   7.707  -6.372  0.00  0.00    -0.650 OA
ATOM      2  C   UNK d   0      -0.055   6.780  -6.344  0.00  0.00     0.139 C 
ENDROOT
BRANCH   2   3
ATOM      3  O   UNK d   0      -1.394   7.086  -6.291  0.00  0.00    -0.776 OA
ATOM      4  H   UNK d   0      -2.103   6.398  -6.552  0.00  0.00     0.167 HD
ENDBRANCH   2   3
BRANCH   2   5
ATOM      5  C   UNK d   0       0.396   5.360  -6.365  0.00  0.00     0.115 C 
BRANCH   5   6
ATOM      6  C   UNK d   0       1.309   5.125  -7.538  0.00  0.00     0.052 C 
BRANCH   6   7
ATOM      7  C   UNK d   0       0.688   4.238  -8.590  0.00  0.00    -0.020 A 
ATOM      8  C   UNK d   0       1.086   3.051  -8.970  0.00  0.00    -0.011 A 
ATOM      9  C   UNK d   0       0.184   2.591 -10.013  0.00  0.00     0.067 A 
ATOM     10  C   UNK d   0       0.048   1.436 -10.798  0.00  0.00     0.062 C 
ATOM     11  N   UNK d   0      -0.731   3.564 -10.208  0.00  0.00    -0.248 NA
ATOM     12  C   UNK d   0      -1.061   1.057 -11.563  0.00  0.00     0.041 A 
ATOM     13  N   UNK d   0      -1.861   1.770 -12.377  0.00  0.00    -0.355 N 
ATOM     14  C   UNK d   0      -1.518  -0.271 -11.487  0.00  0.00    -0.022 A 
ATOM     15  C   UNK d   0      -2.820   0.932 -12.813  0.00  0.00     0.042 A 
ATOM     16  H   UNK d   0      -1.740   2.841 -12.653  0.00  0.00     0.166 HD
ATOM     17  C   UNK d   0      -3.906   1.158 -13.682  0.00  0.00     0.062 C 
ATOM     18  C   UNK d   0      -2.639  -0.358 -12.276  0.00  0.00    -0.013 A 
ATOM     19  C   UNK d   0      -4.788   2.207 -13.705  0.00  0.00     0.067 A 
ATOM     20  N   UNK d   0      -4.491   3.264 -12.944  0.00  0.00    -0.248 NA
ATOM     21  C   UNK d   0      -6.051   2.497 -14.364  0.00  0.00    -0.011 A 
ATOM     22  C   UNK d   0      -5.468   4.223 -13.057  0.00  0.00     0.066 A 
ATOM     23  C   UNK d   0      -5.266   5.396 -12.345  0.00  0.00     0.062 C 
ATOM     24  C   UNK d   0      -6.445   3.675 -13.978  0.00  0.00    -0.020 A 
ATOM     25  C   UNK d   0      -4.140   5.762 -11.593  0.00  0.00     0.041 A 
ATOM     26  N   UNK d   0      -3.352   5.056 -10.772  0.00  0.00    -0.355 N 
ATOM     27  C   UNK d   0      -3.678   7.094 -11.673  0.00  0.00    -0.022 A 
ATOM     28  C   UNK d   0      -2.401   5.893 -10.329  0.00  0.00     0.042 A 
ATOM     29  H   UNK d   0      -3.482   3.983 -10.487  0.00  0.00     0.166 HD
ATOM     30  C   UNK d   0      -1.321   5.684  -9.457  0.00  0.00     0.062 C 
ATOM     31  C   UNK d   0      -2.578   7.185 -10.877  0.00  0.00    -0.013 A 
ATOM     32  C   UNK d   0      -0.483   4.582  -9.382  0.00  0.00     0.066 A 
BRANCH   8  33
ATOM     33  C   UNK d   0       2.243   2.298  -8.452  0.00  0.00     0.151 C 
BRANCH  33  34
ATOM     34  C   UNK d   0       3.495   2.614  -9.164  0.00  0.00     0.143 C 
ATOM     35  O   UNK d   0       4.487   3.033  -8.551  0.00  0.00    -0.650 OA
BRANCH  34  36
ATOM     36  O   UNK d   0       3.559   2.442 -10.527  0.00  0.00    -0.776 OA
ATOM     37  H   UNK d   0       4.291   2.898 -11.089  0.00  0.00     0.167 HD
ENDBRANCH  34  36
ENDBRANCH  33  34
ENDBRANCH   8  33
BRANCH  31  38
ATOM     38  C   UNK d   0      -1.735   8.421 -10.659  0.00  0.00     0.151 C 
BRANCH  38  39
ATOM     39  C   UNK d   0      -1.934   9.013  -9.354  0.00  0.00     0.143 C 
ATOM     40  O   UNK d   0      -3.057   9.351  -8.941  0.00  0.00    -0.650 OA
BRANCH  39  41
ATOM     41  O   UNK d   0      -0.837   9.216  -8.518  0.00  0.00    -0.776 OA
ATOM     42  H   UNK d   0      -0.100   8.504  -8.542  0.00  0.00     0.167 HD
ENDBRANCH  39  41
ENDBRANCH  38  39
ENDBRANCH  31  38
BRANCH  27  43
ATOM     43  C   UNK d   0      -4.234   8.255 -12.459  0.00  0.00     0.052 C 
BRANCH  43  44
ATOM     44  C   UNK d   0      -5.243   9.054 -11.700  0.00  0.00     0.115 C 
BRANCH  44  45
ATOM     45  C   UNK d   0      -4.724  10.445 -11.639  0.00  0.00     0.139 C 
ATOM     46  O   UNK d   0      -4.151  10.908 -12.656  0.00  0.00    -0.650 OA
BRANCH  45  47
ATOM     47  O   UNK d   0      -4.850  11.241 -10.521  0.00  0.00    -0.776 OA
ATOM     48  H   UNK d   0      -4.234  12.050 -10.336  0.00  0.00     0.167 HD
ENDBRANCH  45  47
ENDBRANCH  44  45
ENDBRANCH  43  44
ENDBRANCH  27  43
BRANCH  24  49
ATOM     49  C   UNK d   0      -7.659   4.377 -14.431  0.00  0.00     0.052 C 
BRANCH  49  50
ATOM     50  C   UNK d   0      -8.569   4.659 -13.263  0.00  0.00     0.115 C 
BRANCH  50  51
ATOM     51  C   UNK d   0      -9.678   5.575 -13.491  0.00  0.00     0.139 C 
ATOM     52  O   UNK d   0     -10.639   5.685 -12.693  0.00  0.00    -0.650 OA
BRANCH  51  53
ATOM     53  O   UNK d   0      -9.693   6.365 -14.630  0.00  0.00    -0.776 OA
ATOM     54  H   UNK d   0      -9.821   5.915 -15.519  0.00  0.00     0.167 HD
ENDBRANCH  51  53
ENDBRANCH  50  51
ENDBRANCH  49  50
ENDBRANCH  24  49
BRANCH  21  55
ATOM     55  C   UNK d   0      -6.729   1.566 -15.315  0.00  0.00     0.151 C 
BRANCH  55  56
ATOM     56  C   UNK d   0      -6.672   2.056 -16.701  0.00  0.00     0.143 C 
ATOM     57  O   UNK d   0      -5.659   1.934 -17.418  0.00  0.00    -0.650 OA
BRANCH  56  58
ATOM     58  O   UNK d   0      -7.807   2.679 -17.216  0.00  0.00    -0.776 OA
ATOM     59  H   UNK d   0      -7.620   3.398 -17.939  0.00  0.00     0.167 HD
ENDBRANCH  56  58
ENDBRANCH  55  56
ENDBRANCH  21  55
BRANCH  18  60
ATOM     60  C   UNK d   0      -3.459  -1.607 -12.477  0.00  0.00     0.151 C 
BRANCH  60  61
ATOM     61  C   UNK d   0      -4.440  -1.628 -11.381  0.00  0.00     0.143 C 
ATOM     62  O   UNK d   0      -4.749  -0.691 -10.645  0.00  0.00    -0.650 OA
BRANCH  61  63
ATOM     63  O   UNK d   0      -5.083  -2.871 -11.172  0.00  0.00    -0.776 OA
ATOM     64  H   UNK d   0      -5.461  -3.115 -10.273  0.00  0.00     0.167 HD
ENDBRANCH  61  63
ENDBRANCH  60  61
ENDBRANCH  18  60
BRANCH  14  65
ATOM     65  C   UNK d   0      -0.927  -1.475 -10.810  0.00  0.00     0.052 C 
BRANCH  65  66
ATOM     66  C   UNK d   0      -1.487  -1.713  -9.453  0.00  0.00     0.115 C 
BRANCH  66  67
ATOM     67  C   UNK d   0      -1.822  -0.596  -8.615  0.00  0.00     0.139 C 
ATOM     68  O   UNK d   0      -0.937  -0.160  -7.791  0.00  0.00    -0.650 OA
BRANCH  67  69
ATOM     69  O   UNK d   0      -3.025   0.107  -8.572  0.00  0.00    -0.776 OA
ATOM     70  H   UNK d   0      -3.027   1.022  -9.045  0.00  0.00     0.167 HD
ENDBRANCH  67  69
ENDBRANCH  66  67
ENDBRANCH  65  66
ENDBRANCH  14  65
ENDBRANCH   6   7
ENDBRANCH   5   6
ENDBRANCH   2   5
TORSDOF 28
ENDMDL
MODEL 2
REMARK VINA RESULT:      -9.8      1.898     10.443
REMARK  28 active torsions:
REMARK  status: ('A' for Active; 'I' for Inactive)
REMARK    1  A    between atoms: C_2  and  O_3 
REMARK    2  A    between atoms: C_2  and  C_4 
REMARK    3  A    between atoms: C_4  and  C_5 
REMARK    4  A    between atoms: C_5  and  C_6 
REMARK    5  A    between atoms: C_7  and  C_8 
REMARK    6  A    between atoms: C_8  and  C_9 
REMARK    7  A    between atoms: C_9  and  O_11 
REMARK    8  A    between atoms: C_28  and  C_29 
REMARK    9  A    between atoms: C_29  and  C_30 
REMARK   10  A    between atoms: C_30  and  O_32 
REMARK   11  A    between atoms: C_33  and  C_34 
REMARK   12  A    between atoms: C_34  and  C_35 
REMARK   13  A    between atoms: C_35  and  C_36 
REMARK   14  A    between atoms: C_36  and  O_38 
REMARK   15  A    between atoms: C_39  and  C_40 
REMARK   16  A    between atoms: C_40  and  C_41 
REMARK   17  A    between atoms: C_41  and  C_42 
REMARK   18  A    between atoms: C_42  and  O_44 
REMARK   19  A    between atoms: C_45  and  C_46 
REMARK   20  A    between atoms: C_46  and  C_47 
REMARK   21  A    between atoms: C_47  and  O_49 
REMARK   22  A    between atoms: C_50  and  C_51 
REMARK   23  A    between atoms: C_51  and  C_52 
REMARK   24  A    between atoms: C_52  and  O_54 
REMARK   25  A    between atoms: C_55  and  C_56 
REMARK   26  A    between atoms: C_56  and  C_57 
REMARK   27  A    between atoms: C_57  and  C_58 
REMARK   28  A    between atoms: C_58  and  O_60 
ROOT
ATOM      1  O   UNK d   0      -8.239   3.873 -16.284  0.00  0.00    -0.650 OA
ATOM      2  C   UNK d   0      -7.503   2.886 -16.064  0.00  0.00     0.139 C 
ENDROOT
BRANCH   2   3
ATOM      3  O   UNK d   0      -7.619   1.770 -16.858  0.00  0.00    -0.776 OA
ATOM      4  H   UNK d   0      -6.830   1.436 -17.416  0.00  0.00     0.167 HD
ENDBRANCH   2   3
BRANCH   2   5
ATOM      5  C   UNK d   0      -6.513   2.923 -14.951  0.00  0.00     0.115 C 
BRANCH   5   6
ATOM      6  C   UNK d   0      -6.987   3.853 -13.868  0.00  0.00     0.052 C 
BRANCH   6   7
ATOM      7  C   UNK d   0      -5.850   4.435 -13.062  0.00  0.00    -0.020 A 
ATOM      8  C   UNK d   0      -5.617   5.697 -12.805  0.00  0.00    -0.011 A 
ATOM      9  C   UNK d   0      -4.408   5.772 -12.003  0.00  0.00     0.067 A 
ATOM     10  C   UNK d   0      -3.655   6.791 -11.399  0.00  0.00     0.062 C 
ATOM     11  N   UNK d   0      -3.966   4.509 -11.824  0.00  0.00    -0.248 NA
ATOM     12  C   UNK d   0      -2.663   6.647 -10.424  0.00  0.00     0.041 A 
ATOM     13  N   UNK d   0      -1.657   5.759 -10.307  0.00  0.00    -0.355 N 
ATOM     14  C   UNK d   0      -2.675   7.504  -9.308  0.00  0.00    -0.022 A 
ATOM     15  C   UNK d   0      -1.036   6.025  -9.142  0.00  0.00     0.042 A 
ATOM     16  H   UNK d   0      -1.379   4.972 -11.042  0.00  0.00     0.166 HD
ATOM     17  C   UNK d   0       0.073   5.404  -8.535  0.00  0.00     0.062 C 
ATOM     18  C   UNK d   0      -1.647   7.113  -8.487  0.00  0.00    -0.013 A 
ATOM     19  C   UNK d   0       0.342   4.067  -8.393  0.00  0.00     0.067 A 
ATOM     20  N   UNK d   0      -0.429   3.219  -9.079  0.00  0.00    -0.248 NA
ATOM     21  C   UNK d   0       1.292   3.266  -7.639  0.00  0.00    -0.011 A 
ATOM     22  C   UNK d   0      -0.053   1.922  -8.827  0.00  0.00     0.066 A 
ATOM     23  C   UNK d   0      -0.751   0.935  -9.507  0.00  0.00     0.062 C 
ATOM     24  C   UNK d   0       1.052   2.012  -7.893  0.00  0.00    -0.020 A 
ATOM     25  C   UNK d   0      -1.735   1.101 -10.493  0.00  0.00     0.041 A 
ATOM     26  N   UNK d   0      -2.744   1.974 -10.602  0.00  0.00    -0.355 N 
ATOM     27  C   UNK d   0      -1.719   0.244 -11.615  0.00  0.00    -0.022 A 
ATOM     28  C   UNK d   0      -3.370   1.705 -11.759  0.00  0.00     0.042 A 
ATOM     29  H   UNK d   0      -3.029   2.757  -9.857  0.00  0.00     0.166 HD
ATOM     30  C   UNK d   0      -4.480   2.309 -12.370  0.00  0.00     0.062 C 
ATOM     31  C   UNK d   0      -2.749   0.619 -12.421  0.00  0.00    -0.013 A 
ATOM     32  C   UNK d   0      -4.791   3.658 -12.436  0.00  0.00     0.066 A 
BRANCH   8  33
ATOM     33  C   UNK d   0      -6.421   6.852 -13.245  0.00  0.00     0.151 C 
BRANCH  33  34
ATOM     34  C   UNK d   0      -5.602   8.046 -13.519  0.00  0.00     0.143 C 
ATOM     35  O   UNK d   0      -5.811   9.112 -12.922  0.00  0.00    -0.650 OA
BRANCH  34  36
ATOM     36  O   UNK d   0      -4.593   7.974 -14.451  0.00  0.00    -0.776 OA
ATOM     37  H   UNK d   0      -3.690   7.535 -14.228  0.00  0.00     0.167 HD
ENDBRANCH  34  36
ENDBRANCH  33  34
ENDBRANCH   8  33
BRANCH  31  38
ATOM     38  C   UNK d   0      -3.116  -0.005 -13.747  0.00  0.00     0.151 C 
BRANCH  38  39
ATOM     39  C   UNK d   0      -2.462   0.634 -14.869  0.00  0.00     0.143 C 
ATOM     40  O   UNK d   0      -3.019   1.510 -15.554  0.00  0.00    -0.650 OA
BRANCH  39  41
ATOM     41  O   UNK d   0      -1.160   0.265 -15.205  0.00  0.00    -0.776 OA
ATOM     42  H   UNK d   0      -0.620   0.934 -15.762  0.00  0.00     0.167 HD
ENDBRANCH  39  41
ENDBRANCH  38  39
ENDBRANCH  31  38
BRANCH  27  43
ATOM     43  C   UNK d   0      -0.782  -0.894 -11.938  0.00  0.00     0.052 C 
BRANCH  43  44
ATOM     44  C   UNK d   0      -1.461  -2.224 -11.979  0.00  0.00     0.115 C 
BRANCH  44  45
ATOM     45  C   UNK d   0      -1.954  -2.492 -10.603  0.00  0.00     0.139 C 
ATOM     46  O   UNK d   0      -3.182  -2.704 -10.445  0.00  0.00    -0.650 OA
BRANCH  45  47
ATOM     47  O   UNK d   0      -1.123  -2.523  -9.504  0.00  0.00    -0.776 OA
ATOM     48  H   UNK d   0      -1.370  -2.087  -8.602  0.00  0.00     0.167 HD
ENDBRANCH  45  47
ENDBRANCH  44  45
ENDBRANCH  43  44
ENDBRANCH  27  43
BRANCH  24  49
ATOM     49  C   UNK d   0       1.805   0.860  -7.368  0.00  0.00     0.052 C 
BRANCH  49  50
ATOM     50  C   UNK d   0       1.108   0.284  -6.162  0.00  0.00     0.115 C 
BRANCH  50  51
ATOM     51  C   UNK d   0       0.561  -1.060  -6.290  0.00  0.00     0.139 C 
ATOM     52  O   UNK d   0       0.626  -1.718  -7.356  0.00  0.00    -0.650 OA
BRANCH  51  53
ATOM     53  O   UNK d   0      -0.063  -1.654  -5.204  0.00  0.00    -0.776 OA
ATOM     54  H   UNK d   0      -1.067  -1.660  -5.177  0.00  0.00     0.167 HD
ENDBRANCH  51  53
ENDBRANCH  50  51
ENDBRANCH  49  50
ENDBRANCH  24  49
BRANCH  21  55
ATOM     55  C   UNK d   0       2.342   3.838  -6.745  0.00  0.00     0.151 C 
BRANCH  55  56
ATOM     56  C   UNK d   0       3.697   3.608  -7.269  0.00  0.00     0.143 C 
ATOM     57  O   UNK d   0       4.050   3.967  -8.410  0.00  0.00    -0.650 OA
BRANCH  56  58
ATOM     58  O   UNK d   0       4.611   2.959  -6.441  0.00  0.00    -0.776 OA
ATOM     59  H   UNK d   0       5.426   3.532  -6.157  0.00  0.00     0.167 HD
ENDBRANCH  56  58
ENDBRANCH  55  56
ENDBRANCH  21  55
BRANCH  18  60
ATOM     60  C   UNK d   0      -1.301   7.757  -7.168  0.00  0.00     0.151 C 
BRANCH  60  61
ATOM     61  C   UNK d   0      -2.339   7.322  -6.221  0.00  0.00     0.143 C 
ATOM     62  O   UNK d   0      -2.915   6.234  -6.200  0.00  0.00    -0.650 OA
BRANCH  61  63
ATOM     63  O   UNK d   0      -2.696   8.277  -5.238  0.00  0.00    -0.776 OA
ATOM     64  H   UNK d   0      -2.233   8.302  -4.347  0.00  0.00     0.167 HD
ENDBRANCH  61  63
ENDBRANCH  60  61
ENDBRANCH  18  60
BRANCH  14  65
ATOM     65  C   UNK d   0      -3.515   8.713  -9.010  0.00  0.00     0.052 C 
BRANCH  65  66
ATOM     66  C   UNK d   0      -2.998   9.953  -9.648  0.00  0.00     0.115 C 
BRANCH  66  67
ATOM     67  C   UNK d   0      -3.748  10.578 -10.700  0.00  0.00     0.139 C 
ATOM     68  O   UNK d   0      -3.167  10.786 -11.828  0.00  0.00    -0.650 OA
BRANCH  67  69
ATOM     69  O   UNK d   0      -5.074  11.008 -10.664  0.00  0.00    -0.776 OA
ATOM     70  H   UNK d   0      -5.696  10.489 -10.027  0.00  0.00     0.167 HD
ENDBRANCH  67  69
ENDBRANCH  66  67
ENDBRANCH  65  66
ENDBRANCH  14  65
ENDBRANCH   6   7
ENDBRANCH   5   6
ENDBRANCH   2   5
TORSDOF 28
ENDMDL
MODEL 3
REMARK VINA RESULT:      -9.8      1.912      8.157
REMARK  28 active torsions:
REMARK  status: ('A' for Active; 'I' for Inactive)
REMARK    1  A    between atoms: C_2  and  O_3 
REMARK    2  A    between atoms: C_2  and  C_4 
REMARK    3  A    between atoms: C_4  and  C_5 
REMARK    4  A    between atoms: C_5  and  C_6 
REMARK    5  A    between atoms: C_7  and  C_8 
REMARK    6  A    between atoms: C_8  and  C_9 
REMARK    7  A    between atoms: C_9  and  O_11 
REMARK    8  A    between atoms: C_28  and  C_29 
REMARK    9  A    between atoms: C_29  and  C_30 
REMARK   10  A    between atoms: C_30  and  O_32 
REMARK   11  A    between atoms: C_33  and  C_34 
REMARK   12  A    between atoms: C_34  and  C_35 
REMARK   13  A    between atoms: C_35  and  C_36 
REMARK   14  A    between atoms: C_36  and  O_38 
REMARK   15  A    between atoms: C_39  and  C_40 
REMARK   16  A    between atoms: C_40  and  C_41 
REMARK   17  A    between atoms: C_41  and  C_42 
REMARK   18  A    between atoms: C_42  and  O_44 
REMARK   19  A    between atoms: C_45  and  C_46 
REMARK   20  A    between atoms: C_46  and  C_47 
REMARK   21  A    between atoms: C_47  and  O_49 
REMARK   22  A    between atoms: C_50  and  C_51 
REMARK   23  A    between atoms: C_51  and  C_52 
REMARK   24  A    between atoms: C_52  and  O_54 
REMARK   25  A    between atoms: C_55  and  C_56 
REMARK   26  A    between atoms: C_56  and  C_57 
REMARK   27  A    between atoms: C_57  and  C_58 
REMARK   28  A    between atoms: C_58  and  O_60 
ROOT
ATOM      1  O   UNK d   0      -3.270  12.642 -12.625  0.00  0.00    -0.650 OA
ATOM      2  C   UNK d   0      -4.162  12.451 -11.769  0.00  0.00     0.139 C 
ENDROOT
BRANCH   2   3
ATOM      3  O   UNK d   0      -4.260  13.304 -10.696  0.00  0.00    -0.776 OA
ATOM      4  H   UNK d   0      -4.663  14.237 -10.799  0.00  0.00     0.167 HD
ENDBRANCH   2   3
BRANCH   2   5
ATOM      5  C   UNK d   0      -5.107  11.308 -11.916  0.00  0.00     0.115 C 
BRANCH   5   6
ATOM      6  C   UNK d   0      -4.736  10.480 -13.116  0.00  0.00     0.052 C 
BRANCH   6   7
ATOM      7  C   UNK d   0      -4.805   8.996 -12.842  0.00  0.00    -0.020 A 
ATOM      8  C   UNK d   0      -5.679   8.139 -13.306  0.00  0.00    -0.011 A 
ATOM      9  C   UNK d   0      -5.351   6.832 -12.763  0.00  0.00     0.067 A 
ATOM     10  C   UNK d   0      -5.862   5.530 -12.879  0.00  0.00     0.062 C 
ATOM     11  N   UNK d   0      -4.267   6.986 -11.974  0.00  0.00    -0.248 NA
ATOM     12  C   UNK d   0      -5.238   4.337 -12.495  0.00  0.00     0.041 A 
ATOM     13  N   UNK d   0      -4.533   4.021 -11.392  0.00  0.00    -0.355 N 
ATOM     14  C   UNK d   0      -5.258   3.244 -13.379  0.00  0.00    -0.022 A 
ATOM     15  C   UNK d   0      -4.098   2.758 -11.558  0.00  0.00     0.042 A 
ATOM     16  H   UNK d   0      -4.362   4.672 -10.506  0.00  0.00     0.166 HD
ATOM     17  C   UNK d   0      -3.321   1.941 -10.712  0.00  0.00     0.062 C 
ATOM     18  C   UNK d   0      -4.532   2.237 -12.792  0.00  0.00    -0.013 A 
ATOM     19  C   UNK d   0      -2.187   2.259 -10.009  0.00  0.00     0.067 A 
ATOM     20  N   UNK d   0      -1.861   3.552  -9.941  0.00  0.00    -0.248 NA
ATOM     21  C   UNK d   0      -1.167   1.521  -9.282  0.00  0.00    -0.011 A 
ATOM     22  C   UNK d   0      -0.701   3.714  -9.223  0.00  0.00     0.066 A 
ATOM     23  C   UNK d   0      -0.265   5.018  -9.041  0.00  0.00     0.062 C 
ATOM     24  C   UNK d   0      -0.298   2.378  -8.828  0.00  0.00    -0.020 A 
ATOM     25  C   UNK d   0      -0.913   6.203  -9.424  0.00  0.00     0.041 A 
ATOM     26  N   UNK d   0      -1.601   6.522 -10.526  0.00  0.00    -0.355 N 
ATOM     27  C   UNK d   0      -0.896   7.299  -8.534  0.00  0.00    -0.022 A 
ATOM     28  C   UNK d   0      -2.029   7.784 -10.368  0.00  0.00     0.042 A 
ATOM     29  H   UNK d   0      -1.762   5.871 -11.421  0.00  0.00     0.166 HD
ATOM     30  C   UNK d   0      -2.794   8.612 -11.205  0.00  0.00     0.062 C 
ATOM     31  C   UNK d   0      -1.601   8.303  -9.123  0.00  0.00    -0.013 A 
ATOM     32  C   UNK d   0      -3.889   8.265 -11.979  0.00  0.00     0.066 A 
BRANCH   8  33
ATOM     33  C   UNK d   0      -6.805   8.427 -14.213  0.00  0.00     0.151 C 
BRANCH  33  34
ATOM     34  C   UNK d   0      -8.061   7.784 -13.785  0.00  0.00     0.143 C 
ATOM     35  O   UNK d   0      -8.673   8.187 -12.786  0.00  0.00    -0.650 OA
BRANCH  34  36
ATOM     36  O   UNK d   0      -8.556   6.723 -14.506  0.00  0.00    -0.776 OA
ATOM     37  H   UNK d   0      -8.698   6.787 -15.523  0.00  0.00     0.167 HD
ENDBRANCH  34  36
ENDBRANCH  33  34
ENDBRANCH   8  33
BRANCH  31  38
ATOM     38  C   UNK d   0      -1.864   9.670  -8.535  0.00  0.00     0.151 C 
BRANCH  38  39
ATOM     39  C   UNK d   0      -3.070   9.714  -7.735  0.00  0.00     0.143 C 
ATOM     40  O   UNK d   0      -3.108  10.263  -6.620  0.00  0.00    -0.650 OA
BRANCH  39  41
ATOM     41  O   UNK d   0      -4.237   9.126  -8.220  0.00  0.00    -0.776 OA
ATOM     42  H   UNK d   0      -4.704   9.600  -8.999  0.00  0.00     0.167 HD
ENDBRANCH  39  41
ENDBRANCH  38  39
ENDBRANCH  31  38
BRANCH  27  43
ATOM     43  C   UNK d   0      -0.248   7.422  -7.177  0.00  0.00     0.052 C 
BRANCH  43  44
ATOM     44  C   UNK d   0      -0.806   6.472  -6.168  0.00  0.00     0.115 C 
BRANCH  44  45
ATOM     45  C   UNK d   0      -2.232   6.845  -5.976  0.00  0.00     0.139 C 
ATOM     46  O   UNK d   0      -3.107   6.155  -6.555  0.00  0.00    -0.650 OA
BRANCH  45  47
ATOM     47  O   UNK d   0      -2.628   7.906  -5.191  0.00  0.00    -0.776 OA
ATOM     48  H   UNK d   0      -2.184   8.129  -4.285  0.00  0.00     0.167 HD
ENDBRANCH  45  47
ENDBRANCH  44  45
ENDBRANCH  43  44
ENDBRANCH  27  43
BRANCH  24  49
ATOM     49  C   UNK d   0       0.880   2.065  -8.002  0.00  0.00     0.052 C 
BRANCH  49  50
ATOM     50  C   UNK d   0       2.141   2.194  -8.817  0.00  0.00     0.115 C 
BRANCH  50  51
ATOM     51  C   UNK d   0       3.191   3.053  -8.285  0.00  0.00     0.139 C 
ATOM     52  O   UNK d   0       4.406   2.866  -8.531  0.00  0.00    -0.650 OA
BRANCH  51  53
ATOM     53  O   UNK d   0       2.856   4.123  -7.470  0.00  0.00    -0.776 OA
ATOM     54  H   UNK d   0       3.287   4.184  -6.564  0.00  0.00     0.167 HD
ENDBRANCH  51  53
ENDBRANCH  50  51
ENDBRANCH  49  50
ENDBRANCH  24  49
BRANCH  21  55
ATOM     55  C   UNK d   0      -1.170   0.038  -9.113  0.00  0.00     0.151 C 
BRANCH  55  56
ATOM     56  C   UNK d   0      -1.037  -0.663 -10.399  0.00  0.00     0.143 C 
ATOM     57  O   UNK d   0      -1.785  -1.602 -10.737  0.00  0.00    -0.650 OA
BRANCH  56  58
ATOM     58  O   UNK d   0      -0.025  -0.248 -11.263  0.00  0.00    -0.776 OA
ATOM     59  H   UNK d   0      -0.091   0.740 -11.570  0.00  0.00     0.167 HD
ENDBRANCH  56  58
ENDBRANCH  55  56
ENDBRANCH  21  55
BRANCH  18  60
ATOM     60  C   UNK d   0      -4.287   0.879 -13.401  0.00  0.00     0.151 C 
BRANCH  60  61
ATOM     61  C   UNK d   0      -2.865   0.854 -13.774  0.00  0.00     0.143 C 
ATOM     62  O   UNK d   0      -2.083  -0.089 -13.655  0.00  0.00    -0.650 OA
BRANCH  61  63
ATOM     63  O   UNK d   0      -2.366   2.057 -14.329  0.00  0.00    -0.776 OA
ATOM     64  H   UNK d   0      -2.501   2.938 -13.864  0.00  0.00     0.167 HD
ENDBRANCH  61  63
ENDBRANCH  60  61
ENDBRANCH  18  60
BRANCH  14  65
ATOM     65  C   UNK d   0      -5.985   3.046 -14.679  0.00  0.00     0.052 C 
BRANCH  65  66
ATOM     66  C   UNK d   0      -7.464   3.121 -14.535  0.00  0.00     0.115 C 
BRANCH  66  67
ATOM     67  C   UNK d   0      -8.284   3.304 -15.700  0.00  0.00     0.139 C 
ATOM     68  O   UNK d   0      -9.029   2.329 -16.085  0.00  0.00    -0.650 OA
BRANCH  67  69
ATOM     69  O   UNK d   0      -8.385   4.440 -16.502  0.00  0.00    -0.776 OA
ATOM     70  H   UNK d   0      -9.072   4.388 -17.268  0.00  0.00     0.167 HD
ENDBRANCH  67  69
ENDBRANCH  66  67
ENDBRANCH  65  66
ENDBRANCH  14  65
ENDBRANCH   6   7
ENDBRANCH   5   6
ENDBRANCH   2   5
TORSDOF 28
ENDMDL
MODEL 4
REMARK VINA RESULT:      -9.7      2.018      8.351
REMARK  28 active torsions:
REMARK  status: ('A' for Active; 'I' for Inactive)
REMARK    1  A    between atoms: C_2  and  O_3 
REMARK    2  A    between atoms: C_2  and  C_4 
REMARK    3  A    between atoms: C_4  and  C_5 
REMARK    4  A    between atoms: C_5  and  C_6 
REMARK    5  A    between atoms: C_7  and  C_8 
REMARK    6  A    between atoms: C_8  and  C_9 
REMARK    7  A    between atoms: C_9  and  O_11 
REMARK    8  A    between atoms: C_28  and  C_29 
REMARK    9  A    between atoms: C_29  and  C_30 
REMARK   10  A    between atoms: C_30  and  O_32 
REMARK   11  A    between atoms: C_33  and  C_34 
REMARK   12  A    between atoms: C_34  and  C_35 
REMARK   13  A    between atoms: C_35  and  C_36 
REMARK   14  A    between atoms: C_36  and  O_38 
REMARK   15  A    between atoms: C_39  and  C_40 
REMARK   16  A    between atoms: C_40  and  C_41 
REMARK   17  A    between atoms: C_41  and  C_42 
REMARK   18  A    between atoms: C_42  and  O_44 
REMARK   19  A    between atoms: C_45  and  C_46 
REMARK   20  A    between atoms: C_46  and  C_47 
REMARK   21  A    between atoms: C_47  and  O_49 
REMARK   22  A    between atoms: C_50  and  C_51 
REMARK   23  A    between atoms: C_51  and  C_52 
REMARK   24  A    between atoms: C_52  and  O_54 
REMARK   25  A    between atoms: C_55  and  C_56 
REMARK   26  A    between atoms: C_56  and  C_57 
REMARK   27  A    between atoms: C_57  and  C_58 
REMARK   28  A    between atoms: C_58  and  O_60 
ROOT
ATOM      1  O   UNK d   0      -4.501  13.141 -10.911  0.00  0.00    -0.650 OA
ATOM      2  C   UNK d   0      -4.476  11.893 -10.828  0.00  0.00     0.139 C 
ENDROOT
BRANCH   2   3
ATOM      3  O   UNK d   0      -3.864  11.302  -9.749  0.00  0.00    -0.776 OA
ATOM      4  H   UNK d   0      -3.783  11.791  -8.855  0.00  0.00     0.167 HD
ENDBRANCH   2   3
BRANCH   2   5
ATOM      5  C   UNK d   0      -5.103  11.060 -11.893  0.00  0.00     0.115 C 
BRANCH   5   6
ATOM      6  C   UNK d   0      -4.050  10.265 -12.616  0.00  0.00     0.052 C 
BRANCH   6   7
ATOM      7  C   UNK d   0      -4.208   8.777 -12.419  0.00  0.00    -0.020 A 
ATOM      8  C   UNK d   0      -5.083   7.985 -12.984  0.00  0.00    -0.011 A 
ATOM      9  C   UNK d   0      -4.855   6.640 -12.481  0.00  0.00     0.067 A 
ATOM     10  C   UNK d   0      -5.415   5.371 -12.695  0.00  0.00     0.062 C 
ATOM     11  N   UNK d   0      -3.826   6.706 -11.611  0.00  0.00    -0.248 NA
ATOM     12  C   UNK d   0      -4.877   4.134 -12.324  0.00  0.00     0.041 A 
ATOM     13  N   UNK d   0      -4.270   3.735 -11.191  0.00  0.00    -0.355 N 
ATOM     14  C   UNK d   0      -4.881   3.082 -13.259  0.00  0.00    -0.022 A 
ATOM     15  C   UNK d   0      -3.882   2.461 -11.384  0.00  0.00     0.042 A 
ATOM     16  H   UNK d   0      -4.135   4.337 -10.265  0.00  0.00     0.166 HD
ATOM     17  C   UNK d   0      -3.208   1.571 -10.525  0.00  0.00     0.062 C 
ATOM     18  C   UNK d   0      -4.247   2.016 -12.670  0.00  0.00    -0.013 A 
ATOM     19  C   UNK d   0      -2.115   1.801  -9.729  0.00  0.00     0.067 A 
ATOM     20  N   UNK d   0      -1.735   3.073  -9.576  0.00  0.00    -0.248 NA
ATOM     21  C   UNK d   0      -1.186   0.984  -8.966  0.00  0.00    -0.011 A 
ATOM     22  C   UNK d   0      -0.625   3.146  -8.771  0.00  0.00     0.066 A 
ATOM     23  C   UNK d   0      -0.145   4.418  -8.497  0.00  0.00     0.062 C 
ATOM     24  C   UNK d   0      -0.315   1.776  -8.412  0.00  0.00    -0.020 A 
ATOM     25  C   UNK d   0      -0.708   5.648  -8.868  0.00  0.00     0.041 A 
ATOM     26  N   UNK d   0      -1.298   6.049 -10.000  0.00  0.00    -0.355 N 
ATOM     27  C   UNK d   0      -0.707   6.702  -7.928  0.00  0.00    -0.022 A 
ATOM     28  C   UNK d   0      -1.678   7.323  -9.813  0.00  0.00     0.042 A 
ATOM     29  H   UNK d   0      -1.423   5.447 -10.934  0.00  0.00     0.166 HD
ATOM     30  C   UNK d   0      -2.341   8.223 -10.662  0.00  0.00     0.062 C 
ATOM     31  C   UNK d   0      -1.320   7.765  -8.518  0.00  0.00    -0.013 A 
ATOM     32  C   UNK d   0      -3.392   7.965 -11.529  0.00  0.00     0.066 A 
BRANCH   8  33
ATOM     33  C   UNK d   0      -6.125   8.366 -13.955  0.00  0.00     0.151 C 
BRANCH  33  34
ATOM     34  C   UNK d   0      -7.456   7.844 -13.597  0.00  0.00     0.143 C 
ATOM     35  O   UNK d   0      -8.176   8.440 -12.783  0.00  0.00    -0.650 OA
BRANCH  34  36
ATOM     36  O   UNK d   0      -7.902   6.679 -14.176  0.00  0.00    -0.776 OA
ATOM     37  H   UNK d   0      -8.524   6.034 -13.669  0.00  0.00     0.167 HD
ENDBRANCH  34  36
ENDBRANCH  33  34
ENDBRANCH   8  33
BRANCH  31  38
ATOM     38  C   UNK d   0      -1.563   9.116  -7.886  0.00  0.00     0.151 C 
BRANCH  38  39
ATOM     39  C   UNK d   0      -2.811   9.177  -7.155  0.00  0.00     0.143 C 
ATOM     40  O   UNK d   0      -2.852   9.266  -5.915  0.00  0.00    -0.650 OA
BRANCH  39  41
ATOM     41  O   UNK d   0      -4.018   9.138  -7.852  0.00  0.00    -0.776 OA
ATOM     42  H   UNK d   0      -4.024   9.555  -8.788  0.00  0.00     0.167 HD
ENDBRANCH  39  41
ENDBRANCH  38  39
ENDBRANCH  31  38
BRANCH  27  43
ATOM     43  C   UNK d   0      -0.156   6.734  -6.525  0.00  0.00     0.052 C 
BRANCH  43  44
ATOM     44  C   UNK d   0       1.294   7.092  -6.467  0.00  0.00     0.115 C 
BRANCH  44  45
ATOM     45  C   UNK d   0       1.392   8.336  -5.661  0.00  0.00     0.139 C 
ATOM     46  O   UNK d   0       1.780   9.384  -6.235  0.00  0.00    -0.650 OA
BRANCH  45  47
ATOM     47  O   UNK d   0       1.071   8.386  -4.322  0.00  0.00    -0.776 OA
ATOM     48  H   UNK d   0       0.286   7.853  -3.913  0.00  0.00     0.167 HD
ENDBRANCH  45  47
ENDBRANCH  44  45
ENDBRANCH  43  44
ENDBRANCH  27  43
BRANCH  24  49
ATOM     49  C   UNK d   0       0.785   1.369  -7.519  0.00  0.00     0.052 C 
BRANCH  49  50
ATOM     50  C   UNK d   0       2.112   1.533  -8.214  0.00  0.00     0.115 C 
BRANCH  50  51
ATOM     51  C   UNK d   0       3.309   1.238  -7.438  0.00  0.00     0.139 C 
ATOM     52  O   UNK d   0       3.264   0.753  -6.283  0.00  0.00    -0.650 OA
BRANCH  51  53
ATOM     53  O   UNK d   0       4.559   1.498  -7.979  0.00  0.00    -0.776 OA
ATOM     54  H   UNK d   0       5.189   2.085  -7.460  0.00  0.00     0.167 HD
ENDBRANCH  51  53
ENDBRANCH  50  51
ENDBRANCH  49  50
ENDBRANCH  24  49
BRANCH  21  55
ATOM     55  C   UNK d   0      -1.269  -0.504  -8.869  0.00  0.00     0.151 C 
BRANCH  55  56
ATOM     56  C   UNK d   0      -1.670  -0.946  -7.524  0.00  0.00     0.143 C 
ATOM     57  O   UNK d   0      -1.147  -1.922  -6.951  0.00  0.00    -0.650 OA
BRANCH  56  58
ATOM     58  O   UNK d   0      -2.679  -0.232  -6.880  0.00  0.00    -0.776 OA
ATOM     59  H   UNK d   0      -3.588  -0.725  -6.815  0.00  0.00     0.167 HD
ENDBRANCH  56  58
ENDBRANCH  55  56
ENDBRANCH  21  55
BRANCH  18  60
ATOM     60  C   UNK d   0      -4.021   0.676 -13.324  0.00  0.00     0.151 C 
BRANCH  60  61
ATOM     61  C   UNK d   0      -2.811   0.828 -14.147  0.00  0.00     0.143 C 
ATOM     62  O   UNK d   0      -2.752   0.879 -15.376  0.00  0.00    -0.650 OA
BRANCH  61  63
ATOM     63  O   UNK d   0      -1.598   0.923 -13.424  0.00  0.00    -0.776 OA
ATOM     64  H   UNK d   0      -1.546   0.642 -12.460  0.00  0.00     0.167 HD
ENDBRANCH  61  63
ENDBRANCH  60  61
ENDBRANCH  18  60
BRANCH  14  65
ATOM     65  C   UNK d   0      -5.520   2.977 -14.615  0.00  0.00     0.052 C 
BRANCH  65  66
ATOM     66  C   UNK d   0      -7.002   3.095 -14.571  0.00  0.00     0.115 C 
BRANCH  66  67
ATOM     67  C   UNK d   0      -7.736   3.294 -15.788  0.00  0.00     0.139 C 
ATOM     68  O   UNK d   0      -7.906   2.291 -16.574  0.00  0.00    -0.650 OA
BRANCH  67  69
ATOM     69  O   UNK d   0      -8.314   4.476 -16.253  0.00  0.00    -0.776 OA
ATOM     70  H   UNK d   0      -7.897   4.872 -17.107  0.00  0.00     0.167 HD
ENDBRANCH  67  69
ENDBRANCH  66  67
ENDBRANCH  65  66
ENDBRANCH  14  65
ENDBRANCH   6   7
ENDBRANCH   5   6
ENDBRANCH   2   5
TORSDOF 28
ENDMDL
MODEL 5
REMARK VINA RESULT:      -9.6      1.987      8.114
REMARK  28 active torsions:
REMARK  status: ('A' for Active; 'I' for Inactive)
REMARK    1  A    between atoms: C_2  and  O_3 
REMARK    2  A    between atoms: C_2  and  C_4 
REMARK    3  A    between atoms: C_4  and  C_5 
REMARK    4  A    between atoms: C_5  and  C_6 
REMARK    5  A    between atoms: C_7  and  C_8 
REMARK    6  A    between atoms: C_8  and  C_9 
REMARK    7  A    between atoms: C_9  and  O_11 
REMARK    8  A    between atoms: C_28  and  C_29 
REMARK    9  A    between atoms: C_29  and  C_30 
REMARK   10  A    between atoms: C_30  and  O_32 
REMARK   11  A    between atoms: C_33  and  C_34 
REMARK   12  A    between atoms: C_34  and  C_35 
REMARK   13  A    between atoms: C_35  and  C_36 
REMARK   14  A    between atoms: C_36  and  O_38 
REMARK   15  A    between atoms: C_39  and  C_40 
REMARK   16  A    between atoms: C_40  and  C_41 
REMARK   17  A    between atoms: C_41  and  C_42 
REMARK   18  A    between atoms: C_42  and  O_44 
REMARK   19  A    between atoms: C_45  and  C_46 
REMARK   20  A    between atoms: C_46  and  C_47 
REMARK   21  A    between atoms: C_47  and  O_49 
REMARK   22  A    between atoms: C_50  and  C_51 
REMARK   23  A    between atoms: C_51  and  C_52 
REMARK   24  A    between atoms: C_52  and  O_54 
REMARK   25  A    between atoms: C_55  and  C_56 
REMARK   26  A    between atoms: C_56  and  C_57 
REMARK   27  A    between atoms: C_57  and  C_58 
REMARK   28  A    between atoms: C_58  and  O_60 
ROOT
ATOM      1  O   UNK d   0      -4.637  12.841 -10.721  0.00  0.00    -0.650 OA
ATOM      2  C   UNK d   0      -4.558  11.592 -10.698  0.00  0.00     0.139 C 
ENDROOT
BRANCH   2   3
ATOM      3  O   UNK d   0      -3.835  10.981  -9.702  0.00  0.00    -0.776 OA
ATOM      4  H   UNK d   0      -2.917  10.574  -9.890  0.00  0.00     0.167 HD
ENDBRANCH   2   3
BRANCH   2   5
ATOM      5  C   UNK d   0      -5.242  10.780 -11.744  0.00  0.00     0.115 C 
BRANCH   5   6
ATOM      6  C   UNK d   0      -4.226  10.054 -12.583  0.00  0.00     0.052 C 
BRANCH   6   7
ATOM      7  C   UNK d   0      -4.351   8.553 -12.478  0.00  0.00    -0.020 A 
ATOM      8  C   UNK d   0      -5.242   7.784 -13.050  0.00  0.00    -0.011 A 
ATOM      9  C   UNK d   0      -4.969   6.414 -12.650  0.00  0.00     0.067 A 
ATOM     10  C   UNK d   0      -5.521   5.151 -12.920  0.00  0.00     0.062 C 
ATOM     11  N   UNK d   0      -3.899   6.441 -11.829  0.00  0.00    -0.248 NA
ATOM     12  C   UNK d   0      -4.946   3.902 -12.660  0.00  0.00     0.041 A 
ATOM     13  N   UNK d   0      -4.276   3.441 -11.587  0.00  0.00    -0.355 N 
ATOM     14  C   UNK d   0      -4.983   2.915 -13.661  0.00  0.00    -0.022 A 
ATOM     15  C   UNK d   0      -3.880   2.189 -11.884  0.00  0.00     0.042 A 
ATOM     16  H   UNK d   0      -4.104   3.983 -10.631  0.00  0.00     0.166 HD
ATOM     17  C   UNK d   0      -3.150   1.257 -11.120  0.00  0.00     0.062 C 
ATOM     18  C   UNK d   0      -4.304   1.824 -13.176  0.00  0.00    -0.013 A 
ATOM     19  C   UNK d   0      -2.021   1.454 -10.366  0.00  0.00     0.067 A 
ATOM     20  N   UNK d   0      -1.654   2.720 -10.148  0.00  0.00    -0.248 NA
ATOM     21  C   UNK d   0      -1.043   0.605  -9.708  0.00  0.00    -0.011 A 
ATOM     22  C   UNK d   0      -0.505   2.759  -9.396  0.00  0.00     0.066 A 
ATOM     23  C   UNK d   0      -0.031   4.019  -9.062  0.00  0.00     0.062 C 
ATOM     24  C   UNK d   0      -0.157   1.375  -9.145  0.00  0.00    -0.020 A 
ATOM     25  C   UNK d   0      -0.630   5.261  -9.322  0.00  0.00     0.041 A 
ATOM     26  N   UNK d   0      -1.283   5.725 -10.394  0.00  0.00    -0.355 N 
ATOM     27  C   UNK d   0      -0.596   6.250  -8.315  0.00  0.00    -0.022 A 
ATOM     28  C   UNK d   0      -1.671   6.976 -10.104  0.00  0.00     0.042 A 
ATOM     29  H   UNK d   0      -1.446   5.183 -11.358  0.00  0.00     0.166 HD
ATOM     30  C   UNK d   0      -2.390   7.918 -10.857  0.00  0.00     0.062 C 
ATOM     31  C   UNK d   0      -1.254   7.339  -8.801  0.00  0.00    -0.013 A 
ATOM     32  C   UNK d   0      -3.479   7.699 -11.685  0.00  0.00     0.066 A 
BRANCH   8  33
ATOM     33  C   UNK d   0      -6.338   8.210 -13.940  0.00  0.00     0.151 C 
BRANCH  33  34
ATOM     34  C   UNK d   0      -7.647   7.671 -13.531  0.00  0.00     0.143 C 
ATOM     35  O   UNK d   0      -8.384   8.305 -12.762  0.00  0.00    -0.650 OA
BRANCH  34  36
ATOM     36  O   UNK d   0      -8.053   6.447 -14.009  0.00  0.00    -0.776 OA
ATOM     37  H   UNK d   0      -7.723   5.571 -13.583  0.00  0.00     0.167 HD
ENDBRANCH  34  36
ENDBRANCH  33  34
ENDBRANCH   8  33
BRANCH  31  38
ATOM     38  C   UNK d   0      -1.485   8.640  -8.070  0.00  0.00     0.151 C 
BRANCH  38  39
ATOM     39  C   UNK d   0      -2.708   8.641  -7.296  0.00  0.00     0.143 C 
ATOM     40  O   UNK d   0      -3.832   8.671  -7.828  0.00  0.00    -0.650 OA
BRANCH  39  41
ATOM     41  O   UNK d   0      -2.639   8.605  -5.904  0.00  0.00    -0.776 OA
ATOM     42  H   UNK d   0      -3.342   8.036  -5.421  0.00  0.00     0.167 HD
ENDBRANCH  39  41
ENDBRANCH  38  39
ENDBRANCH  31  38
BRANCH  27  43
ATOM     43  C   UNK d   0       0.025   6.200  -6.942  0.00  0.00     0.052 C 
BRANCH  43  44
ATOM     44  C   UNK d   0       0.887   4.998  -6.727  0.00  0.00     0.115 C 
BRANCH  44  45
ATOM     45  C   UNK d   0       2.277   5.497  -6.564  0.00  0.00     0.139 C 
ATOM     46  O   UNK d   0       3.222   4.714  -6.832  0.00  0.00    -0.650 OA
BRANCH  45  47
ATOM     47  O   UNK d   0       2.568   6.775  -6.139  0.00  0.00    -0.776 OA
ATOM     48  H   UNK d   0       3.222   7.398  -6.640  0.00  0.00     0.167 HD
ENDBRANCH  45  47
ENDBRANCH  44  45
ENDBRANCH  43  44
ENDBRANCH  27  43
BRANCH  24  49
ATOM     49  C   UNK d   0       0.992   0.930  -8.338  0.00  0.00     0.052 C 
BRANCH  49  50
ATOM     50  C   UNK d   0       0.652   0.978  -6.870  0.00  0.00     0.115 C 
BRANCH  50  51
ATOM     51  C   UNK d   0       0.557  -0.294  -6.167  0.00  0.00     0.139 C 
ATOM     52  O   UNK d   0      -0.300  -0.513  -5.278  0.00  0.00    -0.650 OA
BRANCH  51  53
ATOM     53  O   UNK d   0       1.440  -1.317  -6.477  0.00  0.00    -0.776 OA
ATOM     54  H   UNK d   0       2.409  -1.197  -6.238  0.00  0.00     0.167 HD
ENDBRANCH  51  53
ENDBRANCH  50  51
ENDBRANCH  49  50
ENDBRANCH  24  49
BRANCH  21  55
ATOM     55  C   UNK d   0      -1.099  -0.887  -9.705  0.00  0.00     0.151 C 
BRANCH  55  56
ATOM     56  C   UNK d   0      -0.787  -1.452 -11.027  0.00  0.00     0.143 C 
ATOM     57  O   UNK d   0       0.361  -1.439 -11.512  0.00  0.00    -0.650 OA
BRANCH  56  58
ATOM     58  O   UNK d   0      -1.832  -2.023 -11.752  0.00  0.00    -0.776 OA
ATOM     59  H   UNK d   0      -1.730  -1.968 -12.781  0.00  0.00     0.167 HD
ENDBRANCH  56  58
ENDBRANCH  55  56
ENDBRANCH  21  55
BRANCH  18  60
ATOM     60  C   UNK d   0      -4.091   0.534 -13.929  0.00  0.00     0.151 C 
BRANCH  60  61
ATOM     61  C   UNK d   0      -2.731   0.610 -14.483  0.00  0.00     0.143 C 
ATOM     62  O   UNK d   0      -1.691   0.218 -13.953  0.00  0.00    -0.650 OA
BRANCH  61  63
ATOM     63  O   UNK d   0      -2.635   1.200 -15.766  0.00  0.00    -0.776 OA
ATOM     64  H   UNK d   0      -3.449   1.556 -16.235  0.00  0.00     0.167 HD
ENDBRANCH  61  63
ENDBRANCH  60  61
ENDBRANCH  18  60
BRANCH  14  65
ATOM     65  C   UNK d   0      -5.687   2.888 -14.987  0.00  0.00     0.052 C 
BRANCH  65  66
ATOM     66  C   UNK d   0      -7.101   2.436 -14.886  0.00  0.00     0.115 C 
BRANCH  66  67
ATOM     67  C   UNK d   0      -8.112   3.079 -15.677  0.00  0.00     0.139 C 
ATOM     68  O   UNK d   0      -9.100   2.374 -16.101  0.00  0.00    -0.650 OA
BRANCH  67  69
ATOM     69  O   UNK d   0      -8.170   4.417 -16.064  0.00  0.00    -0.776 OA
ATOM     70  H   UNK d   0      -8.813   5.013 -15.522  0.00  0.00     0.167 HD
ENDBRANCH  67  69
ENDBRANCH  66  67
ENDBRANCH  65  66
ENDBRANCH  14  65
ENDBRANCH   6   7
ENDBRANCH   5   6
ENDBRANCH   2   5
TORSDOF 28
ENDMDL
MODEL 6
REMARK VINA RESULT:      -9.6      1.391      1.835
REMARK  28 active torsions:
REMARK  status: ('A' for Active; 'I' for Inactive)
REMARK    1  A    between atoms: C_2  and  O_3 
REMARK    2  A    between atoms: C_2  and  C_4 
REMARK    3  A    between atoms: C_4  and  C_5 
REMARK    4  A    between atoms: C_5  and  C_6 
REMARK    5  A    between atoms: C_7  and  C_8 
REMARK    6  A    between atoms: C_8  and  C_9 
REMARK    7  A    between atoms: C_9  and  O_11 
REMARK    8  A    between atoms: C_28  and  C_29 
REMARK    9  A    between atoms: C_29  and  C_30 
REMARK   10  A    between atoms: C_30  and  O_32 
REMARK   11  A    between atoms: C_33  and  C_34 
REMARK   12  A    between atoms: C_34  and  C_35 
REMARK   13  A    between atoms: C_35  and  C_36 
REMARK   14  A    between atoms: C_36  and  O_38 
REMARK   15  A    between atoms: C_39  and  C_40 
REMARK   16  A    between atoms: C_40  and  C_41 
REMARK   17  A    between atoms: C_41  and  C_42 
REMARK   18  A    between atoms: C_42  and  O_44 
REMARK   19  A    between atoms: C_45  and  C_46 
REMARK   20  A    between atoms: C_46  and  C_47 
REMARK   21  A    between atoms: C_47  and  O_49 
REMARK   22  A    between atoms: C_50  and  C_51 
REMARK   23  A    between atoms: C_51  and  C_52 
REMARK   24  A    between atoms: C_52  and  O_54 
REMARK   25  A    between atoms: C_55  and  C_56 
REMARK   26  A    between atoms: C_56  and  C_57 
REMARK   27  A    between atoms: C_57  and  C_58 
REMARK   28  A    between atoms: C_58  and  O_60 
ROOT
ATOM      1  O   UNK d   0       4.528   5.006  -5.674  0.00  0.00    -0.650 OA
ATOM      2  C   UNK d   0       3.532   5.370  -6.339  0.00  0.00     0.139 C 
ENDROOT
BRANCH   2   3
ATOM      3  O   UNK d   0       2.957   6.590  -6.078  0.00  0.00    -0.776 OA
ATOM      4  H   UNK d   0       2.034   6.656  -5.644  0.00  0.00     0.167 HD
ENDBRANCH   2   3
BRANCH   2   5
ATOM      5  C   UNK d   0       2.979   4.484  -7.402  0.00  0.00     0.115 C 
BRANCH   5   6
ATOM      6  C   UNK d   0       1.540   4.158  -7.107  0.00  0.00     0.052 C 
BRANCH   6   7
ATOM      7  C   UNK d   0       0.888   3.356  -8.208  0.00  0.00    -0.020 A 
ATOM      8  C   UNK d   0       1.215   2.160  -8.625  0.00  0.00    -0.011 A 
ATOM      9  C   UNK d   0       0.312   1.803  -9.706  0.00  0.00     0.067 A 
ATOM     10  C   UNK d   0       0.120   0.689 -10.539  0.00  0.00     0.062 C 
ATOM     11  N   UNK d   0      -0.529   2.843  -9.885  0.00  0.00    -0.248 NA
ATOM     12  C   UNK d   0      -0.991   0.416 -11.345  0.00  0.00     0.041 A 
ATOM     13  N   UNK d   0      -1.720   1.213 -12.149  0.00  0.00    -0.355 N 
ATOM     14  C   UNK d   0      -1.539  -0.879 -11.332  0.00  0.00    -0.022 A 
ATOM     15  C   UNK d   0      -2.721   0.458 -12.641  0.00  0.00     0.042 A 
ATOM     16  H   UNK d   0      -1.519   2.282 -12.380  0.00  0.00     0.166 HD
ATOM     17  C   UNK d   0      -3.765   0.791 -13.526  0.00  0.00     0.062 C 
ATOM     18  C   UNK d   0      -2.641  -0.859 -12.150  0.00  0.00    -0.013 A 
ATOM     19  C   UNK d   0      -4.574   1.898 -13.529  0.00  0.00     0.067 A 
ATOM     20  N   UNK d   0      -4.227   2.903 -12.721  0.00  0.00    -0.248 NA
ATOM     21  C   UNK d   0      -5.797   2.298 -14.206  0.00  0.00    -0.011 A 
ATOM     22  C   UNK d   0      -5.134   3.930 -12.819  0.00  0.00     0.066 A 
ATOM     23  C   UNK d   0      -4.872   5.059 -12.057  0.00  0.00     0.062 C 
ATOM     24  C   UNK d   0      -6.121   3.486 -13.784  0.00  0.00    -0.020 A 
ATOM     25  C   UNK d   0      -3.744   5.319 -11.264  0.00  0.00     0.041 A 
ATOM     26  N   UNK d   0      -3.028   4.531 -10.452  0.00  0.00    -0.355 N 
ATOM     27  C   UNK d   0      -3.192   6.618 -11.281  0.00  0.00    -0.022 A 
ATOM     28  C   UNK d   0      -2.034   5.283  -9.954  0.00  0.00     0.042 A 
ATOM     29  H   UNK d   0      -3.237   3.459 -10.213  0.00  0.00     0.166 HD
ATOM     30  C   UNK d   0      -0.995   4.968  -9.065  0.00  0.00     0.062 C 
ATOM     31  C   UNK d   0      -2.109   6.604 -10.456  0.00  0.00    -0.013 A 
ATOM     32  C   UNK d   0      -0.236   3.809  -9.014  0.00  0.00     0.066 A 
BRANCH   8  33
ATOM     33  C   UNK d   0       2.305   1.311  -8.109  0.00  0.00     0.151 C 
BRANCH  33  34
ATOM     34  C   UNK d   0       2.023   0.775  -6.766  0.00  0.00     0.143 C 
ATOM     35  O   UNK d   0       2.922   0.676  -5.918  0.00  0.00    -0.650 OA
BRANCH  34  36
ATOM     36  O   UNK d   0       0.744   0.377  -6.451  0.00  0.00    -0.776 OA
ATOM     37  H   UNK d   0      -0.067   0.974  -6.660  0.00  0.00     0.167 HD
ENDBRANCH  34  36
ENDBRANCH  33  34
ENDBRANCH   8  33
BRANCH  31  38
ATOM     38  C   UNK d   0      -1.192   7.770 -10.169  0.00  0.00     0.151 C 
BRANCH  38  39
ATOM     39  C   UNK d   0      -1.311   8.257  -8.811  0.00  0.00     0.143 C 
ATOM     40  O   UNK d   0      -0.320   8.450  -8.085  0.00  0.00    -0.650 OA
BRANCH  39  41
ATOM     41  O   UNK d   0      -2.574   8.525  -8.287  0.00  0.00    -0.776 OA
ATOM     42  H   UNK d   0      -3.146   7.717  -8.022  0.00  0.00     0.167 HD
ENDBRANCH  39  41
ENDBRANCH  38  39
ENDBRANCH  31  38
BRANCH  27  43
ATOM     43  C   UNK d   0      -3.647   7.843 -12.034  0.00  0.00     0.052 C 
BRANCH  43  44
ATOM     44  C   UNK d   0      -4.283   8.873 -11.157  0.00  0.00     0.115 C 
BRANCH  44  45
ATOM     45  C   UNK d   0      -4.702   9.987 -12.047  0.00  0.00     0.139 C 
ATOM     46  O   UNK d   0      -5.790  10.564 -11.800  0.00  0.00    -0.650 OA
BRANCH  45  47
ATOM     47  O   UNK d   0      -3.947  10.412 -13.119  0.00  0.00    -0.776 OA
ATOM     48  H   UNK d   0      -3.763   9.818 -13.944  0.00  0.00     0.167 HD
ENDBRANCH  45  47
ENDBRANCH  44  45
ENDBRANCH  43  44
ENDBRANCH  27  43
BRANCH  24  49
ATOM     49  C   UNK d   0      -7.272   4.285 -14.238  0.00  0.00     0.052 C 
BRANCH  49  50
ATOM     50  C   UNK d   0      -8.171   4.617 -13.075  0.00  0.00     0.115 C 
BRANCH  50  51
ATOM     51  C   UNK d   0      -9.562   4.194 -13.169  0.00  0.00     0.139 C 
ATOM     52  O   UNK d   0      -9.897   3.057 -13.578  0.00  0.00    -0.650 OA
BRANCH  51  53
ATOM     53  O   UNK d   0     -10.572   5.068 -12.798  0.00  0.00    -0.776 OA
ATOM     54  H   UNK d   0     -10.800   5.145 -11.823  0.00  0.00     0.167 HD
ENDBRANCH  51  53
ENDBRANCH  50  51
ENDBRANCH  49  50
ENDBRANCH  24  49
BRANCH  21  55
ATOM     55  C   UNK d   0      -6.510   1.452 -15.209  0.00  0.00     0.151 C 
BRANCH  55  56
ATOM     56  C   UNK d   0      -6.416   2.010 -16.567  0.00  0.00     0.143 C 
ATOM     57  O   UNK d   0      -5.367   1.974 -17.240  0.00  0.00    -0.650 OA
BRANCH  56  58
ATOM     58  O   UNK d   0      -7.558   2.598 -17.108  0.00  0.00    -0.776 OA
ATOM     59  H   UNK d   0      -8.443   2.354 -16.628  0.00  0.00     0.167 HD
ENDBRANCH  56  58
ENDBRANCH  55  56
ENDBRANCH  21  55
BRANCH  18  60
ATOM     60  C   UNK d   0      -3.538  -2.041 -12.421  0.00  0.00     0.151 C 
BRANCH  60  61
ATOM     61  C   UNK d   0      -4.638  -1.945 -11.448  0.00  0.00     0.143 C 
ATOM     62  O   UNK d   0      -4.739  -1.142 -10.520  0.00  0.00    -0.650 OA
BRANCH  61  63
ATOM     63  O   UNK d   0      -5.680  -2.887 -11.621  0.00  0.00    -0.776 OA
ATOM     64  H   UNK d   0      -5.493  -3.805 -11.986  0.00  0.00     0.167 HD
ENDBRANCH  61  63
ENDBRANCH  60  61
ENDBRANCH  18  60
BRANCH  14  65
ATOM     65  C   UNK d   0      -1.048  -2.146 -10.689  0.00  0.00     0.052 C 
BRANCH  65  66
ATOM     66  C   UNK d   0      -1.565  -2.334  -9.307  0.00  0.00     0.115 C 
BRANCH  66  67
ATOM     67  C   UNK d   0      -0.699  -2.100  -8.186  0.00  0.00     0.139 C 
ATOM     68  O   UNK d   0       0.568  -2.021  -8.394  0.00  0.00    -0.650 OA
BRANCH  67  69
ATOM     69  O   UNK d   0      -1.059  -1.941  -6.848  0.00  0.00    -0.776 OA
ATOM     70  H   UNK d   0      -2.035  -2.177  -6.616  0.00  0.00     0.167 HD
ENDBRANCH  67  69
ENDBRANCH  66  67
ENDBRANCH  65  66
ENDBRANCH  14  65
ENDBRANCH   6   7
ENDBRANCH   5   6
ENDBRANCH   2   5
TORSDOF 28
ENDMDL
MODEL 7
REMARK VINA RESULT:      -9.2      1.902      7.905
REMARK  28 active torsions:
REMARK  status: ('A' for Active; 'I' for Inactive)
REMARK    1  A    between atoms: C_2  and  O_3 
REMARK    2  A    between atoms: C_2  and  C_4 
REMARK    3  A    between atoms: C_4  and  C_5 
REMARK    4  A    between atoms: C_5  and  C_6 
REMARK    5  A    between atoms: C_7  and  C_8 
REMARK    6  A    between atoms: C_8  and  C_9 
REMARK    7  A    between atoms: C_9  and  O_11 
REMARK    8  A    between atoms: C_28  and  C_29 
REMARK    9  A    between atoms: C_29  and  C_30 
REMARK   10  A    between atoms: C_30  and  O_32 
REMARK   11  A    between atoms: C_33  and  C_34 
REMARK   12  A    between atoms: C_34  and  C_35 
REMARK   13  A    between atoms: C_35  and  C_36 
REMARK   14  A    between atoms: C_36  and  O_38 
REMARK   15  A    between atoms: C_39  and  C_40 
REMARK   16  A    between atoms: C_40  and  C_41 
REMARK   17  A    between atoms: C_41  and  C_42 
REMARK   18  A    between atoms: C_42  and  O_44 
REMARK   19  A    between atoms: C_45  and  C_46 
REMARK   20  A    between atoms: C_46  and  C_47 
REMARK   21  A    between atoms: C_47  and  O_49 
REMARK   22  A    between atoms: C_50  and  C_51 
REMARK   23  A    between atoms: C_51  and  C_52 
REMARK   24  A    between atoms: C_52  and  O_54 
REMARK   25  A    between atoms: C_55  and  C_56 
REMARK   26  A    between atoms: C_56  and  C_57 
REMARK   27  A    between atoms: C_57  and  C_58 
REMARK   28  A    between atoms: C_58  and  O_60 
ROOT
ATOM      1  O   UNK d   0      -3.478   8.983  -7.704  0.00  0.00    -0.650 OA
ATOM      2  C   UNK d   0      -2.678   9.697  -8.350  0.00  0.00     0.139 C 
ENDROOT
BRANCH   2   3
ATOM      3  O   UNK d   0      -1.446   9.982  -7.814  0.00  0.00    -0.776 OA
ATOM      4  H   UNK d   0      -0.622   9.430  -8.061  0.00  0.00     0.167 HD
ENDBRANCH   2   3
BRANCH   2   5
ATOM      5  C   UNK d   0      -3.065  10.231  -9.687  0.00  0.00     0.115 C 
BRANCH   5   6
ATOM      6  C   UNK d   0      -2.322   9.498 -10.771  0.00  0.00     0.052 C 
BRANCH   6   7
ATOM      7  C   UNK d   0      -2.784   8.069 -10.928  0.00  0.00    -0.020 A 
ATOM      8  C   UNK d   0      -3.864   7.641 -11.530  0.00  0.00    -0.011 A 
ATOM      9  C   UNK d   0      -3.891   6.192 -11.418  0.00  0.00     0.067 A 
ATOM     10  C   UNK d   0      -4.736   5.158 -11.852  0.00  0.00     0.062 C 
ATOM     11  N   UNK d   0      -2.793   5.823 -10.727  0.00  0.00    -0.248 NA
ATOM     12  C   UNK d   0      -4.451   3.789 -11.887  0.00  0.00     0.041 A 
ATOM     13  N   UNK d   0      -3.838   2.988 -10.995  0.00  0.00    -0.355 N 
ATOM     14  C   UNK d   0      -4.779   3.055 -13.041  0.00  0.00    -0.022 A 
ATOM     15  C   UNK d   0      -3.762   1.767 -11.556  0.00  0.00     0.042 A 
ATOM     16  H   UNK d   0      -3.484   3.276  -9.980  0.00  0.00     0.166 HD
ATOM     17  C   UNK d   0      -3.221   0.565 -11.058  0.00  0.00     0.062 C 
ATOM     18  C   UNK d   0      -4.342   1.769 -12.839  0.00  0.00    -0.013 A 
ATOM     19  C   UNK d   0      -2.031   0.359 -10.407  0.00  0.00     0.067 A 
ATOM     20  N   UNK d   0      -1.367   1.446 -10.003  0.00  0.00    -0.248 NA
ATOM     21  C   UNK d   0      -1.236  -0.795 -10.023  0.00  0.00    -0.011 A 
ATOM     22  C   UNK d   0      -0.195   1.085  -9.385  0.00  0.00     0.066 A 
ATOM     23  C   UNK d   0       0.579   2.120  -8.881  0.00  0.00     0.062 C 
ATOM     24  C   UNK d   0      -0.161  -0.363  -9.429  0.00  0.00    -0.020 A 
ATOM     25  C   UNK d   0       0.269   3.488  -8.844  0.00  0.00     0.041 A 
ATOM     26  N   UNK d   0      -0.327   4.288  -9.737  0.00  0.00    -0.355 N 
ATOM     27  C   UNK d   0       0.595   4.224  -7.684  0.00  0.00    -0.022 A 
ATOM     28  C   UNK d   0      -0.396   5.508  -9.184  0.00  0.00     0.042 A 
ATOM     29  H   UNK d   0      -0.673   3.999 -10.761  0.00  0.00     0.166 HD
ATOM     30  C   UNK d   0      -0.923   6.714  -9.671  0.00  0.00     0.062 C 
ATOM     31  C   UNK d   0       0.177   5.503  -7.890  0.00  0.00    -0.013 A 
ATOM     32  C   UNK d   0      -2.085   6.906 -10.403  0.00  0.00     0.066 A 
BRANCH   8  33
ATOM     33  C   UNK d   0      -4.886   8.462 -12.204  0.00  0.00     0.151 C 
BRANCH  33  34
ATOM     34  C   UNK d   0      -5.280   7.920 -13.517  0.00  0.00     0.143 C 
ATOM     35  O   UNK d   0      -6.377   7.365 -13.673  0.00  0.00    -0.650 OA
BRANCH  34  36
ATOM     36  O   UNK d   0      -4.415   8.031 -14.581  0.00  0.00    -0.776 OA
ATOM     37  H   UNK d   0      -3.398   8.085 -14.439  0.00  0.00     0.167 HD
ENDBRANCH  34  36
ENDBRANCH  33  34
ENDBRANCH   8  33
BRANCH  31  38
ATOM     38  C   UNK d   0       0.301   6.649  -6.913  0.00  0.00     0.151 C 
BRANCH  38  39
ATOM     39  C   UNK d   0      -0.951   6.969  -6.261  0.00  0.00     0.143 C 
ATOM     40  O   UNK d   0      -1.914   6.183  -6.247  0.00  0.00    -0.650 OA
BRANCH  39  41
ATOM     41  O   UNK d   0      -1.096   8.200  -5.622  0.00  0.00    -0.776 OA
ATOM     42  H   UNK d   0      -1.197   8.181  -4.602  0.00  0.00     0.167 HD
ENDBRANCH  39  41
ENDBRANCH  38  39
ENDBRANCH  31  38
BRANCH  27  43
ATOM     43  C   UNK d   0       1.274   3.765  -6.418  0.00  0.00     0.052 C 
BRANCH  43  44
ATOM     44  C   UNK d   0       2.710   4.171  -6.338  0.00  0.00     0.115 C 
BRANCH  44  45
ATOM     45  C   UNK d   0       3.480   3.164  -7.112  0.00  0.00     0.139 C 
ATOM     46  O   UNK d   0       4.055   3.540  -8.164  0.00  0.00    -0.650 OA
BRANCH  45  47
ATOM     47  O   UNK d   0       3.592   1.847  -6.722  0.00  0.00    -0.776 OA
ATOM     48  H   UNK d   0       4.470   1.310  -6.808  0.00  0.00     0.167 HD
ENDBRANCH  45  47
ENDBRANCH  44  45
ENDBRANCH  43  44
ENDBRANCH  27  43
BRANCH  24  49
ATOM     49  C   UNK d   0       0.904  -1.198  -8.845  0.00  0.00     0.052 C 
BRANCH  49  50
ATOM     50  C   UNK d   0       0.443  -1.799  -7.542  0.00  0.00     0.115 C 
BRANCH  50  51
ATOM     51  C   UNK d   0       0.664  -1.016  -6.334  0.00  0.00     0.139 C 
ATOM     52  O   UNK d   0      -0.143  -1.012  -5.374  0.00  0.00    -0.650 OA
BRANCH  51  53
ATOM     53  O   UNK d   0       1.804  -0.235  -6.221  0.00  0.00    -0.776 OA
ATOM     54  H   UNK d   0       2.026   0.393  -6.973  0.00  0.00     0.167 HD
ENDBRANCH  51  53
ENDBRANCH  50  51
ENDBRANCH  49  50
ENDBRANCH  24  49
BRANCH  21  55
ATOM     55  C   UNK d   0      -1.635  -2.209 -10.286  0.00  0.00     0.151 C 
BRANCH  55  56
ATOM     56  C   UNK d   0      -1.671  -2.514 -11.725  0.00  0.00     0.143 C 
ATOM     57  O   UNK d   0      -2.573  -3.197 -12.248  0.00  0.00    -0.650 OA
BRANCH  56  58
ATOM     58  O   UNK d   0      -0.644  -2.009 -12.521  0.00  0.00    -0.776 OA
ATOM     59  H   UNK d   0      -0.084  -1.254 -12.084  0.00  0.00     0.167 HD
ENDBRANCH  56  58
ENDBRANCH  55  56
ENDBRANCH  21  55
BRANCH  18  60
ATOM     60  C   UNK d   0      -4.482   0.642 -13.833  0.00  0.00     0.151 C 
BRANCH  60  61
ATOM     61  C   UNK d   0      -3.279   0.696 -14.677  0.00  0.00     0.143 C 
ATOM     62  O   UNK d   0      -3.148   1.297 -15.744  0.00  0.00    -0.650 OA
BRANCH  61  63
ATOM     63  O   UNK d   0      -2.167  -0.030 -14.188  0.00  0.00    -0.776 OA
ATOM     64  H   UNK d   0      -1.295   0.429 -13.991  0.00  0.00     0.167 HD
ENDBRANCH  61  63
ENDBRANCH  60  61
ENDBRANCH  18  60
BRANCH  14  65
ATOM     65  C   UNK d   0      -5.555   3.448 -14.266  0.00  0.00     0.052 C 
BRANCH  65  66
ATOM     66  C   UNK d   0      -7.022   3.261 -14.111  0.00  0.00     0.115 C 
BRANCH  66  67
ATOM     67  C   UNK d   0      -7.874   4.408 -13.966  0.00  0.00     0.139 C 
ATOM     68  O   UNK d   0      -8.344   4.680 -12.801  0.00  0.00    -0.650 OA
BRANCH  67  69
ATOM     69  O   UNK d   0      -8.278   5.301 -14.958  0.00  0.00    -0.776 OA
ATOM     70  H   UNK d   0      -8.268   6.297 -14.694  0.00  0.00     0.167 HD
ENDBRANCH  67  69
ENDBRANCH  66  67
ENDBRANCH  65  66
ENDBRANCH  14  65
ENDBRANCH   6   7
ENDBRANCH   5   6
ENDBRANCH   2   5
TORSDOF 28
ENDMDL
MODEL 8
REMARK VINA RESULT:      -9.2      2.317      3.864
REMARK  28 active torsions:
REMARK  status: ('A' for Active; 'I' for Inactive)
REMARK    1  A    between atoms: C_2  and  O_3 
REMARK    2  A    between atoms: C_2  and  C_4 
REMARK    3  A    between atoms: C_4  and  C_5 
REMARK    4  A    between atoms: C_5  and  C_6 
REMARK    5  A    between atoms: C_7  and  C_8 
REMARK    6  A    between atoms: C_8  and  C_9 
REMARK    7  A    between atoms: C_9  and  O_11 
REMARK    8  A    between atoms: C_28  and  C_29 
REMARK    9  A    between atoms: C_29  and  C_30 
REMARK   10  A    between atoms: C_30  and  O_32 
REMARK   11  A    between atoms: C_33  and  C_34 
REMARK   12  A    between atoms: C_34  and  C_35 
REMARK   13  A    between atoms: C_35  and  C_36 
REMARK   14  A    between atoms: C_36  and  O_38 
REMARK   15  A    between atoms: C_39  and  C_40 
REMARK   16  A    between atoms: C_40  and  C_41 
REMARK   17  A    between atoms: C_41  and  C_42 
REMARK   18  A    between atoms: C_42  and  O_44 
REMARK   19  A    between atoms: C_45  and  C_46 
REMARK   20  A    between atoms: C_46  and  C_47 
REMARK   21  A    between atoms: C_47  and  O_49 
REMARK   22  A    between atoms: C_50  and  C_51 
REMARK   23  A    between atoms: C_51  and  C_52 
REMARK   24  A    between atoms: C_52  and  O_54 
REMARK   25  A    between atoms: C_55  and  C_56 
REMARK   26  A    between atoms: C_56  and  C_57 
REMARK   27  A    between atoms: C_57  and  C_58 
REMARK   28  A    between atoms: C_58  and  O_60 
ROOT
ATOM      1  O   UNK d   0       3.641   1.292  -7.965  0.00  0.00    -0.650 OA
ATOM      2  C   UNK d   0       3.592   1.425  -6.722  0.00  0.00     0.139 C 
ENDROOT
BRANCH   2   3
ATOM      3  O   UNK d   0       4.684   1.077  -5.964  0.00  0.00    -0.776 OA
ATOM      4  H   UNK d   0       4.685   0.223  -5.402  0.00  0.00     0.167 HD
ENDBRANCH   2   3
BRANCH   2   5
ATOM      5  C   UNK d   0       2.359   1.956  -6.074  0.00  0.00     0.115 C 
BRANCH   5   6
ATOM      6  C   UNK d   0       1.395   0.834  -5.800  0.00  0.00     0.052 C 
BRANCH   6   7
ATOM      7  C   UNK d   0       0.695   0.352  -7.047  0.00  0.00    -0.020 A 
ATOM      8  C   UNK d   0       0.715  -0.853  -7.559  0.00  0.00    -0.011 A 
ATOM      9  C   UNK d   0      -0.098  -0.838  -8.764  0.00  0.00     0.067 A 
ATOM     10  C   UNK d   0      -0.490  -1.775  -9.733  0.00  0.00     0.062 C 
ATOM     11  N   UNK d   0      -0.569   0.418  -8.914  0.00  0.00    -0.248 NA
ATOM     12  C   UNK d   0      -1.512  -1.638 -10.679  0.00  0.00     0.041 A 
ATOM     13  N   UNK d   0      -1.862  -0.600 -11.462  0.00  0.00    -0.355 N 
ATOM     14  C   UNK d   0      -2.408  -2.705 -10.871  0.00  0.00    -0.022 A 
ATOM     15  C   UNK d   0      -2.962  -0.978 -12.139  0.00  0.00     0.042 A 
ATOM     16  H   UNK d   0      -1.330   0.373 -11.548  0.00  0.00     0.166 HD
ATOM     17  C   UNK d   0      -3.735  -0.280 -13.089  0.00  0.00     0.062 C 
ATOM     18  C   UNK d   0      -3.335  -2.291 -11.795  0.00  0.00    -0.013 A 
ATOM     19  C   UNK d   0      -4.180   1.017 -13.053  0.00  0.00     0.067 A 
ATOM     20  N   UNK d   0      -3.669   1.806 -12.104  0.00  0.00    -0.248 NA
ATOM     21  C   UNK d   0      -5.130   1.817 -13.809  0.00  0.00    -0.011 A 
ATOM     22  C   UNK d   0      -4.217   3.063 -12.184  0.00  0.00     0.066 A 
ATOM     23  C   UNK d   0      -3.745   3.999 -11.275  0.00  0.00     0.062 C 
ATOM     24  C   UNK d   0      -5.150   3.012 -13.292  0.00  0.00    -0.020 A 
ATOM     25  C   UNK d   0      -2.709   3.846 -10.341  0.00  0.00     0.041 A 
ATOM     26  N   UNK d   0      -2.370   2.819  -9.552  0.00  0.00    -0.355 N 
ATOM     27  C   UNK d   0      -1.807   4.915 -10.153  0.00  0.00    -0.022 A 
ATOM     28  C   UNK d   0      -1.278   3.197  -8.869  0.00  0.00     0.042 A 
ATOM     29  H   UNK d   0      -2.911   1.846  -9.459  0.00  0.00     0.166 HD
ATOM     30  C   UNK d   0      -0.505   2.516  -7.915  0.00  0.00     0.062 C 
ATOM     31  C   UNK d   0      -0.897   4.513  -9.223  0.00  0.00    -0.013 A 
ATOM     32  C   UNK d   0      -0.129   1.182  -7.913  0.00  0.00     0.066 A 
BRANCH   8  33
ATOM     33  C   UNK d   0       1.430  -2.028  -7.029  0.00  0.00     0.151 C 
BRANCH  33  34
ATOM     34  C   UNK d   0       0.607  -2.827  -6.104  0.00  0.00     0.143 C 
ATOM     35  O   UNK d   0       0.769  -4.052  -6.004  0.00  0.00    -0.650 OA
BRANCH  34  36
ATOM     36  O   UNK d   0      -0.354  -2.203  -5.342  0.00  0.00    -0.776 OA
ATOM     37  H   UNK d   0      -1.218  -2.690  -5.070  0.00  0.00     0.167 HD
ENDBRANCH  34  36
ENDBRANCH  33  34
ENDBRANCH   8  33
BRANCH  31  38
ATOM     38  C   UNK d   0       0.271   5.322  -8.711  0.00  0.00     0.151 C 
BRANCH  38  39
ATOM     39  C   UNK d   0       0.063   5.819  -7.367  0.00  0.00     0.143 C 
ATOM     40  O   UNK d   0      -0.921   6.514  -7.059  0.00  0.00    -0.650 OA
BRANCH  39  41
ATOM     41  O   UNK d   0       0.992   5.516  -6.372  0.00  0.00    -0.776 OA
ATOM     42  H   UNK d   0       1.506   6.303  -5.964  0.00  0.00     0.167 HD
ENDBRANCH  39  41
ENDBRANCH  38  39
ENDBRANCH  31  38
BRANCH  27  43
ATOM     43  C   UNK d   0      -1.780   6.274 -10.807  0.00  0.00     0.052 C 
BRANCH  43  44
ATOM     44  C   UNK d   0      -2.641   7.280 -10.115  0.00  0.00     0.115 C 
BRANCH  44  45
ATOM     45  C   UNK d   0      -3.474   7.921 -11.165  0.00  0.00     0.139 C 
ATOM     46  O   UNK d   0      -3.946   9.061 -10.933  0.00  0.00    -0.650 OA
BRANCH  45  47
ATOM     47  O   UNK d   0      -3.743   7.319 -12.376  0.00  0.00    -0.776 OA
ATOM     48  H   UNK d   0      -4.510   6.640 -12.506  0.00  0.00     0.167 HD
ENDBRANCH  45  47
ENDBRANCH  44  45
ENDBRANCH  43  44
ENDBRANCH  27  43
BRANCH  24  49
ATOM     49  C   UNK d   0      -5.946   4.153 -13.774  0.00  0.00     0.052 C 
BRANCH  49  50
ATOM     50  C   UNK d   0      -7.212   4.288 -12.967  0.00  0.00     0.115 C 
BRANCH  50  51
ATOM     51  C   UNK d   0      -8.276   5.107 -13.530  0.00  0.00     0.139 C 
ATOM     52  O   UNK d   0      -9.172   5.631 -12.826  0.00  0.00    -0.650 OA
BRANCH  51  53
ATOM     53  O   UNK d   0      -8.321   5.328 -14.898  0.00  0.00    -0.776 OA
ATOM     54  H   UNK d   0      -7.700   6.015 -15.290  0.00  0.00     0.167 HD
ENDBRANCH  51  53
ENDBRANCH  50  51
ENDBRANCH  49  50
ENDBRANCH  24  49
BRANCH  21  55
ATOM     55  C   UNK d   0      -5.915   1.305 -14.971  0.00  0.00     0.151 C 
BRANCH  55  56
ATOM     56  C   UNK d   0      -5.318   1.700 -16.256  0.00  0.00     0.143 C 
ATOM     57  O   UNK d   0      -4.091   1.662 -16.471  0.00  0.00    -0.650 OA
BRANCH  56  58
ATOM     58  O   UNK d   0      -6.178   2.131 -17.265  0.00  0.00    -0.776 OA
ATOM     59  H   UNK d   0      -5.950   3.059 -17.665  0.00  0.00     0.167 HD
ENDBRANCH  56  58
ENDBRANCH  55  56
ENDBRANCH  21  55
BRANCH  18  60
ATOM     60  C   UNK d   0      -4.492  -3.124 -12.292  0.00  0.00     0.151 C 
BRANCH  60  61
ATOM     61  C   UNK d   0      -5.584  -2.913 -11.329  0.00  0.00     0.143 C 
ATOM     62  O   UNK d   0      -5.666  -2.021 -10.484  0.00  0.00    -0.650 OA
BRANCH  61  63
ATOM     63  O   UNK d   0      -6.642  -3.850 -11.404  0.00  0.00    -0.776 OA
ATOM     64  H   UNK d   0      -7.362  -3.876 -10.704  0.00  0.00     0.167 HD
ENDBRANCH  61  63
ENDBRANCH  60  61
ENDBRANCH  18  60
BRANCH  14  65
ATOM     65  C   UNK d   0      -2.398  -4.105 -10.326  0.00  0.00     0.052 C 
BRANCH  65  66
ATOM     66  C   UNK d   0      -1.690  -4.217  -9.022  0.00  0.00     0.115 C 
BRANCH  66  67
ATOM     67  C   UNK d   0      -1.677  -5.472  -8.325  0.00  0.00     0.139 C 
ATOM     68  O   UNK d   0      -1.971  -6.540  -8.978  0.00  0.00    -0.650 OA
BRANCH  67  69
ATOM     69  O   UNK d   0      -1.378  -5.699  -6.982  0.00  0.00    -0.776 OA
ATOM     70  H   UNK d   0      -1.995  -5.232  -6.301  0.00  0.00     0.167 HD
ENDBRANCH  67  69
ENDBRANCH  66  67
ENDBRANCH  65  66
ENDBRANCH  14  65
ENDBRANCH   6   7
ENDBRANCH   5   6
ENDBRANCH   2   5
TORSDOF 28
ENDMDL
MODEL 9
REMARK VINA RESULT:      -9.0      2.020      9.336
REMARK  28 active torsions:
REMARK  status: ('A' for Active; 'I' for Inactive)
REMARK    1  A    between atoms: C_2  and  O_3 
REMARK    2  A    between atoms: C_2  and  C_4 
REMARK    3  A    between atoms: C_4  and  C_5 
REMARK    4  A    between atoms: C_5  and  C_6 
REMARK    5  A    between atoms: C_7  and  C_8 
REMARK    6  A    between atoms: C_8  and  C_9 
REMARK    7  A    between atoms: C_9  and  O_11 
REMARK    8  A    between atoms: C_28  and  C_29 
REMARK    9  A    between atoms: C_29  and  C_30 
REMARK   10  A    between atoms: C_30  and  O_32 
REMARK   11  A    between atoms: C_33  and  C_34 
REMARK   12  A    between atoms: C_34  and  C_35 
REMARK   13  A    between atoms: C_35  and  C_36 
REMARK   14  A    between atoms: C_36  and  O_38 
REMARK   15  A    between atoms: C_39  and  C_40 
REMARK   16  A    between atoms: C_40  and  C_41 
REMARK   17  A    between atoms: C_41  and  C_42 
REMARK   18  A    between atoms: C_42  and  O_44 
REMARK   19  A    between atoms: C_45  and  C_46 
REMARK   20  A    between atoms: C_46  and  C_47 
REMARK   21  A    between atoms: C_47  and  O_49 
REMARK   22  A    between atoms: C_50  and  C_51 
REMARK   23  A    between atoms: C_51  and  C_52 
REMARK   24  A    between atoms: C_52  and  O_54 
REMARK   25  A    between atoms: C_55  and  C_56 
REMARK   26  A    between atoms: C_56  and  C_57 
REMARK   27  A    between atoms: C_57  and  C_58 
REMARK   28  A    between atoms: C_58  and  O_60 
ROOT
ATOM      1  O   UNK d   0      -9.444   8.469 -13.550  0.00  0.00    -0.650 OA
ATOM      2  C   UNK d   0      -8.310   8.256 -14.033  0.00  0.00     0.139 C 
ENDROOT
BRANCH   2   3
ATOM      3  O   UNK d   0      -8.077   8.545 -15.356  0.00  0.00    -0.776 OA
ATOM      4  H   UNK d   0      -7.999   9.511 -15.679  0.00  0.00     0.167 HD
ENDBRANCH   2   3
BRANCH   2   5
ATOM      5  C   UNK d   0      -7.226   7.692 -13.180  0.00  0.00     0.115 C 
BRANCH   5   6
ATOM      6  C   UNK d   0      -5.915   8.357 -13.502  0.00  0.00     0.052 C 
BRANCH   6   7
ATOM      7  C   UNK d   0      -4.779   7.849 -12.646  0.00  0.00    -0.020 A 
ATOM      8  C   UNK d   0      -3.836   8.550 -12.072  0.00  0.00    -0.011 A 
ATOM      9  C   UNK d   0      -2.965   7.628 -11.363  0.00  0.00     0.067 A 
ATOM     10  C   UNK d   0      -1.821   7.734 -10.556  0.00  0.00     0.062 C 
ATOM     11  N   UNK d   0      -3.449   6.385 -11.564  0.00  0.00    -0.248 NA
ATOM     12  C   UNK d   0      -1.277   6.749  -9.725  0.00  0.00     0.041 A 
ATOM     13  N   UNK d   0      -1.084   5.430  -9.921  0.00  0.00    -0.355 N 
ATOM     14  C   UNK d   0      -0.885   7.099  -8.420  0.00  0.00    -0.022 A 
ATOM     15  C   UNK d   0      -0.589   4.934  -8.772  0.00  0.00     0.042 A 
ATOM     16  H   UNK d   0      -1.277   4.866 -10.859  0.00  0.00     0.166 HD
ATOM     17  C   UNK d   0      -0.210   3.620  -8.432  0.00  0.00     0.062 C 
ATOM     18  C   UNK d   0      -0.450   5.951  -7.807  0.00  0.00    -0.013 A 
ATOM     19  C   UNK d   0      -0.868   2.442  -8.678  0.00  0.00     0.067 A 
ATOM     20  N   UNK d   0      -1.907   2.494  -9.515  0.00  0.00    -0.248 NA
ATOM     21  C   UNK d   0      -0.744   1.064  -8.234  0.00  0.00    -0.011 A 
ATOM     22  C   UNK d   0      -2.472   1.249  -9.650  0.00  0.00     0.066 A 
ATOM     23  C   UNK d   0      -3.544   1.150 -10.526  0.00  0.00     0.062 C 
ATOM     24  C   UNK d   0      -1.688   0.371  -8.804  0.00  0.00    -0.020 A 
ATOM     25  C   UNK d   0      -4.067   2.149 -11.361  0.00  0.00     0.041 A 
ATOM     26  N   UNK d   0      -4.272   3.456 -11.161  0.00  0.00    -0.355 N 
ATOM     27  C   UNK d   0      -4.455   1.797 -12.672  0.00  0.00    -0.022 A 
ATOM     28  C   UNK d   0      -4.775   3.952 -12.303  0.00  0.00     0.042 A 
ATOM     29  H   UNK d   0      -4.088   4.021 -10.214  0.00  0.00     0.166 HD
ATOM     30  C   UNK d   0      -5.164   5.255 -12.651  0.00  0.00     0.062 C 
ATOM     31  C   UNK d   0      -4.904   2.932 -13.275  0.00  0.00    -0.013 A 
ATOM     32  C   UNK d   0      -4.540   6.449 -12.328  0.00  0.00     0.066 A 
BRANCH   8  33
ATOM     33  C   UNK d   0      -3.664  10.014 -12.126  0.00  0.00     0.151 C 
BRANCH  33  34
ATOM     34  C   UNK d   0      -4.545  10.727 -11.184  0.00  0.00     0.143 C 
ATOM     35  O   UNK d   0      -5.717  10.993 -11.485  0.00  0.00    -0.650 OA
BRANCH  34  36
ATOM     36  O   UNK d   0      -4.056  11.102  -9.954  0.00  0.00    -0.776 OA
ATOM     37  H   UNK d   0      -4.688  11.350  -9.180  0.00  0.00     0.167 HD
ENDBRANCH  34  36
ENDBRANCH  33  34
ENDBRANCH   8  33
BRANCH  31  38
ATOM     38  C   UNK d   0      -5.412   3.046 -14.694  0.00  0.00     0.151 C 
BRANCH  38  39
ATOM     39  C   UNK d   0      -6.853   2.937 -14.785  0.00  0.00     0.143 C 
ATOM     40  O   UNK d   0      -7.605   3.261 -13.849  0.00  0.00    -0.650 OA
BRANCH  39  41
ATOM     41  O   UNK d   0      -7.431   2.454 -15.958  0.00  0.00    -0.776 OA
ATOM     42  H   UNK d   0      -8.420   2.189 -15.909  0.00  0.00     0.167 HD
ENDBRANCH  39  41
ENDBRANCH  38  39
ENDBRANCH  31  38
BRANCH  27  43
ATOM     43  C   UNK d   0      -4.418   0.452 -13.355  0.00  0.00     0.052 C 
BRANCH  43  44
ATOM     44  C   UNK d   0      -3.064  -0.179 -13.342  0.00  0.00     0.115 C 
BRANCH  44  45
ATOM     45  C   UNK d   0      -2.193   0.668 -14.198  0.00  0.00     0.139 C 
ATOM     46  O   UNK d   0      -1.187   1.205 -13.670  0.00  0.00    -0.650 OA
BRANCH  45  47
ATOM     47  O   UNK d   0      -2.440   0.881 -15.537  0.00  0.00    -0.776 OA
ATOM     48  H   UNK d   0      -1.803   1.420 -16.145  0.00  0.00     0.167 HD
ENDBRANCH  45  47
ENDBRANCH  44  45
ENDBRANCH  43  44
ENDBRANCH  27  43
BRANCH  24  49
ATOM     49  C   UNK d   0      -1.907  -1.078  -8.663  0.00  0.00     0.052 C 
BRANCH  49  50
ATOM     50  C   UNK d   0      -0.841  -1.844  -9.404  0.00  0.00     0.115 C 
BRANCH  50  51
ATOM     51  C   UNK d   0      -0.880  -1.799 -10.859  0.00  0.00     0.139 C 
ATOM     52  O   UNK d   0      -1.616  -2.551 -11.540  0.00  0.00    -0.650 OA
BRANCH  51  53
ATOM     53  O   UNK d   0      -0.077  -0.897 -11.540  0.00  0.00    -0.776 OA
ATOM     54  H   UNK d   0       0.316  -0.128 -11.025  0.00  0.00     0.167 HD
ENDBRANCH  51  53
ENDBRANCH  50  51
ENDBRANCH  49  50
ENDBRANCH  24  49
BRANCH  21  55
ATOM     55  C   UNK d   0       0.308   0.582  -7.291  0.00  0.00     0.151 C 
BRANCH  55  56
ATOM     56  C   UNK d   0       1.589   0.337  -7.972  0.00  0.00     0.143 C 
ATOM     57  O   UNK d   0       2.231   1.238  -8.546  0.00  0.00    -0.650 OA
BRANCH  56  58
ATOM     58  O   UNK d   0       2.089  -0.964  -7.964  0.00  0.00    -0.776 OA
ATOM     59  H   UNK d   0       2.355  -1.324  -7.030  0.00  0.00     0.167 HD
ENDBRANCH  56  58
ENDBRANCH  55  56
ENDBRANCH  21  55
BRANCH  18  60
ATOM     60  C   UNK d   0       0.056   5.867  -6.388  0.00  0.00     0.151 C 
BRANCH  60  61
ATOM     61  C   UNK d   0       1.510   6.071  -6.465  0.00  0.00     0.143 C 
ATOM     62  O   UNK d   0       2.354   5.260  -6.848  0.00  0.00    -0.650 OA
BRANCH  61  63
ATOM     63  O   UNK d   0       1.962   7.346  -6.049  0.00  0.00    -0.776 OA
ATOM     64  H   UNK d   0       2.322   8.011  -6.711  0.00  0.00     0.167 HD
ENDBRANCH  61  63
ENDBRANCH  60  61
ENDBRANCH  18  60
BRANCH  14  65
ATOM     65  C   UNK d   0      -0.800   8.441  -7.748  0.00  0.00     0.052 C 
BRANCH  65  66
ATOM     66  C   UNK d   0      -1.957   8.718  -6.855  0.00  0.00     0.115 C 
BRANCH  66  67
ATOM     67  C   UNK d   0      -3.067   9.486  -7.345  0.00  0.00     0.139 C 
ATOM     68  O   UNK d   0      -3.960   8.891  -8.053  0.00  0.00    -0.650 OA
BRANCH  67  69
ATOM     69  O   UNK d   0      -3.317  10.844  -7.151  0.00  0.00    -0.776 OA
ATOM     70  H   UNK d   0      -4.158  11.070  -6.599  0.00  0.00     0.167 HD
ENDBRANCH  67  69
ENDBRANCH  66  67
ENDBRANCH  65  66
ENDBRANCH  14  65
ENDBRANCH   6   7
ENDBRANCH   5   6
ENDBRANCH   2   5
TORSDOF 28
ENDMDL
MODEL 10
REMARK VINA RESULT:      -8.9     29.588     32.628
REMARK  28 active torsions:
REMARK  status: ('A' for Active; 'I' for Inactive)
REMARK    1  A    between atoms: C_2  and  O_3 
REMARK    2  A    between atoms: C_2  and  C_4 
REMARK    3  A    between atoms: C_4  and  C_5 
REMARK    4  A    between atoms: C_5  and  C_6 
REMARK    5  A    between atoms: C_7  and  C_8 
REMARK    6  A    between atoms: C_8  and  C_9 
REMARK    7  A    between atoms: C_9  and  O_11 
REMARK    8  A    between atoms: C_28  and  C_29 
REMARK    9  A    between atoms: C_29  and  C_30 
REMARK   10  A    between atoms: C_30  and  O_32 
REMARK   11  A    between atoms: C_33  and  C_34 
REMARK   12  A    between atoms: C_34  and  C_35 
REMARK   13  A    between atoms: C_35  and  C_36 
REMARK   14  A    between atoms: C_36  and  O_38 
REMARK   15  A    between atoms: C_39  and  C_40 
REMARK   16  A    between atoms: C_40  and  C_41 
REMARK   17  A    between atoms: C_41  and  C_42 
REMARK   18  A    between atoms: C_42  and  O_44 
REMARK   19  A    between atoms: C_45  and  C_46 
REMARK   20  A    between atoms: C_46  and  C_47 
REMARK   21  A    between atoms: C_47  and  O_49 
REMARK   22  A    between atoms: C_50  and  C_51 
REMARK   23  A    between atoms: C_51  and  C_52 
REMARK   24  A    between atoms: C_52  and  O_54 
REMARK   25  A    between atoms: C_55  and  C_56 
REMARK   26  A    between atoms: C_56  and  C_57 
REMARK   27  A    between atoms: C_57  and  C_58 
REMARK   28  A    between atoms: C_58  and  O_60 
ROOT
ATOM      1  O   UNK d   0     -22.525  22.420  13.137  0.00  0.00    -0.650 OA
ATOM      2  C   UNK d   0     -23.099  21.344  13.414  0.00  0.00     0.139 C 
ENDROOT
BRANCH   2   3
ATOM      3  O   UNK d   0     -23.144  20.921  14.721  0.00  0.00    -0.776 OA
ATOM      4  H   UNK d   0     -23.545  20.014  14.968  0.00  0.00     0.167 HD
ENDBRANCH   2   3
BRANCH   2   5
ATOM      5  C   UNK d   0     -23.725  20.530  12.334  0.00  0.00     0.115 C 
BRANCH   5   6
ATOM      6  C   UNK d   0     -24.340  19.285  12.913  0.00  0.00     0.052 C 
BRANCH   6   7
ATOM      7  C   UNK d   0     -24.170  18.082  12.016  0.00  0.00    -0.020 A 
ATOM      8  C   UNK d   0     -23.153  17.261  11.967  0.00  0.00    -0.011 A 
ATOM      9  C   UNK d   0     -23.435  16.264  10.947  0.00  0.00     0.067 A 
ATOM     10  C   UNK d   0     -22.786  15.131  10.432  0.00  0.00     0.062 C 
ATOM     11  N   UNK d   0     -24.643  16.558  10.423  0.00  0.00    -0.248 NA
ATOM     12  C   UNK d   0     -23.343  14.124   9.636  0.00  0.00     0.041 A 
ATOM     13  N   UNK d   0     -24.184  14.188   8.586  0.00  0.00    -0.355 N 
ATOM     14  C   UNK d   0     -23.071  12.780   9.949  0.00  0.00    -0.022 A 
ATOM     15  C   UNK d   0     -24.460  12.919   8.231  0.00  0.00     0.042 A 
ATOM     16  H   UNK d   0     -24.561  15.112   8.094  0.00  0.00     0.166 HD
ATOM     17  C   UNK d   0     -25.280  12.416   7.201  0.00  0.00     0.062 C 
ATOM     18  C   UNK d   0     -23.781  12.008   9.063  0.00  0.00    -0.013 A 
ATOM     19  C   UNK d   0     -26.540  12.813   6.830  0.00  0.00     0.067 A 
ATOM     20  N   UNK d   0     -26.998  13.947   7.366  0.00  0.00    -0.248 NA
ATOM     21  C   UNK d   0     -27.587  12.293   5.967  0.00  0.00    -0.011 A 
ATOM     22  C   UNK d   0     -28.270  14.206   6.916  0.00  0.00     0.066 A 
ATOM     23  C   UNK d   0     -28.856  15.380   7.366  0.00  0.00     0.062 C 
ATOM     24  C   UNK d   0     -28.598  13.111   6.024  0.00  0.00    -0.020 A 
ATOM     25  C   UNK d   0     -28.275  16.384   8.155  0.00  0.00     0.041 A 
ATOM     26  N   UNK d   0     -27.450  16.321   9.207  0.00  0.00    -0.355 N 
ATOM     27  C   UNK d   0     -28.544  17.733   7.836  0.00  0.00    -0.022 A 
ATOM     28  C   UNK d   0     -27.180  17.585   9.569  0.00  0.00     0.042 A 
ATOM     29  H   UNK d   0     -27.081  15.391   9.707  0.00  0.00     0.166 HD
ATOM     30  C   UNK d   0     -26.374  18.099  10.596  0.00  0.00     0.062 C 
ATOM     31  C   UNK d   0     -27.855  18.500   8.726  0.00  0.00    -0.013 A 
ATOM     32  C   UNK d   0     -25.138  17.641  11.024  0.00  0.00     0.066 A 
BRANCH   8  33
ATOM     33  C   UNK d   0     -21.927  17.319  12.785  0.00  0.00     0.151 C 
BRANCH  33  34
ATOM     34  C   UNK d   0     -20.767  17.839  12.038  0.00  0.00     0.143 C 
ATOM     35  O   UNK d   0     -19.617  17.465  12.309  0.00  0.00    -0.650 OA
BRANCH  34  36
ATOM     36  O   UNK d   0     -20.967  18.751  11.028  0.00  0.00    -0.776 OA
ATOM     37  H   UNK d   0     -21.200  19.732  11.233  0.00  0.00     0.167 HD
ENDBRANCH  34  36
ENDBRANCH  33  34
ENDBRANCH   8  33
BRANCH  31  38
ATOM     38  C   UNK d   0     -27.827  20.010   8.767  0.00  0.00     0.151 C 
BRANCH  38  39
ATOM     39  C   UNK d   0     -26.874  20.579   7.838  0.00  0.00     0.143 C 
ATOM     40  O   UNK d   0     -25.650  20.380   7.935  0.00  0.00    -0.650 OA
BRANCH  39  41
ATOM     41  O   UNK d   0     -27.330  21.380   6.791  0.00  0.00    -0.776 OA
ATOM     42  H   UNK d   0     -27.862  20.912   6.051  0.00  0.00     0.167 HD
ENDBRANCH  39  41
ENDBRANCH  38  39
ENDBRANCH  31  38
BRANCH  27  43
ATOM     43  C   UNK d   0     -29.414  18.305   6.745  0.00  0.00     0.052 C 
BRANCH  43  44
ATOM     44  C   UNK d   0     -28.767  18.276   5.398  0.00  0.00     0.115 C 
BRANCH  44  45
ATOM     45  C   UNK d   0     -29.322  19.425   4.636  0.00  0.00     0.139 C 
ATOM     46  O   UNK d   0     -30.531  19.384   4.301  0.00  0.00    -0.650 OA
BRANCH  45  47
ATOM     47  O   UNK d   0     -28.568  20.526   4.291  0.00  0.00    -0.776 OA
ATOM     48  H   UNK d   0     -28.979  21.463   4.148  0.00  0.00     0.167 HD
ENDBRANCH  45  47
ENDBRANCH  44  45
ENDBRANCH  43  44
ENDBRANCH  27  43
BRANCH  24  49
ATOM     49  C   UNK d   0     -29.859  12.986   5.273  0.00  0.00     0.052 C 
BRANCH  49  50
ATOM     50  C   UNK d   0     -30.988  12.617   6.201  0.00  0.00     0.115 C 
BRANCH  50  51
ATOM     51  C   UNK d   0     -30.705  11.626   7.231  0.00  0.00     0.139 C 
ATOM     52  O   UNK d   0     -30.634  11.917   8.448  0.00  0.00    -0.650 OA
BRANCH  51  53
ATOM     53  O   UNK d   0     -30.502  10.302   6.871  0.00  0.00    -0.776 OA
ATOM     54  H   UNK d   0     -31.007   9.941   6.081  0.00  0.00     0.167 HD
ENDBRANCH  51  53
ENDBRANCH  50  51
ENDBRANCH  49  50
ENDBRANCH  24  49
BRANCH  21  55
ATOM     55  C   UNK d   0     -27.465  11.036   5.171  0.00  0.00     0.151 C 
BRANCH  55  56
ATOM     56  C   UNK d   0     -27.025   9.901   5.996  0.00  0.00     0.143 C 
ATOM     57  O   UNK d   0     -27.692   9.465   6.955  0.00  0.00    -0.650 OA
BRANCH  56  58
ATOM     58  O   UNK d   0     -25.808   9.300   5.678  0.00  0.00    -0.776 OA
ATOM     59  H   UNK d   0     -25.547   8.498   6.280  0.00  0.00     0.167 HD
ENDBRANCH  56  58
ENDBRANCH  55  56
ENDBRANCH  21  55
BRANCH  18  60
ATOM     60  C   UNK d   0     -23.788  10.500   9.044  0.00  0.00     0.151 C 
BRANCH  60  61
ATOM     61  C   UNK d   0     -24.783  10.088  10.045  0.00  0.00     0.143 C 
ATOM     62  O   UNK d   0     -24.587   9.873  11.242  0.00  0.00    -0.650 OA
BRANCH  61  63
ATOM     63  O   UNK d   0     -26.101   9.927   9.554  0.00  0.00    -0.776 OA
ATOM     64  H   UNK d   0     -26.415   9.046   9.189  0.00  0.00     0.167 HD
ENDBRANCH  61  63
ENDBRANCH  60  61
ENDBRANCH  18  60
BRANCH  14  65
ATOM     65  C   UNK d   0     -22.126  12.178  10.949  0.00  0.00     0.052 C 
BRANCH  65  66
ATOM     66  C   UNK d   0     -20.699  12.473  10.651  0.00  0.00     0.115 C 
BRANCH  66  67
ATOM     67  C   UNK d   0     -19.756  12.589  11.728  0.00  0.00     0.139 C 
ATOM     68  O   UNK d   0     -19.971  13.471  12.639  0.00  0.00    -0.650 OA
BRANCH  67  69
ATOM     69  O   UNK d   0     -18.592  11.847  11.927  0.00  0.00    -0.776 OA
ATOM     70  H   UNK d   0     -18.572  10.918  11.482  0.00  0.00     0.167 HD
ENDBRANCH  67  69
ENDBRANCH  66  67
ENDBRANCH  65  66
ENDBRANCH  14  65
ENDBRANCH   6   7
ENDBRANCH   5   6
ENDBRANCH   2   5
TORSDOF 28
ENDMDL
MODEL 11
REMARK VINA RESULT:      -8.9     29.707     32.821
REMARK  28 active torsions:
REMARK  status: ('A' for Active; 'I' for Inactive)
REMARK    1  A    between atoms: C_2  and  O_3 
REMARK    2  A    between atoms: C_2  and  C_4 
REMARK    3  A    between atoms: C_4  and  C_5 
REMARK    4  A    between atoms: C_5  and  C_6 
REMARK    5  A    between atoms: C_7  and  C_8 
REMARK    6  A    between atoms: C_8  and  C_9 
REMARK    7  A    between atoms: C_9  and  O_11 
REMARK    8  A    between atoms: C_28  and  C_29 
REMARK    9  A    between atoms: C_29  and  C_30 
REMARK   10  A    between atoms: C_30  and  O_32 
REMARK   11  A    between atoms: C_33  and  C_34 
REMARK   12  A    between atoms: C_34  and  C_35 
REMARK   13  A    between atoms: C_35  and  C_36 
REMARK   14  A    between atoms: C_36  and  O_38 
REMARK   15  A    between atoms: C_39  and  C_40 
REMARK   16  A    between atoms: C_40  and  C_41 
REMARK   17  A    between atoms: C_41  and  C_42 
REMARK   18  A    between atoms: C_42  and  O_44 
REMARK   19  A    between atoms: C_45  and  C_46 
REMARK   20  A    between atoms: C_46  and  C_47 
REMARK   21  A    between atoms: C_47  and  O_49 
REMARK   22  A    between atoms: C_50  and  C_51 
REMARK   23  A    between atoms: C_51  and  C_52 
REMARK   24  A    between atoms: C_52  and  O_54 
REMARK   25  A    between atoms: C_55  and  C_56 
REMARK   26  A    between atoms: C_56  and  C_57 
REMARK   27  A    between atoms: C_57  and  C_58 
REMARK   28  A    between atoms: C_58  and  O_60 
ROOT
ATOM      1  O   UNK d   0     -29.292  10.453   9.355  0.00  0.00    -0.650 OA
ATOM      2  C   UNK d   0     -28.317  10.235   8.603  0.00  0.00     0.139 C 
ENDROOT
BRANCH   2   3
ATOM      3  O   UNK d   0     -27.594   9.076   8.756  0.00  0.00    -0.776 OA
ATOM      4  H   UNK d   0     -27.249   8.558   7.945  0.00  0.00     0.167 HD
ENDBRANCH   2   3
BRANCH   2   5
ATOM      5  C   UNK d   0     -27.946  11.225   7.552  0.00  0.00     0.115 C 
BRANCH   5   6
ATOM      6  C   UNK d   0     -26.498  11.061   7.175  0.00  0.00     0.052 C 
BRANCH   6   7
ATOM      7  C   UNK d   0     -25.583  11.953   7.980  0.00  0.00    -0.020 A 
ATOM      8  C   UNK d   0     -24.629  11.587   8.797  0.00  0.00    -0.011 A 
ATOM      9  C   UNK d   0     -24.030  12.791   9.348  0.00  0.00     0.067 A 
ATOM     10  C   UNK d   0     -22.983  13.087  10.235  0.00  0.00     0.062 C 
ATOM     11  N   UNK d   0     -24.685  13.845   8.816  0.00  0.00    -0.248 NA
ATOM     12  C   UNK d   0     -22.365  14.326  10.434  0.00  0.00     0.041 A 
ATOM     13  N   UNK d   0     -22.879  15.566  10.541  0.00  0.00    -0.355 N 
ATOM     14  C   UNK d   0     -20.960  14.386  10.490  0.00  0.00    -0.022 A 
ATOM     15  C   UNK d   0     -21.837  16.411  10.655  0.00  0.00     0.042 A 
ATOM     16  H   UNK d   0     -23.958  15.837  10.555  0.00  0.00     0.166 HD
ATOM     17  C   UNK d   0     -21.809  17.813  10.796  0.00  0.00     0.062 C 
ATOM     18  C   UNK d   0     -20.618  15.708  10.627  0.00  0.00    -0.013 A 
ATOM     19  C   UNK d   0     -22.528  18.763  10.116  0.00  0.00     0.067 A 
ATOM     20  N   UNK d   0     -23.534  18.328   9.353  0.00  0.00    -0.248 NA
ATOM     21  C   UNK d   0     -22.481  20.209   9.979  0.00  0.00    -0.011 A 
ATOM     22  C   UNK d   0     -24.148  19.385   8.726  0.00  0.00     0.066 A 
ATOM     23  C   UNK d   0     -25.240  19.078   7.928  0.00  0.00     0.062 C 
ATOM     24  C   UNK d   0     -23.429  20.566   9.161  0.00  0.00    -0.020 A 
ATOM     25  C   UNK d   0     -25.853  17.828   7.752  0.00  0.00     0.041 A 
ATOM     26  N   UNK d   0     -25.341  16.597   7.630  0.00  0.00    -0.355 N 
ATOM     27  C   UNK d   0     -27.263  17.769   7.700  0.00  0.00    -0.022 A 
ATOM     28  C   UNK d   0     -26.378  15.754   7.507  0.00  0.00     0.042 A 
ATOM     29  H   UNK d   0     -24.256  16.328   7.605  0.00  0.00     0.166 HD
ATOM     30  C   UNK d   0     -26.420  14.359   7.357  0.00  0.00     0.062 C 
ATOM     31  C   UNK d   0     -27.603  16.460   7.546  0.00  0.00    -0.013 A 
ATOM     32  C   UNK d   0     -25.632  13.407   7.985  0.00  0.00     0.066 A 
BRANCH   8  33
ATOM     33  C   UNK d   0     -24.221  10.208   9.121  0.00  0.00     0.151 C 
BRANCH  33  34
ATOM     34  C   UNK d   0     -24.275   9.921  10.565  0.00  0.00     0.143 C 
ATOM     35  O   UNK d   0     -23.322   9.378  11.143  0.00  0.00    -0.650 OA
BRANCH  34  36
ATOM     36  O   UNK d   0     -25.401  10.259  11.280  0.00  0.00    -0.776 OA
ATOM     37  H   UNK d   0     -25.447  11.132  11.822  0.00  0.00     0.167 HD
ENDBRANCH  34  36
ENDBRANCH  33  34
ENDBRANCH   8  33
BRANCH  31  38
ATOM     38  C   UNK d   0     -29.007  15.909   7.455  0.00  0.00     0.151 C 
BRANCH  38  39
ATOM     39  C   UNK d   0     -29.341  15.439   6.128  0.00  0.00     0.143 C 
ATOM     40  O   UNK d   0     -30.093  14.467   5.936  0.00  0.00    -0.650 OA
BRANCH  39  41
ATOM     41  O   UNK d   0     -28.807  16.089   5.015  0.00  0.00    -0.776 OA
ATOM     42  H   UNK d   0     -27.952  16.632   5.165  0.00  0.00     0.167 HD
ENDBRANCH  39  41
ENDBRANCH  38  39
ENDBRANCH  31  38
BRANCH  27  43
ATOM     43  C   UNK d   0     -28.272  18.886   7.788  0.00  0.00     0.052 C 
BRANCH  43  44
ATOM     44  C   UNK d   0     -28.231  19.813   6.617  0.00  0.00     0.115 C 
BRANCH  44  45
ATOM     45  C   UNK d   0     -29.044  19.180   5.546  0.00  0.00     0.139 C 
ATOM     46  O   UNK d   0     -30.210  18.809   5.829  0.00  0.00    -0.650 OA
BRANCH  45  47
ATOM     47  O   UNK d   0     -28.575  18.990   4.264  0.00  0.00    -0.776 OA
ATOM     48  H   UNK d   0     -29.040  18.369   3.583  0.00  0.00     0.167 HD
ENDBRANCH  45  47
ENDBRANCH  44  45
ENDBRANCH  43  44
ENDBRANCH  27  43
BRANCH  24  49
ATOM     49  C   UNK d   0     -23.764  21.946   8.770  0.00  0.00     0.052 C 
BRANCH  49  50
ATOM     50  C   UNK d   0     -22.710  22.500   7.846  0.00  0.00     0.115 C 
BRANCH  50  51
ATOM     51  C   UNK d   0     -22.278  23.872   8.076  0.00  0.00     0.139 C 
ATOM     52  O   UNK d   0     -22.667  24.831   7.368  0.00  0.00    -0.650 OA
BRANCH  51  53
ATOM     53  O   UNK d   0     -21.401  24.151   9.113  0.00  0.00    -0.776 OA
ATOM     54  H   UNK d   0     -21.778  24.257  10.039  0.00  0.00     0.167 HD
ENDBRANCH  51  53
ENDBRANCH  50  51
ENDBRANCH  49  50
ENDBRANCH  24  49
BRANCH  21  55
ATOM     55  C   UNK d   0     -21.497  21.083  10.683  0.00  0.00     0.151 C 
BRANCH  55  56
ATOM     56  C   UNK d   0     -22.089  21.750  11.853  0.00  0.00     0.143 C 
ATOM     57  O   UNK d   0     -22.554  21.121  12.825  0.00  0.00    -0.650 OA
BRANCH  56  58
ATOM     58  O   UNK d   0     -22.124  23.143  11.857  0.00  0.00    -0.776 OA
ATOM     59  H   UNK d   0     -22.673  23.563  12.629  0.00  0.00     0.167 HD
ENDBRANCH  56  58
ENDBRANCH  55  56
ENDBRANCH  21  55
BRANCH  18  60
ATOM     60  C   UNK d   0     -19.205  16.229  10.718  0.00  0.00     0.151 C 
BRANCH  60  61
ATOM     61  C   UNK d   0     -18.921  16.375  12.154  0.00  0.00     0.143 C 
ATOM     62  O   UNK d   0     -19.598  15.952  13.092  0.00  0.00    -0.650 OA
BRANCH  61  63
ATOM     63  O   UNK d   0     -17.734  17.082  12.465  0.00  0.00    -0.776 OA
ATOM     64  H   UNK d   0     -17.214  17.560  11.751  0.00  0.00     0.167 HD
ENDBRANCH  61  63
ENDBRANCH  60  61
ENDBRANCH  18  60
BRANCH  14  65
ATOM     65  C   UNK d   0     -19.933  13.290  10.522  0.00  0.00     0.052 C 
BRANCH  65  66
ATOM     66  C   UNK d   0     -19.842  12.617  11.845  0.00  0.00     0.115 C 
BRANCH  66  67
ATOM     67  C   UNK d   0     -20.404  11.307  12.017  0.00  0.00     0.139 C 
ATOM     68  O   UNK d   0     -21.070  11.061  13.089  0.00  0.00    -0.650 OA
BRANCH  67  69
ATOM     69  O   UNK d   0     -20.322  10.222  11.145  0.00  0.00    -0.776 OA
ATOM     70  H   UNK d   0     -21.166   9.634  11.082  0.00  0.00     0.167 HD
ENDBRANCH  67  69
ENDBRANCH  66  67
ENDBRANCH  65  66
ENDBRANCH  14  65
ENDBRANCH   6   7
ENDBRANCH   5   6
ENDBRANCH   2   5
TORSDOF 28
ENDMDL
MODEL 12
REMARK VINA RESULT:      -8.9      2.070      8.033
REMARK  28 active torsions:
REMARK  status: ('A' for Active; 'I' for Inactive)
REMARK    1  A    between atoms: C_2  and  O_3 
REMARK    2  A    between atoms: C_2  and  C_4 
REMARK    3  A    between atoms: C_4  and  C_5 
REMARK    4  A    between atoms: C_5  and  C_6 
REMARK    5  A    between atoms: C_7  and  C_8 
REMARK    6  A    between atoms: C_8  and  C_9 
REMARK    7  A    between atoms: C_9  and  O_11 
REMARK    8  A    between atoms: C_28  and  C_29 
REMARK    9  A    between atoms: C_29  and  C_30 
REMARK   10  A    between atoms: C_30  and  O_32 
REMARK   11  A    between atoms: C_33  and  C_34 
REMARK   12  A    between atoms: C_34  and  C_35 
REMARK   13  A    between atoms: C_35  and  C_36 
REMARK   14  A    between atoms: C_36  and  O_38 
REMARK   15  A    between atoms: C_39  and  C_40 
REMARK   16  A    between atoms: C_40  and  C_41 
REMARK   17  A    between atoms: C_41  and  C_42 
REMARK   18  A    between atoms: C_42  and  O_44 
REMARK   19  A    between atoms: C_45  and  C_46 
REMARK   20  A    between atoms: C_46  and  C_47 
REMARK   21  A    between atoms: C_47  and  O_49 
REMARK   22  A    between atoms: C_50  and  C_51 
REMARK   23  A    between atoms: C_51  and  C_52 
REMARK   24  A    between atoms: C_52  and  O_54 
REMARK   25  A    between atoms: C_55  and  C_56 
REMARK   26  A    between atoms: C_56  and  C_57 
REMARK   27  A    between atoms: C_57  and  C_58 
REMARK   28  A    between atoms: C_58  and  O_60 
ROOT
ATOM      1  O   UNK d   0       1.038  -4.051  -6.989  0.00  0.00    -0.650 OA
ATOM      2  C   UNK d   0       0.168  -3.175  -6.789  0.00  0.00     0.139 C 
ENDROOT
BRANCH   2   3
ATOM      3  O   UNK d   0       0.087  -2.575  -5.555  0.00  0.00    -0.776 OA
ATOM      4  H   UNK d   0      -0.806  -2.243  -5.188  0.00  0.00     0.167 HD
ENDBRANCH   2   3
BRANCH   2   5
ATOM      5  C   UNK d   0      -0.770  -2.789  -7.881  0.00  0.00     0.115 C 
BRANCH   5   6
ATOM      6  C   UNK d   0      -0.013  -2.579  -9.164  0.00  0.00     0.052 C 
BRANCH   6   7
ATOM      7  C   UNK d   0      -0.464  -1.346  -9.910  0.00  0.00    -0.020 A 
ATOM      8  C   UNK d   0      -1.097  -1.292 -11.054  0.00  0.00    -0.011 A 
ATOM      9  C   UNK d   0      -1.311   0.109 -11.379  0.00  0.00     0.067 A 
ATOM     10  C   UNK d   0      -1.926   0.825 -12.418  0.00  0.00     0.062 C 
ATOM     11  N   UNK d   0      -0.770   0.838 -10.380  0.00  0.00    -0.248 NA
ATOM     12  C   UNK d   0      -2.279   2.179 -12.420  0.00  0.00     0.041 A 
ATOM     13  N   UNK d   0      -1.617   3.268 -11.986  0.00  0.00    -0.355 N 
ATOM     14  C   UNK d   0      -3.551   2.549 -12.891  0.00  0.00    -0.022 A 
ATOM     15  C   UNK d   0      -2.439   4.319 -12.163  0.00  0.00     0.042 A 
ATOM     16  H   UNK d   0      -0.581   3.296 -11.582  0.00  0.00     0.166 HD
ATOM     17  C   UNK d   0      -2.248   5.686 -11.880  0.00  0.00     0.062 C 
ATOM     18  C   UNK d   0      -3.662   3.908 -12.727  0.00  0.00    -0.013 A 
ATOM     19  C   UNK d   0      -1.715   6.269 -10.759  0.00  0.00     0.067 A 
ATOM     20  N   UNK d   0      -1.109   5.459  -9.886  0.00  0.00    -0.248 NA
ATOM     21  C   UNK d   0      -1.636   7.616 -10.219  0.00  0.00    -0.011 A 
ATOM     22  C   UNK d   0      -0.642   6.179  -8.814  0.00  0.00     0.066 A 
ATOM     23  C   UNK d   0       0.045   5.463  -7.844  0.00  0.00     0.062 C 
ATOM     24  C   UNK d   0      -1.010   7.556  -9.079  0.00  0.00    -0.020 A 
ATOM     25  C   UNK d   0       0.401   4.106  -7.867  0.00  0.00     0.041 A 
ATOM     26  N   UNK d   0      -0.263   3.021  -8.284  0.00  0.00    -0.355 N 
ATOM     27  C   UNK d   0       1.680   3.735  -7.398  0.00  0.00    -0.022 A 
ATOM     28  C   UNK d   0       0.552   1.970  -8.101  0.00  0.00     0.042 A 
ATOM     29  H   UNK d   0      -1.308   2.993  -8.681  0.00  0.00     0.166 HD
ATOM     30  C   UNK d   0       0.371   0.604  -8.369  0.00  0.00     0.062 C 
ATOM     31  C   UNK d   0       1.785   2.386  -7.543  0.00  0.00    -0.013 A 
ATOM     32  C   UNK d   0      -0.245   0.022  -9.465  0.00  0.00     0.066 A 
BRANCH   8  33
ATOM     33  C   UNK d   0      -1.523  -2.434 -11.885  0.00  0.00     0.151 C 
BRANCH  33  34
ATOM     34  C   UNK d   0      -2.878  -2.908 -11.552  0.00  0.00     0.143 C 
ATOM     35  O   UNK d   0      -3.881  -2.339 -12.007  0.00  0.00    -0.650 OA
BRANCH  34  36
ATOM     36  O   UNK d   0      -3.029  -3.995 -10.723  0.00  0.00    -0.776 OA
ATOM     37  H   UNK d   0      -3.754  -4.704 -10.898  0.00  0.00     0.167 HD
ENDBRANCH  34  36
ENDBRANCH  33  34
ENDBRANCH   8  33
BRANCH  31  38
ATOM     38  C   UNK d   0       2.986   1.542  -7.187  0.00  0.00     0.151 C 
BRANCH  38  39
ATOM     39  C   UNK d   0       4.138   1.825  -8.017  0.00  0.00     0.143 C 
ATOM     40  O   UNK d   0       5.296   1.839  -7.565  0.00  0.00    -0.650 OA
BRANCH  39  41
ATOM     41  O   UNK d   0       3.957   2.093  -9.373  0.00  0.00    -0.776 OA
ATOM     42  H   UNK d   0       3.689   1.303  -9.968  0.00  0.00     0.167 HD
ENDBRANCH  39  41
ENDBRANCH  38  39
ENDBRANCH  31  38
BRANCH  27  43
ATOM     43  C   UNK d   0       2.779   4.598  -6.829  0.00  0.00     0.052 C 
BRANCH  43  44
ATOM     44  C   UNK d   0       2.307   5.948  -6.397  0.00  0.00     0.115 C 
BRANCH  44  45
ATOM     45  C   UNK d   0       3.500   6.671  -5.886  0.00  0.00     0.139 C 
ATOM     46  O   UNK d   0       3.540   7.919  -6.025  0.00  0.00    -0.650 OA
BRANCH  45  47
ATOM     47  O   UNK d   0       4.553   6.033  -5.267  0.00  0.00    -0.776 OA
ATOM     48  H   UNK d   0       5.449   5.841  -5.742  0.00  0.00     0.167 HD
ENDBRANCH  45  47
ENDBRANCH  44  45
ENDBRANCH  43  44
ENDBRANCH  27  43
BRANCH  24  49
ATOM     49  C   UNK d   0      -0.677   8.697  -8.209  0.00  0.00     0.052 C 
BRANCH  49  50
ATOM     50  C   UNK d   0      -1.053   8.396  -6.781  0.00  0.00     0.115 C 
BRANCH  50  51
ATOM     51  C   UNK d   0      -2.395   8.768  -6.355  0.00  0.00     0.139 C 
ATOM     52  O   UNK d   0      -3.144   9.502  -7.042  0.00  0.00    -0.650 OA
BRANCH  51  53
ATOM     53  O   UNK d   0      -2.884   8.304  -5.143  0.00  0.00    -0.776 OA
ATOM     54  H   UNK d   0      -3.568   8.861  -4.662  0.00  0.00     0.167 HD
ENDBRANCH  51  53
ENDBRANCH  50  51
ENDBRANCH  49  50
ENDBRANCH  24  49
BRANCH  21  55
ATOM     55  C   UNK d   0      -2.189   8.823 -10.900  0.00  0.00     0.151 C 
BRANCH  55  56
ATOM     56  C   UNK d   0      -3.655   8.889 -10.800  0.00  0.00     0.143 C 
ATOM     57  O   UNK d   0      -4.414   8.376 -11.646  0.00  0.00    -0.650 OA
BRANCH  56  58
ATOM     58  O   UNK d   0      -4.201   9.558  -9.706  0.00  0.00    -0.776 OA
ATOM     59  H   UNK d   0      -4.160   9.037  -8.811  0.00  0.00     0.167 HD
ENDBRANCH  56  58
ENDBRANCH  55  56
ENDBRANCH  21  55
BRANCH  18  60
ATOM     60  C   UNK d   0      -4.875   4.727 -13.096  0.00  0.00     0.151 C 
BRANCH  60  61
ATOM     61  C   UNK d   0      -5.957   4.265 -12.213  0.00  0.00     0.143 C 
ATOM     62  O   UNK d   0      -7.163   4.257 -12.460  0.00  0.00    -0.650 OA
BRANCH  61  63
ATOM     63  O   UNK d   0      -5.539   3.781 -10.950  0.00  0.00    -0.776 OA
ATOM     64  H   UNK d   0      -5.793   4.258 -10.103  0.00  0.00     0.167 HD
ENDBRANCH  61  63
ENDBRANCH  60  61
ENDBRANCH  18  60
BRANCH  14  65
ATOM     65  C   UNK d   0      -4.621   1.740 -13.567  0.00  0.00     0.052 C 
BRANCH  65  66
ATOM     66  C   UNK d   0      -4.509   1.752 -15.051  0.00  0.00     0.115 C 
BRANCH  66  67
ATOM     67  C   UNK d   0      -5.668   2.035 -15.850  0.00  0.00     0.139 C 
ATOM     68  O   UNK d   0      -6.774   2.303 -15.252  0.00  0.00    -0.650 OA
BRANCH  67  69
ATOM     69  O   UNK d   0      -5.760   2.058 -17.241  0.00  0.00    -0.776 OA
ATOM     70  H   UNK d   0      -4.877   1.910 -17.751  0.00  0.00     0.167 HD
ENDBRANCH  67  69
ENDBRANCH  66  67
ENDBRANCH  65  66
ENDBRANCH  14  65
ENDBRANCH   6   7
ENDBRANCH   5   6
ENDBRANCH   2   5
TORSDOF 28
ENDMDL
MODEL 13
REMARK VINA RESULT:      -8.8      2.301      8.198
REMARK  28 active torsions:
REMARK  status: ('A' for Active; 'I' for Inactive)
REMARK    1  A    between atoms: C_2  and  O_3 
REMARK    2  A    between atoms: C_2  and  C_4 
REMARK    3  A    between atoms: C_4  and  C_5 
REMARK    4  A    between atoms: C_5  and  C_6 
REMARK    5  A    between atoms: C_7  and  C_8 
REMARK    6  A    between atoms: C_8  and  C_9 
REMARK    7  A    between atoms: C_9  and  O_11 
REMARK    8  A    between atoms: C_28  and  C_29 
REMARK    9  A    between atoms: C_29  and  C_30 
REMARK   10  A    between atoms: C_30  and  O_32 
REMARK   11  A    between atoms: C_33  and  C_34 
REMARK   12  A    between atoms: C_34  and  C_35 
REMARK   13  A    between atoms: C_35  and  C_36 
REMARK   14  A    between atoms: C_36  and  O_38 
REMARK   15  A    between atoms: C_39  and  C_40 
REMARK   16  A    between atoms: C_40  and  C_41 
REMARK   17  A    between atoms: C_41  and  C_42 
REMARK   18  A    between atoms: C_42  and  O_44 
REMARK   19  A    between atoms: C_45  and  C_46 
REMARK   20  A    between atoms: C_46  and  C_47 
REMARK   21  A    between atoms: C_47  and  O_49 
REMARK   22  A    between atoms: C_50  and  C_51 
REMARK   23  A    between atoms: C_51  and  C_52 
REMARK   24  A    between atoms: C_52  and  O_54 
REMARK   25  A    between atoms: C_55  and  C_56 
REMARK   26  A    between atoms: C_56  and  C_57 
REMARK   27  A    between atoms: C_57  and  C_58 
REMARK   28  A    between atoms: C_58  and  O_60 
ROOT
ATOM      1  O   UNK d   0      -5.130  10.132 -12.768  0.00  0.00    -0.650 OA
ATOM      2  C   UNK d   0      -5.674   9.034 -13.022  0.00  0.00     0.139 C 
ENDROOT
BRANCH   2   3
ATOM      3  O   UNK d   0      -7.036   8.980 -13.192  0.00  0.00    -0.776 OA
ATOM      4  H   UNK d   0      -7.567   9.810 -13.464  0.00  0.00     0.167 HD
ENDBRANCH   2   3
BRANCH   2   5
ATOM      5  C   UNK d   0      -4.847   7.799 -13.137  0.00  0.00     0.115 C 
BRANCH   5   6
ATOM      6  C   UNK d   0      -5.736   6.593 -13.272  0.00  0.00     0.052 C 
BRANCH   6   7
ATOM      7  C   UNK d   0      -5.130   5.353 -12.659  0.00  0.00    -0.020 A 
ATOM      8  C   UNK d   0      -5.439   4.106 -12.908  0.00  0.00    -0.011 A 
ATOM      9  C   UNK d   0      -4.597   3.264 -12.074  0.00  0.00     0.067 A 
ATOM     10  C   UNK d   0      -4.419   1.885 -11.882  0.00  0.00     0.062 C 
ATOM     11  N   UNK d   0      -3.809   4.082 -11.345  0.00  0.00    -0.248 NA
ATOM     12  C   UNK d   0      -3.356   1.251 -11.231  0.00  0.00     0.041 A 
ATOM     13  N   UNK d   0      -2.713   1.550 -10.086  0.00  0.00    -0.355 N 
ATOM     14  C   UNK d   0      -2.759   0.129 -11.835  0.00  0.00    -0.022 A 
ATOM     15  C   UNK d   0      -1.719   0.651  -9.952  0.00  0.00     0.042 A 
ATOM     16  H   UNK d   0      -2.968   2.367  -9.377  0.00  0.00     0.166 HD
ATOM     17  C   UNK d   0      -0.749   0.505  -8.940  0.00  0.00     0.062 C 
ATOM     18  C   UNK d   0      -1.716  -0.256 -11.029  0.00  0.00    -0.013 A 
ATOM     19  C   UNK d   0       0.015   1.469  -8.333  0.00  0.00     0.067 A 
ATOM     20  N   UNK d   0      -0.315   2.741  -8.570  0.00  0.00    -0.248 NA
ATOM     21  C   UNK d   0       1.174   1.483  -7.455  0.00  0.00    -0.011 A 
ATOM     22  C   UNK d   0       0.544   3.586  -7.911  0.00  0.00     0.066 A 
ATOM     23  C   UNK d   0       0.292   4.944  -8.040  0.00  0.00     0.062 C 
ATOM     24  C   UNK d   0       1.481   2.726  -7.216  0.00  0.00    -0.020 A 
ATOM     25  C   UNK d   0      -0.790   5.561  -8.688  0.00  0.00     0.041 A 
ATOM     26  N   UNK d   0      -1.419   5.273  -9.834  0.00  0.00    -0.355 N 
ATOM     27  C   UNK d   0      -1.390   6.684  -8.079  0.00  0.00    -0.022 A 
ATOM     28  C   UNK d   0      -2.405   6.173  -9.974  0.00  0.00     0.042 A 
ATOM     29  H   UNK d   0      -1.155   4.457 -10.551  0.00  0.00     0.166 HD
ATOM     30  C   UNK d   0      -3.371   6.335 -10.980  0.00  0.00     0.062 C 
ATOM     31  C   UNK d   0      -2.414   7.077  -8.886  0.00  0.00    -0.013 A 
ATOM     32  C   UNK d   0      -4.080   5.351 -11.651  0.00  0.00     0.066 A 
BRANCH   8  33
ATOM     33  C   UNK d   0      -6.459   3.620 -13.855  0.00  0.00     0.151 C 
BRANCH  33  34
ATOM     34  C   UNK d   0      -5.934   2.607 -14.789  0.00  0.00     0.143 C 
ATOM     35  O   UNK d   0      -6.655   1.688 -15.202  0.00  0.00    -0.650 OA
BRANCH  34  36
ATOM     36  O   UNK d   0      -4.624   2.685 -15.203  0.00  0.00    -0.776 OA
ATOM     37  H   UNK d   0      -4.383   2.741 -16.202  0.00  0.00     0.167 HD
ENDBRANCH  34  36
ENDBRANCH  33  34
ENDBRANCH   8  33
BRANCH  31  38
ATOM     38  C   UNK d   0      -3.353   8.233  -8.634  0.00  0.00     0.151 C 
BRANCH  38  39
ATOM     39  C   UNK d   0      -2.907   9.464  -9.252  0.00  0.00     0.143 C 
ATOM     40  O   UNK d   0      -2.139   9.478 -10.230  0.00  0.00    -0.650 OA
BRANCH  39  41
ATOM     41  O   UNK d   0      -3.347  10.686  -8.743  0.00  0.00    -0.776 OA
ATOM     42  H   UNK d   0      -3.146  10.874  -7.756  0.00  0.00     0.167 HD
ENDBRANCH  39  41
ENDBRANCH  38  39
ENDBRANCH  31  38
BRANCH  27  43
ATOM     43  C   UNK d   0      -1.033   7.381  -6.790  0.00  0.00     0.052 C 
BRANCH  43  44
ATOM     44  C   UNK d   0      -0.345   8.691  -6.998  0.00  0.00     0.115 C 
BRANCH  44  45
ATOM     45  C   UNK d   0       0.803   8.722  -6.054  0.00  0.00     0.139 C 
ATOM     46  O   UNK d   0       1.807   9.410  -6.365  0.00  0.00    -0.650 OA
BRANCH  45  47
ATOM     47  O   UNK d   0       0.806   8.037  -4.859  0.00  0.00    -0.776 OA
ATOM     48  H   UNK d   0       1.628   8.003  -4.234  0.00  0.00     0.167 HD
ENDBRANCH  45  47
ENDBRANCH  44  45
ENDBRANCH  43  44
ENDBRANCH  27  43
BRANCH  24  49
ATOM     49  C   UNK d   0       2.568   3.199  -6.341  0.00  0.00     0.052 C 
BRANCH  49  50
ATOM     50  C   UNK d   0       3.357   4.284  -7.026  0.00  0.00     0.115 C 
BRANCH  50  51
ATOM     51  C   UNK d   0       3.822   5.390  -6.200  0.00  0.00     0.139 C 
ATOM     52  O   UNK d   0       4.857   5.320  -5.495  0.00  0.00    -0.650 OA
BRANCH  51  53
ATOM     53  O   UNK d   0       3.106   6.577  -6.175  0.00  0.00    -0.776 OA
ATOM     54  H   UNK d   0       2.120   6.533  -5.988  0.00  0.00     0.167 HD
ENDBRANCH  51  53
ENDBRANCH  50  51
ENDBRANCH  49  50
ENDBRANCH  24  49
BRANCH  21  55
ATOM     55  C   UNK d   0       1.850   0.255  -6.944  0.00  0.00     0.151 C 
BRANCH  55  56
ATOM     56  C   UNK d   0       0.920  -0.626  -6.220  0.00  0.00     0.143 C 
ATOM     57  O   UNK d   0       0.803  -1.840  -6.476  0.00  0.00    -0.650 OA
BRANCH  56  58
ATOM     58  O   UNK d   0       0.146  -0.061  -5.208  0.00  0.00    -0.776 OA
ATOM     59  H   UNK d   0       0.039  -0.648  -4.361  0.00  0.00     0.167 HD
ENDBRANCH  56  58
ENDBRANCH  55  56
ENDBRANCH  21  55
BRANCH  18  60
ATOM     60  C   UNK d   0      -0.795  -1.418 -11.305  0.00  0.00     0.151 C 
BRANCH  60  61
ATOM     61  C   UNK d   0       0.279  -0.889 -12.158  0.00  0.00     0.143 C 
ATOM     62  O   UNK d   0       0.674   0.276 -12.218  0.00  0.00    -0.650 OA
BRANCH  61  63
ATOM     63  O   UNK d   0       0.912  -1.843 -12.992  0.00  0.00    -0.776 OA
ATOM     64  H   UNK d   0       1.749  -2.314 -12.697  0.00  0.00     0.167 HD
ENDBRANCH  61  63
ENDBRANCH  60  61
ENDBRANCH  18  60
BRANCH  14  65
ATOM     65  C   UNK d   0      -3.158  -0.658 -13.051  0.00  0.00     0.052 C 
BRANCH  65  66
ATOM     66  C   UNK d   0      -2.889   0.063 -14.324  0.00  0.00     0.115 C 
BRANCH  66  67
ATOM     67  C   UNK d   0      -1.678   0.820 -14.471  0.00  0.00     0.139 C 
ATOM     68  O   UNK d   0      -0.781   0.391 -15.286  0.00  0.00    -0.650 OA
BRANCH  67  69
ATOM     69  O   UNK d   0      -1.328   2.004 -13.823  0.00  0.00    -0.776 OA
ATOM     70  H   UNK d   0      -0.319   2.202 -13.764  0.00  0.00     0.167 HD
ENDBRANCH  67  69
ENDBRANCH  66  67
ENDBRANCH  65  66
ENDBRANCH  14  65
ENDBRANCH   6   7
ENDBRANCH   5   6
ENDBRANCH   2   5
TORSDOF 28
ENDMDL
MODEL 14
REMARK VINA RESULT:      -8.8      2.090      8.126
REMARK  28 active torsions:
REMARK  status: ('A' for Active; 'I' for Inactive)
REMARK    1  A    between atoms: C_2  and  O_3 
REMARK    2  A    between atoms: C_2  and  C_4 
REMARK    3  A    between atoms: C_4  and  C_5 
REMARK    4  A    between atoms: C_5  and  C_6 
REMARK    5  A    between atoms: C_7  and  C_8 
REMARK    6  A    between atoms: C_8  and  C_9 
REMARK    7  A    between atoms: C_9  and  O_11 
REMARK    8  A    between atoms: C_28  and  C_29 
REMARK    9  A    between atoms: C_29  and  C_30 
REMARK   10  A    between atoms: C_30  and  O_32 
REMARK   11  A    between atoms: C_33  and  C_34 
REMARK   12  A    between atoms: C_34  and  C_35 
REMARK   13  A    between atoms: C_35  and  C_36 
REMARK   14  A    between atoms: C_36  and  O_38 
REMARK   15  A    between atoms: C_39  and  C_40 
REMARK   16  A    between atoms: C_40  and  C_41 
REMARK   17  A    between atoms: C_41  and  C_42 
REMARK   18  A    between atoms: C_42  and  O_44 
REMARK   19  A    between atoms: C_45  and  C_46 
REMARK   20  A    between atoms: C_46  and  C_47 
REMARK   21  A    between atoms: C_47  and  O_49 
REMARK   22  A    between atoms: C_50  and  C_51 
REMARK   23  A    between atoms: C_51  and  C_52 
REMARK   24  A    between atoms: C_52  and  O_54 
REMARK   25  A    between atoms: C_55  and  C_56 
REMARK   26  A    between atoms: C_56  and  C_57 
REMARK   27  A    between atoms: C_57  and  C_58 
REMARK   28  A    between atoms: C_58  and  O_60 
ROOT
ATOM      1  O   UNK d   0      -1.488   8.007  -6.584  0.00  0.00    -0.650 OA
ATOM      2  C   UNK d   0      -0.582   8.611  -7.201  0.00  0.00     0.139 C 
ENDROOT
BRANCH   2   3
ATOM      3  O   UNK d   0       0.702   8.577  -6.713  0.00  0.00    -0.776 OA
ATOM      4  H   UNK d   0       1.133   9.409  -6.305  0.00  0.00     0.167 HD
ENDBRANCH   2   3
BRANCH   2   5
ATOM      5  C   UNK d   0      -0.898   9.357  -8.451  0.00  0.00     0.115 C 
BRANCH   5   6
ATOM      6  C   UNK d   0      -0.387   8.602  -9.648  0.00  0.00     0.052 C 
BRANCH   6   7
ATOM      7  C   UNK d   0      -1.154   7.326  -9.901  0.00  0.00    -0.020 A 
ATOM      8  C   UNK d   0      -2.319   7.197 -10.484  0.00  0.00    -0.011 A 
ATOM      9  C   UNK d   0      -2.658   5.784 -10.491  0.00  0.00     0.067 A 
ATOM     10  C   UNK d   0      -3.721   5.000 -10.968  0.00  0.00     0.062 C 
ATOM     11  N   UNK d   0      -1.646   5.125  -9.887  0.00  0.00    -0.248 NA
ATOM     12  C   UNK d   0      -3.742   3.611 -11.131  0.00  0.00     0.041 A 
ATOM     13  N   UNK d   0      -3.293   2.618 -10.339  0.00  0.00    -0.355 N 
ATOM     14  C   UNK d   0      -4.257   3.073 -12.325  0.00  0.00    -0.022 A 
ATOM     15  C   UNK d   0      -3.502   1.466 -11.003  0.00  0.00     0.042 A 
ATOM     16  H   UNK d   0      -2.854   2.729  -9.323  0.00  0.00     0.166 HD
ATOM     17  C   UNK d   0      -3.221   0.135 -10.634  0.00  0.00     0.062 C 
ATOM     18  C   UNK d   0      -4.105   1.711 -12.252  0.00  0.00    -0.013 A 
ATOM     19  C   UNK d   0      -2.086  -0.380 -10.062  0.00  0.00     0.067 A 
ATOM     20  N   UNK d   0      -1.190   0.497  -9.602  0.00  0.00    -0.248 NA
ATOM     21  C   UNK d   0      -1.551  -1.708  -9.815  0.00  0.00    -0.011 A 
ATOM     22  C   UNK d   0      -0.106  -0.162  -9.074  0.00  0.00     0.066 A 
ATOM     23  C   UNK d   0       0.889   0.632  -8.523  0.00  0.00     0.062 C 
ATOM     24  C   UNK d   0      -0.390  -1.574  -9.240  0.00  0.00    -0.020 A 
ATOM     25  C   UNK d   0       0.886   2.025  -8.358  0.00  0.00     0.041 A 
ATOM     26  N   UNK d   0       0.453   3.012  -9.151  0.00  0.00    -0.355 N 
ATOM     27  C   UNK d   0       1.399   2.564  -7.158  0.00  0.00    -0.022 A 
ATOM     28  C   UNK d   0       0.669   4.163  -8.495  0.00  0.00     0.042 A 
ATOM     29  H   UNK d   0       0.023   2.900 -10.177  0.00  0.00     0.166 HD
ATOM     30  C   UNK d   0       0.403   5.494  -8.854  0.00  0.00     0.062 C 
ATOM     31  C   UNK d   0       1.265   3.916  -7.236  0.00  0.00    -0.013 A 
ATOM     32  C   UNK d   0      -0.710   5.997  -9.509  0.00  0.00     0.066 A 
BRANCH   8  33
ATOM     33  C   UNK d   0      -3.157   8.277 -11.036  0.00  0.00     0.151 C 
BRANCH  33  34
ATOM     34  C   UNK d   0      -4.021   8.905 -10.020  0.00  0.00     0.143 C 
ATOM     35  O   UNK d   0      -3.999   8.523  -8.841  0.00  0.00    -0.650 OA
BRANCH  34  36
ATOM     36  O   UNK d   0      -4.864   9.928 -10.389  0.00  0.00    -0.776 OA
ATOM     37  H   UNK d   0      -5.856   9.926 -10.116  0.00  0.00     0.167 HD
ENDBRANCH  34  36
ENDBRANCH  33  34
ENDBRANCH   8  33
BRANCH  31  38
ATOM     38  C   UNK d   0       1.665   4.914  -6.174  0.00  0.00     0.151 C 
BRANCH  38  39
ATOM     39  C   UNK d   0       2.987   5.462  -6.389  0.00  0.00     0.143 C 
ATOM     40  O   UNK d   0       3.918   4.788  -6.863  0.00  0.00    -0.650 OA
BRANCH  39  41
ATOM     41  O   UNK d   0       3.240   6.794  -6.059  0.00  0.00    -0.776 OA
ATOM     42  H   UNK d   0       2.880   7.122  -5.158  0.00  0.00     0.167 HD
ENDBRANCH  39  41
ENDBRANCH  38  39
ENDBRANCH  31  38
BRANCH  27  43
ATOM     43  C   UNK d   0       1.999   1.855  -5.969  0.00  0.00     0.052 C 
BRANCH  43  44
ATOM     44  C   UNK d   0       2.933   0.752  -6.349  0.00  0.00     0.115 C 
BRANCH  44  45
ATOM     45  C   UNK d   0       4.262   1.379  -6.570  0.00  0.00     0.139 C 
ATOM     46  O   UNK d   0       5.141   1.231  -5.684  0.00  0.00    -0.650 OA
BRANCH  45  47
ATOM     47  O   UNK d   0       4.568   2.104  -7.701  0.00  0.00    -0.776 OA
ATOM     48  H   UNK d   0       5.411   2.696  -7.777  0.00  0.00     0.167 HD
ENDBRANCH  45  47
ENDBRANCH  44  45
ENDBRANCH  43  44
ENDBRANCH  27  43
BRANCH  24  49
ATOM     49  C   UNK d   0       0.483  -2.667  -8.781  0.00  0.00     0.052 C 
BRANCH  49  50
ATOM     50  C   UNK d   0       0.888  -2.447  -7.346  0.00  0.00     0.115 C 
BRANCH  50  51
ATOM     51  C   UNK d   0      -0.160  -2.532  -6.338  0.00  0.00     0.139 C 
ATOM     52  O   UNK d   0      -0.976  -3.482  -6.289  0.00  0.00    -0.650 OA
BRANCH  51  53
ATOM     53  O   UNK d   0      -0.281  -1.530  -5.387  0.00  0.00    -0.776 OA
ATOM     54  H   UNK d   0      -0.204  -1.783  -4.418  0.00  0.00     0.167 HD
ENDBRANCH  51  53
ENDBRANCH  50  51
ENDBRANCH  49  50
ENDBRANCH  24  49
BRANCH  21  55
ATOM     55  C   UNK d   0      -2.257  -2.973 -10.175  0.00  0.00     0.151 C 
BRANCH  55  56
ATOM     56  C   UNK d   0      -2.620  -3.016 -11.600  0.00  0.00     0.143 C 
ATOM     57  O   UNK d   0      -3.774  -3.270 -11.995  0.00  0.00    -0.650 OA
BRANCH  56  58
ATOM     58  O   UNK d   0      -1.616  -2.760 -12.533  0.00  0.00    -0.776 OA
ATOM     59  H   UNK d   0      -1.952  -2.432 -13.456  0.00  0.00     0.167 HD
ENDBRANCH  56  58
ENDBRANCH  55  56
ENDBRANCH  21  55
BRANCH  18  60
ATOM     60  C   UNK d   0      -4.517   0.737 -13.328  0.00  0.00     0.151 C 
BRANCH  60  61
ATOM     61  C   UNK d   0      -3.325   0.530 -14.164  0.00  0.00     0.143 C 
ATOM     62  O   UNK d   0      -2.385  -0.234 -13.942  0.00  0.00    -0.650 OA
BRANCH  61  63
ATOM     63  O   UNK d   0      -3.278   1.306 -15.348  0.00  0.00    -0.776 OA
ATOM     64  H   UNK d   0      -2.402   1.535 -15.783  0.00  0.00     0.167 HD
ENDBRANCH  61  63
ENDBRANCH  60  61
ENDBRANCH  18  60
BRANCH  14  65
ATOM     65  C   UNK d   0      -4.964   3.735 -13.473  0.00  0.00     0.052 C 
BRANCH  65  66
ATOM     66  C   UNK d   0      -6.423   3.904 -13.239  0.00  0.00     0.115 C 
BRANCH  66  67
ATOM     67  C   UNK d   0      -7.002   5.217 -13.271  0.00  0.00     0.139 C 
ATOM     68  O   UNK d   0      -8.271   5.333 -13.101  0.00  0.00    -0.650 OA
BRANCH  67  69
ATOM     69  O   UNK d   0      -6.348   6.433 -13.469  0.00  0.00    -0.776 OA
ATOM     70  H   UNK d   0      -6.318   6.771 -14.442  0.00  0.00     0.167 HD
ENDBRANCH  67  69
ENDBRANCH  66  67
ENDBRANCH  65  66
ENDBRANCH  14  65
ENDBRANCH   6   7
ENDBRANCH   5   6
ENDBRANCH   2   5
TORSDOF 28
ENDMDL
MODEL 15
REMARK VINA RESULT:      -8.8     29.742     32.851
REMARK  28 active torsions:
REMARK  status: ('A' for Active; 'I' for Inactive)
REMARK    1  A    between atoms: C_2  and  O_3 
REMARK    2  A    between atoms: C_2  and  C_4 
REMARK    3  A    between atoms: C_4  and  C_5 
REMARK    4  A    between atoms: C_5  and  C_6 
REMARK    5  A    between atoms: C_7  and  C_8 
REMARK    6  A    between atoms: C_8  and  C_9 
REMARK    7  A    between atoms: C_9  and  O_11 
REMARK    8  A    between atoms: C_28  and  C_29 
REMARK    9  A    between atoms: C_29  and  C_30 
REMARK   10  A    between atoms: C_30  and  O_32 
REMARK   11  A    between atoms: C_33  and  C_34 
REMARK   12  A    between atoms: C_34  and  C_35 
REMARK   13  A    between atoms: C_35  and  C_36 
REMARK   14  A    between atoms: C_36  and  O_38 
REMARK   15  A    between atoms: C_39  and  C_40 
REMARK   16  A    between atoms: C_40  and  C_41 
REMARK   17  A    between atoms: C_41  and  C_42 
REMARK   18  A    between atoms: C_42  and  O_44 
REMARK   19  A    between atoms: C_45  and  C_46 
REMARK   20  A    between atoms: C_46  and  C_47 
REMARK   21  A    between atoms: C_47  and  O_49 
REMARK   22  A    between atoms: C_50  and  C_51 
REMARK   23  A    between atoms: C_51  and  C_52 
REMARK   24  A    between atoms: C_52  and  O_54 
REMARK   25  A    between atoms: C_55  and  C_56 
REMARK   26  A    between atoms: C_56  and  C_57 
REMARK   27  A    between atoms: C_57  and  C_58 
REMARK   28  A    between atoms: C_58  and  O_60 
ROOT
ATOM      1  O   UNK d   0     -20.217   9.939  11.455  0.00  0.00    -0.650 OA
ATOM      2  C   UNK d   0     -20.448  10.777  12.355  0.00  0.00     0.139 C 
ENDROOT
BRANCH   2   3
ATOM      3  O   UNK d   0     -21.528  10.593  13.185  0.00  0.00    -0.776 OA
ATOM      4  H   UNK d   0     -21.413  10.199  14.121  0.00  0.00     0.167 HD
ENDBRANCH   2   3
BRANCH   2   5
ATOM      5  C   UNK d   0     -19.559  11.961  12.522  0.00  0.00     0.115 C 
BRANCH   5   6
ATOM      6  C   UNK d   0     -19.564  12.793  11.268  0.00  0.00     0.052 C 
BRANCH   6   7
ATOM      7  C   UNK d   0     -20.742  13.736  11.201  0.00  0.00    -0.020 A 
ATOM      8  C   UNK d   0     -20.893  14.871  11.833  0.00  0.00    -0.011 A 
ATOM      9  C   UNK d   0     -22.187  15.418  11.463  0.00  0.00     0.067 A 
ATOM     10  C   UNK d   0     -22.919  16.578  11.762  0.00  0.00     0.062 C 
ATOM     11  N   UNK d   0     -22.760  14.548  10.606  0.00  0.00    -0.248 NA
ATOM     12  C   UNK d   0     -24.042  17.069  11.087  0.00  0.00     0.041 A 
ATOM     13  N   UNK d   0     -25.130  16.440  10.603  0.00  0.00    -0.355 N 
ATOM     14  C   UNK d   0     -24.102  18.438  10.772  0.00  0.00    -0.022 A 
ATOM     15  C   UNK d   0     -25.874  17.374   9.981  0.00  0.00     0.042 A 
ATOM     16  H   UNK d   0     -25.377  15.361  10.715  0.00  0.00     0.166 HD
ATOM     17  C   UNK d   0     -27.107  17.260   9.307  0.00  0.00     0.062 C 
ATOM     18  C   UNK d   0     -25.262  18.639  10.066  0.00  0.00    -0.013 A 
ATOM     19  C   UNK d   0     -27.511  16.311   8.403  0.00  0.00     0.067 A 
ATOM     20  N   UNK d   0     -26.734  15.233   8.271  0.00  0.00    -0.248 NA
ATOM     21  C   UNK d   0     -28.621  16.155   7.478  0.00  0.00    -0.011 A 
ATOM     22  C   UNK d   0     -27.255  14.383   7.326  0.00  0.00     0.066 A 
ATOM     23  C   UNK d   0     -26.564  13.199   7.114  0.00  0.00     0.062 C 
ATOM     24  C   UNK d   0     -28.463  15.026   6.848  0.00  0.00    -0.020 A 
ATOM     25  C   UNK d   0     -25.445  12.719   7.812  0.00  0.00     0.041 A 
ATOM     26  N   UNK d   0     -24.357  13.341   8.280  0.00  0.00    -0.355 N 
ATOM     27  C   UNK d   0     -25.389  11.345   8.132  0.00  0.00    -0.022 A 
ATOM     28  C   UNK d   0     -23.609  12.410   8.893  0.00  0.00     0.042 A 
ATOM     29  H   UNK d   0     -24.106  14.423   8.158  0.00  0.00     0.166 HD
ATOM     30  C   UNK d   0     -22.377  12.507   9.559  0.00  0.00     0.062 C 
ATOM     31  C   UNK d   0     -24.230  11.141   8.817  0.00  0.00    -0.013 A 
ATOM     32  C   UNK d   0     -21.941  13.514  10.406  0.00  0.00     0.066 A 
BRANCH   8  33
ATOM     33  C   UNK d   0     -19.937  15.499  12.764  0.00  0.00     0.151 C 
BRANCH  33  34
ATOM     34  C   UNK d   0     -18.987  16.399  12.085  0.00  0.00     0.143 C 
ATOM     35  O   UNK d   0     -19.085  16.630  10.871  0.00  0.00    -0.650 OA
BRANCH  34  36
ATOM     36  O   UNK d   0     -17.978  16.989  12.811  0.00  0.00    -0.776 OA
ATOM     37  H   UNK d   0     -17.159  17.404  12.347  0.00  0.00     0.167 HD
ENDBRANCH  34  36
ENDBRANCH  33  34
ENDBRANCH   8  33
BRANCH  31  38
ATOM     38  C   UNK d   0     -23.746   9.824   9.378  0.00  0.00     0.151 C 
BRANCH  38  39
ATOM     39  C   UNK d   0     -24.042   9.671  10.786  0.00  0.00     0.143 C 
ATOM     40  O   UNK d   0     -23.356   8.953  11.536  0.00  0.00    -0.650 OA
BRANCH  39  41
ATOM     41  O   UNK d   0     -25.130  10.348  11.337  0.00  0.00    -0.776 OA
ATOM     42  H   UNK d   0     -25.447  10.038  12.261  0.00  0.00     0.167 HD
ENDBRANCH  39  41
ENDBRANCH  38  39
ENDBRANCH  31  38
BRANCH  27  43
ATOM     43  C   UNK d   0     -26.372  10.245   7.815  0.00  0.00     0.052 C 
BRANCH  43  44
ATOM     44  C   UNK d   0     -27.422  10.073   8.864  0.00  0.00     0.115 C 
BRANCH  44  45
ATOM     45  C   UNK d   0     -28.720  10.417   8.225  0.00  0.00     0.139 C 
ATOM     46  O   UNK d   0     -28.903  10.068   7.033  0.00  0.00    -0.650 OA
BRANCH  45  47
ATOM     47  O   UNK d   0     -29.722  11.093   8.887  0.00  0.00    -0.776 OA
ATOM     48  H   UNK d   0     -30.530  11.514   8.399  0.00  0.00     0.167 HD
ENDBRANCH  45  47
ENDBRANCH  44  45
ENDBRANCH  43  44
ENDBRANCH  27  43
BRANCH  24  49
ATOM     49  C   UNK d   0     -29.380  14.456   5.846  0.00  0.00     0.052 C 
BRANCH  49  50
ATOM     50  C   UNK d   0     -30.541  13.776   6.525  0.00  0.00     0.115 C 
BRANCH  50  51
ATOM     51  C   UNK d   0     -31.156  12.656   5.826  0.00  0.00     0.139 C 
ATOM     52  O   UNK d   0     -32.398  12.495   5.766  0.00  0.00    -0.650 OA
BRANCH  51  53
ATOM     53  O   UNK d   0     -30.355  11.716   5.196  0.00  0.00    -0.776 OA
ATOM     54  H   UNK d   0     -29.534  12.038   4.713  0.00  0.00     0.167 HD
ENDBRANCH  51  53
ENDBRANCH  50  51
ENDBRANCH  49  50
ENDBRANCH  24  49
BRANCH  21  55
ATOM     55  C   UNK d   0     -29.725  17.147   7.324  0.00  0.00     0.151 C 
BRANCH  55  56
ATOM     56  C   UNK d   0     -29.463  18.100   6.236  0.00  0.00     0.143 C 
ATOM     57  O   UNK d   0     -30.180  18.179   5.219  0.00  0.00    -0.650 OA
BRANCH  56  58
ATOM     58  O   UNK d   0     -28.360  18.944   6.364  0.00  0.00    -0.776 OA
ATOM     59  H   UNK d   0     -28.588  19.951   6.443  0.00  0.00     0.167 HD
ENDBRANCH  56  58
ENDBRANCH  55  56
ENDBRANCH  21  55
BRANCH  18  60
ATOM     60  C   UNK d   0     -25.722  19.968   9.519  0.00  0.00     0.151 C 
BRANCH  60  61
ATOM     61  C   UNK d   0     -24.997  20.157   8.254  0.00  0.00     0.143 C 
ATOM     62  O   UNK d   0     -24.445  21.186   7.861  0.00  0.00    -0.650 OA
BRANCH  61  63
ATOM     63  O   UNK d   0     -24.943  19.018   7.414  0.00  0.00    -0.776 OA
ATOM     64  H   UNK d   0     -24.521  18.163   7.729  0.00  0.00     0.167 HD
ENDBRANCH  61  63
ENDBRANCH  60  61
ENDBRANCH  18  60
BRANCH  14  65
ATOM     65  C   UNK d   0     -23.204  19.576  11.168  0.00  0.00     0.052 C 
BRANCH  65  66
ATOM     66  C   UNK d   0     -23.557  20.163  12.488  0.00  0.00     0.115 C 
BRANCH  66  67
ATOM     67  C   UNK d   0     -22.672  21.109  13.106  0.00  0.00     0.139 C 
ATOM     68  O   UNK d   0     -22.450  22.225  12.506  0.00  0.00    -0.650 OA
BRANCH  67  69
ATOM     69  O   UNK d   0     -21.992  20.978  14.317  0.00  0.00    -0.776 OA
ATOM     70  H   UNK d   0     -22.239  20.153  14.882  0.00  0.00     0.167 HD
ENDBRANCH  67  69
ENDBRANCH  66  67
ENDBRANCH  65  66
ENDBRANCH  14  65
ENDBRANCH   6   7
ENDBRANCH   5   6
ENDBRANCH   2   5
TORSDOF 28
ENDMDL
MODEL 16
REMARK VINA RESULT:      -8.8     28.948     32.748
REMARK  28 active torsions:
REMARK  status: ('A' for Active; 'I' for Inactive)
REMARK    1  A    between atoms: C_2  and  O_3 
REMARK    2  A    between atoms: C_2  and  C_4 
REMARK    3  A    between atoms: C_4  and  C_5 
REMARK    4  A    between atoms: C_5  and  C_6 
REMARK    5  A    between atoms: C_7  and  C_8 
REMARK    6  A    between atoms: C_8  and  C_9 
REMARK    7  A    between atoms: C_9  and  O_11 
REMARK    8  A    between atoms: C_28  and  C_29 
REMARK    9  A    between atoms: C_29  and  C_30 
REMARK   10  A    between atoms: C_30  and  O_32 
REMARK   11  A    between atoms: C_33  and  C_34 
REMARK   12  A    between atoms: C_34  and  C_35 
REMARK   13  A    between atoms: C_35  and  C_36 
REMARK   14  A    between atoms: C_36  and  O_38 
REMARK   15  A    between atoms: C_39  and  C_40 
REMARK   16  A    between atoms: C_40  and  C_41 
REMARK   17  A    between atoms: C_41  and  C_42 
REMARK   18  A    between atoms: C_42  and  O_44 
REMARK   19  A    between atoms: C_45  and  C_46 
REMARK   20  A    between atoms: C_46  and  C_47 
REMARK   21  A    between atoms: C_47  and  O_49 
REMARK   22  A    between atoms: C_50  and  C_51 
REMARK   23  A    between atoms: C_51  and  C_52 
REMARK   24  A    between atoms: C_52  and  O_54 
REMARK   25  A    between atoms: C_55  and  C_56 
REMARK   26  A    between atoms: C_56  and  C_57 
REMARK   27  A    between atoms: C_57  and  C_58 
REMARK   28  A    between atoms: C_58  and  O_60 
ROOT
ATOM      1  O   UNK d   0     -30.425  11.759   8.631  0.00  0.00    -0.650 OA
ATOM      2  C   UNK d   0     -30.140  11.317   7.496  0.00  0.00     0.139 C 
ENDROOT
BRANCH   2   3
ATOM      3  O   UNK d   0     -30.282   9.975   7.240  0.00  0.00    -0.776 OA
ATOM      4  H   UNK d   0     -29.554   9.308   7.502  0.00  0.00     0.167 HD
ENDBRANCH   2   3
BRANCH   2   5
ATOM      5  C   UNK d   0     -29.650  12.242   6.434  0.00  0.00     0.115 C 
BRANCH   5   6
ATOM      6  C   UNK d   0     -28.276  11.828   5.980  0.00  0.00     0.052 C 
BRANCH   6   7
ATOM      7  C   UNK d   0     -27.213  12.113   7.013  0.00  0.00    -0.020 A 
ATOM      8  C   UNK d   0     -26.573  11.250   7.761  0.00  0.00    -0.011 A 
ATOM      9  C   UNK d   0     -25.652  11.990   8.607  0.00  0.00     0.067 A 
ATOM     10  C   UNK d   0     -24.696  11.672   9.583  0.00  0.00     0.062 C 
ATOM     11  N   UNK d   0     -25.801  13.299   8.312  0.00  0.00    -0.248 NA
ATOM     12  C   UNK d   0     -23.699  12.508  10.097  0.00  0.00     0.041 A 
ATOM     13  N   UNK d   0     -23.733  13.801  10.473  0.00  0.00    -0.355 N 
ATOM     14  C   UNK d   0     -22.390  12.008  10.226  0.00  0.00    -0.022 A 
ATOM     15  C   UNK d   0     -22.478  14.135  10.829  0.00  0.00     0.042 A 
ATOM     16  H   UNK d   0     -24.629  14.458  10.504  0.00  0.00     0.166 HD
ATOM     17  C   UNK d   0     -21.957  15.357  11.300  0.00  0.00     0.062 C 
ATOM     18  C   UNK d   0     -21.608  13.037  10.688  0.00  0.00    -0.013 A 
ATOM     19  C   UNK d   0     -22.183  16.627  10.834  0.00  0.00     0.067 A 
ATOM     20  N   UNK d   0     -23.170  16.780   9.947  0.00  0.00    -0.248 NA
ATOM     21  C   UNK d   0     -21.592  17.938  11.046  0.00  0.00    -0.011 A 
ATOM     22  C   UNK d   0     -23.266  18.095   9.562  0.00  0.00     0.066 A 
ATOM     23  C   UNK d   0     -24.280  18.403   8.667  0.00  0.00     0.062 C 
ATOM     24  C   UNK d   0     -22.228  18.792  10.296  0.00  0.00    -0.020 A 
ATOM     25  C   UNK d   0     -25.279  17.550   8.173  0.00  0.00     0.041 A 
ATOM     26  N   UNK d   0     -25.243  16.270   7.786  0.00  0.00    -0.355 N 
ATOM     27  C   UNK d   0     -26.593  18.052   8.048  0.00  0.00    -0.022 A 
ATOM     28  C   UNK d   0     -26.491  15.936   7.421  0.00  0.00     0.042 A 
ATOM     29  H   UNK d   0     -24.339  15.614   7.745  0.00  0.00     0.166 HD
ATOM     30  C   UNK d   0     -27.021  14.728   6.943  0.00  0.00     0.062 C 
ATOM     31  C   UNK d   0     -27.366  17.037   7.574  0.00  0.00    -0.013 A 
ATOM     32  C   UNK d   0     -26.725  13.440   7.360  0.00  0.00     0.066 A 
BRANCH   8  33
ATOM     33  C   UNK d   0     -26.745   9.786   7.765  0.00  0.00     0.151 C 
BRANCH  33  34
ATOM     34  C   UNK d   0     -25.650   9.081   7.073  0.00  0.00     0.143 C 
ATOM     35  O   UNK d   0     -24.784   8.467   7.711  0.00  0.00    -0.650 OA
BRANCH  34  36
ATOM     36  O   UNK d   0     -25.592   9.110   5.698  0.00  0.00    -0.776 OA
ATOM     37  H   UNK d   0     -26.442   9.218   5.129  0.00  0.00     0.167 HD
ENDBRANCH  34  36
ENDBRANCH  33  34
ENDBRANCH   8  33
BRANCH  31  38
ATOM     38  C   UNK d   0     -28.850  17.103   7.294  0.00  0.00     0.151 C 
BRANCH  38  39
ATOM     39  C   UNK d   0     -29.147  17.383   5.905  0.00  0.00     0.143 C 
ATOM     40  O   UNK d   0     -30.188  16.984   5.354  0.00  0.00    -0.650 OA
BRANCH  39  41
ATOM     41  O   UNK d   0     -28.244  18.128   5.147  0.00  0.00    -0.776 OA
ATOM     42  H   UNK d   0     -27.535  17.602   4.627  0.00  0.00     0.167 HD
ENDBRANCH  39  41
ENDBRANCH  38  39
ENDBRANCH  31  38
BRANCH  27  43
ATOM     43  C   UNK d   0     -27.126  19.430   8.355  0.00  0.00     0.052 C 
BRANCH  43  44
ATOM     44  C   UNK d   0     -26.901  19.848   9.771  0.00  0.00     0.115 C 
BRANCH  44  45
ATOM     45  C   UNK d   0     -28.214  19.741  10.459  0.00  0.00     0.139 C 
ATOM     46  O   UNK d   0     -28.608  18.601  10.809  0.00  0.00    -0.650 OA
BRANCH  45  47
ATOM     47  O   UNK d   0     -29.008  20.835  10.730  0.00  0.00    -0.776 OA
ATOM     48  H   UNK d   0     -28.624  21.743  11.040  0.00  0.00     0.167 HD
ENDBRANCH  45  47
ENDBRANCH  44  45
ENDBRANCH  43  44
ENDBRANCH  27  43
BRANCH  24  49
ATOM     49  C   UNK d   0     -21.980  20.242  10.229  0.00  0.00     0.052 C 
BRANCH  49  50
ATOM     50  C   UNK d   0     -22.888  20.974  11.184  0.00  0.00     0.115 C 
BRANCH  50  51
ATOM     51  C   UNK d   0     -22.281  21.989  12.034  0.00  0.00     0.139 C 
ATOM     52  O   UNK d   0     -22.670  22.213  13.204  0.00  0.00    -0.650 OA
BRANCH  51  53
ATOM     53  O   UNK d   0     -21.230  22.752  11.547  0.00  0.00    -0.776 OA
ATOM     54  H   UNK d   0     -20.471  22.967  12.169  0.00  0.00     0.167 HD
ENDBRANCH  51  53
ENDBRANCH  50  51
ENDBRANCH  49  50
ENDBRANCH  24  49
BRANCH  21  55
ATOM     55  C   UNK d   0     -20.458  18.202  11.980  0.00  0.00     0.151 C 
BRANCH  55  56
ATOM     56  C   UNK d   0     -19.315  17.311  11.724  0.00  0.00     0.143 C 
ATOM     57  O   UNK d   0     -18.828  16.570  12.600  0.00  0.00    -0.650 OA
BRANCH  56  58
ATOM     58  O   UNK d   0     -18.767  17.310  10.442  0.00  0.00    -0.776 OA
ATOM     59  H   UNK d   0     -17.750  17.115  10.403  0.00  0.00     0.167 HD
ENDBRANCH  56  58
ENDBRANCH  55  56
ENDBRANCH  21  55
BRANCH  18  60
ATOM     60  C   UNK d   0     -20.128  12.942  10.962  0.00  0.00     0.151 C 
BRANCH  60  61
ATOM     61  C   UNK d   0     -19.463  13.578   9.814  0.00  0.00     0.143 C 
ATOM     62  O   UNK d   0     -18.556  14.411   9.850  0.00  0.00    -0.650 OA
BRANCH  61  63
ATOM     63  O   UNK d   0     -19.935  13.172   8.543  0.00  0.00    -0.776 OA
ATOM     64  H   UNK d   0     -19.298  12.899   7.816  0.00  0.00     0.167 HD
ENDBRANCH  61  63
ENDBRANCH  60  61
ENDBRANCH  18  60
BRANCH  14  65
ATOM     65  C   UNK d   0     -21.849  10.618  10.042  0.00  0.00     0.052 C 
BRANCH  65  66
ATOM     66  C   UNK d   0     -21.729   9.867  11.320  0.00  0.00     0.115 C 
BRANCH  66  67
ATOM     67  C   UNK d   0     -22.865   9.757  12.191  0.00  0.00     0.139 C 
ATOM     68  O   UNK d   0     -22.802  10.302  13.353  0.00  0.00    -0.650 OA
BRANCH  67  69
ATOM     69  O   UNK d   0     -24.076   9.114  11.936  0.00  0.00    -0.776 OA
ATOM     70  H   UNK d   0     -24.213   8.782  10.971  0.00  0.00     0.167 HD
ENDBRANCH  67  69
ENDBRANCH  66  67
ENDBRANCH  65  66
ENDBRANCH  14  65
ENDBRANCH   6   7
ENDBRANCH   5   6
ENDBRANCH   2   5
TORSDOF 28
ENDMDL
MODEL 17
REMARK VINA RESULT:      -8.7      2.439      6.809
REMARK  28 active torsions:
REMARK  status: ('A' for Active; 'I' for Inactive)
REMARK    1  A    between atoms: C_2  and  O_3 
REMARK    2  A    between atoms: C_2  and  C_4 
REMARK    3  A    between atoms: C_4  and  C_5 
REMARK    4  A    between atoms: C_5  and  C_6 
REMARK    5  A    between atoms: C_7  and  C_8 
REMARK    6  A    between atoms: C_8  and  C_9 
REMARK    7  A    between atoms: C_9  and  O_11 
REMARK    8  A    between atoms: C_28  and  C_29 
REMARK    9  A    between atoms: C_29  and  C_30 
REMARK   10  A    between atoms: C_30  and  O_32 
REMARK   11  A    between atoms: C_33  and  C_34 
REMARK   12  A    between atoms: C_34  and  C_35 
REMARK   13  A    between atoms: C_35  and  C_36 
REMARK   14  A    between atoms: C_36  and  O_38 
REMARK   15  A    between atoms: C_39  and  C_40 
REMARK   16  A    between atoms: C_40  and  C_41 
REMARK   17  A    between atoms: C_41  and  C_42 
REMARK   18  A    between atoms: C_42  and  O_44 
REMARK   19  A    between atoms: C_45  and  C_46 
REMARK   20  A    between atoms: C_46  and  C_47 
REMARK   21  A    between atoms: C_47  and  O_49 
REMARK   22  A    between atoms: C_50  and  C_51 
REMARK   23  A    between atoms: C_51  and  C_52 
REMARK   24  A    between atoms: C_52  and  O_54 
REMARK   25  A    between atoms: C_55  and  C_56 
REMARK   26  A    between atoms: C_56  and  C_57 
REMARK   27  A    between atoms: C_57  and  C_58 
REMARK   28  A    between atoms: C_58  and  O_60 
ROOT
ATOM      1  O   UNK d   0      -1.694   9.109  -8.054  0.00  0.00    -0.650 OA
ATOM      2  C   UNK d   0      -2.731   8.436  -8.244  0.00  0.00     0.139 C 
ENDROOT
BRANCH   2   3
ATOM      3  O   UNK d   0      -3.955   9.058  -8.200  0.00  0.00    -0.776 OA
ATOM      4  H   UNK d   0      -4.806   8.534  -7.982  0.00  0.00     0.167 HD
ENDBRANCH   2   3
BRANCH   2   5
ATOM      5  C   UNK d   0      -2.635   6.973  -8.516  0.00  0.00     0.115 C 
BRANCH   5   6
ATOM      6  C   UNK d   0      -1.502   6.697  -9.466  0.00  0.00     0.052 C 
BRANCH   6   7
ATOM      7  C   UNK d   0      -1.044   5.259  -9.421  0.00  0.00    -0.020 A 
ATOM      8  C   UNK d   0       0.060   4.789  -8.899  0.00  0.00    -0.011 A 
ATOM      9  C   UNK d   0       0.072   3.350  -9.102  0.00  0.00     0.067 A 
ATOM     10  C   UNK d   0       0.929   2.288  -8.774  0.00  0.00     0.062 C 
ATOM     11  N   UNK d   0      -1.061   3.030  -9.761  0.00  0.00    -0.248 NA
ATOM     12  C   UNK d   0       0.635   0.920  -8.810  0.00  0.00     0.041 A 
ATOM     13  N   UNK d   0      -0.025   0.179  -9.721  0.00  0.00    -0.355 N 
ATOM     14  C   UNK d   0       1.013   0.114  -7.721  0.00  0.00    -0.022 A 
ATOM     15  C   UNK d   0      -0.083  -1.075  -9.233  0.00  0.00     0.042 A 
ATOM     16  H   UNK d   0      -0.425   0.531 -10.697  0.00  0.00     0.166 HD
ATOM     17  C   UNK d   0      -0.656  -2.241  -9.779  0.00  0.00     0.062 C 
ATOM     18  C   UNK d   0       0.557  -1.155  -7.981  0.00  0.00    -0.013 A 
ATOM     19  C   UNK d   0      -1.877  -2.400 -10.383  0.00  0.00     0.067 A 
ATOM     20  N   UNK d   0      -2.552  -1.288 -10.686  0.00  0.00    -0.248 NA
ATOM     21  C   UNK d   0      -2.698  -3.525 -10.799  0.00  0.00    -0.011 A 
ATOM     22  C   UNK d   0      -3.755  -1.603 -11.268  0.00  0.00     0.066 A 
ATOM     23  C   UNK d   0      -4.544  -0.536 -11.670  0.00  0.00     0.062 C 
ATOM     24  C   UNK d   0      -3.797  -3.052 -11.313  0.00  0.00    -0.020 A 
ATOM     25  C   UNK d   0      -4.226   0.830 -11.636  0.00  0.00     0.041 A 
ATOM     26  N   UNK d   0      -3.583   1.570 -10.724  0.00  0.00    -0.355 N 
ATOM     27  C   UNK d   0      -4.601   1.638 -12.732  0.00  0.00    -0.022 A 
ATOM     28  C   UNK d   0      -3.531   2.823 -11.204  0.00  0.00     0.042 A 
ATOM     29  H   UNK d   0      -3.190   1.217  -9.739  0.00  0.00     0.166 HD
ATOM     30  C   UNK d   0      -2.972   3.994 -10.668  0.00  0.00     0.062 C 
ATOM     31  C   UNK d   0      -4.165   2.900 -12.467  0.00  0.00    -0.013 A 
ATOM     32  C   UNK d   0      -1.776   4.134  -9.983  0.00  0.00     0.066 A 
BRANCH   8  33
ATOM     33  C   UNK d   0       1.120   5.563  -8.225  0.00  0.00     0.151 C 
BRANCH  33  34
ATOM     34  C   UNK d   0       1.154   5.335  -6.769  0.00  0.00     0.143 C 
ATOM     35  O   UNK d   0       1.864   4.445  -6.280  0.00  0.00    -0.650 OA
BRANCH  34  36
ATOM     36  O   UNK d   0       0.386   6.124  -5.944  0.00  0.00    -0.776 OA
ATOM     37  H   UNK d   0       0.204   5.857  -4.967  0.00  0.00     0.167 HD
ENDBRANCH  34  36
ENDBRANCH  33  34
ENDBRANCH   8  33
BRANCH  31  38
ATOM     38  C   UNK d   0      -4.327   4.105 -13.363  0.00  0.00     0.151 C 
BRANCH  38  39
ATOM     39  C   UNK d   0      -5.476   4.914 -13.014  0.00  0.00     0.143 C 
ATOM     40  O   UNK d   0      -5.554   6.120 -13.306  0.00  0.00    -0.650 OA
BRANCH  39  41
ATOM     41  O   UNK d   0      -6.541   4.333 -12.326  0.00  0.00    -0.776 OA
ATOM     42  H   UNK d   0      -6.839   3.403 -12.637  0.00  0.00     0.167 HD
ENDBRANCH  39  41
ENDBRANCH  38  39
ENDBRANCH  31  38
BRANCH  27  43
ATOM     43  C   UNK d   0      -5.344   1.262 -13.989  0.00  0.00     0.052 C 
BRANCH  43  44
ATOM     44  C   UNK d   0      -4.618   1.640 -15.239  0.00  0.00     0.115 C 
BRANCH  44  45
ATOM     45  C   UNK d   0      -5.653   2.032 -16.230  0.00  0.00     0.139 C 
ATOM     46  O   UNK d   0      -5.332   2.056 -17.444  0.00  0.00    -0.650 OA
BRANCH  45  47
ATOM     47  O   UNK d   0      -6.943   2.360 -15.873  0.00  0.00    -0.776 OA
ATOM     48  H   UNK d   0      -7.586   1.692 -15.417  0.00  0.00     0.167 HD
ENDBRANCH  45  47
ENDBRANCH  44  45
ENDBRANCH  43  44
ENDBRANCH  27  43
BRANCH  24  49
ATOM     49  C   UNK d   0      -4.894  -3.844 -11.895  0.00  0.00     0.052 C 
BRANCH  49  50
ATOM     50  C   UNK d   0      -6.208  -3.464 -11.263  0.00  0.00     0.115 C 
BRANCH  50  51
ATOM     51  C   UNK d   0      -6.617  -4.211 -10.081  0.00  0.00     0.139 C 
ATOM     52  O   UNK d   0      -6.189  -5.361  -9.826  0.00  0.00    -0.650 OA
BRANCH  51  53
ATOM     53  O   UNK d   0      -7.517  -3.646  -9.190  0.00  0.00    -0.776 OA
ATOM     54  H   UNK d   0      -8.250  -4.227  -8.822  0.00  0.00     0.167 HD
ENDBRANCH  51  53
ENDBRANCH  50  51
ENDBRANCH  49  50
ENDBRANCH  24  49
BRANCH  21  55
ATOM     55  C   UNK d   0      -2.297  -4.954 -10.644  0.00  0.00     0.151 C 
BRANCH  55  56
ATOM     56  C   UNK d   0      -2.526  -5.446  -9.277  0.00  0.00     0.143 C 
ATOM     57  O   UNK d   0      -1.706  -5.278  -8.353  0.00  0.00    -0.650 OA
BRANCH  56  58
ATOM     58  O   UNK d   0      -3.716  -6.126  -9.023  0.00  0.00    -0.776 OA
ATOM     59  H   UNK d   0      -3.599  -7.090  -8.662  0.00  0.00     0.167 HD
ENDBRANCH  56  58
ENDBRANCH  55  56
ENDBRANCH  21  55
BRANCH  18  60
ATOM     60  C   UNK d   0       0.736  -2.342  -7.068  0.00  0.00     0.151 C 
BRANCH  60  61
ATOM     61  C   UNK d   0      -0.334  -2.245  -6.064  0.00  0.00     0.143 C 
ATOM     62  O   UNK d   0      -1.450  -1.747  -6.216  0.00  0.00    -0.650 OA
BRANCH  61  63
ATOM     63  O   UNK d   0      -0.022  -2.791  -4.796  0.00  0.00    -0.776 OA
ATOM     64  H   UNK d   0      -0.493  -3.610  -4.455  0.00  0.00     0.167 HD
ENDBRANCH  61  63
ENDBRANCH  60  61
ENDBRANCH  18  60
BRANCH  14  65
ATOM     65  C   UNK d   0       1.849   0.426  -6.513  0.00  0.00     0.052 C 
BRANCH  65  66
ATOM     66  C   UNK d   0       3.309   0.288  -6.763  0.00  0.00     0.115 C 
BRANCH  66  67
ATOM     67  C   UNK d   0       4.176   1.413  -6.556  0.00  0.00     0.139 C 
ATOM     68  O   UNK d   0       5.241   1.246  -5.854  0.00  0.00    -0.650 OA
BRANCH  67  69
ATOM     69  O   UNK d   0       4.015   2.714  -7.031  0.00  0.00    -0.776 OA
ATOM     70  H   UNK d   0       3.788   2.800  -8.032  0.00  0.00     0.167 HD
ENDBRANCH  67  69
ENDBRANCH  66  67
ENDBRANCH  65  66
ENDBRANCH  14  65
ENDBRANCH   6   7
ENDBRANCH   5   6
ENDBRANCH   2   5
TORSDOF 28
ENDMDL
MODEL 18
REMARK VINA RESULT:      -8.7     29.545     33.304
REMARK  28 active torsions:
REMARK  status: ('A' for Active; 'I' for Inactive)
REMARK    1  A    between atoms: C_2  and  O_3 
REMARK    2  A    between atoms: C_2  and  C_4 
REMARK    3  A    between atoms: C_4  and  C_5 
REMARK    4  A    between atoms: C_5  and  C_6 
REMARK    5  A    between atoms: C_7  and  C_8 
REMARK    6  A    between atoms: C_8  and  C_9 
REMARK    7  A    between atoms: C_9  and  O_11 
REMARK    8  A    between atoms: C_28  and  C_29 
REMARK    9  A    between atoms: C_29  and  C_30 
REMARK   10  A    between atoms: C_30  and  O_32 
REMARK   11  A    between atoms: C_33  and  C_34 
REMARK   12  A    between atoms: C_34  and  C_35 
REMARK   13  A    between atoms: C_35  and  C_36 
REMARK   14  A    between atoms: C_36  and  O_38 
REMARK   15  A    between atoms: C_39  and  C_40 
REMARK   16  A    between atoms: C_40  and  C_41 
REMARK   17  A    between atoms: C_41  and  C_42 
REMARK   18  A    between atoms: C_42  and  O_44 
REMARK   19  A    between atoms: C_45  and  C_46 
REMARK   20  A    between atoms: C_46  and  C_47 
REMARK   21  A    between atoms: C_47  and  O_49 
REMARK   22  A    between atoms: C_50  and  C_51 
REMARK   23  A    between atoms: C_51  and  C_52 
REMARK   24  A    between atoms: C_52  and  O_54 
REMARK   25  A    between atoms: C_55  and  C_56 
REMARK   26  A    between atoms: C_56  and  C_57 
REMARK   27  A    between atoms: C_57  and  C_58 
REMARK   28  A    between atoms: C_58  and  O_60 
ROOT
ATOM      1  O   UNK d   0     -22.241   9.116   9.244  0.00  0.00    -0.650 OA
ATOM      2  C   UNK d   0     -23.449   9.304   9.509  0.00  0.00     0.139 C 
ENDROOT
BRANCH   2   3
ATOM      3  O   UNK d   0     -23.877   9.202  10.811  0.00  0.00    -0.776 OA
ATOM      4  H   UNK d   0     -24.860   9.341  11.056  0.00  0.00     0.167 HD
ENDBRANCH   2   3
BRANCH   2   5
ATOM      5  C   UNK d   0     -24.412   9.634   8.420  0.00  0.00     0.115 C 
BRANCH   5   6
ATOM      6  C   UNK d   0     -25.641  10.284   8.995  0.00  0.00     0.052 C 
BRANCH   6   7
ATOM      7  C   UNK d   0     -25.751  11.745   8.629  0.00  0.00    -0.020 A 
ATOM      8  C   UNK d   0     -26.626  12.304   7.833  0.00  0.00    -0.011 A 
ATOM      9  C   UNK d   0     -26.333  13.727   7.779  0.00  0.00     0.067 A 
ATOM     10  C   UNK d   0     -26.887  14.852   7.149  0.00  0.00     0.062 C 
ATOM     11  N   UNK d   0     -25.260  13.945   8.569  0.00  0.00    -0.248 NA
ATOM     12  C   UNK d   0     -26.633  16.196   7.439  0.00  0.00     0.041 A 
ATOM     13  N   UNK d   0     -25.483  16.844   7.706  0.00  0.00    -0.355 N 
ATOM     14  C   UNK d   0     -27.718  17.087   7.542  0.00  0.00    -0.022 A 
ATOM     15  C   UNK d   0     -25.811  18.120   7.984  0.00  0.00     0.042 A 
ATOM     16  H   UNK d   0     -24.459  16.412   7.680  0.00  0.00     0.166 HD
ATOM     17  C   UNK d   0     -24.997  19.218   8.326  0.00  0.00     0.062 C 
ATOM     18  C   UNK d   0     -27.203  18.310   7.891  0.00  0.00    -0.013 A 
ATOM     19  C   UNK d   0     -23.953  19.274   9.214  0.00  0.00     0.067 A 
ATOM     20  N   UNK d   0     -23.497  18.111   9.685  0.00  0.00    -0.248 NA
ATOM     21  C   UNK d   0     -23.163  20.326   9.833  0.00  0.00    -0.011 A 
ATOM     22  C   UNK d   0     -22.468  18.325  10.569  0.00  0.00     0.066 A 
ATOM     23  C   UNK d   0     -21.873  17.194  11.109  0.00  0.00     0.062 C 
ATOM     24  C   UNK d   0     -22.299  19.764  10.629  0.00  0.00    -0.020 A 
ATOM     25  C   UNK d   0     -22.134  15.852  10.794  0.00  0.00     0.041 A 
ATOM     26  N   UNK d   0     -23.278  15.205  10.543  0.00  0.00    -0.355 N 
ATOM     27  C   UNK d   0     -21.045  14.960  10.687  0.00  0.00    -0.022 A 
ATOM     28  C   UNK d   0     -22.955  13.930  10.275  0.00  0.00     0.042 A 
ATOM     29  H   UNK d   0     -24.308  15.638  10.581  0.00  0.00     0.166 HD
ATOM     30  C   UNK d   0     -23.755  12.826   9.942  0.00  0.00     0.062 C 
ATOM     31  C   UNK d   0     -21.555  13.742  10.358  0.00  0.00    -0.013 A 
ATOM     32  C   UNK d   0     -24.863  12.792   9.110  0.00  0.00     0.066 A 
BRANCH   8  33
ATOM     33  C   UNK d   0     -27.718  11.631   7.105  0.00  0.00     0.151 C 
BRANCH  33  34
ATOM     34  C   UNK d   0     -29.018  11.752   7.788  0.00  0.00     0.143 C 
ATOM     35  O   UNK d   0     -29.344  10.957   8.681  0.00  0.00    -0.650 OA
BRANCH  34  36
ATOM     36  O   UNK d   0     -29.880  12.761   7.426  0.00  0.00    -0.776 OA
ATOM     37  H   UNK d   0     -29.663  13.395   6.645  0.00  0.00     0.167 HD
ENDBRANCH  34  36
ENDBRANCH  33  34
ENDBRANCH   8  33
BRANCH  31  38
ATOM     38  C   UNK d   0     -20.763  12.477  10.123  0.00  0.00     0.151 C 
BRANCH  38  39
ATOM     39  C   UNK d   0     -20.529  11.727  11.338  0.00  0.00     0.143 C 
ATOM     40  O   UNK d   0     -19.449  11.777  11.954  0.00  0.00    -0.650 OA
BRANCH  39  41
ATOM     41  O   UNK d   0     -21.541  10.916  11.850  0.00  0.00    -0.776 OA
ATOM     42  H   UNK d   0     -22.482  11.322  11.890  0.00  0.00     0.167 HD
ENDBRANCH  39  41
ENDBRANCH  38  39
ENDBRANCH  31  38
BRANCH  27  43
ATOM     43  C   UNK d   0     -19.572  15.218  10.883  0.00  0.00     0.052 C 
BRANCH  43  44
ATOM     44  C   UNK d   0     -19.242  15.755  12.238  0.00  0.00     0.115 C 
BRANCH  44  45
ATOM     45  C   UNK d   0     -18.393  16.956  12.023  0.00  0.00     0.139 C 
ATOM     46  O   UNK d   0     -17.658  17.338  12.967  0.00  0.00    -0.650 OA
BRANCH  45  47
ATOM     47  O   UNK d   0     -18.376  17.657  10.837  0.00  0.00    -0.776 OA
ATOM     48  H   UNK d   0     -18.840  17.317   9.979  0.00  0.00     0.167 HD
ENDBRANCH  45  47
ENDBRANCH  44  45
ENDBRANCH  43  44
ENDBRANCH  27  43
BRANCH  24  49
ATOM     49  C   UNK d   0     -21.274  20.458  11.427  0.00  0.00     0.052 C 
BRANCH  49  50
ATOM     50  C   UNK d   0     -21.553  20.289  12.899  0.00  0.00     0.115 C 
BRANCH  50  51
ATOM     51  C   UNK d   0     -22.527  21.190  13.499  0.00  0.00     0.139 C 
ATOM     52  O   UNK d   0     -22.725  22.353  13.073  0.00  0.00    -0.650 OA
BRANCH  51  53
ATOM     53  O   UNK d   0     -23.275  20.767  14.587  0.00  0.00    -0.776 OA
ATOM     54  H   UNK d   0     -24.218  21.101  14.675  0.00  0.00     0.167 HD
ENDBRANCH  51  53
ENDBRANCH  50  51
ENDBRANCH  49  50
ENDBRANCH  24  49
BRANCH  21  55
ATOM     55  C   UNK d   0     -23.352  21.781   9.563  0.00  0.00     0.151 C 
BRANCH  55  56
ATOM     56  C   UNK d   0     -22.749  22.187   8.284  0.00  0.00     0.143 C 
ATOM     57  O   UNK d   0     -23.428  22.503   7.287  0.00  0.00    -0.650 OA
BRANCH  56  58
ATOM     58  O   UNK d   0     -21.357  22.215   8.203  0.00  0.00    -0.776 OA
ATOM     59  H   UNK d   0     -20.866  21.702   8.957  0.00  0.00     0.167 HD
ENDBRANCH  56  58
ENDBRANCH  55  56
ENDBRANCH  21  55
BRANCH  18  60
ATOM     60  C   UNK d   0     -28.019  19.559   8.117  0.00  0.00     0.151 C 
BRANCH  60  61
ATOM     61  C   UNK d   0     -28.266  19.624   9.566  0.00  0.00     0.143 C 
ATOM     62  O   UNK d   0     -28.119  18.717  10.385  0.00  0.00    -0.650 OA
BRANCH  61  63
ATOM     63  O   UNK d   0     -28.719  20.877  10.044  0.00  0.00    -0.776 OA
ATOM     64  H   UNK d   0     -28.620  21.129  11.011  0.00  0.00     0.167 HD
ENDBRANCH  61  63
ENDBRANCH  60  61
ENDBRANCH  18  60
BRANCH  14  65
ATOM     65  C   UNK d   0     -29.177  16.894   7.242  0.00  0.00     0.052 C 
BRANCH  65  66
ATOM     66  C   UNK d   0     -29.456  16.727   5.790  0.00  0.00     0.115 C 
BRANCH  66  67
ATOM     67  C   UNK d   0     -28.776  17.555   4.835  0.00  0.00     0.139 C 
ATOM     68  O   UNK d   0     -28.044  16.989   3.942  0.00  0.00    -0.650 OA
BRANCH  67  69
ATOM     69  O   UNK d   0     -28.802  18.946   4.741  0.00  0.00    -0.776 OA
ATOM     70  H   UNK d   0     -29.702  19.394   4.968  0.00  0.00     0.167 HD
ENDBRANCH  67  69
ENDBRANCH  66  67
ENDBRANCH  65  66
ENDBRANCH  14  65
ENDBRANCH   6   7
ENDBRANCH   5   6
ENDBRANCH   2   5
TORSDOF 28
ENDMDL
MODEL 19
REMARK VINA RESULT:      -8.7     29.278     32.391
REMARK  28 active torsions:
REMARK  status: ('A' for Active; 'I' for Inactive)
REMARK    1  A    between atoms: C_2  and  O_3 
REMARK    2  A    between atoms: C_2  and  C_4 
REMARK    3  A    between atoms: C_4  and  C_5 
REMARK    4  A    between atoms: C_5  and  C_6 
REMARK    5  A    between atoms: C_7  and  C_8 
REMARK    6  A    between atoms: C_8  and  C_9 
REMARK    7  A    between atoms: C_9  and  O_11 
REMARK    8  A    between atoms: C_28  and  C_29 
REMARK    9  A    between atoms: C_29  and  C_30 
REMARK   10  A    between atoms: C_30  and  O_32 
REMARK   11  A    between atoms: C_33  and  C_34 
REMARK   12  A    between atoms: C_34  and  C_35 
REMARK   13  A    between atoms: C_35  and  C_36 
REMARK   14  A    between atoms: C_36  and  O_38 
REMARK   15  A    between atoms: C_39  and  C_40 
REMARK   16  A    between atoms: C_40  and  C_41 
REMARK   17  A    between atoms: C_41  and  C_42 
REMARK   18  A    between atoms: C_42  and  O_44 
REMARK   19  A    between atoms: C_45  and  C_46 
REMARK   20  A    between atoms: C_46  and  C_47 
REMARK   21  A    between atoms: C_47  and  O_49 
REMARK   22  A    between atoms: C_50  and  C_51 
REMARK   23  A    between atoms: C_51  and  C_52 
REMARK   24  A    between atoms: C_52  and  O_54 
REMARK   25  A    between atoms: C_55  and  C_56 
REMARK   26  A    between atoms: C_56  and  C_57 
REMARK   27  A    between atoms: C_57  and  C_58 
REMARK   28  A    between atoms: C_58  and  O_60 
ROOT
ATOM      1  O   UNK d   0     -21.372  10.314  13.182  0.00  0.00    -0.650 OA
ATOM      2  C   UNK d   0     -20.333  10.734  12.625  0.00  0.00     0.139 C 
ENDROOT
BRANCH   2   3
ATOM      3  O   UNK d   0     -19.803  10.030  11.570  0.00  0.00    -0.776 OA
ATOM      4  H   UNK d   0     -18.908   9.545  11.656  0.00  0.00     0.167 HD
ENDBRANCH   2   3
BRANCH   2   5
ATOM      5  C   UNK d   0     -19.679  11.984  13.106  0.00  0.00     0.115 C 
BRANCH   5   6
ATOM      6  C   UNK d   0     -19.377  12.890  11.943  0.00  0.00     0.052 C 
BRANCH   6   7
ATOM      7  C   UNK d   0     -20.554  13.755  11.560  0.00  0.00    -0.020 A 
ATOM      8  C   UNK d   0     -20.771  15.002  11.895  0.00  0.00    -0.011 A 
ATOM      9  C   UNK d   0     -22.033  15.408  11.301  0.00  0.00     0.067 A 
ATOM     10  C   UNK d   0     -22.800  16.583  11.258  0.00  0.00     0.062 C 
ATOM     11  N   UNK d   0     -22.520  14.345  10.627  0.00  0.00    -0.248 NA
ATOM     12  C   UNK d   0     -23.865  16.869  10.396  0.00  0.00     0.041 A 
ATOM     13  N   UNK d   0     -24.900  16.113   9.984  0.00  0.00    -0.355 N 
ATOM     14  C   UNK d   0     -23.910  18.125   9.765  0.00  0.00    -0.022 A 
ATOM     15  C   UNK d   0     -25.596  16.854   9.101  0.00  0.00     0.042 A 
ATOM     16  H   UNK d   0     -25.144  15.082  10.325  0.00  0.00     0.166 HD
ATOM     17  C   UNK d   0     -26.763  16.549   8.373  0.00  0.00     0.062 C 
ATOM     18  C   UNK d   0     -25.006  18.122   8.938  0.00  0.00    -0.013 A 
ATOM     19  C   UNK d   0     -27.077  15.404   7.687  0.00  0.00     0.067 A 
ATOM     20  N   UNK d   0     -26.281  14.348   7.875  0.00  0.00    -0.248 NA
ATOM     21  C   UNK d   0     -28.100  15.003   6.735  0.00  0.00    -0.011 A 
ATOM     22  C   UNK d   0     -26.708  13.287   7.116  0.00  0.00     0.066 A 
ATOM     23  C   UNK d   0     -25.990  12.107   7.245  0.00  0.00     0.062 C 
ATOM     24  C   UNK d   0     -27.876  13.765   6.402  0.00  0.00    -0.020 A 
ATOM     25  C   UNK d   0     -24.932  11.836   8.126  0.00  0.00     0.041 A 
ATOM     26  N   UNK d   0     -23.895  12.583   8.524  0.00  0.00    -0.355 N 
ATOM     27  C   UNK d   0     -24.890  10.577   8.763  0.00  0.00    -0.022 A 
ATOM     28  C   UNK d   0     -23.194  11.843   9.398  0.00  0.00     0.042 A 
ATOM     29  H   UNK d   0     -23.645  13.614   8.173  0.00  0.00     0.166 HD
ATOM     30  C   UNK d   0     -22.027  12.130  10.123  0.00  0.00     0.062 C 
ATOM     31  C   UNK d   0     -23.794  10.573   9.570  0.00  0.00    -0.013 A 
ATOM     32  C   UNK d   0     -21.676  13.319  10.743  0.00  0.00     0.066 A 
BRANCH   8  33
ATOM     33  C   UNK d   0     -19.906  15.857  12.728  0.00  0.00     0.151 C 
BRANCH  33  34
ATOM     34  C   UNK d   0     -18.822  16.494  11.959  0.00  0.00     0.143 C 
ATOM     35  O   UNK d   0     -18.880  16.575  10.723  0.00  0.00    -0.650 OA
BRANCH  34  36
ATOM     36  O   UNK d   0     -17.731  17.004  12.624  0.00  0.00    -0.776 OA
ATOM     37  H   UNK d   0     -16.965  16.393  12.940  0.00  0.00     0.167 HD
ENDBRANCH  34  36
ENDBRANCH  33  34
ENDBRANCH   8  33
BRANCH  31  38
ATOM     38  C   UNK d   0     -23.348   9.438  10.462  0.00  0.00     0.151 C 
BRANCH  38  39
ATOM     39  C   UNK d   0     -22.552   8.452   9.761  0.00  0.00     0.143 C 
ATOM     40  O   UNK d   0     -21.458   8.730   9.238  0.00  0.00    -0.650 OA
BRANCH  39  41
ATOM     41  O   UNK d   0     -23.016   7.141   9.661  0.00  0.00    -0.776 OA
ATOM     42  H   UNK d   0     -22.306   6.402   9.628  0.00  0.00     0.167 HD
ENDBRANCH  39  41
ENDBRANCH  38  39
ENDBRANCH  31  38
BRANCH  27  43
ATOM     43  C   UNK d   0     -25.830   9.405   8.632  0.00  0.00     0.052 C 
BRANCH  43  44
ATOM     44  C   UNK d   0     -25.537   8.542   7.448  0.00  0.00     0.115 C 
BRANCH  44  45
ATOM     45  C   UNK d   0     -26.735   7.686   7.240  0.00  0.00     0.139 C 
ATOM     46  O   UNK d   0     -26.710   6.851   6.303  0.00  0.00    -0.650 OA
BRANCH  45  47
ATOM     47  O   UNK d   0     -27.859   7.769   8.033  0.00  0.00    -0.776 OA
ATOM     48  H   UNK d   0     -28.242   8.667   8.370  0.00  0.00     0.167 HD
ENDBRANCH  45  47
ENDBRANCH  44  45
ENDBRANCH  43  44
ENDBRANCH  27  43
BRANCH  24  49
ATOM     49  C   UNK d   0     -28.696  12.949   5.489  0.00  0.00     0.052 C 
BRANCH  49  50
ATOM     50  C   UNK d   0     -29.867  12.352   6.227  0.00  0.00     0.115 C 
BRANCH  50  51
ATOM     51  C   UNK d   0     -29.583  11.266   7.156  0.00  0.00     0.139 C 
ATOM     52  O   UNK d   0     -29.018  10.205   6.803  0.00  0.00    -0.650 OA
BRANCH  51  53
ATOM     53  O   UNK d   0     -29.947  11.390   8.488  0.00  0.00    -0.776 OA
ATOM     54  H   UNK d   0     -29.864  12.292   8.922  0.00  0.00     0.167 HD
ENDBRANCH  51  53
ENDBRANCH  50  51
ENDBRANCH  49  50
ENDBRANCH  24  49
BRANCH  21  55
ATOM     55  C   UNK d   0     -29.197  15.898   6.262  0.00  0.00     0.151 C 
BRANCH  55  56
ATOM     56  C   UNK d   0     -30.447  15.679   7.007  0.00  0.00     0.143 C 
ATOM     57  O   UNK d   0     -30.473  15.195   8.155  0.00  0.00    -0.650 OA
BRANCH  56  58
ATOM     58  O   UNK d   0     -31.643  16.035   6.385  0.00  0.00    -0.776 OA
ATOM     59  H   UNK d   0     -32.490  15.590   6.783  0.00  0.00     0.167 HD
ENDBRANCH  56  58
ENDBRANCH  55  56
ENDBRANCH  21  55
BRANCH  18  60
ATOM     60  C   UNK d   0     -25.430  19.273   8.059  0.00  0.00     0.151 C 
BRANCH  60  61
ATOM     61  C   UNK d   0     -26.491  19.974   8.797  0.00  0.00     0.143 C 
ATOM     62  O   UNK d   0     -26.861  19.757   9.952  0.00  0.00    -0.650 OA
BRANCH  61  63
ATOM     63  O   UNK d   0     -27.141  21.008   8.081  0.00  0.00    -0.776 OA
ATOM     64  H   UNK d   0     -27.706  20.804   7.275  0.00  0.00     0.167 HD
ENDBRANCH  61  63
ENDBRANCH  60  61
ENDBRANCH  18  60
BRANCH  14  65
ATOM     65  C   UNK d   0     -23.062  19.351   9.956  0.00  0.00     0.052 C 
BRANCH  65  66
ATOM     66  C   UNK d   0     -23.601  20.275  10.990  0.00  0.00     0.115 C 
BRANCH  66  67
ATOM     67  C   UNK d   0     -23.710  19.834  12.352  0.00  0.00     0.139 C 
ATOM     68  O   UNK d   0     -22.630  19.655  13.027  0.00  0.00    -0.650 OA
BRANCH  67  69
ATOM     69  O   UNK d   0     -24.873  19.562  13.070  0.00  0.00    -0.776 OA
ATOM     70  H   UNK d   0     -25.263  20.350  13.607  0.00  0.00     0.167 HD
ENDBRANCH  67  69
ENDBRANCH  66  67
ENDBRANCH  65  66
ENDBRANCH  14  65
ENDBRANCH   6   7
ENDBRANCH   5   6
ENDBRANCH   2   5
TORSDOF 28
ENDMDL
MODEL 20
REMARK VINA RESULT:      -8.6     29.250     32.865
REMARK  28 active torsions:
REMARK  status: ('A' for Active; 'I' for Inactive)
REMARK    1  A    between atoms: C_2  and  O_3 
REMARK    2  A    between atoms: C_2  and  C_4 
REMARK    3  A    between atoms: C_4  and  C_5 
REMARK    4  A    between atoms: C_5  and  C_6 
REMARK    5  A    between atoms: C_7  and  C_8 
REMARK    6  A    between atoms: C_8  and  C_9 
REMARK    7  A    between atoms: C_9  and  O_11 
REMARK    8  A    between atoms: C_28  and  C_29 
REMARK    9  A    between atoms: C_29  and  C_30 
REMARK   10  A    between atoms: C_30  and  O_32 
REMARK   11  A    between atoms: C_33  and  C_34 
REMARK   12  A    between atoms: C_34  and  C_35 
REMARK   13  A    between atoms: C_35  and  C_36 
REMARK   14  A    between atoms: C_36  and  O_38 
REMARK   15  A    between atoms: C_39  and  C_40 
REMARK   16  A    between atoms: C_40  and  C_41 
REMARK   17  A    between atoms: C_41  and  C_42 
REMARK   18  A    between atoms: C_42  and  O_44 
REMARK   19  A    between atoms: C_45  and  C_46 
REMARK   20  A    between atoms: C_46  and  C_47 
REMARK   21  A    between atoms: C_47  and  O_49 
REMARK   22  A    between atoms: C_50  and  C_51 
REMARK   23  A    between atoms: C_51  and  C_52 
REMARK   24  A    between atoms: C_52  and  O_54 
REMARK   25  A    between atoms: C_55  and  C_56 
REMARK   26  A    between atoms: C_56  and  C_57 
REMARK   27  A    between atoms: C_57  and  C_58 
REMARK   28  A    between atoms: C_58  and  O_60 
ROOT
ATOM      1  O   UNK d   0     -29.234  12.460   7.652  0.00  0.00    -0.650 OA
ATOM      2  C   UNK d   0     -28.905  11.754   6.672  0.00  0.00     0.139 C 
ENDROOT
BRANCH   2   3
ATOM      3  O   UNK d   0     -29.233  10.420   6.663  0.00  0.00    -0.776 OA
ATOM      4  H   UNK d   0     -28.700   9.742   7.211  0.00  0.00     0.167 HD
ENDBRANCH   2   3
BRANCH   2   5
ATOM      5  C   UNK d   0     -28.165  12.359   5.529  0.00  0.00     0.115 C 
BRANCH   5   6
ATOM      6  C   UNK d   0     -26.748  11.853   5.504  0.00  0.00     0.052 C 
BRANCH   6   7
ATOM      7  C   UNK d   0     -25.933  12.346   6.675  0.00  0.00    -0.020 A 
ATOM      8  C   UNK d   0     -25.261  11.628   7.539  0.00  0.00    -0.011 A 
ATOM      9  C   UNK d   0     -24.645  12.538   8.490  0.00  0.00     0.067 A 
ATOM     10  C   UNK d   0     -23.806  12.417   9.609  0.00  0.00     0.062 C 
ATOM     11  N   UNK d   0     -24.999  13.790   8.133  0.00  0.00    -0.248 NA
ATOM     12  C   UNK d   0     -23.084  13.436  10.240  0.00  0.00     0.041 A 
ATOM     13  N   UNK d   0     -23.428  14.697  10.564  0.00  0.00    -0.355 N 
ATOM     14  C   UNK d   0     -21.739  13.205  10.581  0.00  0.00    -0.022 A 
ATOM     15  C   UNK d   0     -22.333  15.274  11.095  0.00  0.00     0.042 A 
ATOM     16  H   UNK d   0     -24.430  15.163  10.438  0.00  0.00     0.166 HD
ATOM     17  C   UNK d   0     -22.141  16.576  11.599  0.00  0.00     0.062 C 
ATOM     18  C   UNK d   0     -21.254  14.370  11.122  0.00  0.00    -0.013 A 
ATOM     19  C   UNK d   0     -22.536  17.775  11.063  0.00  0.00     0.067 A 
ATOM     20  N   UNK d   0     -23.384  17.727  10.032  0.00  0.00    -0.248 NA
ATOM     21  C   UNK d   0     -22.253  19.178  11.319  0.00  0.00    -0.011 A 
ATOM     22  C   UNK d   0     -23.676  18.996   9.595  0.00  0.00     0.066 A 
ATOM     23  C   UNK d   0     -24.580  19.095   8.548  0.00  0.00     0.062 C 
ATOM     24  C   UNK d   0     -22.920  19.887  10.454  0.00  0.00    -0.020 A 
ATOM     25  C   UNK d   0     -25.304  18.060   7.937  0.00  0.00     0.041 A 
ATOM     26  N   UNK d   0     -24.958  16.812   7.601  0.00  0.00    -0.355 N 
ATOM     27  C   UNK d   0     -26.656  18.291   7.598  0.00  0.00    -0.022 A 
ATOM     28  C   UNK d   0     -26.045  16.237   7.063  0.00  0.00     0.042 A 
ATOM     29  H   UNK d   0     -23.948  16.348   7.718  0.00  0.00     0.166 HD
ATOM     30  C   UNK d   0     -26.248  14.946   6.550  0.00  0.00     0.062 C 
ATOM     31  C   UNK d   0     -27.132  17.143   7.046  0.00  0.00    -0.013 A 
ATOM     32  C   UNK d   0     -25.774  13.743   7.049  0.00  0.00     0.066 A 
BRANCH   8  33
ATOM     33  C   UNK d   0     -25.141  10.158   7.565  0.00  0.00     0.151 C 
BRANCH  33  34
ATOM     34  C   UNK d   0     -26.320   9.500   8.156  0.00  0.00     0.143 C 
ATOM     35  O   UNK d   0     -26.937   8.623   7.535  0.00  0.00    -0.650 OA
BRANCH  34  36
ATOM     36  O   UNK d   0     -26.738   9.867   9.414  0.00  0.00    -0.776 OA
ATOM     37  H   UNK d   0     -26.526  10.798   9.797  0.00  0.00     0.167 HD
ENDBRANCH  34  36
ENDBRANCH  33  34
ENDBRANCH   8  33
BRANCH  31  38
ATOM     38  C   UNK d   0     -28.538  16.912   6.543  0.00  0.00     0.151 C 
BRANCH  38  39
ATOM     39  C   UNK d   0     -29.258  15.926   7.321  0.00  0.00     0.143 C 
ATOM     40  O   UNK d   0     -29.033  15.738   8.530  0.00  0.00    -0.650 OA
BRANCH  39  41
ATOM     41  O   UNK d   0     -30.243  15.153   6.707  0.00  0.00    -0.776 OA
ATOM     42  H   UNK d   0     -29.922  14.374   6.124  0.00  0.00     0.167 HD
ENDBRANCH  39  41
ENDBRANCH  38  39
ENDBRANCH  31  38
BRANCH  27  43
ATOM     43  C   UNK d   0     -27.489  19.536   7.776  0.00  0.00     0.052 C 
BRANCH  43  44
ATOM     44  C   UNK d   0     -28.637  19.350   8.713  0.00  0.00     0.115 C 
BRANCH  44  45
ATOM     45  C   UNK d   0     -28.277  20.055   9.971  0.00  0.00     0.139 C 
ATOM     46  O   UNK d   0     -27.220  19.716  10.558  0.00  0.00    -0.650 OA
BRANCH  45  47
ATOM     47  O   UNK d   0     -29.048  21.062  10.510  0.00  0.00    -0.776 OA
ATOM     48  H   UNK d   0     -28.942  22.054  10.244  0.00  0.00     0.167 HD
ENDBRANCH  45  47
ENDBRANCH  44  45
ENDBRANCH  43  44
ENDBRANCH  27  43
BRANCH  24  49
ATOM     49  C   UNK d   0     -22.954  21.357  10.378  0.00  0.00     0.052 C 
BRANCH  49  50
ATOM     50  C   UNK d   0     -22.193  21.838   9.169  0.00  0.00     0.115 C 
BRANCH  50  51
ATOM     51  C   UNK d   0     -20.858  22.376   9.393  0.00  0.00     0.139 C 
ATOM     52  O   UNK d   0     -20.661  23.503   9.906  0.00  0.00    -0.650 OA
BRANCH  51  53
ATOM     53  O   UNK d   0     -19.748  21.629   9.030  0.00  0.00    -0.776 OA
ATOM     54  H   UNK d   0     -18.841  22.053   9.118  0.00  0.00     0.167 HD
ENDBRANCH  51  53
ENDBRANCH  50  51
ENDBRANCH  49  50
ENDBRANCH  24  49
BRANCH  21  55
ATOM     55  C   UNK d   0     -21.350  19.663  12.404  0.00  0.00     0.151 C 
BRANCH  55  56
ATOM     56  C   UNK d   0     -22.086  20.391  13.449  0.00  0.00     0.143 C 
ATOM     57  O   UNK d   0     -21.852  21.582  13.734  0.00  0.00    -0.650 OA
BRANCH  56  58
ATOM     58  O   UNK d   0     -23.082  19.704  14.141  0.00  0.00    -0.776 OA
ATOM     59  H   UNK d   0     -23.239  18.729  13.825  0.00  0.00     0.167 HD
ENDBRANCH  56  58
ENDBRANCH  55  56
ENDBRANCH  21  55
BRANCH  18  60
ATOM     60  C   UNK d   0     -19.844  14.571  11.619  0.00  0.00     0.151 C 
BRANCH  60  61
ATOM     61  C   UNK d   0     -19.059  14.990  10.448  0.00  0.00     0.143 C 
ATOM     62  O   UNK d   0     -18.440  14.262   9.671  0.00  0.00    -0.650 OA
BRANCH  61  63
ATOM     63  O   UNK d   0     -19.028  16.385  10.211  0.00  0.00    -0.776 OA
ATOM     64  H   UNK d   0     -18.567  17.009  10.849  0.00  0.00     0.167 HD
ENDBRANCH  61  63
ENDBRANCH  60  61
ENDBRANCH  18  60
BRANCH  14  65
ATOM     65  C   UNK d   0     -20.914  11.950  10.526  0.00  0.00     0.052 C 
BRANCH  65  66
ATOM     66  C   UNK d   0     -21.048  11.113  11.748  0.00  0.00     0.115 C 
BRANCH  66  67
ATOM     67  C   UNK d   0     -19.964  10.260  12.149  0.00  0.00     0.139 C 
ATOM     68  O   UNK d   0     -19.728  10.117  13.404  0.00  0.00    -0.650 OA
BRANCH  67  69
ATOM     69  O   UNK d   0     -19.097   9.539  11.328  0.00  0.00    -0.776 OA
ATOM     70  H   UNK d   0     -18.216   9.233  11.765  0.00  0.00     0.167 HD
ENDBRANCH  67  69
ENDBRANCH  66  67
ENDBRANCH  65  66
ENDBRANCH  14  65
ENDBRANCH   6   7
ENDBRANCH   5   6
ENDBRANCH   2   5
TORSDOF 28
ENDMDL
