MODEL 1
REMARK VINA RESULT:      -8.1      0.000      0.000
REMARK  16 active torsions:
REMARK  status: ('A' for Active; 'I' for Inactive)
REMARK    1  A    between atoms: C_6  and  C_7 
REMARK    2  A    between atoms: C_7  and  C_8 
REMARK    3  A    between atoms: C_8  and  C_9 
REMARK    4  A    between atoms: C_9  and  O_11 
REMARK    5  A    between atoms: C_16  and  C_17 
REMARK    6  A    between atoms: C_17  and  C_18 
REMARK    7  A    between atoms: C_18  and  C_19 
REMARK    8  A    between atoms: C_19  and  O_21 
REMARK    9  A    between atoms: C_28  and  C_29 
REMARK   10  A    between atoms: C_29  and  C_30 
REMARK   11  A    between atoms: C_30  and  C_31 
REMARK   12  A    between atoms: C_31  and  O_33 
REMARK   13  A    between atoms: C_42  and  C_43 
REMARK   14  A    between atoms: C_43  and  C_44 
REMARK   15  A    between atoms: C_44  and  C_45 
REMARK   16  A    between atoms: C_45  and  O_47 
ROOT
HETATM    1  C   UNK     0      -3.364  13.737 -16.375  0.00  0.00     0.051 C 
HETATM    2  C   UNK     0      -3.948  12.346 -16.515  0.00  0.00    -0.031 A 
HETATM    3  C   UNK     0      -5.073  11.929 -17.209  0.00  0.00     0.021 A 
HETATM    4  N   UNK     0      -5.233  10.596 -17.031  0.00  0.00    -0.361 N 
HETATM    5  C   UNK     0      -4.230  10.153 -16.245  0.00  0.00     0.022 A 
HETATM    6  C   UNK     0      -3.409  11.222 -15.902  0.00  0.00    -0.027 A 
HETATM    7  C   UNK     0      -3.896   8.755 -15.826  0.00  0.00     0.115 C 
HETATM    8  C   UNK     0      -3.998   7.681 -16.894  0.00  0.00     0.021 A 
HETATM    9  N   UNK     0      -3.713   7.772 -18.202  0.00  0.00    -0.361 N 
HETATM   10  C   UNK     0      -4.039   6.600 -18.785  0.00  0.00     0.022 A 
HETATM   11  C   UNK     0      -4.540   5.726 -17.825  0.00  0.00    -0.027 A 
HETATM   12  C   UNK     0      -4.517   6.400 -16.631  0.00  0.00    -0.031 A 
HETATM   13  C   UNK     0      -4.966   5.839 -15.301  0.00  0.00     0.051 C 
HETATM   14  C   UNK     0      -3.943   6.276 -20.274  0.00  0.00     0.115 C 
HETATM   15  C   UNK     0      -4.803   7.168 -21.155  0.00  0.00     0.021 A 
HETATM   16  N   UNK     0      -4.753   8.509 -21.263  0.00  0.00    -0.361 N 
HETATM   17  C   UNK     0      -5.719   8.918 -22.088  0.00  0.00     0.022 A 
HETATM   18  C   UNK     0      -6.426   7.789 -22.547  0.00  0.00    -0.027 A 
HETATM   19  C   UNK     0      -5.842   6.699 -21.956  0.00  0.00    -0.031 A 
HETATM   20  C   UNK     0      -6.277   5.267 -22.209  0.00  0.00     0.051 C 
HETATM   21  C   UNK     0      -6.131  10.318 -22.484  0.00  0.00     0.115 C 
HETATM   22  C   UNK     0      -5.993  11.406 -21.444  0.00  0.00     0.022 A 
HETATM   23  N   UNK     0      -6.266  11.341 -20.135  0.00  0.00    -0.361 N 
HETATM   24  C   UNK     0      -5.860  12.492 -19.561  0.00  0.00     0.021 A 
HETATM   25  C   UNK     0      -5.322  13.321 -20.526  0.00  0.00    -0.031 A 
HETATM   26  C   UNK     0      -4.773  14.725 -20.378  0.00  0.00     0.051 C 
HETATM   27  C   UNK     0      -5.397  12.648 -21.740  0.00  0.00    -0.027 A 
HETATM   28  C   UNK     0      -5.875  12.850 -18.085  0.00  0.00     0.115 C 
HETATM   29  H   UNK     0      -6.077   9.985 -17.428  0.00  0.00     0.165 HD
HETATM   30  H   UNK     0      -3.234   8.646 -18.708  0.00  0.00     0.165 HD
HETATM   31  H   UNK     0      -3.991   9.177 -20.785  0.00  0.00     0.165 HD
HETATM   32  H   UNK     0      -6.787  10.499 -19.610  0.00  0.00     0.165 HD
ENDROOT
BRANCH   6  33
HETATM   33  C   UNK     0      -2.169  11.256 -15.045  0.00  0.00     0.051 C 
BRANCH  33  34
HETATM   34  C   UNK     0      -2.522  11.547 -13.605  0.00  0.00     0.114 C 
BRANCH  34  35
HETATM   35  C   UNK     0      -2.407  10.267 -12.850  0.00  0.00     0.139 C 
HETATM   36  O   UNK     0      -3.433   9.739 -12.331  0.00  0.00    -0.650 OA
BRANCH  35  37
HETATM   37  O   UNK     0      -1.199   9.601 -12.683  0.00  0.00    -0.776 OA
HETATM   38  H   UNK     0      -0.735   9.134 -13.446  0.00  0.00     0.167 HD
ENDBRANCH  35  37
ENDBRANCH  34  35
ENDBRANCH  33  34
ENDBRANCH   6  33
BRANCH  27  39
HETATM   39  C   UNK     0      -4.976  13.256 -23.031  0.00  0.00     0.051 C 
BRANCH  39  40
HETATM   40  C   UNK     0      -3.708  12.827 -23.620  0.00  0.00     0.114 C 
BRANCH  40  41
HETATM   41  C   UNK     0      -2.581  12.419 -22.811  0.00  0.00     0.139 C 
HETATM   42  O   UNK     0      -2.239  11.238 -22.660  0.00  0.00    -0.650 OA
BRANCH  41  43
HETATM   43  O   UNK     0      -1.813  13.416 -22.145  0.00  0.00    -0.776 OA
HETATM   44  H   UNK     0      -1.015  13.057 -21.634  0.00  0.00     0.167 HD
ENDBRANCH  41  43
ENDBRANCH  40  41
ENDBRANCH  39  40
ENDBRANCH  27  39
BRANCH  11  45
HETATM   45  C   UNK     0      -5.023   4.311 -18.000  0.00  0.00     0.051 C 
BRANCH  45  46
HETATM   46  C   UNK     0      -4.169   3.293 -17.337  0.00  0.00     0.114 C 
BRANCH  46  47
HETATM   47  C   UNK     0      -3.584   2.440 -18.411  0.00  0.00     0.139 C 
HETATM   48  O   UNK     0      -2.938   2.988 -19.315  0.00  0.00    -0.650 OA
BRANCH  47  49
HETATM   49  O   UNK     0      -3.756   1.079 -18.400  0.00  0.00    -0.776 OA
HETATM   50  H   UNK     0      -3.729   0.533 -17.531  0.00  0.00     0.167 HD
ENDBRANCH  47  49
ENDBRANCH  46  47
ENDBRANCH  45  46
ENDBRANCH  11  45
BRANCH  18  51
HETATM   51  C   UNK     0      -7.583   7.749 -23.512  0.00  0.00     0.051 C 
BRANCH  51  52
HETATM   52  C   UNK     0      -8.835   8.010 -22.688  0.00  0.00     0.114 C 
BRANCH  52  53
HETATM   53  C   UNK     0     -10.039   7.441 -23.324  0.00  0.00     0.139 C 
HETATM   54  O   UNK     0     -10.116   6.218 -23.525  0.00  0.00    -0.650 OA
BRANCH  53  55
HETATM   55  O   UNK     0     -11.070   8.271 -23.693  0.00  0.00    -0.776 OA
HETATM   56  H   UNK     0     -10.987   9.100 -24.233  0.00  0.00     0.167 HD
ENDBRANCH  53  55
ENDBRANCH  52  53
ENDBRANCH  51  52
ENDBRANCH  18  51
TORSDOF 16
ENDMDL
MODEL 2
REMARK VINA RESULT:      -8.1      2.057      2.557
REMARK  16 active torsions:
REMARK  status: ('A' for Active; 'I' for Inactive)
REMARK    1  A    between atoms: C_6  and  C_7 
REMARK    2  A    between atoms: C_7  and  C_8 
REMARK    3  A    between atoms: C_8  and  C_9 
REMARK    4  A    between atoms: C_9  and  O_11 
REMARK    5  A    between atoms: C_16  and  C_17 
REMARK    6  A    between atoms: C_17  and  C_18 
REMARK    7  A    between atoms: C_18  and  C_19 
REMARK    8  A    between atoms: C_19  and  O_21 
REMARK    9  A    between atoms: C_28  and  C_29 
REMARK   10  A    between atoms: C_29  and  C_30 
REMARK   11  A    between atoms: C_30  and  C_31 
REMARK   12  A    between atoms: C_31  and  O_33 
REMARK   13  A    between atoms: C_42  and  C_43 
REMARK   14  A    between atoms: C_43  and  C_44 
REMARK   15  A    between atoms: C_44  and  C_45 
REMARK   16  A    between atoms: C_45  and  O_47 
ROOT
HETATM    1  C   UNK     0      -3.233  11.853 -14.892  0.00  0.00     0.051 C 
HETATM    2  C   UNK     0      -3.838  10.577 -15.442  0.00  0.00    -0.031 A 
HETATM    3  C   UNK     0      -5.012  10.397 -16.156  0.00  0.00     0.021 A 
HETATM    4  N   UNK     0      -5.173   9.077 -16.415  0.00  0.00    -0.361 N 
HETATM    5  C   UNK     0      -4.122   8.414 -15.890  0.00  0.00     0.022 A 
HETATM    6  C   UNK     0      -3.268   9.322 -15.271  0.00  0.00    -0.027 A 
HETATM    7  C   UNK     0      -3.772   6.961 -15.978  0.00  0.00     0.115 C 
HETATM    8  C   UNK     0      -3.958   6.297 -17.331  0.00  0.00     0.021 A 
HETATM    9  N   UNK     0      -3.763   6.817 -18.552  0.00  0.00    -0.361 N 
HETATM   10  C   UNK     0      -4.141   5.897 -19.465  0.00  0.00     0.022 A 
HETATM   11  C   UNK     0      -4.582   4.749 -18.814  0.00  0.00    -0.027 A 
HETATM   12  C   UNK     0      -4.469   4.994 -17.469  0.00  0.00    -0.031 A 
HETATM   13  C   UNK     0      -4.831   4.020 -16.370  0.00  0.00     0.051 C 
HETATM   14  C   UNK     0      -4.151   6.082 -20.980  0.00  0.00     0.115 C 
HETATM   15  C   UNK     0      -5.062   7.202 -21.457  0.00  0.00     0.021 A 
HETATM   16  N   UNK     0      -5.007   8.505 -21.121  0.00  0.00    -0.361 N 
HETATM   17  C   UNK     0      -6.024   9.149 -21.697  0.00  0.00     0.022 A 
HETATM   18  C   UNK     0      -6.772   8.224 -22.452  0.00  0.00    -0.027 A 
HETATM   19  C   UNK     0      -6.158   7.009 -22.295  0.00  0.00    -0.031 A 
HETATM   20  C   UNK     0      -6.623   5.734 -22.974  0.00  0.00     0.051 C 
HETATM   21  C   UNK     0      -6.449  10.596 -21.580  0.00  0.00     0.115 C 
HETATM   22  C   UNK     0      -6.229  11.283 -20.253  0.00  0.00     0.022 A 
HETATM   23  N   UNK     0      -6.411  10.787 -19.022  0.00  0.00    -0.361 N 
HETATM   24  C   UNK     0      -5.956  11.691 -18.131  0.00  0.00     0.021 A 
HETATM   25  C   UNK     0      -5.478  12.799 -18.804  0.00  0.00    -0.031 A 
HETATM   26  C   UNK     0      -4.907  14.084 -18.240  0.00  0.00     0.051 C 
HETATM   27  C   UNK     0      -5.643  12.562 -20.163  0.00  0.00    -0.027 A 
HETATM   28  C   UNK     0      -5.864  11.543 -16.622  0.00  0.00     0.115 C 
HETATM   29  H   UNK     0      -6.047   8.619 -16.932  0.00  0.00     0.165 HD
HETATM   30  H   UNK     0      -3.313   7.815 -18.774  0.00  0.00     0.165 HD
HETATM   31  H   UNK     0      -4.207   8.989 -20.503  0.00  0.00     0.165 HD
HETATM   32  H   UNK     0      -6.903   9.812 -18.769  0.00  0.00     0.165 HD
ENDROOT
BRANCH   6  33
HETATM   33  C   UNK     0      -1.972   9.090 -14.538  0.00  0.00     0.051 C 
BRANCH  33  34
HETATM   34  C   UNK     0      -0.792   9.294 -15.459  0.00  0.00     0.114 C 
BRANCH  34  35
HETATM   35  C   UNK     0      -0.409   7.957 -15.996  0.00  0.00     0.139 C 
HETATM   36  O   UNK     0      -0.716   7.634 -17.180  0.00  0.00    -0.650 OA
BRANCH  35  37
HETATM   37  O   UNK     0       0.291   7.020 -15.245  0.00  0.00    -0.776 OA
HETATM   38  H   UNK     0       0.178   6.029 -15.387  0.00  0.00     0.167 HD
ENDBRANCH  35  37
ENDBRANCH  34  35
ENDBRANCH  33  34
ENDBRANCH   6  33
BRANCH  27  39
HETATM   39  C   UNK     0      -5.307  13.567 -21.208  0.00  0.00     0.051 C 
BRANCH  39  40
HETATM   40  C   UNK     0      -6.398  14.139 -21.997  0.00  0.00     0.114 C 
BRANCH  40  41
HETATM   41  C   UNK     0      -7.369  15.045 -21.426  0.00  0.00     0.139 C 
HETATM   42  O   UNK     0      -7.197  15.645 -20.357  0.00  0.00    -0.650 OA
BRANCH  41  43
HETATM   43  O   UNK     0      -8.593  15.270 -22.117  0.00  0.00    -0.776 OA
HETATM   44  H   UNK     0      -8.874  16.242 -22.166  0.00  0.00     0.167 HD
ENDBRANCH  41  43
ENDBRANCH  40  41
ENDBRANCH  39  40
ENDBRANCH  27  39
BRANCH  11  45
HETATM   45  C   UNK     0      -5.089   3.464 -19.411  0.00  0.00     0.051 C 
BRANCH  45  46
HETATM   46  C   UNK     0      -4.041   2.648 -20.075  0.00  0.00     0.114 C 
BRANCH  46  47
HETATM   47  C   UNK     0      -3.693   1.535 -19.145  0.00  0.00     0.139 C 
HETATM   48  O   UNK     0      -2.869   1.751 -18.245  0.00  0.00    -0.650 OA
BRANCH  47  49
HETATM   49  O   UNK     0      -4.270   0.298 -19.283  0.00  0.00    -0.776 OA
HETATM   50  H   UNK     0      -4.039  -0.327 -20.065  0.00  0.00     0.167 HD
ENDBRANCH  47  49
ENDBRANCH  46  47
ENDBRANCH  45  46
ENDBRANCH  11  45
BRANCH  18  51
HETATM   51  C   UNK     0      -7.993   8.488 -23.295  0.00  0.00     0.051 C 
BRANCH  51  52
HETATM   52  C   UNK     0      -9.194   8.202 -22.407  0.00  0.00     0.114 C 
BRANCH  52  53
HETATM   53  C   UNK     0     -10.268   7.506 -23.142  0.00  0.00     0.139 C 
HETATM   54  O   UNK     0     -10.362   6.270 -23.082  0.00  0.00    -0.650 OA
BRANCH  53  55
HETATM   55  O   UNK     0     -11.158   8.234 -23.894  0.00  0.00    -0.776 OA
HETATM   56  H   UNK     0     -10.949   8.732 -24.727  0.00  0.00     0.167 HD
ENDBRANCH  53  55
ENDBRANCH  52  53
ENDBRANCH  51  52
ENDBRANCH  18  51
TORSDOF 16
ENDMDL
MODEL 3
REMARK VINA RESULT:      -7.7      2.650      7.990
REMARK  16 active torsions:
REMARK  status: ('A' for Active; 'I' for Inactive)
REMARK    1  A    between atoms: C_6  and  C_7 
REMARK    2  A    between atoms: C_7  and  C_8 
REMARK    3  A    between atoms: C_8  and  C_9 
REMARK    4  A    between atoms: C_9  and  O_11 
REMARK    5  A    between atoms: C_16  and  C_17 
REMARK    6  A    between atoms: C_17  and  C_18 
REMARK    7  A    between atoms: C_18  and  C_19 
REMARK    8  A    between atoms: C_19  and  O_21 
REMARK    9  A    between atoms: C_28  and  C_29 
REMARK   10  A    between atoms: C_29  and  C_30 
REMARK   11  A    between atoms: C_30  and  C_31 
REMARK   12  A    between atoms: C_31  and  O_33 
REMARK   13  A    between atoms: C_42  and  C_43 
REMARK   14  A    between atoms: C_43  and  C_44 
REMARK   15  A    between atoms: C_44  and  C_45 
REMARK   16  A    between atoms: C_45  and  O_47 
ROOT
HETATM    1  C   UNK     0      -4.390   1.230 -23.023  0.00  0.00     0.051 C 
HETATM    2  C   UNK     0      -3.762   2.476 -22.431  0.00  0.00    -0.031 A 
HETATM    3  C   UNK     0      -4.046   3.809 -22.684  0.00  0.00     0.021 A 
HETATM    4  N   UNK     0      -3.213   4.584 -21.949  0.00  0.00    -0.361 N 
HETATM    5  C   UNK     0      -2.410   3.774 -21.228  0.00  0.00     0.022 A 
HETATM    6  C   UNK     0      -2.725   2.448 -21.508  0.00  0.00    -0.027 A 
HETATM    7  C   UNK     0      -1.385   4.124 -20.195  0.00  0.00     0.115 C 
HETATM    8  C   UNK     0      -1.761   5.210 -19.202  0.00  0.00     0.021 A 
HETATM    9  N   UNK     0      -2.961   5.468 -18.661  0.00  0.00    -0.361 N 
HETATM   10  C   UNK     0      -2.849   6.581 -17.905  0.00  0.00     0.022 A 
HETATM   11  C   UNK     0      -1.538   7.047 -17.953  0.00  0.00    -0.027 A 
HETATM   12  C   UNK     0      -0.847   6.187 -18.769  0.00  0.00    -0.031 A 
HETATM   13  C   UNK     0       0.621   6.297 -19.111  0.00  0.00     0.051 C 
HETATM   14  C   UNK     0      -3.980   7.278 -17.153  0.00  0.00     0.115 C 
HETATM   15  C   UNK     0      -5.102   7.775 -18.050  0.00  0.00     0.021 A 
HETATM   16  N   UNK     0      -5.867   7.049 -18.887  0.00  0.00    -0.361 N 
HETATM   17  C   UNK     0      -6.690   7.866 -19.548  0.00  0.00     0.022 A 
HETATM   18  C   UNK     0      -6.456   9.186 -19.115  0.00  0.00    -0.027 A 
HETATM   19  C   UNK     0      -5.460   9.115 -18.176  0.00  0.00    -0.031 A 
HETATM   20  C   UNK     0      -4.923  10.319 -17.422  0.00  0.00     0.051 C 
HETATM   21  C   UNK     0      -7.689   7.562 -20.641  0.00  0.00     0.115 C 
HETATM   22  C   UNK     0      -7.348   6.454 -21.610  0.00  0.00     0.022 A 
HETATM   23  N   UNK     0      -6.161   6.171 -22.162  0.00  0.00    -0.361 N 
HETATM   24  C   UNK     0      -6.278   5.016 -22.847  0.00  0.00     0.021 A 
HETATM   25  C   UNK     0      -7.574   4.549 -22.743  0.00  0.00    -0.031 A 
HETATM   26  C   UNK     0      -8.198   3.319 -23.368  0.00  0.00     0.051 C 
HETATM   27  C   UNK     0      -8.278   5.454 -21.956  0.00  0.00    -0.027 A 
HETATM   28  C   UNK     0      -5.182   4.245 -23.564  0.00  0.00     0.115 C 
HETATM   29  H   UNK     0      -3.171   5.697 -21.976  0.00  0.00     0.165 HD
HETATM   30  H   UNK     0      -3.878   4.839 -18.770  0.00  0.00     0.165 HD
HETATM   31  H   UNK     0      -5.861   5.932 -18.978  0.00  0.00     0.165 HD
HETATM   32  H   UNK     0      -5.239   6.807 -22.109  0.00  0.00     0.165 HD
ENDROOT
BRANCH   6  33
HETATM   33  C   UNK     0      -2.122   1.174 -20.973  0.00  0.00     0.051 C 
BRANCH  33  34
HETATM   34  C   UNK     0      -1.946   1.253 -19.475  0.00  0.00     0.114 C 
BRANCH  34  35
HETATM   35  C   UNK     0      -3.306   1.339 -18.870  0.00  0.00     0.139 C 
HETATM   36  O   UNK     0      -3.616   2.320 -18.134  0.00  0.00    -0.650 OA
BRANCH  35  37
HETATM   37  O   UNK     0      -4.282   0.371 -19.079  0.00  0.00    -0.776 OA
HETATM   38  H   UNK     0      -4.138  -0.407 -19.703  0.00  0.00     0.167 HD
ENDBRANCH  35  37
ENDBRANCH  34  35
ENDBRANCH  33  34
ENDBRANCH   6  33
BRANCH  27  39
HETATM   39  C   UNK     0      -9.734   5.323 -21.677  0.00  0.00     0.051 C 
BRANCH  39  40
HETATM   40  C   UNK     0     -10.651   6.266 -22.318  0.00  0.00     0.114 C 
BRANCH  40  41
HETATM   41  C   UNK     0     -10.281   7.021 -23.494  0.00  0.00     0.139 C 
HETATM   42  O   UNK     0     -10.077   6.505 -24.602  0.00  0.00    -0.650 OA
BRANCH  41  43
HETATM   43  O   UNK     0     -10.139   8.434 -23.392  0.00  0.00    -0.776 OA
HETATM   44  H   UNK     0      -9.730   8.874 -24.208  0.00  0.00     0.167 HD
ENDBRANCH  41  43
ENDBRANCH  40  41
ENDBRANCH  39  40
ENDBRANCH  27  39
BRANCH  11  45
HETATM   45  C   UNK     0      -0.939   8.245 -17.268  0.00  0.00     0.051 C 
BRANCH  45  46
HETATM   46  C   UNK     0      -0.499   7.988 -15.873  0.00  0.00     0.114 C 
BRANCH  46  47
HETATM   47  C   UNK     0      -1.134   9.025 -15.011  0.00  0.00     0.139 C 
HETATM   48  O   UNK     0      -0.486  10.045 -14.736  0.00  0.00    -0.650 OA
BRANCH  47  49
HETATM   49  O   UNK     0      -2.408   8.856 -14.531  0.00  0.00    -0.776 OA
HETATM   50  H   UNK     0      -3.236   9.133 -15.072  0.00  0.00     0.167 HD
ENDBRANCH  47  49
ENDBRANCH  46  47
ENDBRANCH  45  46
ENDBRANCH  11  45
BRANCH  18  51
HETATM   51  C   UNK     0      -7.159  10.444 -19.556  0.00  0.00     0.051 C 
BRANCH  51  52
HETATM   52  C   UNK     0      -6.336  11.011 -20.704  0.00  0.00     0.114 C 
BRANCH  52  53
HETATM   53  C   UNK     0      -6.191  12.476 -20.605  0.00  0.00     0.139 C 
HETATM   54  O   UNK     0      -6.937  13.220 -21.260  0.00  0.00    -0.650 OA
BRANCH  53  55
HETATM   55  O   UNK     0      -5.224  13.009 -19.788  0.00  0.00    -0.776 OA
HETATM   56  H   UNK     0      -5.033  12.735 -18.853  0.00  0.00     0.167 HD
ENDBRANCH  53  55
ENDBRANCH  52  53
ENDBRANCH  51  52
ENDBRANCH  18  51
TORSDOF 16
ENDMDL
MODEL 4
REMARK VINA RESULT:      -7.6     30.750     36.427
REMARK  16 active torsions:
REMARK  status: ('A' for Active; 'I' for Inactive)
REMARK    1  A    between atoms: C_6  and  C_7 
REMARK    2  A    between atoms: C_7  and  C_8 
REMARK    3  A    between atoms: C_8  and  C_9 
REMARK    4  A    between atoms: C_9  and  O_11 
REMARK    5  A    between atoms: C_16  and  C_17 
REMARK    6  A    between atoms: C_17  and  C_18 
REMARK    7  A    between atoms: C_18  and  C_19 
REMARK    8  A    between atoms: C_19  and  O_21 
REMARK    9  A    between atoms: C_28  and  C_29 
REMARK   10  A    between atoms: C_29  and  C_30 
REMARK   11  A    between atoms: C_30  and  C_31 
REMARK   12  A    between atoms: C_31  and  O_33 
REMARK   13  A    between atoms: C_42  and  C_43 
REMARK   14  A    between atoms: C_43  and  C_44 
REMARK   15  A    between atoms: C_44  and  C_45 
REMARK   16  A    between atoms: C_45  and  O_47 
ROOT
HETATM    1  C   UNK     0      -4.746  -9.976   7.727  0.00  0.00     0.051 C 
HETATM    2  C   UNK     0      -3.955  -9.179   8.744  0.00  0.00    -0.031 A 
HETATM    3  C   UNK     0      -3.488  -9.562   9.991  0.00  0.00     0.021 A 
HETATM    4  N   UNK     0      -2.857  -8.512  10.568  0.00  0.00    -0.361 N 
HETATM    5  C   UNK     0      -2.904  -7.471   9.712  0.00  0.00     0.022 A 
HETATM    6  C   UNK     0      -3.587  -7.852   8.562  0.00  0.00    -0.027 A 
HETATM    7  C   UNK     0      -2.280  -6.115   9.827  0.00  0.00     0.115 C 
HETATM    8  C   UNK     0      -0.857  -6.063  10.355  0.00  0.00     0.021 A 
HETATM    9  N   UNK     0       0.143  -6.935  10.152  0.00  0.00    -0.361 N 
HETATM   10  C   UNK     0       1.202  -6.537  10.889  0.00  0.00     0.022 A 
HETATM   11  C   UNK     0       0.879  -5.372  11.577  0.00  0.00    -0.027 A 
HETATM   12  C   UNK     0      -0.417  -5.067  11.245  0.00  0.00    -0.031 A 
HETATM   13  C   UNK     0      -1.193  -3.874  11.756  0.00  0.00     0.051 C 
HETATM   14  C   UNK     0       2.537  -7.265  11.014  0.00  0.00     0.115 C 
HETATM   15  C   UNK     0       2.423  -8.666  11.594  0.00  0.00     0.021 A 
HETATM   16  N   UNK     0       1.704  -9.697  11.114  0.00  0.00    -0.361 N 
HETATM   17  C   UNK     0       1.811 -10.733  11.949  0.00  0.00     0.022 A 
HETATM   18  C   UNK     0       2.648 -10.361  13.020  0.00  0.00    -0.027 A 
HETATM   19  C   UNK     0       3.025  -9.065  12.785  0.00  0.00    -0.031 A 
HETATM   20  C   UNK     0       3.965  -8.283  13.685  0.00  0.00     0.051 C 
HETATM   21  C   UNK     0       1.147 -12.090  11.905  0.00  0.00     0.115 C 
HETATM   22  C   UNK     0      -0.253 -12.164  11.341  0.00  0.00     0.022 A 
HETATM   23  N   UNK     0      -1.267 -11.308  11.523  0.00  0.00    -0.361 N 
HETATM   24  C   UNK     0      -2.284 -11.680  10.720  0.00  0.00     0.021 A 
HETATM   25  C   UNK     0      -1.920 -12.809  10.012  0.00  0.00    -0.031 A 
HETATM   26  C   UNK     0      -2.733 -13.617   9.022  0.00  0.00     0.051 C 
HETATM   27  C   UNK     0      -0.624 -13.138  10.392  0.00  0.00    -0.027 A 
HETATM   28  C   UNK     0      -3.609 -10.968  10.507  0.00  0.00     0.115 C 
HETATM   29  H   UNK     0      -2.417  -8.502  11.592  0.00  0.00     0.165 HD
HETATM   30  H   UNK     0       0.121  -7.805   9.451  0.00  0.00     0.165 HD
HETATM   31  H   UNK     0       1.147  -9.712  10.141  0.00  0.00     0.165 HD
HETATM   32  H   UNK     0      -1.290 -10.457  12.252  0.00  0.00     0.165 HD
ENDROOT
BRANCH   6  33
HETATM   33  C   UNK     0      -3.914  -7.062   7.320  0.00  0.00     0.051 C 
BRANCH  33  34
HETATM   34  C   UNK     0      -4.986  -6.037   7.605  0.00  0.00     0.114 C 
BRANCH  34  35
HETATM   35  C   UNK     0      -4.516  -4.734   7.052  0.00  0.00     0.139 C 
HETATM   36  O   UNK     0      -4.766  -4.425   5.850  0.00  0.00    -0.650 OA
BRANCH  35  37
HETATM   37  O   UNK     0      -3.801  -3.813   7.808  0.00  0.00    -0.776 OA
HETATM   38  H   UNK     0      -3.158  -3.161   7.388  0.00  0.00     0.167 HD
ENDBRANCH  35  37
ENDBRANCH  34  35
ENDBRANCH  33  34
ENDBRANCH   6  33
BRANCH  27  39
HETATM   39  C   UNK     0       0.086 -14.346   9.891  0.00  0.00     0.051 C 
BRANCH  39  40
HETATM   40  C   UNK     0       0.929 -14.212   8.703  0.00  0.00     0.114 C 
BRANCH  40  41
HETATM   41  C   UNK     0       1.947 -13.191   8.592  0.00  0.00     0.139 C 
HETATM   42  O   UNK     0       1.728 -12.052   8.158  0.00  0.00    -0.650 OA
BRANCH  41  43
HETATM   43  O   UNK     0       3.278 -13.494   8.998  0.00  0.00    -0.776 OA
HETATM   44  H   UNK     0       3.878 -13.827   8.253  0.00  0.00     0.167 HD
ENDBRANCH  41  43
ENDBRANCH  40  41
ENDBRANCH  39  40
ENDBRANCH  27  39
BRANCH  11  45
HETATM   45  C   UNK     0       1.737  -4.560  12.511  0.00  0.00     0.051 C 
BRANCH  45  46
HETATM   46  C   UNK     0       2.477  -3.457  11.848  0.00  0.00     0.114 C 
BRANCH  46  47
HETATM   47  C   UNK     0       3.064  -2.609  12.925  0.00  0.00     0.139 C 
HETATM   48  O   UNK     0       2.329  -2.233  13.849  0.00  0.00    -0.650 OA
BRANCH  47  49
HETATM   49  O   UNK     0       4.388  -2.252  12.896  0.00  0.00    -0.776 OA
HETATM   50  H   UNK     0       5.136  -2.942  12.758  0.00  0.00     0.167 HD
ENDBRANCH  47  49
ENDBRANCH  46  47
ENDBRANCH  45  46
ENDBRANCH  11  45
BRANCH  18  51
HETATM   51  C   UNK     0       3.081 -11.203  14.193  0.00  0.00     0.051 C 
BRANCH  51  52
HETATM   52  C   UNK     0       4.280 -12.010  13.718  0.00  0.00     0.114 C 
BRANCH  52  53
HETATM   53  C   UNK     0       5.531 -11.568  14.365  0.00  0.00     0.139 C 
HETATM   54  O   UNK     0       5.495 -11.029  15.483  0.00  0.00    -0.650 OA
BRANCH  53  55
HETATM   55  O   UNK     0       6.731 -11.754  13.723  0.00  0.00    -0.776 OA
HETATM   56  H   UNK     0       7.269 -12.589  13.721  0.00  0.00     0.167 HD
ENDBRANCH  53  55
ENDBRANCH  52  53
ENDBRANCH  51  52
ENDBRANCH  18  51
TORSDOF 16
ENDMDL
MODEL 5
REMARK VINA RESULT:      -7.6     23.072     27.538
REMARK  16 active torsions:
REMARK  status: ('A' for Active; 'I' for Inactive)
REMARK    1  A    between atoms: C_6  and  C_7 
REMARK    2  A    between atoms: C_7  and  C_8 
REMARK    3  A    between atoms: C_8  and  C_9 
REMARK    4  A    between atoms: C_9  and  O_11 
REMARK    5  A    between atoms: C_16  and  C_17 
REMARK    6  A    between atoms: C_17  and  C_18 
REMARK    7  A    between atoms: C_18  and  C_19 
REMARK    8  A    between atoms: C_19  and  O_21 
REMARK    9  A    between atoms: C_28  and  C_29 
REMARK   10  A    between atoms: C_29  and  C_30 
REMARK   11  A    between atoms: C_30  and  C_31 
REMARK   12  A    between atoms: C_31  and  O_33 
REMARK   13  A    between atoms: C_42  and  C_43 
REMARK   14  A    between atoms: C_43  and  C_44 
REMARK   15  A    between atoms: C_44  and  C_45 
REMARK   16  A    between atoms: C_45  and  O_47 
ROOT
HETATM    1  C   UNK     0       4.286 -14.049 -10.971  0.00  0.00     0.051 C 
HETATM    2  C   UNK     0       4.542 -13.463  -9.598  0.00  0.00    -0.031 A 
HETATM    3  C   UNK     0       5.585 -13.706  -8.718  0.00  0.00     0.021 A 
HETATM    4  N   UNK     0       5.389 -12.983  -7.590  0.00  0.00    -0.361 N 
HETATM    5  C   UNK     0       4.248 -12.277  -7.736  0.00  0.00     0.022 A 
HETATM    6  C   UNK     0       3.691 -12.556  -8.979  0.00  0.00    -0.027 A 
HETATM    7  C   UNK     0       3.635 -11.260  -6.825  0.00  0.00     0.115 C 
HETATM    8  C   UNK     0       4.582 -10.257  -6.189  0.00  0.00     0.021 A 
HETATM    9  N   UNK     0       5.682  -9.695  -6.714  0.00  0.00    -0.361 N 
HETATM   10  C   UNK     0       6.262  -8.938  -5.759  0.00  0.00     0.022 A 
HETATM   11  C   UNK     0       5.510  -9.006  -4.590  0.00  0.00    -0.027 A 
HETATM   12  C   UNK     0       4.450  -9.835  -4.854  0.00  0.00    -0.031 A 
HETATM   13  C   UNK     0       3.360 -10.200  -3.871  0.00  0.00     0.051 C 
HETATM   14  C   UNK     0       7.571  -8.165  -5.893  0.00  0.00     0.115 C 
HETATM   15  C   UNK     0       8.776  -9.043  -6.192  0.00  0.00     0.021 A 
HETATM   16  N   UNK     0       8.951  -9.869  -7.240  0.00  0.00    -0.361 N 
HETATM   17  C   UNK     0      10.111 -10.515  -7.101  0.00  0.00     0.022 A 
HETATM   18  C   UNK     0      10.727 -10.081  -5.910  0.00  0.00    -0.027 A 
HETATM   19  C   UNK     0       9.881  -9.158  -5.351  0.00  0.00    -0.031 A 
HETATM   20  C   UNK     0      10.181  -8.409  -4.065  0.00  0.00     0.051 C 
HETATM   21  C   UNK     0      10.732 -11.593  -7.960  0.00  0.00     0.115 C 
HETATM   22  C   UNK     0       9.799 -12.571  -8.635  0.00  0.00     0.022 A 
HETATM   23  N   UNK     0       8.695 -13.143  -8.138  0.00  0.00    -0.361 N 
HETATM   24  C   UNK     0       8.092 -13.830  -9.128  0.00  0.00     0.021 A 
HETATM   25  C   UNK     0       8.831 -13.706 -10.289  0.00  0.00    -0.031 A 
HETATM   26  C   UNK     0       8.582 -14.326 -11.648  0.00  0.00     0.051 C 
HETATM   27  C   UNK     0       9.929 -12.905  -9.998  0.00  0.00    -0.027 A 
HETATM   28  C   UNK     0       6.764 -14.567  -9.074  0.00  0.00     0.115 C 
HETATM   29  H   UNK     0       6.037 -13.006  -6.684  0.00  0.00     0.165 HD
HETATM   30  H   UNK     0       6.024  -9.792  -7.773  0.00  0.00     0.165 HD
HETATM   31  H   UNK     0       8.264  -9.965  -8.121  0.00  0.00     0.165 HD
HETATM   32  H   UNK     0       8.354 -13.102  -7.071  0.00  0.00     0.165 HD
ENDROOT
BRANCH   6  33
HETATM   33  C   UNK     0       2.427 -12.036  -9.615  0.00  0.00     0.051 C 
BRANCH  33  34
HETATM   34  C   UNK     0       2.647 -10.658 -10.193  0.00  0.00     0.114 C 
BRANCH  34  35
HETATM   35  C   UNK     0       2.762 -10.806 -11.672  0.00  0.00     0.139 C 
HETATM   36  O   UNK     0       2.065 -11.669 -12.281  0.00  0.00    -0.650 OA
BRANCH  35  37
HETATM   37  O   UNK     0       3.616 -10.025 -12.440  0.00  0.00    -0.776 OA
HETATM   38  H   UNK     0       4.596 -10.239 -12.536  0.00  0.00     0.167 HD
ENDBRANCH  35  37
ENDBRANCH  34  35
ENDBRANCH  33  34
ENDBRANCH   6  33
BRANCH  27  39
HETATM   39  C   UNK     0      10.998 -12.603 -10.989  0.00  0.00     0.051 C 
BRANCH  39  40
HETATM   40  C   UNK     0      11.078 -11.248 -11.532  0.00  0.00     0.114 C 
BRANCH  40  41
HETATM   41  C   UNK     0      12.319 -10.508 -11.577  0.00  0.00     0.139 C 
HETATM   42  O   UNK     0      12.969 -10.325 -12.616  0.00  0.00    -0.650 OA
BRANCH  41  43
HETATM   43  O   UNK     0      12.837  -9.953 -10.373  0.00  0.00    -0.776 OA
HETATM   44  H   UNK     0      12.140  -9.528  -9.774  0.00  0.00     0.167 HD
ENDBRANCH  41  43
ENDBRANCH  40  41
ENDBRANCH  39  40
ENDBRANCH  27  39
BRANCH  11  45
HETATM   45  C   UNK     0       5.758  -8.326  -3.270  0.00  0.00     0.051 C 
BRANCH  45  46
HETATM   46  C   UNK     0       5.922  -6.853  -3.369  0.00  0.00     0.114 C 
BRANCH  46  47
HETATM   47  C   UNK     0       4.556  -6.257  -3.406  0.00  0.00     0.139 C 
HETATM   48  O   UNK     0       3.658  -6.794  -2.743  0.00  0.00    -0.650 OA
BRANCH  47  49
HETATM   49  O   UNK     0       4.297  -5.140  -4.159  0.00  0.00    -0.776 OA
HETATM   50  H   UNK     0       3.544  -4.484  -3.920  0.00  0.00     0.167 HD
ENDBRANCH  47  49
ENDBRANCH  46  47
ENDBRANCH  45  46
ENDBRANCH  11  45
BRANCH  18  51
HETATM   51  C   UNK     0      12.058 -10.506  -5.347  0.00  0.00     0.051 C 
BRANCH  51  52
HETATM   52  C   UNK     0      11.751 -11.466  -4.207  0.00  0.00     0.114 C 
BRANCH  52  53
HETATM   53  C   UNK     0      11.439 -12.822  -4.699  0.00  0.00     0.139 C 
HETATM   54  O   UNK     0      10.269 -13.238  -4.674  0.00  0.00    -0.650 OA
BRANCH  53  55
HETATM   55  O   UNK     0      12.448 -13.619  -5.181  0.00  0.00    -0.776 OA
HETATM   56  H   UNK     0      12.937 -14.316  -4.669  0.00  0.00     0.167 HD
ENDBRANCH  53  55
ENDBRANCH  52  53
ENDBRANCH  51  52
ENDBRANCH  18  51
TORSDOF 16
ENDMDL
MODEL 6
REMARK VINA RESULT:      -7.5     23.506     27.622
REMARK  16 active torsions:
REMARK  status: ('A' for Active; 'I' for Inactive)
REMARK    1  A    between atoms: C_6  and  C_7 
REMARK    2  A    between atoms: C_7  and  C_8 
REMARK    3  A    between atoms: C_8  and  C_9 
REMARK    4  A    between atoms: C_9  and  O_11 
REMARK    5  A    between atoms: C_16  and  C_17 
REMARK    6  A    between atoms: C_17  and  C_18 
REMARK    7  A    between atoms: C_18  and  C_19 
REMARK    8  A    between atoms: C_19  and  O_21 
REMARK    9  A    between atoms: C_28  and  C_29 
REMARK   10  A    between atoms: C_29  and  C_30 
REMARK   11  A    between atoms: C_30  and  C_31 
REMARK   12  A    between atoms: C_31  and  O_33 
REMARK   13  A    between atoms: C_42  and  C_43 
REMARK   14  A    between atoms: C_43  and  C_44 
REMARK   15  A    between atoms: C_44  and  C_45 
REMARK   16  A    between atoms: C_45  and  O_47 
ROOT
HETATM    1  C   UNK     0       7.166  -8.494  -3.209  0.00  0.00     0.051 C 
HETATM    2  C   UNK     0       6.788  -8.960  -4.600  0.00  0.00    -0.031 A 
HETATM    3  C   UNK     0       7.599  -9.202  -5.697  0.00  0.00     0.021 A 
HETATM    4  N   UNK     0       6.825  -9.575  -6.744  0.00  0.00    -0.361 N 
HETATM    5  C   UNK     0       5.539  -9.583  -6.336  0.00  0.00     0.022 A 
HETATM    6  C   UNK     0       5.480  -9.201  -5.000  0.00  0.00    -0.027 A 
HETATM    7  C   UNK     0       4.309 -10.009  -7.074  0.00  0.00     0.115 C 
HETATM    8  C   UNK     0       4.415 -11.276  -7.903  0.00  0.00     0.021 A 
HETATM    9  N   UNK     0       5.115 -12.391  -7.640  0.00  0.00    -0.361 N 
HETATM   10  C   UNK     0       4.991 -13.222  -8.696  0.00  0.00     0.022 A 
HETATM   11  C   UNK     0       4.183 -12.631  -9.662  0.00  0.00    -0.027 A 
HETATM   12  C   UNK     0       3.816 -11.405  -9.169  0.00  0.00    -0.031 A 
HETATM   13  C   UNK     0       2.928 -10.407  -9.878  0.00  0.00     0.051 C 
HETATM   14  C   UNK     0       5.671 -14.579  -8.860  0.00  0.00     0.115 C 
HETATM   15  C   UNK     0       7.190 -14.512  -8.852  0.00  0.00     0.021 A 
HETATM   16  N   UNK     0       7.986 -14.032  -7.879  0.00  0.00    -0.361 N 
HETATM   17  C   UNK     0       9.256 -14.085  -8.285  0.00  0.00     0.022 A 
HETATM   18  C   UNK     0       9.290 -14.635  -9.582  0.00  0.00    -0.027 A 
HETATM   19  C   UNK     0       7.990 -14.899  -9.925  0.00  0.00    -0.031 A 
HETATM   20  C   UNK     0       7.577 -15.536 -11.240  0.00  0.00     0.051 C 
HETATM   21  C   UNK     0      10.516 -13.607  -7.600  0.00  0.00     0.115 C 
HETATM   22  C   UNK     0      10.415 -12.372  -6.736  0.00  0.00     0.022 A 
HETATM   23  N   UNK     0       9.723 -11.249  -6.971  0.00  0.00    -0.361 N 
HETATM   24  C   UNK     0       9.797 -10.469  -5.874  0.00  0.00     0.021 A 
HETATM   25  C   UNK     0      10.563 -11.100  -4.913  0.00  0.00    -0.031 A 
HETATM   26  C   UNK     0      10.962 -10.608  -3.538  0.00  0.00     0.051 C 
HETATM   27  C   UNK     0      10.970 -12.320  -5.442  0.00  0.00    -0.027 A 
HETATM   28  C   UNK     0       9.099  -9.143  -5.628  0.00  0.00     0.115 C 
HETATM   29  H   UNK     0       7.189  -9.790  -7.776  0.00  0.00     0.165 HD
HETATM   30  H   UNK     0       5.656 -12.615  -6.688  0.00  0.00     0.165 HD
HETATM   31  H   UNK     0       7.649 -13.693  -6.864  0.00  0.00     0.165 HD
HETATM   32  H   UNK     0       9.212 -10.978  -7.931  0.00  0.00     0.165 HD
ENDROOT
BRANCH   6  33
HETATM   33  C   UNK     0       4.290  -9.047  -4.087  0.00  0.00     0.051 C 
BRANCH  33  34
HETATM   34  C   UNK     0       3.521  -7.789  -4.418  0.00  0.00     0.114 C 
BRANCH  34  35
HETATM   35  C   UNK     0       4.165  -6.665  -3.680  0.00  0.00     0.139 C 
HETATM   36  O   UNK     0       4.354  -6.747  -2.432  0.00  0.00    -0.650 OA
BRANCH  35  37
HETATM   37  O   UNK     0       4.584  -5.499  -4.309  0.00  0.00    -0.776 OA
HETATM   38  H   UNK     0       5.537  -5.365  -4.608  0.00  0.00     0.167 HD
ENDBRANCH  35  37
ENDBRANCH  34  35
ENDBRANCH  33  34
ENDBRANCH   6  33
BRANCH  27  39
HETATM   39  C   UNK     0      11.877 -13.254  -4.720  0.00  0.00     0.051 C 
BRANCH  39  40
HETATM   40  C   UNK     0      11.286 -14.206  -3.780  0.00  0.00     0.114 C 
BRANCH  40  41
HETATM   41  C   UNK     0       9.860 -14.284  -3.556  0.00  0.00     0.139 C 
HETATM   42  O   UNK     0       9.278 -13.687  -2.640  0.00  0.00    -0.650 OA
BRANCH  41  43
HETATM   43  O   UNK     0       9.066 -15.085  -4.425  0.00  0.00    -0.776 OA
HETATM   44  H   UNK     0       8.637 -15.887  -3.980  0.00  0.00     0.167 HD
ENDBRANCH  41  43
ENDBRANCH  40  41
ENDBRANCH  39  40
ENDBRANCH  27  39
BRANCH  11  45
HETATM   45  C   UNK     0       3.758 -13.178 -10.998  0.00  0.00     0.051 C 
BRANCH  45  46
HETATM   46  C   UNK     0       2.333 -13.593 -11.058  0.00  0.00     0.114 C 
BRANCH  46  47
HETATM   47  C   UNK     0       1.700 -12.843 -12.180  0.00  0.00     0.139 C 
HETATM   48  O   UNK     0       2.433 -12.239 -12.976  0.00  0.00    -0.650 OA
BRANCH  47  49
HETATM   49  O   UNK     0       0.337 -12.820 -12.330  0.00  0.00    -0.776 OA
HETATM   50  H   UNK     0      -0.295 -13.225 -11.629  0.00  0.00     0.167 HD
ENDBRANCH  47  49
ENDBRANCH  46  47
ENDBRANCH  45  46
ENDBRANCH  11  45
BRANCH  18  51
HETATM   51  C   UNK     0      10.498 -14.913 -10.439  0.00  0.00     0.051 C 
BRANCH  51  52
HETATM   52  C   UNK     0      10.372 -14.013 -11.659  0.00  0.00     0.114 C 
BRANCH  52  53
HETATM   53  C   UNK     0      10.379 -12.584 -11.291  0.00  0.00     0.139 C 
HETATM   54  O   UNK     0       9.393 -11.873 -11.540  0.00  0.00    -0.650 OA
BRANCH  53  55
HETATM   55  O   UNK     0      11.484 -12.047 -10.676  0.00  0.00    -0.776 OA
HETATM   56  H   UNK     0      11.928 -12.400  -9.861  0.00  0.00     0.167 HD
ENDBRANCH  53  55
ENDBRANCH  52  53
ENDBRANCH  51  52
ENDBRANCH  18  51
TORSDOF 16
ENDMDL
MODEL 7
REMARK VINA RESULT:      -7.4     14.553     18.983
REMARK  16 active torsions:
REMARK  status: ('A' for Active; 'I' for Inactive)
REMARK    1  A    between atoms: C_6  and  C_7 
REMARK    2  A    between atoms: C_7  and  C_8 
REMARK    3  A    between atoms: C_8  and  C_9 
REMARK    4  A    between atoms: C_9  and  O_11 
REMARK    5  A    between atoms: C_16  and  C_17 
REMARK    6  A    between atoms: C_17  and  C_18 
REMARK    7  A    between atoms: C_18  and  C_19 
REMARK    8  A    between atoms: C_19  and  O_21 
REMARK    9  A    between atoms: C_28  and  C_29 
REMARK   10  A    between atoms: C_29  and  C_30 
REMARK   11  A    between atoms: C_30  and  C_31 
REMARK   12  A    between atoms: C_31  and  O_33 
REMARK   13  A    between atoms: C_42  and  C_43 
REMARK   14  A    between atoms: C_43  and  C_44 
REMARK   15  A    between atoms: C_44  and  C_45 
REMARK   16  A    between atoms: C_45  and  O_47 
ROOT
HETATM    1  C   UNK     0      11.400  17.294  -6.897  0.00  0.00     0.051 C 
HETATM    2  C   UNK     0      10.599  16.471  -7.884  0.00  0.00    -0.031 A 
HETATM    3  C   UNK     0      10.868  16.183  -9.213  0.00  0.00     0.021 A 
HETATM    4  N   UNK     0       9.857  15.435  -9.716  0.00  0.00    -0.361 N 
HETATM    5  C   UNK     0       8.954  15.233  -8.735  0.00  0.00     0.022 A 
HETATM    6  C   UNK     0       9.385  15.869  -7.576  0.00  0.00    -0.027 A 
HETATM    7  C   UNK     0       7.710  14.401  -8.743  0.00  0.00     0.115 C 
HETATM    8  C   UNK     0       7.805  13.040  -9.410  0.00  0.00     0.021 A 
HETATM    9  N   UNK     0       8.841  12.188  -9.429  0.00  0.00    -0.361 N 
HETATM   10  C   UNK     0       8.512  11.144 -10.218  0.00  0.00     0.022 A 
HETATM   11  C   UNK     0       7.224  11.324 -10.715  0.00  0.00    -0.027 A 
HETATM   12  C   UNK     0       6.773  12.516 -10.210  0.00  0.00    -0.031 A 
HETATM   13  C   UNK     0       5.413  13.120 -10.478  0.00  0.00     0.051 C 
HETATM   14  C   UNK     0       9.414   9.966 -10.578  0.00  0.00     0.115 C 
HETATM   15  C   UNK     0      10.682  10.365 -11.316  0.00  0.00     0.021 A 
HETATM   16  N   UNK     0      11.647  11.204 -10.896  0.00  0.00    -0.361 N 
HETATM   17  C   UNK     0      12.557  11.344 -11.862  0.00  0.00     0.022 A 
HETATM   18  C   UNK     0      12.171  10.552 -12.961  0.00  0.00    -0.027 A 
HETATM   19  C   UNK     0      10.996   9.942 -12.606  0.00  0.00    -0.031 A 
HETATM   20  C   UNK     0      10.249   8.965 -13.495  0.00  0.00     0.051 C 
HETATM   21  C   UNK     0      13.787  12.222 -11.919  0.00  0.00     0.115 C 
HETATM   22  C   UNK     0      13.722  13.560 -11.222  0.00  0.00     0.022 A 
HETATM   23  N   UNK     0      12.701  14.427 -11.183  0.00  0.00    -0.361 N 
HETATM   24  C   UNK     0      13.022  15.420 -10.329  0.00  0.00     0.021 A 
HETATM   25  C   UNK     0      14.283  15.193  -9.813  0.00  0.00    -0.031 A 
HETATM   26  C   UNK     0      15.087  16.043  -8.852  0.00  0.00     0.051 C 
HETATM   27  C   UNK     0      14.752  14.008 -10.370  0.00  0.00    -0.027 A 
HETATM   28  C   UNK     0      12.150  16.583  -9.887  0.00  0.00     0.115 C 
HETATM   29  H   UNK     0       9.770  15.089 -10.772  0.00  0.00     0.165 HD
HETATM   30  H   UNK     0       9.788  12.296  -8.845  0.00  0.00     0.165 HD
HETATM   31  H   UNK     0      11.714  11.669  -9.878  0.00  0.00     0.165 HD
HETATM   32  H   UNK     0      11.762  14.369 -11.792  0.00  0.00     0.165 HD
ENDROOT
BRANCH   6  33
HETATM   33  C   UNK     0       8.739  15.951  -6.216  0.00  0.00     0.051 C 
BRANCH  33  34
HETATM   34  C   UNK     0       7.896  17.198  -6.098  0.00  0.00     0.114 C 
BRANCH  34  35
HETATM   35  C   UNK     0       7.684  17.458  -4.645  0.00  0.00     0.139 C 
HETATM   36  O   UNK     0       6.666  18.100  -4.254  0.00  0.00    -0.650 OA
BRANCH  35  37
HETATM   37  O   UNK     0       8.570  17.019  -3.668  0.00  0.00    -0.776 OA
HETATM   38  H   UNK     0       9.399  17.538  -3.426  0.00  0.00     0.167 HD
ENDBRANCH  35  37
ENDBRANCH  34  35
ENDBRANCH  33  34
ENDBRANCH   6  33
BRANCH  27  39
HETATM   39  C   UNK     0      16.114  13.471 -10.105  0.00  0.00     0.051 C 
BRANCH  39  40
HETATM   40  C   UNK     0      16.289  12.544  -8.987  0.00  0.00     0.114 C 
BRANCH  40  41
HETATM   41  C   UNK     0      15.904  11.154  -9.071  0.00  0.00     0.139 C 
HETATM   42  O   UNK     0      14.743  10.755  -8.906  0.00  0.00    -0.650 OA
BRANCH  41  43
HETATM   43  O   UNK     0      16.899  10.177  -9.358  0.00  0.00    -0.776 OA
HETATM   44  H   UNK     0      16.634   9.505 -10.069  0.00  0.00     0.167 HD
ENDBRANCH  41  43
ENDBRANCH  40  41
ENDBRANCH  39  40
ENDBRANCH  27  39
BRANCH  11  45
HETATM   45  C   UNK     0       6.432  10.424 -11.625  0.00  0.00     0.051 C 
BRANCH  45  46
HETATM   46  C   UNK     0       6.776  10.562 -13.063  0.00  0.00     0.114 C 
BRANCH  46  47
HETATM   47  C   UNK     0       5.511  10.402 -13.837  0.00  0.00     0.139 C 
HETATM   48  O   UNK     0       5.572   9.925 -14.978  0.00  0.00    -0.650 OA
BRANCH  47  49
HETATM   49  O   UNK     0       4.306  10.778 -13.299  0.00  0.00    -0.776 OA
HETATM   50  H   UNK     0       3.660  11.405 -13.793  0.00  0.00     0.167 HD
ENDBRANCH  47  49
ENDBRANCH  46  47
ENDBRANCH  45  46
ENDBRANCH  11  45
BRANCH  18  51
HETATM   51  C   UNK     0      12.894  10.368 -14.271  0.00  0.00     0.051 C 
BRANCH  51  52
HETATM   52  C   UNK     0      12.275  11.363 -15.242  0.00  0.00     0.114 C 
BRANCH  52  53
HETATM   53  C   UNK     0      11.867  10.717 -16.504  0.00  0.00     0.139 C 
HETATM   54  O   UNK     0      10.664  10.628 -16.796  0.00  0.00    -0.650 OA
BRANCH  53  55
HETATM   55  O   UNK     0      12.824  10.213 -17.350  0.00  0.00    -0.776 OA
HETATM   56  H   UNK     0      12.693   9.974 -18.305  0.00  0.00     0.167 HD
ENDBRANCH  53  55
ENDBRANCH  52  53
ENDBRANCH  51  52
ENDBRANCH  18  51
TORSDOF 16
ENDMDL
MODEL 8
REMARK VINA RESULT:      -7.4     15.242     20.208
REMARK  16 active torsions:
REMARK  status: ('A' for Active; 'I' for Inactive)
REMARK    1  A    between atoms: C_6  and  C_7 
REMARK    2  A    between atoms: C_7  and  C_8 
REMARK    3  A    between atoms: C_8  and  C_9 
REMARK    4  A    between atoms: C_9  and  O_11 
REMARK    5  A    between atoms: C_16  and  C_17 
REMARK    6  A    between atoms: C_17  and  C_18 
REMARK    7  A    between atoms: C_18  and  C_19 
REMARK    8  A    between atoms: C_19  and  O_21 
REMARK    9  A    between atoms: C_28  and  C_29 
REMARK   10  A    between atoms: C_29  and  C_30 
REMARK   11  A    between atoms: C_30  and  C_31 
REMARK   12  A    between atoms: C_31  and  O_33 
REMARK   13  A    between atoms: C_42  and  C_43 
REMARK   14  A    between atoms: C_43  and  C_44 
REMARK   15  A    between atoms: C_44  and  C_45 
REMARK   16  A    between atoms: C_45  and  O_47 
ROOT
HETATM    1  C   UNK     0      15.033  17.764  -8.458  0.00  0.00     0.051 C 
HETATM    2  C   UNK     0      13.736  17.371  -9.135  0.00  0.00    -0.031 A 
HETATM    3  C   UNK     0      13.523  16.495 -10.188  0.00  0.00     0.021 A 
HETATM    4  N   UNK     0      12.202  16.475 -10.485  0.00  0.00    -0.361 N 
HETATM    5  C   UNK     0      11.567  17.312  -9.639  0.00  0.00     0.022 A 
HETATM    6  C   UNK     0      12.497  17.892  -8.783  0.00  0.00    -0.027 A 
HETATM    7  C   UNK     0      10.103  17.581  -9.486  0.00  0.00     0.115 C 
HETATM    8  C   UNK     0       9.180  16.375  -9.535  0.00  0.00     0.021 A 
HETATM    9  N   UNK     0       9.398  15.136  -9.070  0.00  0.00    -0.361 N 
HETATM   10  C   UNK     0       8.344  14.367  -9.415  0.00  0.00     0.022 A 
HETATM   11  C   UNK     0       7.417  15.134 -10.114  0.00  0.00    -0.027 A 
HETATM   12  C   UNK     0       7.937  16.401 -10.193  0.00  0.00    -0.031 A 
HETATM   13  C   UNK     0       7.270  17.580 -10.864  0.00  0.00     0.051 C 
HETATM   14  C   UNK     0       8.193  12.872  -9.148  0.00  0.00     0.115 C 
HETATM   15  C   UNK     0       9.267  12.018  -9.801  0.00  0.00     0.021 A 
HETATM   16  N   UNK     0      10.599  12.095  -9.622  0.00  0.00    -0.361 N 
HETATM   17  C   UNK     0      11.202  11.219 -10.429  0.00  0.00     0.022 A 
HETATM   18  C   UNK     0      10.214  10.532 -11.163  0.00  0.00    -0.027 A 
HETATM   19  C   UNK     0       9.007  11.040 -10.759  0.00  0.00    -0.031 A 
HETATM   20  C   UNK     0       7.668  10.549 -11.278  0.00  0.00     0.051 C 
HETATM   21  C   UNK     0      12.674  10.965 -10.662  0.00  0.00     0.115 C 
HETATM   22  C   UNK     0      13.609  12.148 -10.572  0.00  0.00     0.022 A 
HETATM   23  N   UNK     0      13.416  13.394 -11.023  0.00  0.00    -0.361 N 
HETATM   24  C   UNK     0      14.442  14.161 -10.601  0.00  0.00     0.021 A 
HETATM   25  C   UNK     0      15.322  13.387  -9.869  0.00  0.00    -0.031 A 
HETATM   26  C   UNK     0      16.634  13.785  -9.226  0.00  0.00     0.051 C 
HETATM   27  C   UNK     0      14.810  12.094  -9.837  0.00  0.00    -0.027 A 
HETATM   28  C   UNK     0      14.620  15.658 -10.783  0.00  0.00     0.115 C 
HETATM   29  H   UNK     0      11.733  15.900 -11.317  0.00  0.00     0.165 HD
HETATM   30  H   UNK     0      10.273  14.812  -8.454  0.00  0.00     0.165 HD
HETATM   31  H   UNK     0      11.124  12.747  -8.876  0.00  0.00     0.165 HD
HETATM   32  H   UNK     0      12.575  13.735 -11.681  0.00  0.00     0.165 HD
ENDROOT
BRANCH   6  33
HETATM   33  C   UNK     0      12.302  18.891  -7.671  0.00  0.00     0.051 C 
BRANCH  33  34
HETATM   34  C   UNK     0      12.329  18.207  -6.325  0.00  0.00     0.114 C 
BRANCH  34  35
HETATM   35  C   UNK     0      10.950  17.712  -6.048  0.00  0.00     0.139 C 
HETATM   36  O   UNK     0      10.066  18.504  -5.608  0.00  0.00    -0.650 OA
BRANCH  35  37
HETATM   37  O   UNK     0      10.571  16.391  -6.255  0.00  0.00    -0.776 OA
HETATM   38  H   UNK     0      10.028  16.110  -7.055  0.00  0.00     0.167 HD
ENDBRANCH  35  37
ENDBRANCH  34  35
ENDBRANCH  33  34
ENDBRANCH   6  33
BRANCH  27  39
HETATM   39  C   UNK     0      15.523  10.956  -9.195  0.00  0.00     0.051 C 
BRANCH  39  40
HETATM   40  C   UNK     0      16.082   9.914 -10.055  0.00  0.00     0.114 C 
BRANCH  40  41
HETATM   41  C   UNK     0      16.217   8.543  -9.617  0.00  0.00     0.139 C 
HETATM   42  O   UNK     0      17.306   7.959  -9.523  0.00  0.00    -0.650 OA
BRANCH  41  43
HETATM   43  O   UNK     0      15.047   7.810  -9.270  0.00  0.00    -0.776 OA
HETATM   44  H   UNK     0      14.711   7.977  -8.329  0.00  0.00     0.167 HD
ENDBRANCH  41  43
ENDBRANCH  40  41
ENDBRANCH  39  40
ENDBRANCH  27  39
BRANCH  11  45
HETATM   45  C   UNK     0       6.090  14.716 -10.689  0.00  0.00     0.051 C 
BRANCH  45  46
HETATM   46  C   UNK     0       4.935  14.959  -9.787  0.00  0.00     0.114 C 
BRANCH  46  47
HETATM   47  C   UNK     0       3.770  14.221 -10.354  0.00  0.00     0.139 C 
HETATM   48  O   UNK     0       3.866  13.751 -11.497  0.00  0.00    -0.650 OA
BRANCH  47  49
HETATM   49  O   UNK     0       2.616  14.067  -9.629  0.00  0.00    -0.776 OA
HETATM   50  H   UNK     0       2.233  14.821  -9.047  0.00  0.00     0.167 HD
ENDBRANCH  47  49
ENDBRANCH  46  47
ENDBRANCH  45  46
ENDBRANCH  11  45
BRANCH  18  51
HETATM   51  C   UNK     0      10.410   9.435 -12.178  0.00  0.00     0.051 C 
BRANCH  51  52
HETATM   52  C   UNK     0      10.479   8.135 -11.392  0.00  0.00     0.114 C 
BRANCH  52  53
HETATM   53  C   UNK     0      11.692   7.360 -11.716  0.00  0.00     0.139 C 
HETATM   54  O   UNK     0      11.742   6.692 -12.761  0.00  0.00    -0.650 OA
BRANCH  53  55
HETATM   55  O   UNK     0      12.762   7.380 -10.855  0.00  0.00    -0.776 OA
HETATM   56  H   UNK     0      13.646   6.957 -11.011  0.00  0.00     0.167 HD
ENDBRANCH  53  55
ENDBRANCH  52  53
ENDBRANCH  51  52
ENDBRANCH  18  51
TORSDOF 16
ENDMDL
MODEL 9
REMARK VINA RESULT:      -7.4      1.416      1.625
REMARK  16 active torsions:
REMARK  status: ('A' for Active; 'I' for Inactive)
REMARK    1  A    between atoms: C_6  and  C_7 
REMARK    2  A    between atoms: C_7  and  C_8 
REMARK    3  A    between atoms: C_8  and  C_9 
REMARK    4  A    between atoms: C_9  and  O_11 
REMARK    5  A    between atoms: C_16  and  C_17 
REMARK    6  A    between atoms: C_17  and  C_18 
REMARK    7  A    between atoms: C_18  and  C_19 
REMARK    8  A    between atoms: C_19  and  O_21 
REMARK    9  A    between atoms: C_28  and  C_29 
REMARK   10  A    between atoms: C_29  and  C_30 
REMARK   11  A    between atoms: C_30  and  C_31 
REMARK   12  A    between atoms: C_31  and  O_33 
REMARK   13  A    between atoms: C_42  and  C_43 
REMARK   14  A    between atoms: C_43  and  C_44 
REMARK   15  A    between atoms: C_44  and  C_45 
REMARK   16  A    between atoms: C_45  and  O_47 
ROOT
HETATM    1  C   UNK     0      -4.360  13.281 -16.836  0.00  0.00     0.051 C 
HETATM    2  C   UNK     0      -4.780  11.832 -16.981  0.00  0.00    -0.031 A 
HETATM    3  C   UNK     0      -5.635  11.253 -17.905  0.00  0.00     0.021 A 
HETATM    4  N   UNK     0      -5.743   9.929 -17.638  0.00  0.00    -0.361 N 
HETATM    5  C   UNK     0      -4.967   9.651 -16.570  0.00  0.00     0.022 A 
HETATM    6  C   UNK     0      -4.352  10.820 -16.132  0.00  0.00    -0.027 A 
HETATM    7  C   UNK     0      -4.662   8.332 -15.933  0.00  0.00     0.115 C 
HETATM    8  C   UNK     0      -4.386   7.170 -16.871  0.00  0.00     0.021 A 
HETATM    9  N   UNK     0      -3.757   7.183 -18.056  0.00  0.00    -0.361 N 
HETATM   10  C   UNK     0      -3.824   5.941 -18.581  0.00  0.00     0.022 A 
HETATM   11  C   UNK     0      -4.506   5.102 -17.705  0.00  0.00    -0.027 A 
HETATM   12  C   UNK     0      -4.863   5.870 -16.625  0.00  0.00    -0.031 A 
HETATM   13  C   UNK     0      -5.622   5.376 -15.414  0.00  0.00     0.051 C 
HETATM   14  C   UNK     0      -3.296   5.509 -19.946  0.00  0.00     0.115 C 
HETATM   15  C   UNK     0      -3.940   6.239 -21.114  0.00  0.00     0.021 A 
HETATM   16  N   UNK     0      -3.959   7.565 -21.344  0.00  0.00    -0.361 N 
HETATM   17  C   UNK     0      -4.686   7.810 -22.436  0.00  0.00     0.022 A 
HETATM   18  C   UNK     0      -5.155   6.584 -22.948  0.00  0.00    -0.027 A 
HETATM   19  C   UNK     0      -4.679   5.608 -22.112  0.00  0.00    -0.031 A 
HETATM   20  C   UNK     0      -4.923   4.124 -22.322  0.00  0.00     0.051 C 
HETATM   21  C   UNK     0      -5.072   9.127 -23.072  0.00  0.00     0.115 C 
HETATM   22  C   UNK     0      -5.306  10.303 -22.153  0.00  0.00     0.022 A 
HETATM   23  N   UNK     0      -5.926  10.317 -20.966  0.00  0.00    -0.361 N 
HETATM   24  C   UNK     0      -5.779  11.545 -20.427  0.00  0.00     0.021 A 
HETATM   25  C   UNK     0      -5.056  12.343 -21.293  0.00  0.00    -0.031 A 
HETATM   26  C   UNK     0      -4.673  13.801 -21.151  0.00  0.00     0.051 C 
HETATM   27  C   UNK     0      -4.743  11.570 -22.405  0.00  0.00    -0.027 A 
HETATM   28  C   UNK     0      -6.228  12.017 -19.055  0.00  0.00     0.115 C 
HETATM   29  H   UNK     0      -6.396   9.209 -18.182  0.00  0.00     0.165 HD
HETATM   30  H   UNK     0      -3.221   8.056 -18.503  0.00  0.00     0.165 HD
HETATM   31  H   UNK     0      -3.409   8.341 -20.751  0.00  0.00     0.165 HD
HETATM   32  H   UNK     0      -6.510   9.473 -20.515  0.00  0.00     0.165 HD
ENDROOT
BRANCH   6  33
HETATM   33  C   UNK     0      -3.404  11.045 -14.981  0.00  0.00     0.051 C 
BRANCH  33  34
HETATM   34  C   UNK     0      -1.975  10.819 -15.414  0.00  0.00     0.114 C 
BRANCH  34  35
HETATM   35  C   UNK     0      -1.339   9.924 -14.404  0.00  0.00     0.139 C 
HETATM   36  O   UNK     0      -0.948  10.392 -13.295  0.00  0.00    -0.650 OA
BRANCH  35  37
HETATM   37  O   UNK     0      -1.149   8.565 -14.621  0.00  0.00    -0.776 OA
HETATM   38  H   UNK     0      -0.395   8.214 -15.190  0.00  0.00     0.167 HD
ENDBRANCH  35  37
ENDBRANCH  34  35
ENDBRANCH  33  34
ENDBRANCH   6  33
BRANCH  27  39
HETATM   39  C   UNK     0      -4.026  12.110 -23.592  0.00  0.00     0.051 C 
BRANCH  39  40
HETATM   40  C   UNK     0      -2.568  12.001 -23.631  0.00  0.00     0.114 C 
BRANCH  40  41
HETATM   41  C   UNK     0      -1.734  13.024 -24.222  0.00  0.00     0.139 C 
HETATM   42  O   UNK     0      -0.502  13.057 -24.098  0.00  0.00    -0.650 OA
BRANCH  41  43
HETATM   43  O   UNK     0      -2.345  14.055 -24.990  0.00  0.00    -0.776 OA
HETATM   44  H   UNK     0      -1.870  14.949 -24.943  0.00  0.00     0.167 HD
ENDBRANCH  41  43
ENDBRANCH  40  41
ENDBRANCH  39  40
ENDBRANCH  27  39
BRANCH  11  45
HETATM   45  C   UNK     0      -4.819   3.637 -17.854  0.00  0.00     0.051 C 
BRANCH  45  46
HETATM   46  C   UNK     0      -3.686   2.738 -17.514  0.00  0.00     0.114 C 
BRANCH  46  47
HETATM   47  C   UNK     0      -3.491   1.818 -18.671  0.00  0.00     0.139 C 
HETATM   48  O   UNK     0      -2.790   2.198 -19.619  0.00  0.00    -0.650 OA
BRANCH  47  49
HETATM   49  O   UNK     0      -4.076   0.577 -18.688  0.00  0.00    -0.776 OA
HETATM   50  H   UNK     0      -5.071   0.446 -18.902  0.00  0.00     0.167 HD
ENDBRANCH  47  49
ENDBRANCH  46  47
ENDBRANCH  45  46
ENDBRANCH  11  45
BRANCH  18  51
HETATM   51  C   UNK     0      -5.992   6.354 -24.179  0.00  0.00     0.051 C 
BRANCH  51  52
HETATM   52  C   UNK     0      -7.443   6.417 -23.726  0.00  0.00     0.114 C 
BRANCH  52  53
HETATM   53  C   UNK     0      -8.377   6.122 -24.829  0.00  0.00     0.139 C 
HETATM   54  O   UNK     0      -9.305   5.315 -24.659  0.00  0.00    -0.650 OA
BRANCH  53  55
HETATM   55  O   UNK     0      -8.212   6.742 -26.044  0.00  0.00    -0.776 OA
HETATM   56  H   UNK     0      -8.794   6.630 -26.841  0.00  0.00     0.167 HD
ENDBRANCH  53  55
ENDBRANCH  52  53
ENDBRANCH  51  52
ENDBRANCH  18  51
TORSDOF 16
ENDMDL
MODEL 10
REMARK VINA RESULT:      -7.4      4.280      7.201
REMARK  16 active torsions:
REMARK  status: ('A' for Active; 'I' for Inactive)
REMARK    1  A    between atoms: C_6  and  C_7 
REMARK    2  A    between atoms: C_7  and  C_8 
REMARK    3  A    between atoms: C_8  and  C_9 
REMARK    4  A    between atoms: C_9  and  O_11 
REMARK    5  A    between atoms: C_16  and  C_17 
REMARK    6  A    between atoms: C_17  and  C_18 
REMARK    7  A    between atoms: C_18  and  C_19 
REMARK    8  A    between atoms: C_19  and  O_21 
REMARK    9  A    between atoms: C_28  and  C_29 
REMARK   10  A    between atoms: C_29  and  C_30 
REMARK   11  A    between atoms: C_30  and  C_31 
REMARK   12  A    between atoms: C_31  and  O_33 
REMARK   13  A    between atoms: C_42  and  C_43 
REMARK   14  A    between atoms: C_43  and  C_44 
REMARK   15  A    between atoms: C_44  and  C_45 
REMARK   16  A    between atoms: C_45  and  O_47 
ROOT
HETATM    1  C   UNK     0      -4.695   9.623 -16.268  0.00  0.00     0.051 C 
HETATM    2  C   UNK     0      -3.493   8.701 -16.253  0.00  0.00    -0.031 A 
HETATM    3  C   UNK     0      -3.441   7.322 -16.376  0.00  0.00     0.021 A 
HETATM    4  N   UNK     0      -2.153   6.918 -16.274  0.00  0.00    -0.361 N 
HETATM    5  C   UNK     0      -1.382   8.010 -16.096  0.00  0.00     0.022 A 
HETATM    6  C   UNK     0      -2.189   9.143 -16.076  0.00  0.00    -0.027 A 
HETATM    7  C   UNK     0       0.109   8.121 -16.021  0.00  0.00     0.115 C 
HETATM    8  C   UNK     0       0.905   7.295 -17.016  0.00  0.00     0.021 A 
HETATM    9  N   UNK     0       0.602   7.000 -18.289  0.00  0.00    -0.361 N 
HETATM   10  C   UNK     0       1.550   6.164 -18.763  0.00  0.00     0.022 A 
HETATM   11  C   UNK     0       2.495   5.922 -17.770  0.00  0.00    -0.027 A 
HETATM   12  C   UNK     0       2.095   6.632 -16.667  0.00  0.00    -0.031 A 
HETATM   13  C   UNK     0       2.824   6.674 -15.342  0.00  0.00     0.051 C 
HETATM   14  C   UNK     0       1.576   5.520 -20.146  0.00  0.00     0.115 C 
HETATM   15  C   UNK     0       0.380   4.626 -20.431  0.00  0.00     0.021 A 
HETATM   16  N   UNK     0      -0.922   4.966 -20.419  0.00  0.00    -0.361 N 
HETATM   17  C   UNK     0      -1.662   3.880 -20.651  0.00  0.00     0.022 A 
HETATM   18  C   UNK     0      -0.800   2.780 -20.833  0.00  0.00    -0.027 A 
HETATM   19  C   UNK     0       0.476   3.261 -20.694  0.00  0.00    -0.031 A 
HETATM   20  C   UNK     0       1.721   2.407 -20.851  0.00  0.00     0.051 C 
HETATM   21  C   UNK     0      -3.165   3.713 -20.670  0.00  0.00     0.115 C 
HETATM   22  C   UNK     0      -3.973   4.561 -19.716  0.00  0.00     0.022 A 
HETATM   23  N   UNK     0      -3.693   4.875 -18.444  0.00  0.00    -0.361 N 
HETATM   24  C   UNK     0      -4.608   5.769 -18.018  0.00  0.00     0.021 A 
HETATM   25  C   UNK     0      -5.504   6.030 -19.037  0.00  0.00    -0.031 A 
HETATM   26  C   UNK     0      -6.723   6.929 -19.028  0.00  0.00     0.051 C 
HETATM   27  C   UNK     0      -5.118   5.268 -20.134  0.00  0.00    -0.027 A 
HETATM   28  C   UNK     0      -4.653   6.487 -16.680  0.00  0.00     0.115 C 
HETATM   29  H   UNK     0      -1.802   5.860 -16.288  0.00  0.00     0.165 HD
HETATM   30  H   UNK     0      -0.253   7.420 -18.873  0.00  0.00     0.165 HD
HETATM   31  H   UNK     0      -1.327   6.004 -20.291  0.00  0.00     0.165 HD
HETATM   32  H   UNK     0      -2.872   4.435 -17.821  0.00  0.00     0.165 HD
ENDROOT
BRANCH   6  33
HETATM   33  C   UNK     0      -1.819  10.594 -15.900  0.00  0.00     0.051 C 
BRANCH  33  34
HETATM   34  C   UNK     0      -2.459  11.163 -14.656  0.00  0.00     0.114 C 
BRANCH  34  35
HETATM   35  C   UNK     0      -1.987  10.348 -13.499  0.00  0.00     0.139 C 
HETATM   36  O   UNK     0      -0.752  10.275 -13.234  0.00  0.00    -0.650 OA
BRANCH  35  37
HETATM   37  O   UNK     0      -2.856   9.647 -12.672  0.00  0.00    -0.776 OA
HETATM   38  H   UNK     0      -2.755   9.645 -11.670  0.00  0.00     0.167 HD
ENDBRANCH  35  37
ENDBRANCH  34  35
ENDBRANCH  33  34
ENDBRANCH   6  33
BRANCH  27  39
HETATM   39  C   UNK     0      -5.890   5.230 -21.406  0.00  0.00     0.051 C 
BRANCH  39  40
HETATM   40  C   UNK     0      -6.929   4.212 -21.557  0.00  0.00     0.114 C 
BRANCH  40  41
HETATM   41  C   UNK     0      -6.689   2.961 -22.240  0.00  0.00     0.139 C 
HETATM   42  O   UNK     0      -7.054   2.735 -23.402  0.00  0.00    -0.650 OA
BRANCH  41  43
HETATM   43  O   UNK     0      -5.998   1.921 -21.556  0.00  0.00    -0.776 OA
HETATM   44  H   UNK     0      -5.540   2.214 -20.702  0.00  0.00     0.167 HD
ENDBRANCH  41  43
ENDBRANCH  40  41
ENDBRANCH  39  40
ENDBRANCH  27  39
BRANCH  11  45
HETATM   45  C   UNK     0       3.731   5.065 -17.835  0.00  0.00     0.051 C 
BRANCH  45  46
HETATM   46  C   UNK     0       3.481   3.621 -17.590  0.00  0.00     0.114 C 
BRANCH  46  47
HETATM   47  C   UNK     0       4.094   3.284 -16.273  0.00  0.00     0.139 C 
HETATM   48  O   UNK     0       5.322   3.131 -16.213  0.00  0.00    -0.650 OA
BRANCH  47  49
HETATM   49  O   UNK     0       3.316   3.144 -15.152  0.00  0.00    -0.776 OA
HETATM   50  H   UNK     0       3.201   3.903 -14.470  0.00  0.00     0.167 HD
ENDBRANCH  47  49
ENDBRANCH  46  47
ENDBRANCH  45  46
ENDBRANCH  11  45
BRANCH  18  51
HETATM   51  C   UNK     0      -1.172   1.353 -21.144  0.00  0.00     0.051 C 
BRANCH  51  52
HETATM   52  C   UNK     0      -1.834   0.803 -19.889  0.00  0.00     0.114 C 
BRANCH  52  53
HETATM   53  C   UNK     0      -3.227   0.385 -20.142  0.00  0.00     0.139 C 
HETATM   54  O   UNK     0      -3.597   0.121 -21.297  0.00  0.00    -0.650 OA
BRANCH  53  55
HETATM   55  O   UNK     0      -4.110   0.295 -19.093  0.00  0.00    -0.776 OA
HETATM   56  H   UNK     0      -3.980   0.675 -18.186  0.00  0.00     0.167 HD
ENDBRANCH  53  55
ENDBRANCH  52  53
ENDBRANCH  51  52
ENDBRANCH  18  51
TORSDOF 16
ENDMDL
MODEL 11
REMARK VINA RESULT:      -7.3     23.573     26.248
REMARK  16 active torsions:
REMARK  status: ('A' for Active; 'I' for Inactive)
REMARK    1  A    between atoms: C_6  and  C_7 
REMARK    2  A    between atoms: C_7  and  C_8 
REMARK    3  A    between atoms: C_8  and  C_9 
REMARK    4  A    between atoms: C_9  and  O_11 
REMARK    5  A    between atoms: C_16  and  C_17 
REMARK    6  A    between atoms: C_17  and  C_18 
REMARK    7  A    between atoms: C_18  and  C_19 
REMARK    8  A    between atoms: C_19  and  O_21 
REMARK    9  A    between atoms: C_28  and  C_29 
REMARK   10  A    between atoms: C_29  and  C_30 
REMARK   11  A    between atoms: C_30  and  C_31 
REMARK   12  A    between atoms: C_31  and  O_33 
REMARK   13  A    between atoms: C_42  and  C_43 
REMARK   14  A    between atoms: C_43  and  C_44 
REMARK   15  A    between atoms: C_44  and  C_45 
REMARK   16  A    between atoms: C_45  and  O_47 
ROOT
HETATM    1  C   UNK     0      11.206 -10.300  -7.969  0.00  0.00     0.051 C 
HETATM    2  C   UNK     0      10.148 -11.103  -8.698  0.00  0.00    -0.031 A 
HETATM    3  C   UNK     0       9.238 -12.020  -8.197  0.00  0.00     0.021 A 
HETATM    4  N   UNK     0       8.503 -12.517  -9.220  0.00  0.00    -0.361 N 
HETATM    5  C   UNK     0       8.920 -11.932 -10.361  0.00  0.00     0.022 A 
HETATM    6  C   UNK     0       9.950 -11.043 -10.072  0.00  0.00    -0.027 A 
HETATM    7  C   UNK     0       8.377 -12.060 -11.750  0.00  0.00     0.115 C 
HETATM    8  C   UNK     0       6.865 -12.060 -11.894  0.00  0.00     0.021 A 
HETATM    9  N   UNK     0       5.958 -11.370 -11.186  0.00  0.00    -0.361 N 
HETATM   10  C   UNK     0       4.729 -11.750 -11.596  0.00  0.00     0.022 A 
HETATM   11  C   UNK     0       4.848 -12.704 -12.603  0.00  0.00    -0.027 A 
HETATM   12  C   UNK     0       6.191 -12.904 -12.796  0.00  0.00    -0.031 A 
HETATM   13  C   UNK     0       6.798 -13.856 -13.802  0.00  0.00     0.051 C 
HETATM   14  C   UNK     0       3.399 -11.270 -11.021  0.00  0.00     0.115 C 
HETATM   15  C   UNK     0       3.212 -11.595  -9.548  0.00  0.00     0.021 A 
HETATM   16  N   UNK     0       3.994 -11.220  -8.519  0.00  0.00    -0.361 N 
HETATM   17  C   UNK     0       3.530 -11.767  -7.393  0.00  0.00     0.022 A 
HETATM   18  C   UNK     0       2.385 -12.528  -7.702  0.00  0.00    -0.027 A 
HETATM   19  C   UNK     0       2.196 -12.411  -9.055  0.00  0.00    -0.031 A 
HETATM   20  C   UNK     0       1.041 -13.050  -9.804  0.00  0.00     0.051 C 
HETATM   21  C   UNK     0       4.084 -11.716  -5.987  0.00  0.00     0.115 C 
HETATM   22  C   UNK     0       5.586 -11.672  -5.830  0.00  0.00     0.022 A 
HETATM   23  N   UNK     0       6.513 -12.345  -6.524  0.00  0.00    -0.361 N 
HETATM   24  C   UNK     0       7.729 -11.894  -6.154  0.00  0.00     0.021 A 
HETATM   25  C   UNK     0       7.581 -10.914  -5.191  0.00  0.00    -0.031 A 
HETATM   26  C   UNK     0       8.649 -10.143  -4.444  0.00  0.00     0.051 C 
HETATM   27  C   UNK     0       6.218 -10.755  -4.967  0.00  0.00    -0.027 A 
HETATM   28  C   UNK     0       9.080 -12.287  -6.726  0.00  0.00     0.115 C 
HETATM   29  H   UNK     0       7.723 -13.309  -9.133  0.00  0.00     0.165 HD
HETATM   30  H   UNK     0       6.182 -10.578 -10.431  0.00  0.00     0.165 HD
HETATM   31  H   UNK     0       4.865 -10.516  -8.579  0.00  0.00     0.165 HD
HETATM   32  H   UNK     0       6.319 -13.176  -7.251  0.00  0.00     0.165 HD
ENDROOT
BRANCH   6  33
HETATM   33  C   UNK     0      10.751 -10.155 -10.989  0.00  0.00     0.051 C 
BRANCH  33  34
HETATM   34  C   UNK     0      11.905 -10.916 -11.598  0.00  0.00     0.114 C 
BRANCH  34  35
HETATM   35  C   UNK     0      13.096 -10.019 -11.570  0.00  0.00     0.139 C 
HETATM   36  O   UNK     0      13.613  -9.614 -12.652  0.00  0.00    -0.650 OA
BRANCH  35  37
HETATM   37  O   UNK     0      13.683  -9.590 -10.386  0.00  0.00    -0.776 OA
HETATM   38  H   UNK     0      13.194  -9.006  -9.728  0.00  0.00     0.167 HD
ENDBRANCH  35  37
ENDBRANCH  34  35
ENDBRANCH  33  34
ENDBRANCH   6  33
BRANCH  27  39
HETATM   39  C   UNK     0       5.669  -9.831  -3.938  0.00  0.00     0.051 C 
BRANCH  39  40
HETATM   40  C   UNK     0       5.624  -8.401  -4.242  0.00  0.00     0.114 C 
BRANCH  40  41
HETATM   41  C   UNK     0       4.527  -7.558  -3.822  0.00  0.00     0.139 C 
HETATM   42  O   UNK     0       4.390  -7.141  -2.664  0.00  0.00    -0.650 OA
BRANCH  41  43
HETATM   43  O   UNK     0       3.543  -7.176  -4.777  0.00  0.00    -0.776 OA
HETATM   44  H   UNK     0       3.547  -6.191  -5.012  0.00  0.00     0.167 HD
ENDBRANCH  41  43
ENDBRANCH  40  41
ENDBRANCH  39  40
ENDBRANCH  27  39
BRANCH  11  45
HETATM   45  C   UNK     0       3.759 -13.408 -13.366  0.00  0.00     0.051 C 
BRANCH  45  46
HETATM   46  C   UNK     0       3.268 -12.659 -14.551  0.00  0.00     0.114 C 
BRANCH  46  47
HETATM   47  C   UNK     0       1.787 -12.831 -14.598  0.00  0.00     0.139 C 
HETATM   48  O   UNK     0       1.292 -13.435 -15.560  0.00  0.00    -0.650 OA
BRANCH  47  49
HETATM   49  O   UNK     0       0.989 -12.330 -13.601  0.00  0.00    -0.776 OA
HETATM   50  H   UNK     0       0.280 -12.904 -13.130  0.00  0.00     0.167 HD
ENDBRANCH  47  49
ENDBRANCH  46  47
ENDBRANCH  45  46
ENDBRANCH  11  45
BRANCH  18  51
HETATM   51  C   UNK     0       1.506 -13.306  -6.758  0.00  0.00     0.051 C 
BRANCH  51  52
HETATM   52  C   UNK     0       0.513 -12.308  -6.180  0.00  0.00     0.114 C 
BRANCH  52  53
HETATM   53  C   UNK     0      -0.850 -12.527  -6.699  0.00  0.00     0.139 C 
HETATM   54  O   UNK     0      -1.228 -13.672  -6.992  0.00  0.00    -0.650 OA
BRANCH  53  55
HETATM   55  O   UNK     0      -1.696 -11.456  -6.859  0.00  0.00    -0.776 OA
HETATM   56  H   UNK     0      -2.081 -11.139  -7.717  0.00  0.00     0.167 HD
ENDBRANCH  53  55
ENDBRANCH  52  53
ENDBRANCH  51  52
ENDBRANCH  18  51
TORSDOF 16
ENDMDL
MODEL 12
REMARK VINA RESULT:      -7.3      4.348      8.224
REMARK  16 active torsions:
REMARK  status: ('A' for Active; 'I' for Inactive)
REMARK    1  A    between atoms: C_6  and  C_7 
REMARK    2  A    between atoms: C_7  and  C_8 
REMARK    3  A    between atoms: C_8  and  C_9 
REMARK    4  A    between atoms: C_9  and  O_11 
REMARK    5  A    between atoms: C_16  and  C_17 
REMARK    6  A    between atoms: C_17  and  C_18 
REMARK    7  A    between atoms: C_18  and  C_19 
REMARK    8  A    between atoms: C_19  and  O_21 
REMARK    9  A    between atoms: C_28  and  C_29 
REMARK   10  A    between atoms: C_29  and  C_30 
REMARK   11  A    between atoms: C_30  and  C_31 
REMARK   12  A    between atoms: C_31  and  O_33 
REMARK   13  A    between atoms: C_42  and  C_43 
REMARK   14  A    between atoms: C_43  and  C_44 
REMARK   15  A    between atoms: C_44  and  C_45 
REMARK   16  A    between atoms: C_45  and  O_47 
ROOT
HETATM    1  C   UNK     0       3.960   4.799 -18.252  0.00  0.00     0.051 C 
HETATM    2  C   UNK     0       2.879   5.854 -18.136  0.00  0.00    -0.031 A 
HETATM    3  C   UNK     0       1.897   6.211 -19.047  0.00  0.00     0.021 A 
HETATM    4  N   UNK     0       1.167   7.229 -18.532  0.00  0.00    -0.361 N 
HETATM    5  C   UNK     0       1.657   7.522 -17.310  0.00  0.00     0.022 A 
HETATM    6  C   UNK     0       2.730   6.683 -17.032  0.00  0.00    -0.027 A 
HETATM    7  C   UNK     0       1.154   8.497 -16.291  0.00  0.00     0.115 C 
HETATM    8  C   UNK     0      -0.350   8.549 -16.082  0.00  0.00     0.021 A 
HETATM    9  N   UNK     0      -1.235   7.541 -16.126  0.00  0.00    -0.361 N 
HETATM   10  C   UNK     0      -2.471   8.062 -15.974  0.00  0.00     0.022 A 
HETATM   11  C   UNK     0      -2.378   9.442 -15.818  0.00  0.00    -0.027 A 
HETATM   12  C   UNK     0      -1.045   9.756 -15.886  0.00  0.00    -0.031 A 
HETATM   13  C   UNK     0      -0.466  11.147 -15.762  0.00  0.00     0.051 C 
HETATM   14  C   UNK     0      -3.787   7.291 -16.021  0.00  0.00     0.115 C 
HETATM   15  C   UNK     0      -4.042   6.591 -17.346  0.00  0.00     0.021 A 
HETATM   16  N   UNK     0      -3.272   5.664 -17.947  0.00  0.00    -0.361 N 
HETATM   17  C   UNK     0      -3.807   5.350 -19.129  0.00  0.00     0.022 A 
HETATM   18  C   UNK     0      -4.986   6.101 -19.303  0.00  0.00    -0.027 A 
HETATM   19  C   UNK     0      -5.123   6.873 -18.179  0.00  0.00    -0.031 A 
HETATM   20  C   UNK     0      -6.290   7.813 -17.937  0.00  0.00     0.051 C 
HETATM   21  C   UNK     0      -3.298   4.424 -20.211  0.00  0.00     0.115 C 
HETATM   22  C   UNK     0      -1.802   4.330 -20.401  0.00  0.00     0.022 A 
HETATM   23  N   UNK     0      -0.896   5.315 -20.359  0.00  0.00    -0.361 N 
HETATM   24  C   UNK     0       0.333   4.765 -20.434  0.00  0.00     0.021 A 
HETATM   25  C   UNK     0       0.214   3.392 -20.538  0.00  0.00    -0.031 A 
HETATM   26  C   UNK     0       1.303   2.350 -20.688  0.00  0.00     0.051 C 
HETATM   27  C   UNK     0      -1.142   3.090 -20.519  0.00  0.00    -0.027 A 
HETATM   28  C   UNK     0       1.675   5.469 -20.334  0.00  0.00     0.115 C 
HETATM   29  H   UNK     0       0.337   7.760 -19.053  0.00  0.00     0.165 HD
HETATM   30  H   UNK     0      -0.987   6.455 -16.213  0.00  0.00     0.165 HD
HETATM   31  H   UNK     0      -2.358   5.186 -17.508  0.00  0.00     0.165 HD
HETATM   32  H   UNK     0      -1.117   6.414 -20.319  0.00  0.00     0.165 HD
ENDROOT
BRANCH   6  33
HETATM   33  C   UNK     0       3.615   6.611 -15.813  0.00  0.00     0.051 C 
BRANCH  33  34
HETATM   34  C   UNK     0       4.847   7.466 -15.995  0.00  0.00     0.114 C 
BRANCH  34  35
HETATM   35  C   UNK     0       6.034   6.592 -15.772  0.00  0.00     0.139 C 
HETATM   36  O   UNK     0       7.103   6.791 -16.420  0.00  0.00    -0.650 OA
BRANCH  35  37
HETATM   37  O   UNK     0       6.031   5.542 -14.862  0.00  0.00    -0.776 OA
HETATM   38  H   UNK     0       6.106   5.694 -13.869  0.00  0.00     0.167 HD
ENDBRANCH  35  37
ENDBRANCH  34  35
ENDBRANCH  33  34
ENDBRANCH   6  33
BRANCH  27  39
HETATM   39  C   UNK     0      -1.667   1.706 -20.682  0.00  0.00     0.051 C 
BRANCH  39  40
HETATM   40  C   UNK     0      -1.955   0.927 -19.478  0.00  0.00     0.114 C 
BRANCH  40  41
HETATM   41  C   UNK     0      -3.185   1.083 -18.735  0.00  0.00     0.139 C 
HETATM   42  O   UNK     0      -3.309   1.853 -17.773  0.00  0.00    -0.650 OA
BRANCH  41  43
HETATM   43  O   UNK     0      -4.324   0.319 -19.116  0.00  0.00    -0.776 OA
HETATM   44  H   UNK     0      -4.599  -0.387 -18.444  0.00  0.00     0.167 HD
ENDBRANCH  41  43
ENDBRANCH  40  41
ENDBRANCH  39  40
ENDBRANCH  27  39
BRANCH  11  45
HETATM   45  C   UNK     0      -3.483  10.443 -15.612  0.00  0.00     0.051 C 
BRANCH  45  46
HETATM   46  C   UNK     0      -3.543  11.005 -14.238  0.00  0.00     0.114 C 
BRANCH  46  47
HETATM   47  C   UNK     0      -4.219   9.993 -13.376  0.00  0.00     0.139 C 
HETATM   48  O   UNK     0      -3.650   9.625 -12.339  0.00  0.00    -0.650 OA
BRANCH  47  49
HETATM   49  O   UNK     0      -5.442   9.479 -13.723  0.00  0.00    -0.776 OA
HETATM   50  H   UNK     0      -5.545   8.754 -14.443  0.00  0.00     0.167 HD
ENDBRANCH  47  49
ENDBRANCH  46  47
ENDBRANCH  45  46
ENDBRANCH  11  45
BRANCH  18  51
HETATM   51  C   UNK     0      -5.942   6.068 -20.467  0.00  0.00     0.051 C 
BRANCH  51  52
HETATM   52  C   UNK     0      -5.538   7.215 -21.382  0.00  0.00     0.114 C 
BRANCH  52  53
HETATM   53  C   UNK     0      -6.712   7.933 -21.915  0.00  0.00     0.139 C 
HETATM   54  O   UNK     0      -7.717   8.094 -21.204  0.00  0.00    -0.650 OA
BRANCH  53  55
HETATM   55  O   UNK     0      -6.687   8.418 -23.200  0.00  0.00    -0.776 OA
HETATM   56  H   UNK     0      -5.971   8.979 -23.598  0.00  0.00     0.167 HD
ENDBRANCH  53  55
ENDBRANCH  52  53
ENDBRANCH  51  52
ENDBRANCH  18  51
TORSDOF 16
ENDMDL
MODEL 13
REMARK VINA RESULT:      -7.3      5.383      8.304
REMARK  16 active torsions:
REMARK  status: ('A' for Active; 'I' for Inactive)
REMARK    1  A    between atoms: C_6  and  C_7 
REMARK    2  A    between atoms: C_7  and  C_8 
REMARK    3  A    between atoms: C_8  and  C_9 
REMARK    4  A    between atoms: C_9  and  O_11 
REMARK    5  A    between atoms: C_16  and  C_17 
REMARK    6  A    between atoms: C_17  and  C_18 
REMARK    7  A    between atoms: C_18  and  C_19 
REMARK    8  A    between atoms: C_19  and  O_21 
REMARK    9  A    between atoms: C_28  and  C_29 
REMARK   10  A    between atoms: C_29  and  C_30 
REMARK   11  A    between atoms: C_30  and  C_31 
REMARK   12  A    between atoms: C_31  and  O_33 
REMARK   13  A    between atoms: C_42  and  C_43 
REMARK   14  A    between atoms: C_43  and  C_44 
REMARK   15  A    between atoms: C_44  and  C_45 
REMARK   16  A    between atoms: C_45  and  O_47 
ROOT
HETATM    1  C   UNK     0       5.112   8.132 -18.063  0.00  0.00     0.051 C 
HETATM    2  C   UNK     0       4.198   6.930 -18.186  0.00  0.00    -0.031 A 
HETATM    3  C   UNK     0       3.193   6.498 -17.335  0.00  0.00     0.021 A 
HETATM    4  N   UNK     0       2.658   5.356 -17.827  0.00  0.00    -0.361 N 
HETATM    5  C   UNK     0       3.294   5.055 -18.978  0.00  0.00     0.022 A 
HETATM    6  C   UNK     0       4.266   6.017 -19.231  0.00  0.00    -0.027 A 
HETATM    7  C   UNK     0       3.024   3.954 -19.956  0.00  0.00     0.115 C 
HETATM    8  C   UNK     0       1.567   3.677 -20.285  0.00  0.00     0.021 A 
HETATM    9  N   UNK     0       0.554   4.551 -20.394  0.00  0.00    -0.361 N 
HETATM   10  C   UNK     0      -0.581   3.852 -20.607  0.00  0.00     0.022 A 
HETATM   11  C   UNK     0      -0.289   2.491 -20.646  0.00  0.00    -0.027 A 
HETATM   12  C   UNK     0       1.062   2.374 -20.444  0.00  0.00    -0.031 A 
HETATM   13  C   UNK     0       1.832   1.073 -20.410  0.00  0.00     0.051 C 
HETATM   14  C   UNK     0      -1.987   4.431 -20.729  0.00  0.00     0.115 C 
HETATM   15  C   UNK     0      -2.457   5.174 -19.489  0.00  0.00     0.021 A 
HETATM   16  N   UNK     0      -1.878   6.238 -18.900  0.00  0.00    -0.361 N 
HETATM   17  C   UNK     0      -2.558   6.550 -17.794  0.00  0.00     0.022 A 
HETATM   18  C   UNK     0      -3.636   5.654 -17.661  0.00  0.00    -0.027 A 
HETATM   19  C   UNK     0      -3.563   4.798 -18.729  0.00  0.00    -0.031 A 
HETATM   20  C   UNK     0      -4.565   3.689 -18.993  0.00  0.00     0.051 C 
HETATM   21  C   UNK     0      -2.280   7.607 -16.749  0.00  0.00     0.115 C 
HETATM   22  C   UNK     0      -0.835   7.924 -16.444  0.00  0.00     0.022 A 
HETATM   23  N   UNK     0       0.195   7.075 -16.333  0.00  0.00    -0.361 N 
HETATM   24  C   UNK     0       1.326   7.797 -16.199  0.00  0.00     0.021 A 
HETATM   25  C   UNK     0       1.015   9.144 -16.213  0.00  0.00    -0.031 A 
HETATM   26  C   UNK     0       1.935  10.336 -16.055  0.00  0.00     0.051 C 
HETATM   27  C   UNK     0      -0.363   9.250 -16.368  0.00  0.00    -0.027 A 
HETATM   28  C   UNK     0       2.754   7.284 -16.132  0.00  0.00     0.115 C 
HETATM   29  H   UNK     0       1.861   4.749 -17.338  0.00  0.00     0.165 HD
HETATM   30  H   UNK     0       0.644   5.664 -20.370  0.00  0.00     0.165 HD
HETATM   31  H   UNK     0      -1.000   6.810 -19.297  0.00  0.00     0.165 HD
HETATM   32  H   UNK     0       0.129   5.957 -16.305  0.00  0.00     0.165 HD
ENDROOT
BRANCH   6  33
HETATM   33  C   UNK     0       5.243   6.133 -20.373  0.00  0.00     0.051 C 
BRANCH  33  34
HETATM   34  C   UNK     0       6.227   4.987 -20.355  0.00  0.00     0.114 C 
BRANCH  34  35
HETATM   35  C   UNK     0       7.235   5.281 -19.297  0.00  0.00     0.139 C 
HETATM   36  O   UNK     0       7.446   4.448 -18.368  0.00  0.00    -0.650 OA
BRANCH  35  37
HETATM   37  O   UNK     0       7.980   6.454 -19.277  0.00  0.00    -0.776 OA
HETATM   38  H   UNK     0       7.638   7.297 -18.844  0.00  0.00     0.167 HD
ENDBRANCH  35  37
ENDBRANCH  34  35
ENDBRANCH  33  34
ENDBRANCH   6  33
BRANCH  27  39
HETATM   39  C   UNK     0      -1.081  10.553 -16.358  0.00  0.00     0.051 C 
BRANCH  39  40
HETATM   40  C   UNK     0      -1.899  10.885 -15.192  0.00  0.00     0.114 C 
BRANCH  40  41
HETATM   41  C   UNK     0      -1.772  10.181 -13.935  0.00  0.00     0.139 C 
HETATM   42  O   UNK     0      -0.781  10.272 -13.198  0.00  0.00    -0.650 OA
BRANCH  41  43
HETATM   43  O   UNK     0      -2.833   9.333 -13.507  0.00  0.00    -0.776 OA
HETATM   44  H   UNK     0      -3.114   8.638 -14.188  0.00  0.00     0.167 HD
ENDBRANCH  41  43
ENDBRANCH  40  41
ENDBRANCH  39  40
ENDBRANCH  27  39
BRANCH  11  45
HETATM   45  C   UNK     0      -1.226   1.333 -20.865  0.00  0.00     0.051 C 
BRANCH  45  46
HETATM   46  C   UNK     0      -1.925   0.878 -19.636  0.00  0.00     0.114 C 
BRANCH  46  47
HETATM   47  C   UNK     0      -3.293   0.446 -20.041  0.00  0.00     0.139 C 
HETATM   48  O   UNK     0      -3.527   0.273 -21.245  0.00  0.00    -0.650 OA
BRANCH  47  49
HETATM   49  O   UNK     0      -4.273   0.245 -19.102  0.00  0.00    -0.776 OA
HETATM   50  H   UNK     0      -4.073   0.253 -18.095  0.00  0.00     0.167 HD
ENDBRANCH  47  49
ENDBRANCH  46  47
ENDBRANCH  45  46
ENDBRANCH  11  45
BRANCH  18  51
HETATM   51  C   UNK     0      -4.692   5.627 -16.587  0.00  0.00     0.051 C 
BRANCH  51  52
HETATM   52  C   UNK     0      -5.787   6.580 -17.042  0.00  0.00     0.114 C 
BRANCH  52  53
HETATM   53  C   UNK     0      -6.025   7.655 -16.059  0.00  0.00     0.139 C 
HETATM   54  O   UNK     0      -5.897   7.426 -14.845  0.00  0.00    -0.650 OA
BRANCH  53  55
HETATM   55  O   UNK     0      -6.391   8.905 -16.494  0.00  0.00    -0.776 OA
HETATM   56  H   UNK     0      -5.860   9.738 -16.389  0.00  0.00     0.167 HD
ENDBRANCH  53  55
ENDBRANCH  52  53
ENDBRANCH  51  52
ENDBRANCH  18  51
TORSDOF 16
ENDMDL
MODEL 14
REMARK VINA RESULT:      -7.2      2.014      7.429
REMARK  16 active torsions:
REMARK  status: ('A' for Active; 'I' for Inactive)
REMARK    1  A    between atoms: C_6  and  C_7 
REMARK    2  A    between atoms: C_7  and  C_8 
REMARK    3  A    between atoms: C_8  and  C_9 
REMARK    4  A    between atoms: C_9  and  O_11 
REMARK    5  A    between atoms: C_16  and  C_17 
REMARK    6  A    between atoms: C_17  and  C_18 
REMARK    7  A    between atoms: C_18  and  C_19 
REMARK    8  A    between atoms: C_19  and  O_21 
REMARK    9  A    between atoms: C_28  and  C_29 
REMARK   10  A    between atoms: C_29  and  C_30 
REMARK   11  A    between atoms: C_30  and  C_31 
REMARK   12  A    between atoms: C_31  and  O_33 
REMARK   13  A    between atoms: C_42  and  C_43 
REMARK   14  A    between atoms: C_43  and  C_44 
REMARK   15  A    between atoms: C_44  and  C_45 
REMARK   16  A    between atoms: C_45  and  O_47 
ROOT
HETATM    1  C   UNK     0      -4.499   4.416 -18.277  0.00  0.00     0.051 C 
HETATM    2  C   UNK     0      -4.004   5.831 -18.055  0.00  0.00    -0.031 A 
HETATM    3  C   UNK     0      -3.581   6.771 -18.983  0.00  0.00     0.021 A 
HETATM    4  N   UNK     0      -3.196   7.893 -18.329  0.00  0.00    -0.361 N 
HETATM    5  C   UNK     0      -3.371   7.691 -17.007  0.00  0.00     0.022 A 
HETATM    6  C   UNK     0      -3.873   6.411 -16.800  0.00  0.00    -0.027 A 
HETATM    7  C   UNK     0      -3.187   8.643 -15.867  0.00  0.00     0.115 C 
HETATM    8  C   UNK     0      -3.698  10.058 -16.071  0.00  0.00     0.021 A 
HETATM    9  N   UNK     0      -4.785  10.466 -16.744  0.00  0.00    -0.361 N 
HETATM   10  C   UNK     0      -4.798  11.816 -16.742  0.00  0.00     0.022 A 
HETATM   11  C   UNK     0      -3.694  12.291 -16.040  0.00  0.00    -0.027 A 
HETATM   12  C   UNK     0      -2.997  11.189 -15.614  0.00  0.00    -0.031 A 
HETATM   13  C   UNK     0      -1.722  11.221 -14.802  0.00  0.00     0.051 C 
HETATM   14  C   UNK     0      -5.817  12.709 -17.444  0.00  0.00     0.115 C 
HETATM   15  C   UNK     0      -5.861  12.525 -18.953  0.00  0.00     0.021 A 
HETATM   16  N   UNK     0      -6.118  11.394 -19.635  0.00  0.00    -0.361 N 
HETATM   17  C   UNK     0      -5.992  11.632 -20.942  0.00  0.00     0.022 A 
HETATM   18  C   UNK     0      -5.646  12.986 -21.121  0.00  0.00    -0.027 A 
HETATM   19  C   UNK     0      -5.568  13.534 -19.867  0.00  0.00    -0.031 A 
HETATM   20  C   UNK     0      -5.253  14.996 -19.603  0.00  0.00     0.051 C 
HETATM   21  C   UNK     0      -6.104  10.687 -22.118  0.00  0.00     0.115 C 
HETATM   22  C   UNK     0      -5.640   9.264 -21.915  0.00  0.00     0.022 A 
HETATM   23  N   UNK     0      -4.565   8.829 -21.246  0.00  0.00    -0.361 N 
HETATM   24  C   UNK     0      -4.614   7.482 -21.194  0.00  0.00     0.021 A 
HETATM   25  C   UNK     0      -5.744   7.039 -21.856  0.00  0.00    -0.031 A 
HETATM   26  C   UNK     0      -6.210   5.619 -22.100  0.00  0.00     0.051 C 
HETATM   27  C   UNK     0      -6.416   8.161 -22.326  0.00  0.00    -0.027 A 
HETATM   28  C   UNK     0      -3.667   6.545 -20.466  0.00  0.00     0.115 C 
HETATM   29  H   UNK     0      -2.765   8.804 -18.804  0.00  0.00     0.165 HD
HETATM   30  H   UNK     0      -5.572   9.803 -17.180  0.00  0.00     0.165 HD
HETATM   31  H   UNK     0      -6.442  10.418 -19.188  0.00  0.00     0.165 HD
HETATM   32  H   UNK     0      -3.737   9.467 -20.840  0.00  0.00     0.165 HD
ENDROOT
BRANCH   6  33
HETATM   33  C   UNK     0      -4.230   5.704 -15.517  0.00  0.00     0.051 C 
BRANCH  33  34
HETATM   34  C   UNK     0      -5.729   5.643 -15.339  0.00  0.00     0.114 C 
BRANCH  34  35
HETATM   35  C   UNK     0      -6.241   7.042 -15.385  0.00  0.00     0.139 C 
HETATM   36  O   UNK     0      -6.930   7.437 -16.371  0.00  0.00    -0.650 OA
BRANCH  35  37
HETATM   37  O   UNK     0      -5.999   7.963 -14.372  0.00  0.00    -0.776 OA
HETATM   38  H   UNK     0      -6.714   8.238 -13.718  0.00  0.00     0.167 HD
ENDBRANCH  35  37
ENDBRANCH  34  35
ENDBRANCH  33  34
ENDBRANCH   6  33
BRANCH  27  39
HETATM   39  C   UNK     0      -7.650   8.079 -23.154  0.00  0.00     0.051 C 
BRANCH  39  40
HETATM   40  C   UNK     0      -8.932   7.896 -22.474  0.00  0.00     0.114 C 
BRANCH  40  41
HETATM   41  C   UNK     0     -10.002   7.109 -23.044  0.00  0.00     0.139 C 
HETATM   42  O   UNK     0     -10.291   5.968 -22.660  0.00  0.00    -0.650 OA
BRANCH  41  43
HETATM   43  O   UNK     0     -10.775   7.660 -24.105  0.00  0.00    -0.776 OA
HETATM   44  H   UNK     0     -11.719   7.298 -24.168  0.00  0.00     0.167 HD
ENDBRANCH  41  43
ENDBRANCH  40  41
ENDBRANCH  39  40
ENDBRANCH  27  39
BRANCH  11  45
HETATM   45  C   UNK     0      -3.294  13.716 -15.766  0.00  0.00     0.051 C 
BRANCH  45  46
HETATM   46  C   UNK     0      -2.706  14.415 -16.936  0.00  0.00     0.114 C 
BRANCH  46  47
HETATM   47  C   UNK     0      -3.213  15.817 -16.913  0.00  0.00     0.139 C 
HETATM   48  O   UNK     0      -4.227  16.070 -16.247  0.00  0.00    -0.650 OA
BRANCH  47  49
HETATM   49  O   UNK     0      -2.573  16.808 -17.615  0.00  0.00    -0.776 OA
HETATM   50  H   UNK     0      -1.634  16.677 -18.009  0.00  0.00     0.167 HD
ENDBRANCH  47  49
ENDBRANCH  46  47
ENDBRANCH  45  46
ENDBRANCH  11  45
BRANCH  18  51
HETATM   51  C   UNK     0      -5.422  13.722 -22.416  0.00  0.00     0.051 C 
BRANCH  51  52
HETATM   52  C   UNK     0      -4.052  13.291 -22.920  0.00  0.00     0.114 C 
BRANCH  52  53
HETATM   53  C   UNK     0      -3.968  13.337 -24.393  0.00  0.00     0.139 C 
HETATM   54  O   UNK     0      -4.209  14.395 -24.996  0.00  0.00    -0.650 OA
BRANCH  53  55
HETATM   55  O   UNK     0      -3.627  12.204 -25.090  0.00  0.00    -0.776 OA
HETATM   56  H   UNK     0      -3.997  11.925 -25.968  0.00  0.00     0.167 HD
ENDBRANCH  53  55
ENDBRANCH  52  53
ENDBRANCH  51  52
ENDBRANCH  18  51
TORSDOF 16
ENDMDL
MODEL 15
REMARK VINA RESULT:      -7.2     13.049     16.383
REMARK  16 active torsions:
REMARK  status: ('A' for Active; 'I' for Inactive)
REMARK    1  A    between atoms: C_6  and  C_7 
REMARK    2  A    between atoms: C_7  and  C_8 
REMARK    3  A    between atoms: C_8  and  C_9 
REMARK    4  A    between atoms: C_9  and  O_11 
REMARK    5  A    between atoms: C_16  and  C_17 
REMARK    6  A    between atoms: C_17  and  C_18 
REMARK    7  A    between atoms: C_18  and  C_19 
REMARK    8  A    between atoms: C_19  and  O_21 
REMARK    9  A    between atoms: C_28  and  C_29 
REMARK   10  A    between atoms: C_29  and  C_30 
REMARK   11  A    between atoms: C_30  and  C_31 
REMARK   12  A    between atoms: C_31  and  O_33 
REMARK   13  A    between atoms: C_42  and  C_43 
REMARK   14  A    between atoms: C_43  and  C_44 
REMARK   15  A    between atoms: C_44  and  C_45 
REMARK   16  A    between atoms: C_45  and  O_47 
ROOT
HETATM    1  C   UNK     0       4.795   6.038 -15.704  0.00  0.00     0.051 C 
HETATM    2  C   UNK     0       5.428   6.172 -17.074  0.00  0.00    -0.031 A 
HETATM    3  C   UNK     0       6.019   7.277 -17.666  0.00  0.00     0.021 A 
HETATM    4  N   UNK     0       6.423   6.945 -18.915  0.00  0.00    -0.361 N 
HETATM    5  C   UNK     0       6.110   5.651 -19.129  0.00  0.00     0.022 A 
HETATM    6  C   UNK     0       5.484   5.137 -17.998  0.00  0.00    -0.027 A 
HETATM    7  C   UNK     0       6.422   4.778 -20.305  0.00  0.00     0.115 C 
HETATM    8  C   UNK     0       7.817   4.897 -20.892  0.00  0.00     0.021 A 
HETATM    9  N   UNK     0       8.977   5.116 -20.253  0.00  0.00    -0.361 N 
HETATM   10  C   UNK     0       9.949   5.240 -21.181  0.00  0.00     0.022 A 
HETATM   11  C   UNK     0       9.402   5.088 -22.452  0.00  0.00    -0.027 A 
HETATM   12  C   UNK     0       8.059   4.871 -22.277  0.00  0.00    -0.031 A 
HETATM   13  C   UNK     0       7.058   4.645 -23.387  0.00  0.00     0.051 C 
HETATM   14  C   UNK     0      11.417   5.559 -20.911  0.00  0.00     0.115 C 
HETATM   15  C   UNK     0      11.641   6.898 -20.227  0.00  0.00     0.021 A 
HETATM   16  N   UNK     0      11.151   7.307 -19.042  0.00  0.00    -0.361 N 
HETATM   17  C   UNK     0      11.519   8.572 -18.828  0.00  0.00     0.022 A 
HETATM   18  C   UNK     0      12.295   9.005 -19.922  0.00  0.00    -0.027 A 
HETATM   19  C   UNK     0      12.364   7.947 -20.791  0.00  0.00    -0.031 A 
HETATM   20  C   UNK     0      13.141   7.975 -22.094  0.00  0.00     0.051 C 
HETATM   21  C   UNK     0      11.173   9.506 -17.691  0.00  0.00     0.115 C 
HETATM   22  C   UNK     0       9.803   9.369 -17.068  0.00  0.00     0.022 A 
HETATM   23  N   UNK     0       8.632   9.147 -17.679  0.00  0.00    -0.361 N 
HETATM   24  C   UNK     0       7.692   8.949 -16.733  0.00  0.00     0.021 A 
HETATM   25  C   UNK     0       8.270   9.056 -15.482  0.00  0.00    -0.031 A 
HETATM   26  C   UNK     0       7.618   8.954 -14.119  0.00  0.00     0.051 C 
HETATM   27  C   UNK     0       9.621   9.325 -15.671  0.00  0.00    -0.027 A 
HETATM   28  C   UNK     0       6.234   8.572 -16.935  0.00  0.00     0.115 C 
HETATM   29  H   UNK     0       6.890   7.639 -19.652  0.00  0.00     0.165 HD
HETATM   30  H   UNK     0       9.121   5.134 -19.145  0.00  0.00     0.165 HD
HETATM   31  H   UNK     0      10.573   6.675 -18.318  0.00  0.00     0.165 HD
HETATM   32  H   UNK     0       8.450   9.170 -18.785  0.00  0.00     0.165 HD
ENDROOT
BRANCH   6  33
HETATM   33  C   UNK     0       4.940   3.755 -17.734  0.00  0.00     0.051 C 
BRANCH  33  34
HETATM   34  C   UNK     0       6.029   2.840 -17.225  0.00  0.00     0.114 C 
BRANCH  34  35
HETATM   35  C   UNK     0       5.744   2.563 -15.788  0.00  0.00     0.139 C 
HETATM   36  O   UNK     0       4.847   1.731 -15.465  0.00  0.00    -0.650 OA
BRANCH  35  37
HETATM   37  O   UNK     0       6.433   3.186 -14.754  0.00  0.00    -0.776 OA
HETATM   38  H   UNK     0       5.988   3.424 -13.883  0.00  0.00     0.167 HD
ENDBRANCH  35  37
ENDBRANCH  34  35
ENDBRANCH  33  34
ENDBRANCH   6  33
BRANCH  27  39
HETATM   39  C   UNK     0      10.561   9.578 -14.546  0.00  0.00     0.051 C 
BRANCH  39  40
HETATM   40  C   UNK     0      11.434   8.488 -14.113  0.00  0.00     0.114 C 
BRANCH  40  41
HETATM   41  C   UNK     0      11.143   7.684 -12.947  0.00  0.00     0.139 C 
HETATM   42  O   UNK     0      10.263   7.969 -12.123  0.00  0.00    -0.650 OA
BRANCH  41  43
HETATM   43  O   UNK     0      11.898   6.499 -12.718  0.00  0.00    -0.776 OA
HETATM   44  H   UNK     0      12.605   6.311 -13.418  0.00  0.00     0.167 HD
ENDBRANCH  41  43
ENDBRANCH  40  41
ENDBRANCH  39  40
ENDBRANCH  27  39
BRANCH  11  45
HETATM   45  C   UNK     0      10.095   5.137 -23.787  0.00  0.00     0.051 C 
BRANCH  45  46
HETATM   46  C   UNK     0      10.293   6.510 -24.317  0.00  0.00     0.114 C 
BRANCH  46  47
HETATM   47  C   UNK     0      11.550   6.497 -25.119  0.00  0.00     0.139 C 
HETATM   48  O   UNK     0      12.410   5.644 -24.858  0.00  0.00    -0.650 OA
BRANCH  47  49
HETATM   49  O   UNK     0      11.753   7.410 -26.123  0.00  0.00    -0.776 OA
HETATM   50  H   UNK     0      10.973   7.884 -26.594  0.00  0.00     0.167 HD
ENDBRANCH  47  49
ENDBRANCH  46  47
ENDBRANCH  45  46
ENDBRANCH  11  45
BRANCH  18  51
HETATM   51  C   UNK     0      12.951  10.347 -20.119  0.00  0.00     0.051 C 
BRANCH  51  52
HETATM   52  C   UNK     0      14.322  10.250 -19.467  0.00  0.00     0.114 C 
BRANCH  52  53
HETATM   53  C   UNK     0      14.605  11.414 -18.606  0.00  0.00     0.139 C 
HETATM   54  O   UNK     0      14.119  11.477 -17.465  0.00  0.00    -0.650 OA
BRANCH  53  55
HETATM   55  O   UNK     0      15.405  12.428 -19.074  0.00  0.00    -0.776 OA
HETATM   56  H   UNK     0      15.220  13.001 -19.864  0.00  0.00     0.167 HD
ENDBRANCH  53  55
ENDBRANCH  52  53
ENDBRANCH  51  52
ENDBRANCH  18  51
TORSDOF 16
ENDMDL
MODEL 16
REMARK VINA RESULT:      -7.2     14.926     19.159
REMARK  16 active torsions:
REMARK  status: ('A' for Active; 'I' for Inactive)
REMARK    1  A    between atoms: C_6  and  C_7 
REMARK    2  A    between atoms: C_7  and  C_8 
REMARK    3  A    between atoms: C_8  and  C_9 
REMARK    4  A    between atoms: C_9  and  O_11 
REMARK    5  A    between atoms: C_16  and  C_17 
REMARK    6  A    between atoms: C_17  and  C_18 
REMARK    7  A    between atoms: C_18  and  C_19 
REMARK    8  A    between atoms: C_19  and  O_21 
REMARK    9  A    between atoms: C_28  and  C_29 
REMARK   10  A    between atoms: C_29  and  C_30 
REMARK   11  A    between atoms: C_30  and  C_31 
REMARK   12  A    between atoms: C_31  and  O_33 
REMARK   13  A    between atoms: C_42  and  C_43 
REMARK   14  A    between atoms: C_43  and  C_44 
REMARK   15  A    between atoms: C_44  and  C_45 
REMARK   16  A    between atoms: C_45  and  O_47 
ROOT
HETATM    1  C   UNK     0      11.349  17.490  -6.794  0.00  0.00     0.051 C 
HETATM    2  C   UNK     0      10.603  16.621  -7.786  0.00  0.00    -0.031 A 
HETATM    3  C   UNK     0      10.883  16.369  -9.119  0.00  0.00     0.021 A 
HETATM    4  N   UNK     0       9.925  15.555  -9.625  0.00  0.00    -0.361 N 
HETATM    5  C   UNK     0       9.046  15.277  -8.641  0.00  0.00     0.022 A 
HETATM    6  C   UNK     0       9.438  15.931  -7.477  0.00  0.00    -0.027 A 
HETATM    7  C   UNK     0       7.865  14.357  -8.651  0.00  0.00     0.115 C 
HETATM    8  C   UNK     0       8.054  13.014  -9.334  0.00  0.00     0.021 A 
HETATM    9  N   UNK     0       9.149  12.240  -9.368  0.00  0.00    -0.361 N 
HETATM   10  C   UNK     0       8.891  11.184 -10.168  0.00  0.00     0.022 A 
HETATM   11  C   UNK     0       7.590  11.275 -10.654  0.00  0.00    -0.027 A 
HETATM   12  C   UNK     0       7.057  12.426 -10.133  0.00  0.00    -0.031 A 
HETATM   13  C   UNK     0       5.655  12.933 -10.386  0.00  0.00     0.051 C 
HETATM   14  C   UNK     0       9.872  10.078 -10.547  0.00  0.00     0.115 C 
HETATM   15  C   UNK     0      11.103  10.576 -11.288  0.00  0.00     0.021 A 
HETATM   16  N   UNK     0      12.008  11.478 -10.864  0.00  0.00    -0.361 N 
HETATM   17  C   UNK     0      12.899  11.694 -11.835  0.00  0.00     0.022 A 
HETATM   18  C   UNK     0      12.563  10.888 -12.940  0.00  0.00    -0.027 A 
HETATM   19  C   UNK     0      11.438  10.191 -12.584  0.00  0.00    -0.031 A 
HETATM   20  C   UNK     0      10.758   9.172 -13.480  0.00  0.00     0.051 C 
HETATM   21  C   UNK     0      14.061  12.659 -11.889  0.00  0.00     0.115 C 
HETATM   22  C   UNK     0      13.904  13.982 -11.176  0.00  0.00     0.022 A 
HETATM   23  N   UNK     0      12.824  14.772 -11.121  0.00  0.00    -0.361 N 
HETATM   24  C   UNK     0      13.078  15.776 -10.258  0.00  0.00     0.021 A 
HETATM   25  C   UNK     0      14.356  15.635  -9.752  0.00  0.00    -0.031 A 
HETATM   26  C   UNK     0      15.104  16.531  -8.787  0.00  0.00     0.051 C 
HETATM   27  C   UNK     0      14.905  14.494 -10.325  0.00  0.00    -0.027 A 
HETATM   28  C   UNK     0      12.128  16.868  -9.797  0.00  0.00     0.115 C 
HETATM   29  H   UNK     0       9.856  15.216 -10.684  0.00  0.00     0.165 HD
HETATM   30  H   UNK     0      10.090  12.410  -8.790  0.00  0.00     0.165 HD
HETATM   31  H   UNK     0      12.048  11.936  -9.842  0.00  0.00     0.165 HD
HETATM   32  H   UNK     0      11.888  14.652 -11.725  0.00  0.00     0.165 HD
ENDROOT
BRANCH   6  33
HETATM   33  C   UNK     0       8.797  15.950  -6.112  0.00  0.00     0.051 C 
BRANCH  33  34
HETATM   34  C   UNK     0       7.827  17.101  -5.993  0.00  0.00     0.114 C 
BRANCH  34  35
HETATM   35  C   UNK     0       7.687  17.419  -4.543  0.00  0.00     0.139 C 
HETATM   36  O   UNK     0       6.662  18.028  -4.120  0.00  0.00    -0.650 OA
BRANCH  35  37
HETATM   37  O   UNK     0       8.651  17.071  -3.604  0.00  0.00    -0.776 OA
HETATM   38  H   UNK     0       9.442  17.662  -3.406  0.00  0.00     0.167 HD
ENDBRANCH  35  37
ENDBRANCH  34  35
ENDBRANCH  33  34
ENDBRANCH   6  33
BRANCH  27  39
HETATM   39  C   UNK     0      16.305  14.054 -10.075  0.00  0.00     0.051 C 
BRANCH  39  40
HETATM   40  C   UNK     0      17.379  14.689 -10.839  0.00  0.00     0.114 C 
BRANCH  40  41
HETATM   41  C   UNK     0      17.549  14.468 -12.257  0.00  0.00     0.139 C 
HETATM   42  O   UNK     0      16.956  15.121 -13.126  0.00  0.00    -0.650 OA
BRANCH  41  43
HETATM   43  O   UNK     0      18.444  13.451 -12.696  0.00  0.00    -0.776 OA
HETATM   44  H   UNK     0      18.938  12.977 -11.950  0.00  0.00     0.167 HD
ENDBRANCH  41  43
ENDBRANCH  40  41
ENDBRANCH  39  40
ENDBRANCH  27  39
BRANCH  11  45
HETATM   45  C   UNK     0       6.858  10.331 -11.570  0.00  0.00     0.051 C 
BRANCH  45  46
HETATM   46  C   UNK     0       6.967  10.676 -13.010  0.00  0.00     0.114 C 
BRANCH  46  47
HETATM   47  C   UNK     0       5.633  10.424 -13.627  0.00  0.00     0.139 C 
HETATM   48  O   UNK     0       4.619  10.785 -13.013  0.00  0.00    -0.650 OA
BRANCH  47  49
HETATM   49  O   UNK     0       5.529   9.804 -14.847  0.00  0.00    -0.776 OA
HETATM   50  H   UNK     0       5.938   8.879 -15.025  0.00  0.00     0.167 HD
ENDBRANCH  47  49
ENDBRANCH  46  47
ENDBRANCH  45  46
ENDBRANCH  11  45
BRANCH  18  51
HETATM   51  C   UNK     0      13.288  10.772 -14.256  0.00  0.00     0.051 C 
BRANCH  51  52
HETATM   52  C   UNK     0      12.695  11.838 -15.165  0.00  0.00     0.114 C 
BRANCH  52  53
HETATM   53  C   UNK     0      12.157  11.261 -16.411  0.00  0.00     0.139 C 
HETATM   54  O   UNK     0      12.145  10.030 -16.572  0.00  0.00    -0.650 OA
BRANCH  53  55
HETATM   55  O   UNK     0      11.674  12.093 -17.392  0.00  0.00    -0.776 OA
HETATM   56  H   UNK     0      10.745  12.105 -17.742  0.00  0.00     0.167 HD
ENDBRANCH  53  55
ENDBRANCH  52  53
ENDBRANCH  51  52
ENDBRANCH  18  51
TORSDOF 16
ENDMDL
MODEL 17
REMARK VINA RESULT:      -7.1      4.337      8.621
REMARK  16 active torsions:
REMARK  status: ('A' for Active; 'I' for Inactive)
REMARK    1  A    between atoms: C_6  and  C_7 
REMARK    2  A    between atoms: C_7  and  C_8 
REMARK    3  A    between atoms: C_8  and  C_9 
REMARK    4  A    between atoms: C_9  and  O_11 
REMARK    5  A    between atoms: C_16  and  C_17 
REMARK    6  A    between atoms: C_17  and  C_18 
REMARK    7  A    between atoms: C_18  and  C_19 
REMARK    8  A    between atoms: C_19  and  O_21 
REMARK    9  A    between atoms: C_28  and  C_29 
REMARK   10  A    between atoms: C_29  and  C_30 
REMARK   11  A    between atoms: C_30  and  C_31 
REMARK   12  A    between atoms: C_31  and  O_33 
REMARK   13  A    between atoms: C_42  and  C_43 
REMARK   14  A    between atoms: C_43  and  C_44 
REMARK   15  A    between atoms: C_44  and  C_45 
REMARK   16  A    between atoms: C_45  and  O_47 
ROOT
HETATM    1  C   UNK     0       3.267   3.366 -19.258  0.00  0.00     0.051 C 
HETATM    2  C   UNK     0       2.521   4.653 -18.974  0.00  0.00    -0.031 A 
HETATM    3  C   UNK     0       1.415   5.190 -19.616  0.00  0.00     0.021 A 
HETATM    4  N   UNK     0       1.106   6.377 -19.043  0.00  0.00    -0.361 N 
HETATM    5  C   UNK     0       1.984   6.605 -18.045  0.00  0.00     0.022 A 
HETATM    6  C   UNK     0       2.885   5.548 -17.976  0.00  0.00    -0.027 A 
HETATM    7  C   UNK     0       2.025   7.722 -17.049  0.00  0.00     0.115 C 
HETATM    8  C   UNK     0       0.698   8.142 -16.443  0.00  0.00     0.021 A 
HETATM    9  N   UNK     0      -0.356   7.375 -16.123  0.00  0.00    -0.361 N 
HETATM   10  C   UNK     0      -1.350   8.184 -15.700  0.00  0.00     0.022 A 
HETATM   11  C   UNK     0      -0.922   9.508 -15.738  0.00  0.00    -0.027 A 
HETATM   12  C   UNK     0       0.368   9.489 -16.205  0.00  0.00    -0.031 A 
HETATM   13  C   UNK     0       1.242  10.706 -16.409  0.00  0.00     0.051 C 
HETATM   14  C   UNK     0      -2.756   7.749 -15.294  0.00  0.00     0.115 C 
HETATM   15  C   UNK     0      -3.534   7.065 -16.406  0.00  0.00     0.021 A 
HETATM   16  N   UNK     0      -3.193   5.952 -17.083  0.00  0.00    -0.361 N 
HETATM   17  C   UNK     0      -4.106   5.717 -18.028  0.00  0.00     0.022 A 
HETATM   18  C   UNK     0      -5.094   6.719 -17.957  0.00  0.00    -0.027 A 
HETATM   19  C   UNK     0      -4.725   7.556 -16.937  0.00  0.00    -0.031 A 
HETATM   20  C   UNK     0      -5.538   8.759 -16.496  0.00  0.00     0.051 C 
HETATM   21  C   UNK     0      -4.149   4.643 -19.092  0.00  0.00     0.115 C 
HETATM   22  C   UNK     0      -2.832   4.184 -19.672  0.00  0.00     0.022 A 
HETATM   23  N   UNK     0      -1.764   4.925 -19.996  0.00  0.00    -0.361 N 
HETATM   24  C   UNK     0      -0.761   4.093 -20.342  0.00  0.00     0.021 A 
HETATM   25  C   UNK     0      -1.196   2.785 -20.247  0.00  0.00    -0.031 A 
HETATM   26  C   UNK     0      -0.450   1.506 -20.568  0.00  0.00     0.051 C 
HETATM   27  C   UNK     0      -2.519   2.818 -19.821  0.00  0.00    -0.027 A 
HETATM   28  C   UNK     0       0.670   4.459 -20.697  0.00  0.00     0.115 C 
HETATM   29  H   UNK     0       0.293   7.065 -19.374  0.00  0.00     0.165 HD
HETATM   30  H   UNK     0      -0.385   6.258 -16.148  0.00  0.00     0.165 HD
HETATM   31  H   UNK     0      -2.315   5.291 -16.859  0.00  0.00     0.165 HD
HETATM   32  H   UNK     0      -1.722   6.045 -20.026  0.00  0.00     0.165 HD
ENDROOT
BRANCH   6  33
HETATM   33  C   UNK     0       4.053   5.327 -17.048  0.00  0.00     0.051 C 
BRANCH  33  34
HETATM   34  C   UNK     0       3.583   4.792 -15.716  0.00  0.00     0.114 C 
BRANCH  34  35
HETATM   35  C   UNK     0       3.950   3.348 -15.661  0.00  0.00     0.139 C 
HETATM   36  O   UNK     0       5.004   2.936 -16.226  0.00  0.00    -0.650 OA
BRANCH  35  37
HETATM   37  O   UNK     0       3.174   2.403 -15.000  0.00  0.00    -0.776 OA
HETATM   38  H   UNK     0       2.799   2.568 -14.080  0.00  0.00     0.167 HD
ENDBRANCH  35  37
ENDBRANCH  34  35
ENDBRANCH  33  34
ENDBRANCH   6  33
BRANCH  27  39
HETATM   39  C   UNK     0      -3.353   1.594 -19.671  0.00  0.00     0.051 C 
BRANCH  39  40
HETATM   40  C   UNK     0      -4.257   1.232 -20.762  0.00  0.00     0.114 C 
BRANCH  40  41
HETATM   41  C   UNK     0      -3.794   0.565 -21.958  0.00  0.00     0.139 C 
HETATM   42  O   UNK     0      -3.175   1.139 -22.865  0.00  0.00    -0.650 OA
BRANCH  41  43
HETATM   43  O   UNK     0      -4.054  -0.825 -22.119  0.00  0.00    -0.776 OA
HETATM   44  H   UNK     0      -3.242  -1.420 -21.998  0.00  0.00     0.167 HD
ENDBRANCH  41  43
ENDBRANCH  40  41
ENDBRANCH  39  40
ENDBRANCH  27  39
BRANCH  11  45
HETATM   45  C   UNK     0      -1.675  10.753 -15.354  0.00  0.00     0.051 C 
BRANCH  45  46
HETATM   46  C   UNK     0      -1.748  10.990 -13.890  0.00  0.00     0.114 C 
BRANCH  46  47
HETATM   47  C   UNK     0      -3.125  10.624 -13.451  0.00  0.00     0.139 C 
HETATM   48  O   UNK     0      -4.087  11.033 -14.117  0.00  0.00    -0.650 OA
BRANCH  47  49
HETATM   49  O   UNK     0      -3.325   9.854 -12.334  0.00  0.00    -0.776 OA
HETATM   50  H   UNK     0      -3.146   8.843 -12.330  0.00  0.00     0.167 HD
ENDBRANCH  47  49
ENDBRANCH  46  47
ENDBRANCH  45  46
ENDBRANCH  11  45
BRANCH  18  51
HETATM   51  C   UNK     0      -6.334   6.858 -18.802  0.00  0.00     0.051 C 
BRANCH  51  52
HETATM   52  C   UNK     0      -5.999   7.871 -19.887  0.00  0.00     0.114 C 
BRANCH  52  53
HETATM   53  C   UNK     0      -7.136   8.766 -20.173  0.00  0.00     0.139 C 
HETATM   54  O   UNK     0      -7.801   8.614 -21.210  0.00  0.00    -0.650 OA
BRANCH  53  55
HETATM   55  O   UNK     0      -7.451   9.769 -19.289  0.00  0.00    -0.776 OA
HETATM   56  H   UNK     0      -7.709   9.650 -18.338  0.00  0.00     0.167 HD
ENDBRANCH  53  55
ENDBRANCH  52  53
ENDBRANCH  51  52
ENDBRANCH  18  51
TORSDOF 16
ENDMDL
MODEL 18
REMARK VINA RESULT:      -7.1      5.004     10.593
REMARK  16 active torsions:
REMARK  status: ('A' for Active; 'I' for Inactive)
REMARK    1  A    between atoms: C_6  and  C_7 
REMARK    2  A    between atoms: C_7  and  C_8 
REMARK    3  A    between atoms: C_8  and  C_9 
REMARK    4  A    between atoms: C_9  and  O_11 
REMARK    5  A    between atoms: C_16  and  C_17 
REMARK    6  A    between atoms: C_17  and  C_18 
REMARK    7  A    between atoms: C_18  and  C_19 
REMARK    8  A    between atoms: C_19  and  O_21 
REMARK    9  A    between atoms: C_28  and  C_29 
REMARK   10  A    between atoms: C_29  and  C_30 
REMARK   11  A    between atoms: C_30  and  C_31 
REMARK   12  A    between atoms: C_31  and  O_33 
REMARK   13  A    between atoms: C_42  and  C_43 
REMARK   14  A    between atoms: C_43  and  C_44 
REMARK   15  A    between atoms: C_44  and  C_45 
REMARK   16  A    between atoms: C_45  and  O_47 
ROOT
HETATM    1  C   UNK     0      -4.313   0.648 -22.510  0.00  0.00     0.051 C 
HETATM    2  C   UNK     0      -4.034   1.420 -21.236  0.00  0.00    -0.031 A 
HETATM    3  C   UNK     0      -2.922   1.382 -20.410  0.00  0.00     0.021 A 
HETATM    4  N   UNK     0      -3.120   2.219 -19.364  0.00  0.00    -0.361 N 
HETATM    5  C   UNK     0      -4.331   2.796 -19.510  0.00  0.00     0.022 A 
HETATM    6  C   UNK     0      -4.931   2.316 -20.669  0.00  0.00    -0.027 A 
HETATM    7  C   UNK     0      -4.984   3.859 -18.683  0.00  0.00     0.115 C 
HETATM    8  C   UNK     0      -4.103   5.013 -18.238  0.00  0.00     0.021 A 
HETATM    9  N   UNK     0      -3.097   5.602 -18.902  0.00  0.00    -0.361 N 
HETATM   10  C   UNK     0      -2.537   6.521 -18.087  0.00  0.00     0.022 A 
HETATM   11  C   UNK     0      -3.208   6.531 -16.867  0.00  0.00    -0.027 A 
HETATM   12  C   UNK     0      -4.196   5.584 -16.956  0.00  0.00    -0.031 A 
HETATM   13  C   UNK     0      -5.184   5.247 -15.862  0.00  0.00     0.051 C 
HETATM   14  C   UNK     0      -1.320   7.385 -18.404  0.00  0.00     0.115 C 
HETATM   15  C   UNK     0      -0.055   6.589 -18.682  0.00  0.00     0.021 A 
HETATM   16  N   UNK     0       0.136   5.658 -19.636  0.00  0.00    -0.361 N 
HETATM   17  C   UNK     0       1.360   5.142 -19.506  0.00  0.00     0.022 A 
HETATM   18  C   UNK     0       2.000   5.773 -18.421  0.00  0.00    -0.027 A 
HETATM   19  C   UNK     0       1.104   6.678 -17.914  0.00  0.00    -0.031 A 
HETATM   20  C   UNK     0       1.406   7.604 -16.750  0.00  0.00     0.051 C 
HETATM   21  C   UNK     0       2.031   4.026 -20.274  0.00  0.00     0.115 C 
HETATM   22  C   UNK     0       1.159   2.892 -20.761  0.00  0.00     0.022 A 
HETATM   23  N   UNK     0       0.148   2.289 -20.123  0.00  0.00    -0.361 N 
HETATM   24  C   UNK     0      -0.444   1.434 -20.981  0.00  0.00     0.021 A 
HETATM   25  C   UNK     0       0.208   1.479 -22.197  0.00  0.00    -0.031 A 
HETATM   26  C   UNK     0      -0.060   0.676 -23.454  0.00  0.00     0.051 C 
HETATM   27  C   UNK     0       1.239   2.405 -22.082  0.00  0.00    -0.027 A 
HETATM   28  C   UNK     0      -1.688   0.593 -20.745  0.00  0.00     0.115 C 
HETATM   29  H   UNK     0      -2.420   2.366 -18.509  0.00  0.00     0.165 HD
HETATM   30  H   UNK     0      -2.811   5.407 -19.965  0.00  0.00     0.165 HD
HETATM   31  H   UNK     0      -0.590   5.393 -20.449  0.00  0.00     0.165 HD
HETATM   32  H   UNK     0      -0.132   2.431 -19.046  0.00  0.00     0.165 HD
ENDROOT
BRANCH   6  33
HETATM   33  C   UNK     0      -6.276   2.639 -21.270  0.00  0.00     0.051 C 
BRANCH  33  34
HETATM   34  C   UNK     0      -6.212   3.920 -22.067  0.00  0.00     0.114 C 
BRANCH  34  35
HETATM   35  C   UNK     0      -7.596   4.469 -22.143  0.00  0.00     0.139 C 
HETATM   36  O   UNK     0      -7.808   5.697 -21.920  0.00  0.00    -0.650 OA
BRANCH  35  37
HETATM   37  O   UNK     0      -8.698   3.682 -22.456  0.00  0.00    -0.776 OA
HETATM   38  H   UNK     0      -8.677   2.678 -22.379  0.00  0.00     0.167 HD
ENDBRANCH  35  37
ENDBRANCH  34  35
ENDBRANCH  33  34
ENDBRANCH   6  33
BRANCH  27  39
HETATM   39  C   UNK     0       2.212   2.677 -23.175  0.00  0.00     0.051 C 
BRANCH  39  40
HETATM   40  C   UNK     0       3.415   1.849 -23.254  0.00  0.00     0.114 C 
BRANCH  40  41
HETATM   41  C   UNK     0       4.564   2.077 -22.406  0.00  0.00     0.139 C 
HETATM   42  O   UNK     0       5.598   2.638 -22.793  0.00  0.00    -0.650 OA
BRANCH  41  43
HETATM   43  O   UNK     0       4.521   1.640 -21.052  0.00  0.00    -0.776 OA
HETATM   44  H   UNK     0       5.429   1.558 -20.609  0.00  0.00     0.167 HD
ENDBRANCH  41  43
ENDBRANCH  40  41
ENDBRANCH  39  40
ENDBRANCH  27  39
BRANCH  11  45
HETATM   45  C   UNK     0      -2.949   7.388 -15.657  0.00  0.00     0.051 C 
BRANCH  45  46
HETATM   46  C   UNK     0      -3.651   8.697 -15.681  0.00  0.00     0.114 C 
BRANCH  46  47
HETATM   47  C   UNK     0      -4.460   8.787 -14.431  0.00  0.00     0.139 C 
HETATM   48  O   UNK     0      -3.926   9.247 -13.412  0.00  0.00    -0.650 OA
BRANCH  47  49
HETATM   49  O   UNK     0      -5.766   8.368 -14.408  0.00  0.00    -0.776 OA
HETATM   50  H   UNK     0      -6.020   7.373 -14.432  0.00  0.00     0.167 HD
ENDBRANCH  47  49
ENDBRANCH  46  47
ENDBRANCH  45  46
ENDBRANCH  11  45
BRANCH  18  51
HETATM   51  C   UNK     0       3.398   5.541 -17.908  0.00  0.00     0.051 C 
BRANCH  51  52
HETATM   52  C   UNK     0       3.288   4.455 -16.848  0.00  0.00     0.114 C 
BRANCH  52  53
HETATM   53  C   UNK     0       4.006   3.227 -17.242  0.00  0.00     0.139 C 
HETATM   54  O   UNK     0       3.913   2.203 -16.548  0.00  0.00    -0.650 OA
BRANCH  53  55
HETATM   55  O   UNK     0       4.780   3.228 -18.378  0.00  0.00    -0.776 OA
HETATM   56  H   UNK     0       4.921   3.998 -18.987  0.00  0.00     0.167 HD
ENDBRANCH  53  55
ENDBRANCH  52  53
ENDBRANCH  51  52
ENDBRANCH  18  51
TORSDOF 16
ENDMDL
MODEL 19
REMARK VINA RESULT:      -7.1      2.106      7.198
REMARK  16 active torsions:
REMARK  status: ('A' for Active; 'I' for Inactive)
REMARK    1  A    between atoms: C_6  and  C_7 
REMARK    2  A    between atoms: C_7  and  C_8 
REMARK    3  A    between atoms: C_8  and  C_9 
REMARK    4  A    between atoms: C_9  and  O_11 
REMARK    5  A    between atoms: C_16  and  C_17 
REMARK    6  A    between atoms: C_17  and  C_18 
REMARK    7  A    between atoms: C_18  and  C_19 
REMARK    8  A    between atoms: C_19  and  O_21 
REMARK    9  A    between atoms: C_28  and  C_29 
REMARK   10  A    between atoms: C_29  and  C_30 
REMARK   11  A    between atoms: C_30  and  C_31 
REMARK   12  A    between atoms: C_31  and  O_33 
REMARK   13  A    between atoms: C_42  and  C_43 
REMARK   14  A    between atoms: C_43  and  C_44 
REMARK   15  A    between atoms: C_44  and  C_45 
REMARK   16  A    between atoms: C_45  and  O_47 
ROOT
HETATM    1  C   UNK     0      -5.347   5.556 -14.973  0.00  0.00     0.051 C 
HETATM    2  C   UNK     0      -5.419   6.072 -16.395  0.00  0.00    -0.031 A 
HETATM    3  C   UNK     0      -5.854   7.301 -16.864  0.00  0.00     0.021 A 
HETATM    4  N   UNK     0      -5.771   7.313 -18.216  0.00  0.00    -0.361 N 
HETATM    5  C   UNK     0      -5.284   6.121 -18.618  0.00  0.00     0.022 A 
HETATM    6  C   UNK     0      -5.055   5.319 -17.504  0.00  0.00    -0.027 A 
HETATM    7  C   UNK     0      -4.916   5.657 -19.993  0.00  0.00     0.115 C 
HETATM    8  C   UNK     0      -4.170   6.648 -20.869  0.00  0.00     0.021 A 
HETATM    9  N   UNK     0      -3.252   7.558 -20.508  0.00  0.00    -0.361 N 
HETATM   10  C   UNK     0      -2.927   8.282 -21.599  0.00  0.00     0.022 A 
HETATM   11  C   UNK     0      -3.649   7.820 -22.696  0.00  0.00    -0.027 A 
HETATM   12  C   UNK     0      -4.433   6.790 -22.243  0.00  0.00    -0.031 A 
HETATM   13  C   UNK     0      -5.387   5.980 -23.091  0.00  0.00     0.051 C 
HETATM   14  C   UNK     0      -1.967   9.468 -21.642  0.00  0.00     0.115 C 
HETATM   15  C   UNK     0      -2.391  10.635 -20.764  0.00  0.00     0.021 A 
HETATM   16  N   UNK     0      -2.604  10.628 -19.435  0.00  0.00    -0.361 N 
HETATM   17  C   UNK     0      -3.033  11.833 -19.053  0.00  0.00     0.022 A 
HETATM   18  C   UNK     0      -3.093  12.668 -20.186  0.00  0.00    -0.027 A 
HETATM   19  C   UNK     0      -2.687  11.906 -21.251  0.00  0.00    -0.031 A 
HETATM   20  C   UNK     0      -2.569  12.433 -22.669  0.00  0.00     0.051 C 
HETATM   21  C   UNK     0      -3.476  12.320 -17.692  0.00  0.00     0.115 C 
HETATM   22  C   UNK     0      -4.181  11.333 -16.793  0.00  0.00     0.022 A 
HETATM   23  N   UNK     0      -5.096  10.413 -17.126  0.00  0.00    -0.361 N 
HETATM   24  C   UNK     0      -5.347   9.653 -16.041  0.00  0.00     0.021 A 
HETATM   25  C   UNK     0      -4.582  10.100 -14.980  0.00  0.00    -0.031 A 
HETATM   26  C   UNK     0      -4.545   9.597 -13.552  0.00  0.00     0.051 C 
HETATM   27  C   UNK     0      -3.828  11.175 -15.437  0.00  0.00    -0.027 A 
HETATM   28  C   UNK     0      -6.242   8.429 -15.950  0.00  0.00     0.115 C 
HETATM   29  H   UNK     0      -6.095   8.148 -18.879  0.00  0.00     0.165 HD
HETATM   30  H   UNK     0      -2.794   7.658 -19.493  0.00  0.00     0.165 HD
HETATM   31  H   UNK     0      -2.403   9.768 -18.743  0.00  0.00     0.165 HD
HETATM   32  H   UNK     0      -5.606  10.319 -18.120  0.00  0.00     0.165 HD
ENDROOT
BRANCH   6  33
HETATM   33  C   UNK     0      -4.526   3.910 -17.416  0.00  0.00     0.051 C 
BRANCH  33  34
HETATM   34  C   UNK     0      -3.403   3.697 -18.402  0.00  0.00     0.114 C 
BRANCH  34  35
HETATM   35  C   UNK     0      -3.150   2.229 -18.482  0.00  0.00     0.139 C 
HETATM   36  O   UNK     0      -2.422   1.757 -19.402  0.00  0.00    -0.650 OA
BRANCH  35  37
HETATM   37  O   UNK     0      -3.686   1.327 -17.571  0.00  0.00    -0.776 OA
HETATM   38  H   UNK     0      -4.437   1.577 -16.949  0.00  0.00     0.167 HD
ENDBRANCH  35  37
ENDBRANCH  34  35
ENDBRANCH  33  34
ENDBRANCH   6  33
BRANCH  27  39
HETATM   39  C   UNK     0      -2.929  11.968 -14.555  0.00  0.00     0.051 C 
BRANCH  39  40
HETATM   40  C   UNK     0      -1.490  11.716 -14.622  0.00  0.00     0.114 C 
BRANCH  40  41
HETATM   41  C   UNK     0      -0.919  10.424 -14.312  0.00  0.00     0.139 C 
HETATM   42  O   UNK     0      -0.349   9.711 -15.149  0.00  0.00    -0.650 OA
BRANCH  41  43
HETATM   43  O   UNK     0      -1.007   9.932 -12.979  0.00  0.00    -0.776 OA
HETATM   44  H   UNK     0      -0.519   9.058 -12.822  0.00  0.00     0.167 HD
ENDBRANCH  41  43
ENDBRANCH  40  41
ENDBRANCH  39  40
ENDBRANCH  27  39
BRANCH  11  45
HETATM   45  C   UNK     0      -3.615   8.309 -24.119  0.00  0.00     0.051 C 
BRANCH  45  46
HETATM   46  C   UNK     0      -4.126   9.692 -24.297  0.00  0.00     0.114 C 
BRANCH  46  47
HETATM   47  C   UNK     0      -5.427   9.779 -23.574  0.00  0.00     0.139 C 
HETATM   48  O   UNK     0      -6.391   9.133 -24.009  0.00  0.00    -0.650 OA
BRANCH  47  49
HETATM   49  O   UNK     0      -5.557  10.557 -22.451  0.00  0.00    -0.776 OA
HETATM   50  H   UNK     0      -5.993  10.205 -21.591  0.00  0.00     0.167 HD
ENDBRANCH  47  49
ENDBRANCH  46  47
ENDBRANCH  45  46
ENDBRANCH  11  45
BRANCH  18  51
HETATM   51  C   UNK     0      -3.494  14.119 -20.247  0.00  0.00     0.051 C 
BRANCH  51  52
HETATM   52  C   UNK     0      -5.004  14.151 -20.064  0.00  0.00     0.114 C 
BRANCH  52  53
HETATM   53  C   UNK     0      -5.717  13.873 -21.326  0.00  0.00     0.139 C 
HETATM   54  O   UNK     0      -6.728  13.154 -21.323  0.00  0.00    -0.650 OA
BRANCH  53  55
HETATM   55  O   UNK     0      -5.252  14.411 -22.502  0.00  0.00    -0.776 OA
HETATM   56  H   UNK     0      -5.418  15.335 -22.827  0.00  0.00     0.167 HD
ENDBRANCH  53  55
ENDBRANCH  52  53
ENDBRANCH  51  52
ENDBRANCH  18  51
TORSDOF 16
ENDMDL
MODEL 20
REMARK VINA RESULT:      -7.1     19.874     23.767
REMARK  16 active torsions:
REMARK  status: ('A' for Active; 'I' for Inactive)
REMARK    1  A    between atoms: C_6  and  C_7 
REMARK    2  A    between atoms: C_7  and  C_8 
REMARK    3  A    between atoms: C_8  and  C_9 
REMARK    4  A    between atoms: C_9  and  O_11 
REMARK    5  A    between atoms: C_16  and  C_17 
REMARK    6  A    between atoms: C_17  and  C_18 
REMARK    7  A    between atoms: C_18  and  C_19 
REMARK    8  A    between atoms: C_19  and  O_21 
REMARK    9  A    between atoms: C_28  and  C_29 
REMARK   10  A    between atoms: C_29  and  C_30 
REMARK   11  A    between atoms: C_30  and  C_31 
REMARK   12  A    between atoms: C_31  and  O_33 
REMARK   13  A    between atoms: C_42  and  C_43 
REMARK   14  A    between atoms: C_43  and  C_44 
REMARK   15  A    between atoms: C_44  and  C_45 
REMARK   16  A    between atoms: C_45  and  O_47 
ROOT
HETATM    1  C   UNK     0      10.096  -3.525 -20.113  0.00  0.00     0.051 C 
HETATM    2  C   UNK     0      10.592  -3.839 -18.716  0.00  0.00    -0.031 A 
HETATM    3  C   UNK     0       9.883  -4.273 -17.608  0.00  0.00     0.021 A 
HETATM    4  N   UNK     0      10.733  -4.396 -16.560  0.00  0.00    -0.361 N 
HETATM    5  C   UNK     0      11.969  -4.057 -16.980  0.00  0.00     0.022 A 
HETATM    6  C   UNK     0      11.917  -3.701 -18.323  0.00  0.00    -0.027 A 
HETATM    7  C   UNK     0      13.272  -4.111 -16.244  0.00  0.00     0.115 C 
HETATM    8  C   UNK     0      13.522  -5.342 -15.390  0.00  0.00     0.021 A 
HETATM    9  N   UNK     0      13.157  -6.611 -15.625  0.00  0.00    -0.361 N 
HETATM   10  C   UNK     0      13.508  -7.354 -14.554  0.00  0.00     0.022 A 
HETATM   11  C   UNK     0      14.124  -6.542 -13.607  0.00  0.00    -0.027 A 
HETATM   12  C   UNK     0      14.137  -5.273 -14.127  0.00  0.00    -0.031 A 
HETATM   13  C   UNK     0      14.716  -4.054 -13.444  0.00  0.00     0.051 C 
HETATM   14  C   UNK     0      13.230  -8.842 -14.359  0.00  0.00     0.115 C 
HETATM   15  C   UNK     0      11.752  -9.197 -14.355  0.00  0.00     0.021 A 
HETATM   16  N   UNK     0      10.851  -8.976 -15.331  0.00  0.00    -0.361 N 
HETATM   17  C   UNK     0       9.646  -9.369 -14.913  0.00  0.00     0.022 A 
HETATM   18  C   UNK     0       9.769  -9.880 -13.606  0.00  0.00    -0.027 A 
HETATM   19  C   UNK     0      11.093  -9.767 -13.268  0.00  0.00    -0.031 A 
HETATM   20  C   UNK     0      11.669 -10.238 -11.945  0.00  0.00     0.051 C 
HETATM   21  C   UNK     0       8.301  -9.272 -15.596  0.00  0.00     0.115 C 
HETATM   22  C   UNK     0       8.055  -8.075 -16.484  0.00  0.00     0.022 A 
HETATM   23  N   UNK     0       8.410  -6.801 -16.277  0.00  0.00    -0.361 N 
HETATM   24  C   UNK     0       8.121  -6.094 -17.388  0.00  0.00     0.021 A 
HETATM   25  C   UNK     0       7.557  -6.932 -18.331  0.00  0.00    -0.031 A 
HETATM   26  C   UNK     0       7.033  -6.597 -19.712  0.00  0.00     0.051 C 
HETATM   27  C   UNK     0       7.503  -8.205 -17.775  0.00  0.00    -0.027 A 
HETATM   28  C   UNK     0       8.425  -4.632 -17.665  0.00  0.00     0.115 C 
HETATM   29  H   UNK     0      10.445  -4.682 -15.522  0.00  0.00     0.165 HD
HETATM   30  H   UNK     0      12.696  -6.996 -16.568  0.00  0.00     0.165 HD
HETATM   31  H   UNK     0      11.078  -8.578 -16.354  0.00  0.00     0.165 HD
HETATM   32  H   UNK     0       8.829  -6.378 -15.327  0.00  0.00     0.165 HD
ENDROOT
BRANCH   6  33
HETATM   33  C   UNK     0      13.016  -3.243 -19.249  0.00  0.00     0.051 C 
BRANCH  33  34
HETATM   34  C   UNK     0      13.486  -4.380 -20.125  0.00  0.00     0.114 C 
BRANCH  34  35
HETATM   35  C   UNK     0      14.384  -5.238 -19.299  0.00  0.00     0.139 C 
HETATM   36  O   UNK     0      15.559  -4.856 -19.029  0.00  0.00    -0.650 OA
BRANCH  35  37
HETATM   37  O   UNK     0      13.986  -6.470 -18.794  0.00  0.00    -0.776 OA
HETATM   38  H   UNK     0      13.105  -6.890 -19.042  0.00  0.00     0.167 HD
ENDBRANCH  35  37
ENDBRANCH  34  35
ENDBRANCH  33  34
ENDBRANCH   6  33
BRANCH  27  39
HETATM   39  C   UNK     0       6.888  -9.368 -18.471  0.00  0.00     0.051 C 
BRANCH  39  40
HETATM   40  C   UNK     0       5.435  -9.524 -18.411  0.00  0.00     0.114 C 
BRANCH  40  41
HETATM   41  C   UNK     0       4.669  -9.159 -17.241  0.00  0.00     0.139 C 
HETATM   42  O   UNK     0       4.645  -9.832 -16.202  0.00  0.00    -0.650 OA
BRANCH  41  43
HETATM   43  O   UNK     0       3.894  -7.965 -17.268  0.00  0.00    -0.776 OA
HETATM   44  H   UNK     0       3.189  -7.938 -17.995  0.00  0.00     0.167 HD
ENDBRANCH  41  43
ENDBRANCH  40  41
ENDBRANCH  39  40
ENDBRANCH  27  39
BRANCH  11  45
HETATM   45  C   UNK     0      14.688  -6.923 -12.264  0.00  0.00     0.051 C 
BRANCH  45  46
HETATM   46  C   UNK     0      16.071  -7.462 -12.318  0.00  0.00     0.114 C 
BRANCH  46  47
HETATM   47  C   UNK     0      16.912  -6.609 -11.430  0.00  0.00     0.139 C 
HETATM   48  O   UNK     0      16.875  -6.810 -10.207  0.00  0.00    -0.650 OA
BRANCH  47  49
HETATM   49  O   UNK     0      17.709  -5.622 -11.952  0.00  0.00    -0.776 OA
HETATM   50  H   UNK     0      17.344  -4.911 -12.597  0.00  0.00     0.167 HD
ENDBRANCH  47  49
ENDBRANCH  46  47
ENDBRANCH  45  46
ENDBRANCH  11  45
BRANCH  18  51
HETATM   51  C   UNK     0       8.687 -10.463 -12.734  0.00  0.00     0.051 C 
BRANCH  51  52
HETATM   52  C   UNK     0       8.360  -9.402 -11.694  0.00  0.00     0.114 C 
BRANCH  52  53
HETATM   53  C   UNK     0       7.008  -8.843 -11.886  0.00  0.00     0.139 C 
HETATM   54  O   UNK     0       6.059  -9.262 -11.203  0.00  0.00    -0.650 OA
BRANCH  53  55
HETATM   55  O   UNK     0       6.805  -7.861 -12.824  0.00  0.00    -0.776 OA
HETATM   56  H   UNK     0       6.256  -7.042 -12.705  0.00  0.00     0.167 HD
ENDBRANCH  53  55
ENDBRANCH  52  53
ENDBRANCH  51  52
ENDBRANCH  18  51
TORSDOF 16
ENDMDL
