MODEL 1
REMARK VINA RESULT:     -10.8      0.000      0.000
REMARK  16 active torsions:
REMARK  status: ('A' for Active; 'I' for Inactive)
REMARK    1  A    between atoms: C_6  and  C_7 
REMARK    2  A    between atoms: C_7  and  C_8 
REMARK    3  A    between atoms: C_8  and  C_9 
REMARK    4  A    between atoms: C_9  and  O_11 
REMARK    5  A    between atoms: C_16  and  C_17 
REMARK    6  A    between atoms: C_17  and  C_18 
REMARK    7  A    between atoms: C_18  and  C_19 
REMARK    8  A    between atoms: C_19  and  O_21 
REMARK    9  A    between atoms: C_28  and  C_29 
REMARK   10  A    between atoms: C_29  and  C_30 
REMARK   11  A    between atoms: C_30  and  C_31 
REMARK   12  A    between atoms: C_31  and  O_33 
REMARK   13  A    between atoms: C_42  and  C_43 
REMARK   14  A    between atoms: C_43  and  C_44 
REMARK   15  A    between atoms: C_44  and  C_45 
REMARK   16  A    between atoms: C_45  and  O_47 
ROOT
HETATM    1  C   UNK     0       1.873   5.015  -6.508  0.00  0.00     0.051 C 
HETATM    2  C   UNK     0       1.039   4.722  -7.739  0.00  0.00    -0.031 A 
HETATM    3  C   UNK     0       1.171   3.703  -8.669  0.00  0.00     0.021 A 
HETATM    4  N   UNK     0       0.221   3.850  -9.623  0.00  0.00    -0.361 N 
HETATM    5  C   UNK     0      -0.520   4.935  -9.315  0.00  0.00     0.022 A 
HETATM    6  C   UNK     0      -0.034   5.506  -8.144  0.00  0.00    -0.027 A 
HETATM    7  C   UNK     0      -1.743   5.475  -9.989  0.00  0.00     0.115 C 
HETATM    8  C   UNK     0      -2.784   4.459 -10.426  0.00  0.00     0.021 A 
HETATM    9  N   UNK     0      -3.147   3.319  -9.819  0.00  0.00    -0.361 N 
HETATM   10  C   UNK     0      -4.040   2.688 -10.611  0.00  0.00     0.022 A 
HETATM   11  C   UNK     0      -4.265   3.448 -11.755  0.00  0.00    -0.027 A 
HETATM   12  C   UNK     0      -3.478   4.565 -11.645  0.00  0.00    -0.031 A 
HETATM   13  C   UNK     0      -3.399   5.683 -12.661  0.00  0.00     0.051 C 
HETATM   14  C   UNK     0      -4.673   1.325 -10.348  0.00  0.00     0.115 C 
HETATM   15  C   UNK     0      -3.669   0.187 -10.256  0.00  0.00     0.021 A 
HETATM   16  N   UNK     0      -2.636   0.069  -9.401  0.00  0.00    -0.361 N 
HETATM   17  C   UNK     0      -1.951  -1.040  -9.690  0.00  0.00     0.022 A 
HETATM   18  C   UNK     0      -2.573  -1.680 -10.780  0.00  0.00    -0.027 A 
HETATM   19  C   UNK     0      -3.649  -0.903 -11.124  0.00  0.00    -0.031 A 
HETATM   20  C   UNK     0      -4.621  -1.252 -12.236  0.00  0.00     0.051 C 
HETATM   21  C   UNK     0      -0.679  -1.583  -9.081  0.00  0.00     0.115 C 
HETATM   22  C   UNK     0       0.347  -0.583  -8.600  0.00  0.00     0.022 A 
HETATM   23  N   UNK     0       0.725   0.563  -9.182  0.00  0.00    -0.361 N 
HETATM   24  C   UNK     0       1.555   1.211  -8.340  0.00  0.00     0.021 A 
HETATM   25  C   UNK     0       1.723   0.460  -7.193  0.00  0.00    -0.031 A 
HETATM   26  C   UNK     0       2.588   0.748  -5.983  0.00  0.00     0.051 C 
HETATM   27  C   UNK     0       0.960  -0.693  -7.336  0.00  0.00    -0.027 A 
HETATM   28  C   UNK     0       2.168   2.589  -8.518  0.00  0.00     0.115 C 
HETATM   29  H   UNK     0       0.105   3.209 -10.527  0.00  0.00     0.165 HD
HETATM   30  H   UNK     0      -2.812   2.980  -8.808  0.00  0.00     0.165 HD
HETATM   31  H   UNK     0      -2.412   0.758  -8.545  0.00  0.00     0.165 HD
HETATM   32  H   UNK     0       0.443   0.904 -10.212  0.00  0.00     0.165 HD
ENDROOT
BRANCH   6  33
HETATM   33  C   UNK     0      -0.503   6.726  -7.392  0.00  0.00     0.051 C 
BRANCH  33  34
HETATM   34  C   UNK     0      -1.600   6.365  -6.419  0.00  0.00     0.114 C 
BRANCH  34  35
HETATM   35  C   UNK     0      -2.576   7.493  -6.408  0.00  0.00     0.139 C 
HETATM   36  O   UNK     0      -3.327   7.694  -7.407  0.00  0.00    -0.650 OA
BRANCH  35  37
HETATM   37  O   UNK     0      -2.710   8.357  -5.329  0.00  0.00    -0.776 OA
HETATM   38  H   UNK     0      -2.799   8.022  -4.383  0.00  0.00     0.167 HD
ENDBRANCH  35  37
ENDBRANCH  34  35
ENDBRANCH  33  34
ENDBRANCH   6  33
BRANCH  27  39
HETATM   39  C   UNK     0       0.944  -1.785  -6.325  0.00  0.00     0.051 C 
BRANCH  39  40
HETATM   40  C   UNK     0      -0.346  -2.361  -5.946  0.00  0.00     0.114 C 
BRANCH  40  41
HETATM   41  C   UNK     0      -0.621  -3.776  -6.059  0.00  0.00     0.139 C 
HETATM   42  O   UNK     0      -1.288  -4.410  -5.231  0.00  0.00    -0.650 OA
BRANCH  41  43
HETATM   43  O   UNK     0      -0.106  -4.493  -7.176  0.00  0.00    -0.776 OA
HETATM   44  H   UNK     0      -0.778  -5.099  -7.630  0.00  0.00     0.167 HD
ENDBRANCH  41  43
ENDBRANCH  40  41
ENDBRANCH  39  40
ENDBRANCH  27  39
BRANCH  11  45
HETATM   45  C   UNK     0      -5.181   3.156 -12.914  0.00  0.00     0.051 C 
BRANCH  45  46
HETATM   46  C   UNK     0      -4.576   2.295 -13.962  0.00  0.00     0.114 C 
BRANCH  46  47
HETATM   47  C   UNK     0      -5.537   2.244 -15.101  0.00  0.00     0.139 C 
HETATM   48  O   UNK     0      -5.138   1.822 -16.195  0.00  0.00    -0.650 OA
BRANCH  47  49
HETATM   49  O   UNK     0      -6.836   2.656 -14.943  0.00  0.00    -0.776 OA
HETATM   50  H   UNK     0      -7.616   2.203 -15.433  0.00  0.00     0.167 HD
ENDBRANCH  47  49
ENDBRANCH  46  47
ENDBRANCH  45  46
ENDBRANCH  11  45
BRANCH  18  51
HETATM   51  C   UNK     0      -2.177  -2.974 -11.443  0.00  0.00     0.051 C 
BRANCH  51  52
HETATM   52  C   UNK     0      -3.315  -3.951 -11.184  0.00  0.00     0.114 C 
BRANCH  52  53
HETATM   53  C   UNK     0      -3.019  -4.853 -10.054  0.00  0.00     0.139 C 
HETATM   54  O   UNK     0      -1.984  -4.694  -9.387  0.00  0.00    -0.650 OA
BRANCH  53  55
HETATM   55  O   UNK     0      -3.891  -5.868  -9.748  0.00  0.00    -0.776 OA
HETATM   56  H   UNK     0      -3.970  -6.327  -8.871  0.00  0.00     0.167 HD
ENDBRANCH  53  55
ENDBRANCH  52  53
ENDBRANCH  51  52
ENDBRANCH  18  51
TORSDOF 16
ENDMDL
MODEL 2
REMARK VINA RESULT:     -10.5      2.893      8.080
REMARK  16 active torsions:
REMARK  status: ('A' for Active; 'I' for Inactive)
REMARK    1  A    between atoms: C_6  and  C_7 
REMARK    2  A    between atoms: C_7  and  C_8 
REMARK    3  A    between atoms: C_8  and  C_9 
REMARK    4  A    between atoms: C_9  and  O_11 
REMARK    5  A    between atoms: C_16  and  C_17 
REMARK    6  A    between atoms: C_17  and  C_18 
REMARK    7  A    between atoms: C_18  and  C_19 
REMARK    8  A    between atoms: C_19  and  O_21 
REMARK    9  A    between atoms: C_28  and  C_29 
REMARK   10  A    between atoms: C_29  and  C_30 
REMARK   11  A    between atoms: C_30  and  C_31 
REMARK   12  A    between atoms: C_31  and  O_33 
REMARK   13  A    between atoms: C_42  and  C_43 
REMARK   14  A    between atoms: C_43  and  C_44 
REMARK   15  A    between atoms: C_44  and  C_45 
REMARK   16  A    between atoms: C_45  and  O_47 
ROOT
HETATM    1  C   UNK     0       1.643   5.222  -7.142  0.00  0.00     0.051 C 
HETATM    2  C   UNK     0       0.766   4.130  -7.720  0.00  0.00    -0.031 A 
HETATM    3  C   UNK     0      -0.608   4.107  -7.898  0.00  0.00     0.021 A 
HETATM    4  N   UNK     0      -0.966   2.911  -8.422  0.00  0.00    -0.361 N 
HETATM    5  C   UNK     0       0.151   2.173  -8.589  0.00  0.00     0.022 A 
HETATM    6  C   UNK     0       1.253   2.905  -8.157  0.00  0.00    -0.027 A 
HETATM    7  C   UNK     0       0.316   0.823  -9.214  0.00  0.00     0.115 C 
HETATM    8  C   UNK     0      -0.462   0.564 -10.492  0.00  0.00     0.021 A 
HETATM    9  N   UNK     0      -0.746   1.419 -11.486  0.00  0.00    -0.361 N 
HETATM   10  C   UNK     0      -1.538   0.782 -12.374  0.00  0.00     0.022 A 
HETATM   11  C   UNK     0      -1.763  -0.523 -11.945  0.00  0.00    -0.027 A 
HETATM   12  C   UNK     0      -1.087  -0.667 -10.760  0.00  0.00    -0.031 A 
HETATM   13  C   UNK     0      -1.042  -1.929  -9.928  0.00  0.00     0.051 C 
HETATM   14  C   UNK     0      -2.156   1.390 -13.630  0.00  0.00     0.115 C 
HETATM   15  C   UNK     0      -3.089   2.558 -13.353  0.00  0.00     0.021 A 
HETATM   16  N   UNK     0      -2.797   3.712 -12.724  0.00  0.00    -0.361 N 
HETATM   17  C   UNK     0      -3.906   4.447 -12.620  0.00  0.00     0.022 A 
HETATM   18  C   UNK     0      -4.970   3.744 -13.218  0.00  0.00    -0.027 A 
HETATM   19  C   UNK     0      -4.445   2.563 -13.675  0.00  0.00    -0.031 A 
HETATM   20  C   UNK     0      -5.249   1.515 -14.423  0.00  0.00     0.051 C 
HETATM   21  C   UNK     0      -4.129   5.780 -11.941  0.00  0.00     0.115 C 
HETATM   22  C   UNK     0      -3.328   6.069 -10.693  0.00  0.00     0.022 A 
HETATM   23  N   UNK     0      -3.026   5.236  -9.689  0.00  0.00    -0.361 N 
HETATM   24  C   UNK     0      -2.174   5.867  -8.856  0.00  0.00     0.021 A 
HETATM   25  C   UNK     0      -1.929   7.142  -9.331  0.00  0.00    -0.031 A 
HETATM   26  C   UNK     0      -1.076   8.237  -8.725  0.00  0.00     0.051 C 
HETATM   27  C   UNK     0      -2.657   7.294 -10.505  0.00  0.00    -0.027 A 
HETATM   28  C   UNK     0      -1.482   5.300  -7.629  0.00  0.00     0.115 C 
HETATM   29  H   UNK     0      -2.009   2.581  -8.633  0.00  0.00     0.165 HD
HETATM   30  H   UNK     0      -0.349   2.459 -11.589  0.00  0.00     0.165 HD
HETATM   31  H   UNK     0      -1.778   4.035 -12.388  0.00  0.00     0.165 HD
HETATM   32  H   UNK     0      -3.446   4.208  -9.535  0.00  0.00     0.165 HD
ENDROOT
BRANCH   6  33
HETATM   33  C   UNK     0       2.714   2.532  -8.127  0.00  0.00     0.051 C 
BRANCH  33  34
HETATM   34  C   UNK     0       3.054   1.804  -6.848  0.00  0.00     0.114 C 
BRANCH  34  35
HETATM   35  C   UNK     0       4.524   1.558  -6.852  0.00  0.00     0.139 C 
HETATM   36  O   UNK     0       5.111   1.184  -5.794  0.00  0.00    -0.650 OA
BRANCH  35  37
HETATM   37  O   UNK     0       5.308   1.719  -7.988  0.00  0.00    -0.776 OA
HETATM   38  H   UNK     0       6.286   1.480  -8.001  0.00  0.00     0.167 HD
ENDBRANCH  35  37
ENDBRANCH  34  35
ENDBRANCH  33  34
ENDBRANCH   6  33
BRANCH  27  39
HETATM   39  C   UNK     0      -2.701   8.570 -11.271  0.00  0.00     0.051 C 
BRANCH  39  40
HETATM   40  C   UNK     0      -3.759   9.531 -10.958  0.00  0.00     0.114 C 
BRANCH  40  41
HETATM   41  C   UNK     0      -4.939   9.672 -11.781  0.00  0.00     0.139 C 
HETATM   42  O   UNK     0      -5.058   9.156 -12.900  0.00  0.00    -0.650 OA
BRANCH  41  43
HETATM   43  O   UNK     0      -6.033  10.442 -11.293  0.00  0.00    -0.776 OA
HETATM   44  H   UNK     0      -6.799  10.544 -11.948  0.00  0.00     0.167 HD
ENDBRANCH  41  43
ENDBRANCH  40  41
ENDBRANCH  39  40
ENDBRANCH  27  39
BRANCH  11  45
HETATM   45  C   UNK     0      -2.572  -1.606 -12.606  0.00  0.00     0.051 C 
BRANCH  45  46
HETATM   46  C   UNK     0      -4.040  -1.452 -12.442  0.00  0.00     0.114 C 
BRANCH  46  47
HETATM   47  C   UNK     0      -4.454  -2.337 -11.316  0.00  0.00     0.139 C 
HETATM   48  O   UNK     0      -5.021  -1.827 -10.340  0.00  0.00    -0.650 OA
BRANCH  47  49
HETATM   49  O   UNK     0      -4.211  -3.687 -11.357  0.00  0.00    -0.776 OA
HETATM   50  H   UNK     0      -3.493  -4.093 -11.969  0.00  0.00     0.167 HD
ENDBRANCH  47  49
ENDBRANCH  46  47
ENDBRANCH  45  46
ENDBRANCH  11  45
BRANCH  18  51
HETATM   51  C   UNK     0      -6.404   4.182 -13.366  0.00  0.00     0.051 C 
BRANCH  51  52
HETATM   52  C   UNK     0      -6.924   3.519 -14.633  0.00  0.00     0.114 C 
BRANCH  52  53
HETATM   53  C   UNK     0      -8.178   4.140 -15.103  0.00  0.00     0.139 C 
HETATM   54  O   UNK     0      -9.075   4.418 -14.292  0.00  0.00    -0.650 OA
BRANCH  53  55
HETATM   55  O   UNK     0      -8.346   4.403 -16.441  0.00  0.00    -0.776 OA
HETATM   56  H   UNK     0      -7.649   4.325 -17.144  0.00  0.00     0.167 HD
ENDBRANCH  53  55
ENDBRANCH  52  53
ENDBRANCH  51  52
ENDBRANCH  18  51
TORSDOF 16
ENDMDL
MODEL 3
REMARK VINA RESULT:     -10.3      1.984      6.963
REMARK  16 active torsions:
REMARK  status: ('A' for Active; 'I' for Inactive)
REMARK    1  A    between atoms: C_6  and  C_7 
REMARK    2  A    between atoms: C_7  and  C_8 
REMARK    3  A    between atoms: C_8  and  C_9 
REMARK    4  A    between atoms: C_9  and  O_11 
REMARK    5  A    between atoms: C_16  and  C_17 
REMARK    6  A    between atoms: C_17  and  C_18 
REMARK    7  A    between atoms: C_18  and  C_19 
REMARK    8  A    between atoms: C_19  and  O_21 
REMARK    9  A    between atoms: C_28  and  C_29 
REMARK   10  A    between atoms: C_29  and  C_30 
REMARK   11  A    between atoms: C_30  and  C_31 
REMARK   12  A    between atoms: C_31  and  O_33 
REMARK   13  A    between atoms: C_42  and  C_43 
REMARK   14  A    between atoms: C_43  and  C_44 
REMARK   15  A    between atoms: C_44  and  C_45 
REMARK   16  A    between atoms: C_45  and  O_47 
ROOT
HETATM    1  C   UNK     0      -4.934   3.167 -12.916  0.00  0.00     0.051 C 
HETATM    2  C   UNK     0      -4.108   3.418 -11.671  0.00  0.00    -0.031 A 
HETATM    3  C   UNK     0      -4.007   2.660 -10.515  0.00  0.00     0.021 A 
HETATM    4  N   UNK     0      -3.173   3.285  -9.650  0.00  0.00    -0.361 N 
HETATM    5  C   UNK     0      -2.734   4.419 -10.232  0.00  0.00     0.022 A 
HETATM    6  C   UNK     0      -3.301   4.535 -11.497  0.00  0.00    -0.027 A 
HETATM    7  C   UNK     0      -1.729   5.414  -9.741  0.00  0.00     0.115 C 
HETATM    8  C   UNK     0      -0.477   4.854  -9.091  0.00  0.00     0.021 A 
HETATM    9  N   UNK     0       0.202   3.740  -9.405  0.00  0.00    -0.361 N 
HETATM   10  C   UNK     0       1.194   3.585  -8.503  0.00  0.00     0.022 A 
HETATM   11  C   UNK     0       1.159   4.632  -7.588  0.00  0.00    -0.027 A 
HETATM   12  C   UNK     0       0.109   5.436  -7.952  0.00  0.00    -0.031 A 
HETATM   13  C   UNK     0      -0.308   6.704  -7.242  0.00  0.00     0.051 C 
HETATM   14  C   UNK     0       2.178   2.419  -8.437  0.00  0.00     0.115 C 
HETATM   15  C   UNK     0       1.517   1.067  -8.221  0.00  0.00     0.021 A 
HETATM   16  N   UNK     0       0.591   0.473  -8.997  0.00  0.00    -0.361 N 
HETATM   17  C   UNK     0       0.213  -0.674  -8.427  0.00  0.00     0.022 A 
HETATM   18  C   UNK     0       0.934  -0.839  -7.228  0.00  0.00    -0.027 A 
HETATM   19  C   UNK     0       1.748   0.258  -7.111  0.00  0.00    -0.031 A 
HETATM   20  C   UNK     0       2.727   0.464  -5.969  0.00  0.00     0.051 C 
HETATM   21  C   UNK     0      -0.841  -1.670  -8.854  0.00  0.00     0.115 C 
HETATM   22  C   UNK     0      -2.072  -1.130  -9.543  0.00  0.00     0.022 A 
HETATM   23  N   UNK     0      -2.767  -0.022  -9.253  0.00  0.00    -0.361 N 
HETATM   24  C   UNK     0      -3.700   0.155 -10.210  0.00  0.00     0.021 A 
HETATM   25  C   UNK     0      -3.612  -0.870 -11.132  0.00  0.00    -0.031 A 
HETATM   26  C   UNK     0      -4.467  -1.128 -12.355  0.00  0.00     0.051 C 
HETATM   27  C   UNK     0      -2.577  -1.706 -10.726  0.00  0.00    -0.027 A 
HETATM   28  C   UNK     0      -4.665   1.318 -10.364  0.00  0.00     0.115 C 
HETATM   29  H   UNK     0      -2.932   2.939  -8.618  0.00  0.00     0.165 HD
HETATM   30  H   UNK     0       0.015   3.088 -10.294  0.00  0.00     0.165 HD
HETATM   31  H   UNK     0       0.231   0.845  -9.991  0.00  0.00     0.165 HD
HETATM   32  H   UNK     0      -2.632   0.623  -8.346  0.00  0.00     0.165 HD
ENDROOT
BRANCH   6  33
HETATM   33  C   UNK     0      -3.139   5.615 -12.537  0.00  0.00     0.051 C 
BRANCH  33  34
HETATM   34  C   UNK     0      -3.886   6.864 -12.134  0.00  0.00     0.114 C 
BRANCH  34  35
HETATM   35  C   UNK     0      -4.877   7.158 -13.208  0.00  0.00     0.139 C 
HETATM   36  O   UNK     0      -5.768   6.309 -13.504  0.00  0.00    -0.650 OA
BRANCH  35  37
HETATM   37  O   UNK     0      -4.877   8.350 -13.922  0.00  0.00    -0.776 OA
HETATM   38  H   UNK     0      -4.764   8.375 -14.922  0.00  0.00     0.167 HD
ENDBRANCH  35  37
ENDBRANCH  34  35
ENDBRANCH  33  34
ENDBRANCH   6  33
BRANCH  27  39
HETATM   39  C   UNK     0      -2.227  -2.966 -11.437  0.00  0.00     0.051 C 
BRANCH  39  40
HETATM   40  C   UNK     0      -3.136  -4.105 -11.317  0.00  0.00     0.114 C 
BRANCH  40  41
HETATM   41  C   UNK     0      -3.203  -4.916 -10.122  0.00  0.00     0.139 C 
HETATM   42  O   UNK     0      -4.191  -5.594  -9.810  0.00  0.00    -0.650 OA
BRANCH  41  43
HETATM   43  O   UNK     0      -2.081  -4.948  -9.245  0.00  0.00    -0.776 OA
HETATM   44  H   UNK     0      -1.601  -5.839  -9.212  0.00  0.00     0.167 HD
ENDBRANCH  41  43
ENDBRANCH  40  41
ENDBRANCH  39  40
ENDBRANCH  27  39
BRANCH  11  45
HETATM   45  C   UNK     0       2.066   4.888  -6.414  0.00  0.00     0.051 C 
BRANCH  45  46
HETATM   46  C   UNK     0       3.494   5.068  -6.780  0.00  0.00     0.114 C 
BRANCH  46  47
HETATM   47  C   UNK     0       4.043   6.141  -5.903  0.00  0.00     0.139 C 
HETATM   48  O   UNK     0       3.724   7.316  -6.134  0.00  0.00    -0.650 OA
BRANCH  47  49
HETATM   49  O   UNK     0       4.886   5.837  -4.863  0.00  0.00    -0.776 OA
HETATM   50  H   UNK     0       5.880   6.094  -4.874  0.00  0.00     0.167 HD
ENDBRANCH  47  49
ENDBRANCH  46  47
ENDBRANCH  45  46
ENDBRANCH  11  45
BRANCH  18  51
HETATM   51  C   UNK     0       0.866  -1.989  -6.257  0.00  0.00     0.051 C 
BRANCH  51  52
HETATM   52  C   UNK     0       1.194  -3.241  -7.056  0.00  0.00     0.114 C 
BRANCH  52  53
HETATM   53  C   UNK     0       0.582  -4.447  -6.465  0.00  0.00     0.139 C 
HETATM   54  O   UNK     0      -0.436  -4.942  -6.975  0.00  0.00    -0.650 OA
BRANCH  53  55
HETATM   55  O   UNK     0       1.143  -5.015  -5.347  0.00  0.00    -0.776 OA
HETATM   56  H   UNK     0       1.140  -5.981  -5.118  0.00  0.00     0.167 HD
ENDBRANCH  53  55
ENDBRANCH  52  53
ENDBRANCH  51  52
ENDBRANCH  18  51
TORSDOF 16
ENDMDL
MODEL 4
REMARK VINA RESULT:     -10.1      2.261      7.450
REMARK  16 active torsions:
REMARK  status: ('A' for Active; 'I' for Inactive)
REMARK    1  A    between atoms: C_6  and  C_7 
REMARK    2  A    between atoms: C_7  and  C_8 
REMARK    3  A    between atoms: C_8  and  C_9 
REMARK    4  A    between atoms: C_9  and  O_11 
REMARK    5  A    between atoms: C_16  and  C_17 
REMARK    6  A    between atoms: C_17  and  C_18 
REMARK    7  A    between atoms: C_18  and  C_19 
REMARK    8  A    between atoms: C_19  and  O_21 
REMARK    9  A    between atoms: C_28  and  C_29 
REMARK   10  A    between atoms: C_29  and  C_30 
REMARK   11  A    between atoms: C_30  and  C_31 
REMARK   12  A    between atoms: C_31  and  O_33 
REMARK   13  A    between atoms: C_42  and  C_43 
REMARK   14  A    between atoms: C_43  and  C_44 
REMARK   15  A    between atoms: C_44  and  C_45 
REMARK   16  A    between atoms: C_45  and  O_47 
ROOT
HETATM    1  C   UNK     0      -0.816   5.764  -9.756  0.00  0.00     0.051 C 
HETATM    2  C   UNK     0      -0.921   4.362  -9.192  0.00  0.00    -0.031 A 
HETATM    3  C   UNK     0      -2.019   3.518  -9.129  0.00  0.00     0.021 A 
HETATM    4  N   UNK     0      -1.658   2.369  -8.511  0.00  0.00    -0.361 N 
HETATM    5  C   UNK     0      -0.352   2.458  -8.186  0.00  0.00     0.022 A 
HETATM    6  C   UNK     0       0.140   3.693  -8.594  0.00  0.00    -0.027 A 
HETATM    7  C   UNK     0       0.550   1.430  -7.576  0.00  0.00     0.115 C 
HETATM    8  C   UNK     0       0.422   0.012  -8.103  0.00  0.00     0.021 A 
HETATM    9  N   UNK     0       0.163  -0.394  -9.356  0.00  0.00    -0.361 N 
HETATM   10  C   UNK     0       0.048  -1.739  -9.345  0.00  0.00     0.022 A 
HETATM   11  C   UNK     0       0.248  -2.213  -8.052  0.00  0.00    -0.027 A 
HETATM   12  C   UNK     0       0.484  -1.115  -7.265  0.00  0.00    -0.031 A 
HETATM   13  C   UNK     0       0.762  -1.149  -5.779  0.00  0.00     0.051 C 
HETATM   14  C   UNK     0      -0.306  -2.622 -10.538  0.00  0.00     0.115 C 
HETATM   15  C   UNK     0      -1.669  -2.324 -11.143  0.00  0.00     0.021 A 
HETATM   16  N   UNK     0      -2.103  -1.157 -11.653  0.00  0.00    -0.361 N 
HETATM   17  C   UNK     0      -3.381  -1.286 -12.018  0.00  0.00     0.022 A 
HETATM   18  C   UNK     0      -3.796  -2.604 -11.741  0.00  0.00    -0.027 A 
HETATM   19  C   UNK     0      -2.714  -3.244 -11.194  0.00  0.00    -0.031 A 
HETATM   20  C   UNK     0      -2.718  -4.704 -10.780  0.00  0.00     0.051 C 
HETATM   21  C   UNK     0      -4.342  -0.260 -12.574  0.00  0.00     0.115 C 
HETATM   22  C   UNK     0      -4.197   1.164 -12.091  0.00  0.00     0.022 A 
HETATM   23  N   UNK     0      -3.936   1.597 -10.850  0.00  0.00    -0.361 N 
HETATM   24  C   UNK     0      -3.748   2.932 -10.899  0.00  0.00     0.021 A 
HETATM   25  C   UNK     0      -3.904   3.370 -12.200  0.00  0.00    -0.031 A 
HETATM   26  C   UNK     0      -3.830   4.781 -12.746  0.00  0.00     0.051 C 
HETATM   27  C   UNK     0      -4.192   2.257 -12.981  0.00  0.00    -0.027 A 
HETATM   28  C   UNK     0      -3.339   3.854  -9.764  0.00  0.00     0.115 C 
HETATM   29  H   UNK     0      -2.338   1.519  -8.273  0.00  0.00     0.165 HD
HETATM   30  H   UNK     0       0.109   0.262 -10.259  0.00  0.00     0.165 HD
HETATM   31  H   UNK     0      -1.483  -0.235 -11.803  0.00  0.00     0.165 HD
HETATM   32  H   UNK     0      -3.923   0.970  -9.921  0.00  0.00     0.165 HD
ENDROOT
BRANCH   6  33
HETATM   33  C   UNK     0       1.522   4.280  -8.460  0.00  0.00     0.051 C 
BRANCH  33  34
HETATM   34  C   UNK     0       1.733   4.842  -7.075  0.00  0.00     0.114 C 
BRANCH  34  35
HETATM   35  C   UNK     0       3.182   4.700  -6.751  0.00  0.00     0.139 C 
HETATM   36  O   UNK     0       3.844   3.724  -7.208  0.00  0.00    -0.650 OA
BRANCH  35  37
HETATM   37  O   UNK     0       3.864   5.612  -5.954  0.00  0.00    -0.776 OA
HETATM   38  H   UNK     0       4.662   5.345  -5.400  0.00  0.00     0.167 HD
ENDBRANCH  35  37
ENDBRANCH  34  35
ENDBRANCH  33  34
ENDBRANCH   6  33
BRANCH  27  39
HETATM   39  C   UNK     0      -4.496   2.344 -14.435  0.00  0.00     0.051 C 
BRANCH  39  40
HETATM   40  C   UNK     0      -5.895   2.289 -14.856  0.00  0.00     0.114 C 
BRANCH  40  41
HETATM   41  C   UNK     0      -6.281   1.956 -16.209  0.00  0.00     0.139 C 
HETATM   42  O   UNK     0      -7.422   1.595 -16.526  0.00  0.00    -0.650 OA
BRANCH  41  43
HETATM   43  O   UNK     0      -5.308   2.042 -17.246  0.00  0.00    -0.776 OA
HETATM   44  H   UNK     0      -5.654   1.799 -18.166  0.00  0.00     0.167 HD
ENDBRANCH  41  43
ENDBRANCH  40  41
ENDBRANCH  39  40
ENDBRANCH  27  39
BRANCH  11  45
HETATM   45  C   UNK     0       0.225  -3.634  -7.556  0.00  0.00     0.051 C 
BRANCH  45  46
HETATM   46  C   UNK     0      -1.139  -4.189  -7.371  0.00  0.00     0.114 C 
BRANCH  46  47
HETATM   47  C   UNK     0      -1.110  -5.031  -6.141  0.00  0.00     0.139 C 
HETATM   48  O   UNK     0      -0.648  -4.543  -5.100  0.00  0.00    -0.650 OA
BRANCH  47  49
HETATM   49  O   UNK     0      -1.584  -6.319  -6.159  0.00  0.00    -0.776 OA
HETATM   50  H   UNK     0      -1.240  -7.016  -6.829  0.00  0.00     0.167 HD
ENDBRANCH  47  49
ENDBRANCH  46  47
ENDBRANCH  45  46
ENDBRANCH  11  45
BRANCH  18  51
HETATM   51  C   UNK     0      -5.143  -3.225 -12.003  0.00  0.00     0.051 C 
BRANCH  51  52
HETATM   52  C   UNK     0      -6.000  -2.913 -10.785  0.00  0.00     0.114 C 
BRANCH  52  53
HETATM   53  C   UNK     0      -6.544  -4.138 -10.167  0.00  0.00     0.139 C 
HETATM   54  O   UNK     0      -7.332  -4.055  -9.212  0.00  0.00    -0.650 OA
BRANCH  53  55
HETATM   55  O   UNK     0      -6.170  -5.368 -10.653  0.00  0.00    -0.776 OA
HETATM   56  H   UNK     0      -5.239  -5.695 -10.759  0.00  0.00     0.167 HD
ENDBRANCH  53  55
ENDBRANCH  52  53
ENDBRANCH  51  52
ENDBRANCH  18  51
TORSDOF 16
ENDMDL
MODEL 5
REMARK VINA RESULT:     -10.1      2.467      7.230
REMARK  16 active torsions:
REMARK  status: ('A' for Active; 'I' for Inactive)
REMARK    1  A    between atoms: C_6  and  C_7 
REMARK    2  A    between atoms: C_7  and  C_8 
REMARK    3  A    between atoms: C_8  and  C_9 
REMARK    4  A    between atoms: C_9  and  O_11 
REMARK    5  A    between atoms: C_16  and  C_17 
REMARK    6  A    between atoms: C_17  and  C_18 
REMARK    7  A    between atoms: C_18  and  C_19 
REMARK    8  A    between atoms: C_19  and  O_21 
REMARK    9  A    between atoms: C_28  and  C_29 
REMARK   10  A    between atoms: C_29  and  C_30 
REMARK   11  A    between atoms: C_30  and  C_31 
REMARK   12  A    between atoms: C_31  and  O_33 
REMARK   13  A    between atoms: C_42  and  C_43 
REMARK   14  A    between atoms: C_43  and  C_44 
REMARK   15  A    between atoms: C_44  and  C_45 
REMARK   16  A    between atoms: C_45  and  O_47 
ROOT
HETATM    1  C   UNK     0      -4.821   3.945 -12.680  0.00  0.00     0.051 C 
HETATM    2  C   UNK     0      -3.981   4.079 -11.426  0.00  0.00    -0.031 A 
HETATM    3  C   UNK     0      -3.825   3.192 -10.373  0.00  0.00     0.021 A 
HETATM    4  N   UNK     0      -3.000   3.742  -9.451  0.00  0.00    -0.361 N 
HETATM    5  C   UNK     0      -2.620   4.957  -9.898  0.00  0.00     0.022 A 
HETATM    6  C   UNK     0      -3.217   5.201 -11.130  0.00  0.00    -0.027 A 
HETATM    7  C   UNK     0      -1.647   5.928  -9.305  0.00  0.00     0.115 C 
HETATM    8  C   UNK     0      -0.359   5.347  -8.747  0.00  0.00     0.021 A 
HETATM    9  N   UNK     0       0.358   4.310  -9.206  0.00  0.00    -0.361 N 
HETATM   10  C   UNK     0       1.374   4.089  -8.344  0.00  0.00     0.022 A 
HETATM   11  C   UNK     0       1.315   5.016  -7.308  0.00  0.00    -0.027 A 
HETATM   12  C   UNK     0       0.225   5.812  -7.555  0.00  0.00    -0.031 A 
HETATM   13  C   UNK     0      -0.229   6.966  -6.690  0.00  0.00     0.051 C 
HETATM   14  C   UNK     0       2.406   2.968  -8.435  0.00  0.00     0.115 C 
HETATM   15  C   UNK     0       1.805   1.573  -8.376  0.00  0.00     0.021 A 
HETATM   16  N   UNK     0       0.889   1.037  -9.203  0.00  0.00    -0.361 N 
HETATM   17  C   UNK     0       0.570  -0.185  -8.772  0.00  0.00     0.022 A 
HETATM   18  C   UNK     0       1.321  -0.463  -7.613  0.00  0.00    -0.027 A 
HETATM   19  C   UNK     0       2.092   0.646  -7.376  0.00  0.00    -0.031 A 
HETATM   20  C   UNK     0       3.085   0.755  -6.233  0.00  0.00     0.051 C 
HETATM   21  C   UNK     0      -0.451  -1.167  -9.301  0.00  0.00     0.115 C 
HETATM   22  C   UNK     0      -1.718  -0.602  -9.899  0.00  0.00     0.022 A 
HETATM   23  N   UNK     0      -2.450   0.433  -9.466  0.00  0.00    -0.361 N 
HETATM   24  C   UNK     0      -3.410   0.683 -10.380  0.00  0.00     0.021 A 
HETATM   25  C   UNK     0      -3.299  -0.218 -11.421  0.00  0.00    -0.031 A 
HETATM   26  C   UNK     0      -4.168  -0.363 -12.653  0.00  0.00     0.051 C 
HETATM   27  C   UNK     0      -2.223  -1.051 -11.136  0.00  0.00    -0.027 A 
HETATM   28  C   UNK     0      -4.424   1.814 -10.376  0.00  0.00     0.115 C 
HETATM   29  H   UNK     0      -2.724   3.285  -8.473  0.00  0.00     0.165 HD
HETATM   30  H   UNK     0       0.180   3.763 -10.163  0.00  0.00     0.165 HD
HETATM   31  H   UNK     0       0.494   1.511 -10.139  0.00  0.00     0.165 HD
HETATM   32  H   UNK     0      -2.324   0.968  -8.490  0.00  0.00     0.165 HD
ENDROOT
BRANCH   6  33
HETATM   33  C   UNK     0      -3.121   6.404 -12.034  0.00  0.00     0.051 C 
BRANCH  33  34
HETATM   34  C   UNK     0      -3.989   7.529 -11.521  0.00  0.00     0.114 C 
BRANCH  34  35
HETATM   35  C   UNK     0      -4.721   8.096 -12.690  0.00  0.00     0.139 C 
HETATM   36  O   UNK     0      -5.350   9.188 -12.578  0.00  0.00    -0.650 OA
BRANCH  35  37
HETATM   37  O   UNK     0      -4.748   7.472 -13.931  0.00  0.00    -0.776 OA
HETATM   38  H   UNK     0      -4.008   7.590 -14.605  0.00  0.00     0.167 HD
ENDBRANCH  35  37
ENDBRANCH  34  35
ENDBRANCH  33  34
ENDBRANCH   6  33
BRANCH  27  39
HETATM   39  C   UNK     0      -1.836  -2.199 -12.000  0.00  0.00     0.051 C 
BRANCH  39  40
HETATM   40  C   UNK     0      -0.601  -2.098 -12.777  0.00  0.00     0.114 C 
BRANCH  40  41
HETATM   41  C   UNK     0      -0.067  -0.828 -13.214  0.00  0.00     0.139 C 
HETATM   42  O   UNK     0       0.964  -0.323 -12.748  0.00  0.00    -0.650 OA
BRANCH  41  43
HETATM   43  O   UNK     0      -0.750  -0.104 -14.232  0.00  0.00    -0.776 OA
HETATM   44  H   UNK     0      -0.143   0.386 -14.877  0.00  0.00     0.167 HD
ENDBRANCH  41  43
ENDBRANCH  40  41
ENDBRANCH  39  40
ENDBRANCH  27  39
BRANCH  11  45
HETATM   45  C   UNK     0       2.235   5.167  -6.126  0.00  0.00     0.051 C 
BRANCH  45  46
HETATM   46  C   UNK     0       3.652   5.425  -6.490  0.00  0.00     0.114 C 
BRANCH  46  47
HETATM   47  C   UNK     0       4.091   6.629  -5.728  0.00  0.00     0.139 C 
HETATM   48  O   UNK     0       5.140   6.565  -5.072  0.00  0.00    -0.650 OA
BRANCH  47  49
HETATM   49  O   UNK     0       3.351   7.784  -5.752  0.00  0.00    -0.776 OA
HETATM   50  H   UNK     0       2.839   8.087  -6.589  0.00  0.00     0.167 HD
ENDBRANCH  47  49
ENDBRANCH  46  47
ENDBRANCH  45  46
ENDBRANCH  11  45
BRANCH  18  51
HETATM   51  C   UNK     0       1.321  -1.724  -6.788  0.00  0.00     0.051 C 
BRANCH  51  52
HETATM   52  C   UNK     0      -0.011  -1.751  -6.053  0.00  0.00     0.114 C 
BRANCH  52  53
HETATM   53  C   UNK     0      -0.329  -3.099  -5.542  0.00  0.00     0.139 C 
HETATM   54  O   UNK     0      -1.237  -3.763  -6.067  0.00  0.00    -0.650 OA
BRANCH  53  55
HETATM   55  O   UNK     0       0.382  -3.610  -4.484  0.00  0.00    -0.776 OA
HETATM   56  H   UNK     0       1.007  -4.381  -4.518  0.00  0.00     0.167 HD
ENDBRANCH  53  55
ENDBRANCH  52  53
ENDBRANCH  51  52
ENDBRANCH  18  51
TORSDOF 16
ENDMDL
MODEL 6
REMARK VINA RESULT:     -10.1      2.760      9.774
REMARK  16 active torsions:
REMARK  status: ('A' for Active; 'I' for Inactive)
REMARK    1  A    between atoms: C_6  and  C_7 
REMARK    2  A    between atoms: C_7  and  C_8 
REMARK    3  A    between atoms: C_8  and  C_9 
REMARK    4  A    between atoms: C_9  and  O_11 
REMARK    5  A    between atoms: C_16  and  C_17 
REMARK    6  A    between atoms: C_17  and  C_18 
REMARK    7  A    between atoms: C_18  and  C_19 
REMARK    8  A    between atoms: C_19  and  O_21 
REMARK    9  A    between atoms: C_28  and  C_29 
REMARK   10  A    between atoms: C_29  and  C_30 
REMARK   11  A    between atoms: C_30  and  C_31 
REMARK   12  A    between atoms: C_31  and  O_33 
REMARK   13  A    between atoms: C_42  and  C_43 
REMARK   14  A    between atoms: C_43  and  C_44 
REMARK   15  A    between atoms: C_44  and  C_45 
REMARK   16  A    between atoms: C_45  and  O_47 
ROOT
HETATM    1  C   UNK     0      -2.051  -1.359 -12.373  0.00  0.00     0.051 C 
HETATM    2  C   UNK     0      -1.355  -0.151 -11.779  0.00  0.00    -0.031 A 
HETATM    3  C   UNK     0      -1.184   1.116 -12.313  0.00  0.00     0.021 A 
HETATM    4  N   UNK     0      -0.471   1.869 -11.443  0.00  0.00    -0.361 N 
HETATM    5  C   UNK     0      -0.191   1.112 -10.362  0.00  0.00     0.022 A 
HETATM    6  C   UNK     0      -0.727  -0.159 -10.540  0.00  0.00    -0.027 A 
HETATM    7  C   UNK     0       0.488   1.492  -9.083  0.00  0.00     0.115 C 
HETATM    8  C   UNK     0       0.099   2.828  -8.476  0.00  0.00     0.021 A 
HETATM    9  N   UNK     0      -1.103   3.426  -8.470  0.00  0.00    -0.361 N 
HETATM   10  C   UNK     0      -0.963   4.642  -7.900  0.00  0.00     0.022 A 
HETATM   11  C   UNK     0       0.363   4.829  -7.521  0.00  0.00    -0.027 A 
HETATM   12  C   UNK     0       1.037   3.690  -7.880  0.00  0.00    -0.031 A 
HETATM   13  C   UNK     0       2.512   3.440  -7.657  0.00  0.00     0.051 C 
HETATM   14  C   UNK     0      -2.058   5.693  -7.740  0.00  0.00     0.115 C 
HETATM   15  C   UNK     0      -2.650   6.171  -9.056  0.00  0.00     0.021 A 
HETATM   16  N   UNK     0      -3.256   5.429 -10.002  0.00  0.00    -0.361 N 
HETATM   17  C   UNK     0      -3.572   6.211 -11.037  0.00  0.00     0.022 A 
HETATM   18  C   UNK     0      -3.161   7.527 -10.747  0.00  0.00    -0.027 A 
HETATM   19  C   UNK     0      -2.587   7.489  -9.504  0.00  0.00    -0.031 A 
HETATM   20  C   UNK     0      -2.038   8.711  -8.790  0.00  0.00     0.051 C 
HETATM   21  C   UNK     0      -4.195   5.856 -12.368  0.00  0.00     0.115 C 
HETATM   22  C   UNK     0      -3.851   4.510 -12.963  0.00  0.00     0.022 A 
HETATM   23  N   UNK     0      -2.665   3.889 -12.980  0.00  0.00    -0.361 N 
HETATM   24  C   UNK     0      -2.843   2.650 -13.480  0.00  0.00     0.021 A 
HETATM   25  C   UNK     0      -4.175   2.473 -13.803  0.00  0.00    -0.031 A 
HETATM   26  C   UNK     0      -4.852   1.271 -14.428  0.00  0.00     0.051 C 
HETATM   27  C   UNK     0      -4.840   3.650 -13.481  0.00  0.00    -0.027 A 
HETATM   28  C   UNK     0      -1.811   1.543 -13.610  0.00  0.00     0.115 C 
HETATM   29  H   UNK     0      -0.136   2.918 -11.615  0.00  0.00     0.165 HD
HETATM   30  H   UNK     0      -2.062   2.972  -8.822  0.00  0.00     0.165 HD
HETATM   31  H   UNK     0      -3.508   4.340  -9.919  0.00  0.00     0.165 HD
HETATM   32  H   UNK     0      -1.682   4.335 -12.678  0.00  0.00     0.165 HD
ENDROOT
BRANCH   6  33
HETATM   33  C   UNK     0      -0.687  -1.365  -9.636  0.00  0.00     0.051 C 
BRANCH  33  34
HETATM   34  C   UNK     0      -1.948  -1.458  -8.811  0.00  0.00     0.114 C 
BRANCH  34  35
HETATM   35  C   UNK     0      -1.641  -0.903  -7.461  0.00  0.00     0.139 C 
HETATM   36  O   UNK     0      -0.609  -1.285  -6.836  0.00  0.00    -0.650 OA
BRANCH  35  37
HETATM   37  O   UNK     0      -2.448   0.039  -6.837  0.00  0.00    -0.776 OA
HETATM   38  H   UNK     0      -2.066   0.772  -6.261  0.00  0.00     0.167 HD
ENDBRANCH  35  37
ENDBRANCH  34  35
ENDBRANCH  33  34
ENDBRANCH   6  33
BRANCH  27  39
HETATM   39  C   UNK     0      -6.287   3.864 -13.754  0.00  0.00     0.051 C 
BRANCH  39  40
HETATM   40  C   UNK     0      -7.085   4.572 -12.753  0.00  0.00     0.114 C 
BRANCH  40  41
HETATM   41  C   UNK     0      -8.247   5.356 -13.108  0.00  0.00     0.139 C 
HETATM   42  O   UNK     0      -8.270   6.153 -14.055  0.00  0.00    -0.650 OA
BRANCH  41  43
HETATM   43  O   UNK     0      -9.436   5.216 -12.338  0.00  0.00    -0.776 OA
HETATM   44  H   UNK     0     -10.101   4.549 -12.711  0.00  0.00     0.167 HD
ENDBRANCH  41  43
ENDBRANCH  40  41
ENDBRANCH  39  40
ENDBRANCH  27  39
BRANCH  11  45
HETATM   45  C   UNK     0       0.990   6.018  -6.845  0.00  0.00     0.051 C 
BRANCH  45  46
HETATM   46  C   UNK     0       0.017   6.916  -6.172  0.00  0.00     0.114 C 
BRANCH  46  47
HETATM   47  C   UNK     0       0.733   8.185  -5.855  0.00  0.00     0.139 C 
HETATM   48  O   UNK     0       0.751   9.084  -6.708  0.00  0.00    -0.650 OA
BRANCH  47  49
HETATM   49  O   UNK     0       1.360   8.355  -4.647  0.00  0.00    -0.776 OA
HETATM   50  H   UNK     0       1.866   7.592  -4.183  0.00  0.00     0.167 HD
ENDBRANCH  47  49
ENDBRANCH  46  47
ENDBRANCH  45  46
ENDBRANCH  11  45
BRANCH  18  51
HETATM   51  C   UNK     0      -3.327   8.758 -11.601  0.00  0.00     0.051 C 
BRANCH  51  52
HETATM   52  C   UNK     0      -4.718   9.299 -11.303  0.00  0.00     0.114 C 
BRANCH  52  53
HETATM   53  C   UNK     0      -4.747  10.774 -11.309  0.00  0.00     0.139 C 
HETATM   54  O   UNK     0      -3.740  11.414 -11.652  0.00  0.00    -0.650 OA
BRANCH  53  55
HETATM   55  O   UNK     0      -5.891  11.433 -10.931  0.00  0.00    -0.776 OA
HETATM   56  H   UNK     0      -6.819  11.095 -11.031  0.00  0.00     0.167 HD
ENDBRANCH  53  55
ENDBRANCH  52  53
ENDBRANCH  51  52
ENDBRANCH  18  51
TORSDOF 16
ENDMDL
MODEL 7
REMARK VINA RESULT:      -9.3     29.708     33.728
REMARK  16 active torsions:
REMARK  status: ('A' for Active; 'I' for Inactive)
REMARK    1  A    between atoms: C_6  and  C_7 
REMARK    2  A    between atoms: C_7  and  C_8 
REMARK    3  A    between atoms: C_8  and  C_9 
REMARK    4  A    between atoms: C_9  and  O_11 
REMARK    5  A    between atoms: C_16  and  C_17 
REMARK    6  A    between atoms: C_17  and  C_18 
REMARK    7  A    between atoms: C_18  and  C_19 
REMARK    8  A    between atoms: C_19  and  O_21 
REMARK    9  A    between atoms: C_28  and  C_29 
REMARK   10  A    between atoms: C_29  and  C_30 
REMARK   11  A    between atoms: C_30  and  C_31 
REMARK   12  A    between atoms: C_31  and  O_33 
REMARK   13  A    between atoms: C_42  and  C_43 
REMARK   14  A    between atoms: C_43  and  C_44 
REMARK   15  A    between atoms: C_44  and  C_45 
REMARK   16  A    between atoms: C_45  and  O_47 
ROOT
HETATM    1  C   UNK     0     -19.421  15.549  11.971  0.00  0.00     0.051 C 
HETATM    2  C   UNK     0     -20.791  15.088  11.515  0.00  0.00    -0.031 A 
HETATM    3  C   UNK     0     -22.028  15.685  11.704  0.00  0.00     0.021 A 
HETATM    4  N   UNK     0     -22.984  14.903  11.150  0.00  0.00    -0.361 N 
HETATM    5  C   UNK     0     -22.383  13.825  10.605  0.00  0.00     0.022 A 
HETATM    6  C   UNK     0     -21.011  13.908  10.817  0.00  0.00    -0.027 A 
HETATM    7  C   UNK     0     -22.975  12.712   9.797  0.00  0.00     0.115 C 
HETATM    8  C   UNK     0     -24.001  13.103   8.747  0.00  0.00     0.021 A 
HETATM    9  N   UNK     0     -24.033  14.201   7.977  0.00  0.00    -0.361 N 
HETATM   10  C   UNK     0     -25.175  14.176   7.258  0.00  0.00     0.022 A 
HETATM   11  C   UNK     0     -25.893  13.025   7.566  0.00  0.00    -0.027 A 
HETATM   12  C   UNK     0     -25.160  12.344   8.504  0.00  0.00    -0.031 A 
HETATM   13  C   UNK     0     -25.551  11.025   9.132  0.00  0.00     0.051 C 
HETATM   14  C   UNK     0     -25.657  15.256   6.294  0.00  0.00     0.115 C 
HETATM   15  C   UNK     0     -25.881  16.610   6.949  0.00  0.00     0.021 A 
HETATM   16  N   UNK     0     -24.982  17.358   7.617  0.00  0.00    -0.361 N 
HETATM   17  C   UNK     0     -25.588  18.444   8.100  0.00  0.00     0.022 A 
HETATM   18  C   UNK     0     -26.945  18.408   7.721  0.00  0.00    -0.027 A 
HETATM   19  C   UNK     0     -27.115  17.255   7.000  0.00  0.00    -0.031 A 
HETATM   20  C   UNK     0     -28.431  16.841   6.367  0.00  0.00     0.051 C 
HETATM   21  C   UNK     0     -25.045  19.553   8.972  0.00  0.00     0.115 C 
HETATM   22  C   UNK     0     -23.991  19.187   9.990  0.00  0.00     0.022 A 
HETATM   23  N   UNK     0     -23.932  18.098  10.769  0.00  0.00    -0.361 N 
HETATM   24  C   UNK     0     -22.750  18.106  11.418  0.00  0.00     0.021 A 
HETATM   25  C   UNK     0     -22.035  19.232  11.057  0.00  0.00    -0.031 A 
HETATM   26  C   UNK     0     -20.680  19.699  11.547  0.00  0.00     0.051 C 
HETATM   27  C   UNK     0     -22.809  19.940  10.144  0.00  0.00    -0.027 A 
HETATM   28  C   UNK     0     -22.189  17.037  12.340  0.00  0.00     0.115 C 
HETATM   29  H   UNK     0     -24.081  15.097  11.183  0.00  0.00     0.165 HD
HETATM   30  H   UNK     0     -23.227  14.972   7.902  0.00  0.00     0.165 HD
HETATM   31  H   UNK     0     -23.886  17.139   7.709  0.00  0.00     0.165 HD
HETATM   32  H   UNK     0     -24.743  17.336  10.900  0.00  0.00     0.165 HD
ENDROOT
BRANCH   6  33
HETATM   33  C   UNK     0     -19.908  12.962  10.415  0.00  0.00     0.051 C 
BRANCH  33  34
HETATM   34  C   UNK     0     -19.403  12.190  11.610  0.00  0.00     0.114 C 
BRANCH  34  35
HETATM   35  C   UNK     0     -20.207  10.937  11.705  0.00  0.00     0.139 C 
HETATM   36  O   UNK     0     -21.272  10.914  12.388  0.00  0.00    -0.650 OA
BRANCH  35  37
HETATM   37  O   UNK     0     -19.840   9.761  11.063  0.00  0.00    -0.776 OA
HETATM   38  H   UNK     0     -19.508   9.752  10.112  0.00  0.00     0.167 HD
ENDBRANCH  35  37
ENDBRANCH  34  35
ENDBRANCH  33  34
ENDBRANCH   6  33
BRANCH  27  39
HETATM   39  C   UNK     0     -22.398  21.255   9.581  0.00  0.00     0.051 C 
BRANCH  39  40
HETATM   40  C   UNK     0     -22.823  22.470  10.275  0.00  0.00     0.114 C 
BRANCH  40  41
HETATM   41  C   UNK     0     -22.170  22.940  11.476  0.00  0.00     0.139 C 
HETATM   42  O   UNK     0     -22.542  22.639  12.618  0.00  0.00    -0.650 OA
BRANCH  41  43
HETATM   43  O   UNK     0     -21.038  23.795  11.358  0.00  0.00    -0.776 OA
HETATM   44  H   UNK     0     -20.146  23.318  11.408  0.00  0.00     0.167 HD
ENDBRANCH  41  43
ENDBRANCH  40  41
ENDBRANCH  39  40
ENDBRANCH  27  39
BRANCH  11  45
HETATM   45  C   UNK     0     -27.215  12.563   7.013  0.00  0.00     0.051 C 
BRANCH  45  46
HETATM   46  C   UNK     0     -27.098  11.661   5.838  0.00  0.00     0.114 C 
BRANCH  46  47
HETATM   47  C   UNK     0     -27.754  10.373   6.203  0.00  0.00     0.139 C 
HETATM   48  O   UNK     0     -28.925  10.398   6.608  0.00  0.00    -0.650 OA
BRANCH  47  49
HETATM   49  O   UNK     0     -27.077   9.185   6.096  0.00  0.00    -0.776 OA
HETATM   50  H   UNK     0     -26.205   9.006   6.607  0.00  0.00     0.167 HD
ENDBRANCH  47  49
ENDBRANCH  46  47
ENDBRANCH  45  46
ENDBRANCH  11  45
BRANCH  18  51
HETATM   51  C   UNK     0     -28.015  19.427   8.011  0.00  0.00     0.051 C 
BRANCH  51  52
HETATM   52  C   UNK     0     -28.625  19.035   9.349  0.00  0.00     0.114 C 
BRANCH  52  53
HETATM   53  C   UNK     0     -28.453  20.092  10.363  0.00  0.00     0.139 C 
HETATM   54  O   UNK     0     -29.014  21.190  10.219  0.00  0.00    -0.650 OA
BRANCH  53  55
HETATM   55  O   UNK     0     -27.666  19.855  11.465  0.00  0.00    -0.776 OA
HETATM   56  H   UNK     0     -26.710  19.589  11.453  0.00  0.00     0.167 HD
ENDBRANCH  53  55
ENDBRANCH  52  53
ENDBRANCH  51  52
ENDBRANCH  18  51
TORSDOF 16
ENDMDL
MODEL 8
REMARK VINA RESULT:      -9.0     29.586     33.010
REMARK  16 active torsions:
REMARK  status: ('A' for Active; 'I' for Inactive)
REMARK    1  A    between atoms: C_6  and  C_7 
REMARK    2  A    between atoms: C_7  and  C_8 
REMARK    3  A    between atoms: C_8  and  C_9 
REMARK    4  A    between atoms: C_9  and  O_11 
REMARK    5  A    between atoms: C_16  and  C_17 
REMARK    6  A    between atoms: C_17  and  C_18 
REMARK    7  A    between atoms: C_18  and  C_19 
REMARK    8  A    between atoms: C_19  and  O_21 
REMARK    9  A    between atoms: C_28  and  C_29 
REMARK   10  A    between atoms: C_29  and  C_30 
REMARK   11  A    between atoms: C_30  and  C_31 
REMARK   12  A    between atoms: C_31  and  O_33 
REMARK   13  A    between atoms: C_42  and  C_43 
REMARK   14  A    between atoms: C_43  and  C_44 
REMARK   15  A    between atoms: C_44  and  C_45 
REMARK   16  A    between atoms: C_45  and  O_47 
ROOT
HETATM    1  C   UNK     0     -19.612  16.264  12.045  0.00  0.00     0.051 C 
HETATM    2  C   UNK     0     -20.571  16.863  11.036  0.00  0.00    -0.031 A 
HETATM    3  C   UNK     0     -21.013  16.347   9.829  0.00  0.00     0.021 A 
HETATM    4  N   UNK     0     -21.843  17.243   9.243  0.00  0.00    -0.361 N 
HETATM    5  C   UNK     0     -21.946  18.315  10.056  0.00  0.00     0.022 A 
HETATM    6  C   UNK     0     -21.161  18.112  11.185  0.00  0.00    -0.027 A 
HETATM    7  C   UNK     0     -22.804  19.534   9.920  0.00  0.00     0.115 C 
HETATM    8  C   UNK     0     -24.234  19.312   9.459  0.00  0.00     0.021 A 
HETATM    9  N   UNK     0     -25.055  18.289   9.742  0.00  0.00    -0.361 N 
HETATM   10  C   UNK     0     -26.197  18.461   9.042  0.00  0.00     0.022 A 
HETATM   11  C   UNK     0     -26.112  19.632   8.295  0.00  0.00    -0.027 A 
HETATM   12  C   UNK     0     -24.879  20.174   8.553  0.00  0.00    -0.031 A 
HETATM   13  C   UNK     0     -24.347  21.460   7.960  0.00  0.00     0.051 C 
HETATM   14  C   UNK     0     -27.386  17.506   9.009  0.00  0.00     0.115 C 
HETATM   15  C   UNK     0     -27.050  16.122   8.478  0.00  0.00     0.021 A 
HETATM   16  N   UNK     0     -26.141  15.255   8.962  0.00  0.00    -0.361 N 
HETATM   17  C   UNK     0     -26.097  14.179   8.173  0.00  0.00     0.022 A 
HETATM   18  C   UNK     0     -27.029  14.349   7.130  0.00  0.00    -0.027 A 
HETATM   19  C   UNK     0     -27.620  15.569   7.333  0.00  0.00    -0.031 A 
HETATM   20  C   UNK     0     -28.718  16.132   6.450  0.00  0.00     0.051 C 
HETATM   21  C   UNK     0     -25.202  12.962   8.237  0.00  0.00     0.115 C 
HETATM   22  C   UNK     0     -23.790  13.161   8.736  0.00  0.00     0.022 A 
HETATM   23  N   UNK     0     -22.951  14.171   8.473  0.00  0.00    -0.361 N 
HETATM   24  C   UNK     0     -21.853  14.020   9.240  0.00  0.00     0.021 A 
HETATM   25  C   UNK     0     -21.983  12.879  10.008  0.00  0.00    -0.031 A 
HETATM   26  C   UNK     0     -21.000  12.272  10.987  0.00  0.00     0.051 C 
HETATM   27  C   UNK     0     -23.214  12.311   9.702  0.00  0.00    -0.027 A 
HETATM   28  C   UNK     0     -20.667  14.962   9.361  0.00  0.00     0.115 C 
HETATM   29  H   UNK     0     -22.319  17.129   8.242  0.00  0.00     0.165 HD
HETATM   30  H   UNK     0     -24.851  17.470  10.474  0.00  0.00     0.165 HD
HETATM   31  H   UNK     0     -25.551  15.383   9.907  0.00  0.00     0.165 HD
HETATM   32  H   UNK     0     -23.109  14.979   7.711  0.00  0.00     0.165 HD
ENDROOT
BRANCH   6  33
HETATM   33  C   UNK     0     -20.929  19.004  12.379  0.00  0.00     0.051 C 
BRANCH  33  34
HETATM   34  C   UNK     0     -22.180  19.110  13.219  0.00  0.00     0.114 C 
BRANCH  34  35
HETATM   35  C   UNK     0     -22.361  20.547  13.570  0.00  0.00     0.139 C 
HETATM   36  O   UNK     0     -21.841  21.449  12.851  0.00  0.00    -0.650 OA
BRANCH  35  37
HETATM   37  O   UNK     0     -23.094  20.962  14.675  0.00  0.00    -0.776 OA
HETATM   38  H   UNK     0     -23.308  21.932  14.842  0.00  0.00     0.167 HD
ENDBRANCH  35  37
ENDBRANCH  34  35
ENDBRANCH  33  34
ENDBRANCH   6  33
BRANCH  27  39
HETATM   39  C   UNK     0     -23.679  11.022  10.283  0.00  0.00     0.051 C 
BRANCH  39  40
HETATM   40  C   UNK     0     -23.692   9.838   9.424  0.00  0.00     0.114 C 
BRANCH  40  41
HETATM   41  C   UNK     0     -22.792   8.726   9.632  0.00  0.00     0.139 C 
HETATM   42  O   UNK     0     -21.605   8.732   9.279  0.00  0.00    -0.650 OA
BRANCH  41  43
HETATM   43  O   UNK     0     -23.280   7.553  10.274  0.00  0.00    -0.776 OA
HETATM   44  H   UNK     0     -23.075   6.691   9.784  0.00  0.00     0.167 HD
ENDBRANCH  41  43
ENDBRANCH  40  41
ENDBRANCH  39  40
ENDBRANCH  27  39
BRANCH  11  45
HETATM   45  C   UNK     0     -27.137  20.237   7.374  0.00  0.00     0.051 C 
BRANCH  45  46
HETATM   46  C   UNK     0     -27.929  21.335   7.985  0.00  0.00     0.114 C 
BRANCH  46  47
HETATM   47  C   UNK     0     -27.671  22.565   7.183  0.00  0.00     0.139 C 
HETATM   48  O   UNK     0     -27.154  23.541   7.746  0.00  0.00    -0.650 OA
BRANCH  47  49
HETATM   49  O   UNK     0     -27.998  22.619   5.852  0.00  0.00    -0.776 OA
HETATM   50  H   UNK     0     -28.346  21.797   5.343  0.00  0.00     0.167 HD
ENDBRANCH  47  49
ENDBRANCH  46  47
ENDBRANCH  45  46
ENDBRANCH  11  45
BRANCH  18  51
HETATM   51  C   UNK     0     -27.354  13.392   6.013  0.00  0.00     0.051 C 
BRANCH  51  52
HETATM   52  C   UNK     0     -28.661  12.715   6.398  0.00  0.00     0.114 C 
BRANCH  52  53
HETATM   53  C   UNK     0     -28.433  11.412   7.053  0.00  0.00     0.139 C 
HETATM   54  O   UNK     0     -28.288  11.353   8.284  0.00  0.00    -0.650 OA
BRANCH  53  55
HETATM   55  O   UNK     0     -28.379  10.270   6.292  0.00  0.00    -0.776 OA
HETATM   56  H   UNK     0     -28.568  10.206   5.320  0.00  0.00     0.167 HD
ENDBRANCH  53  55
ENDBRANCH  52  53
ENDBRANCH  51  52
ENDBRANCH  18  51
TORSDOF 16
ENDMDL
MODEL 9
REMARK VINA RESULT:      -8.9     30.095     33.194
REMARK  16 active torsions:
REMARK  status: ('A' for Active; 'I' for Inactive)
REMARK    1  A    between atoms: C_6  and  C_7 
REMARK    2  A    between atoms: C_7  and  C_8 
REMARK    3  A    between atoms: C_8  and  C_9 
REMARK    4  A    between atoms: C_9  and  O_11 
REMARK    5  A    between atoms: C_16  and  C_17 
REMARK    6  A    between atoms: C_17  and  C_18 
REMARK    7  A    between atoms: C_18  and  C_19 
REMARK    8  A    between atoms: C_19  and  O_21 
REMARK    9  A    between atoms: C_28  and  C_29 
REMARK   10  A    between atoms: C_29  and  C_30 
REMARK   11  A    between atoms: C_30  and  C_31 
REMARK   12  A    between atoms: C_31  and  O_33 
REMARK   13  A    between atoms: C_42  and  C_43 
REMARK   14  A    between atoms: C_43  and  C_44 
REMARK   15  A    between atoms: C_44  and  C_45 
REMARK   16  A    between atoms: C_45  and  O_47 
ROOT
HETATM    1  C   UNK     0     -27.041  21.296   7.429  0.00  0.00     0.051 C 
HETATM    2  C   UNK     0     -26.118  20.412   8.242  0.00  0.00    -0.031 A 
HETATM    3  C   UNK     0     -26.408  19.262   8.961  0.00  0.00     0.021 A 
HETATM    4  N   UNK     0     -25.277  18.819   9.560  0.00  0.00    -0.361 N 
HETATM    5  C   UNK     0     -24.271  19.656   9.232  0.00  0.00     0.022 A 
HETATM    6  C   UNK     0     -24.763  20.666   8.411  0.00  0.00    -0.027 A 
HETATM    7  C   UNK     0     -22.813  19.564   9.555  0.00  0.00     0.115 C 
HETATM    8  C   UNK     0     -22.173  18.192   9.433  0.00  0.00     0.021 A 
HETATM    9  N   UNK     0     -22.436  17.223   8.542  0.00  0.00    -0.361 N 
HETATM   10  C   UNK     0     -21.695  16.143   8.867  0.00  0.00     0.022 A 
HETATM   11  C   UNK     0     -20.928  16.426   9.993  0.00  0.00    -0.027 A 
HETATM   12  C   UNK     0     -21.224  17.715  10.355  0.00  0.00    -0.031 A 
HETATM   13  C   UNK     0     -20.620  18.455  11.527  0.00  0.00     0.051 C 
HETATM   14  C   UNK     0     -21.721  14.788   8.164  0.00  0.00     0.115 C 
HETATM   15  C   UNK     0     -23.077  14.102   8.199  0.00  0.00     0.021 A 
HETATM   16  N   UNK     0     -24.246  14.569   7.723  0.00  0.00    -0.361 N 
HETATM   17  C   UNK     0     -25.216  13.698   8.011  0.00  0.00     0.022 A 
HETATM   18  C   UNK     0     -24.650  12.606   8.699  0.00  0.00    -0.027 A 
HETATM   19  C   UNK     0     -23.309  12.871   8.809  0.00  0.00    -0.031 A 
HETATM   20  C   UNK     0     -22.313  11.927   9.457  0.00  0.00     0.051 C 
HETATM   21  C   UNK     0     -26.705  13.784   7.762  0.00  0.00     0.115 C 
HETATM   22  C   UNK     0     -27.347  15.150   7.837  0.00  0.00     0.022 A 
HETATM   23  N   UNK     0     -27.102  16.135   8.711  0.00  0.00    -0.361 N 
HETATM   24  C   UNK     0     -27.791  17.226   8.323  0.00  0.00     0.021 A 
HETATM   25  C   UNK     0     -28.505  16.934   7.176  0.00  0.00    -0.031 A 
HETATM   26  C   UNK     0     -29.452  17.818   6.391  0.00  0.00     0.051 C 
HETATM   27  C   UNK     0     -28.237  15.611   6.846  0.00  0.00    -0.027 A 
HETATM   28  C   UNK     0     -27.763  18.613   8.942  0.00  0.00     0.115 C 
HETATM   29  H   UNK     0     -25.206  17.941  10.242  0.00  0.00     0.165 HD
HETATM   30  H   UNK     0     -23.105  17.316   7.652  0.00  0.00     0.165 HD
HETATM   31  H   UNK     0     -24.383  15.510   7.130  0.00  0.00     0.165 HD
HETATM   32  H   UNK     0     -26.474  16.056   9.637  0.00  0.00     0.165 HD
ENDROOT
BRANCH   6  33
HETATM   33  C   UNK     0     -24.053  21.839   7.785  0.00  0.00     0.051 C 
BRANCH  33  34
HETATM   34  C   UNK     0     -23.555  22.791   8.846  0.00  0.00     0.114 C 
BRANCH  34  35
HETATM   35  C   UNK     0     -22.247  23.336   8.380  0.00  0.00     0.139 C 
HETATM   36  O   UNK     0     -22.124  24.571   8.132  0.00  0.00    -0.650 OA
BRANCH  35  37
HETATM   37  O   UNK     0     -21.124  22.538   8.200  0.00  0.00    -0.776 OA
HETATM   38  H   UNK     0     -20.271  22.897   7.805  0.00  0.00     0.167 HD
ENDBRANCH  35  37
ENDBRANCH  34  35
ENDBRANCH  33  34
ENDBRANCH   6  33
BRANCH  27  39
HETATM   39  C   UNK     0     -28.885  14.913   5.703  0.00  0.00     0.051 C 
BRANCH  39  40
HETATM   40  C   UNK     0     -28.091  14.666   4.500  0.00  0.00     0.114 C 
BRANCH  40  41
HETATM   41  C   UNK     0     -26.900  15.426   4.193  0.00  0.00     0.139 C 
HETATM   42  O   UNK     0     -25.756  14.953   4.240  0.00  0.00    -0.650 OA
BRANCH  41  43
HETATM   43  O   UNK     0     -27.030  16.793   3.816  0.00  0.00    -0.776 OA
HETATM   44  H   UNK     0     -26.786  17.453   4.544  0.00  0.00     0.167 HD
ENDBRANCH  41  43
ENDBRANCH  40  41
ENDBRANCH  39  40
ENDBRANCH  27  39
BRANCH  11  45
HETATM   45  C   UNK     0     -19.949  15.537  10.713  0.00  0.00     0.051 C 
BRANCH  45  46
HETATM   46  C   UNK     0     -20.554  14.725  11.800  0.00  0.00     0.114 C 
BRANCH  46  47
HETATM   47  C   UNK     0     -19.870  13.401  11.794  0.00  0.00     0.139 C 
HETATM   48  O   UNK     0     -20.049  12.638  12.754  0.00  0.00    -0.650 OA
BRANCH  47  49
HETATM   49  O   UNK     0     -19.058  13.034  10.751  0.00  0.00    -0.776 OA
HETATM   50  H   UNK     0     -18.821  12.052  10.564  0.00  0.00     0.167 HD
ENDBRANCH  47  49
ENDBRANCH  46  47
ENDBRANCH  45  46
ENDBRANCH  11  45
BRANCH  18  51
HETATM   51  C   UNK     0     -25.345  11.369   9.205  0.00  0.00     0.051 C 
BRANCH  51  52
HETATM   52  C   UNK     0     -25.575  10.483   7.989  0.00  0.00     0.114 C 
BRANCH  52  53
HETATM   53  C   UNK     0     -26.877   9.791   8.052  0.00  0.00     0.139 C 
HETATM   54  O   UNK     0     -27.376   9.311   7.022  0.00  0.00    -0.650 OA
BRANCH  53  55
HETATM   55  O   UNK     0     -27.533   9.687   9.254  0.00  0.00    -0.776 OA
HETATM   56  H   UNK     0     -27.445   8.942   9.905  0.00  0.00     0.167 HD
ENDBRANCH  53  55
ENDBRANCH  52  53
ENDBRANCH  51  52
ENDBRANCH  18  51
TORSDOF 16
ENDMDL
MODEL 10
REMARK VINA RESULT:      -8.8     30.578     33.242
REMARK  16 active torsions:
REMARK  status: ('A' for Active; 'I' for Inactive)
REMARK    1  A    between atoms: C_6  and  C_7 
REMARK    2  A    between atoms: C_7  and  C_8 
REMARK    3  A    between atoms: C_8  and  C_9 
REMARK    4  A    between atoms: C_9  and  O_11 
REMARK    5  A    between atoms: C_16  and  C_17 
REMARK    6  A    between atoms: C_17  and  C_18 
REMARK    7  A    between atoms: C_18  and  C_19 
REMARK    8  A    between atoms: C_19  and  O_21 
REMARK    9  A    between atoms: C_28  and  C_29 
REMARK   10  A    between atoms: C_29  and  C_30 
REMARK   11  A    between atoms: C_30  and  C_31 
REMARK   12  A    between atoms: C_31  and  O_33 
REMARK   13  A    between atoms: C_42  and  C_43 
REMARK   14  A    between atoms: C_43  and  C_44 
REMARK   15  A    between atoms: C_44  and  C_45 
REMARK   16  A    between atoms: C_45  and  O_47 
ROOT
HETATM    1  C   UNK     0     -21.641  17.538  12.001  0.00  0.00     0.051 C 
HETATM    2  C   UNK     0     -22.607  17.848  10.875  0.00  0.00    -0.031 A 
HETATM    3  C   UNK     0     -22.673  17.310   9.600  0.00  0.00     0.021 A 
HETATM    4  N   UNK     0     -23.679  17.910   8.920  0.00  0.00    -0.361 N 
HETATM    5  C   UNK     0     -24.261  18.811   9.738  0.00  0.00     0.022 A 
HETATM    6  C   UNK     0     -23.613  18.801  10.968  0.00  0.00    -0.027 A 
HETATM    7  C   UNK     0     -25.468  19.666   9.507  0.00  0.00     0.115 C 
HETATM    8  C   UNK     0     -26.653  19.003   8.826  0.00  0.00     0.021 A 
HETATM    9  N   UNK     0     -27.090  17.740   8.951  0.00  0.00    -0.361 N 
HETATM   10  C   UNK     0     -28.114  17.564   8.090  0.00  0.00     0.022 A 
HETATM   11  C   UNK     0     -28.350  18.748   7.399  0.00  0.00    -0.027 A 
HETATM   12  C   UNK     0     -27.433  19.659   7.858  0.00  0.00    -0.031 A 
HETATM   13  C   UNK     0     -27.316  21.093   7.391  0.00  0.00     0.051 C 
HETATM   14  C   UNK     0     -28.874  16.263   7.847  0.00  0.00     0.115 C 
HETATM   15  C   UNK     0     -28.003  15.127   7.334  0.00  0.00     0.021 A 
HETATM   16  N   UNK     0     -26.920  14.591   7.927  0.00  0.00    -0.361 N 
HETATM   17  C   UNK     0     -26.395  13.664   7.123  0.00  0.00     0.022 A 
HETATM   18  C   UNK     0     -27.179  13.586   5.955  0.00  0.00    -0.027 A 
HETATM   19  C   UNK     0     -28.184  14.506   6.100  0.00  0.00    -0.031 A 
HETATM   20  C   UNK     0     -29.282  14.726   5.076  0.00  0.00     0.051 C 
HETATM   21  C   UNK     0     -25.145  12.829   7.289  0.00  0.00     0.115 C 
HETATM   22  C   UNK     0     -23.974  13.461   8.003  0.00  0.00     0.022 A 
HETATM   23  N   UNK     0     -23.519  14.717   7.901  0.00  0.00    -0.361 N 
HETATM   24  C   UNK     0     -22.550  14.892   8.823  0.00  0.00     0.021 A 
HETATM   25  C   UNK     0     -22.370  13.718   9.528  0.00  0.00    -0.031 A 
HETATM   26  C   UNK     0     -21.376  13.410  10.629  0.00  0.00     0.051 C 
HETATM   27  C   UNK     0     -23.270  12.787   9.021  0.00  0.00    -0.027 A 
HETATM   28  C   UNK     0     -21.801  16.172   9.151  0.00  0.00     0.115 C 
HETATM   29  H   UNK     0     -23.946  17.720   7.855  0.00  0.00     0.165 HD
HETATM   30  H   UNK     0     -26.710  16.985   9.682  0.00  0.00     0.165 HD
HETATM   31  H   UNK     0     -26.545  14.837   8.954  0.00  0.00     0.165 HD
HETATM   32  H   UNK     0     -23.848  15.479   7.148  0.00  0.00     0.165 HD
ENDROOT
BRANCH   6  33
HETATM   33  C   UNK     0     -23.872  19.618  12.208  0.00  0.00     0.051 C 
BRANCH  33  34
HETATM   34  C   UNK     0     -23.007  20.856  12.224  0.00  0.00     0.114 C 
BRANCH  34  35
HETATM   35  C   UNK     0     -22.532  21.051  13.623  0.00  0.00     0.139 C 
HETATM   36  O   UNK     0     -21.345  21.431  13.846  0.00  0.00    -0.650 OA
BRANCH  35  37
HETATM   37  O   UNK     0     -23.346  20.834  14.729  0.00  0.00    -0.776 OA
HETATM   38  H   UNK     0     -23.924  21.562  15.118  0.00  0.00     0.167 HD
ENDBRANCH  35  37
ENDBRANCH  34  35
ENDBRANCH  33  34
ENDBRANCH   6  33
BRANCH  27  39
HETATM   39  C   UNK     0     -23.323  11.375   9.487  0.00  0.00     0.051 C 
BRANCH  39  40
HETATM   40  C   UNK     0     -24.445  10.964  10.330  0.00  0.00     0.114 C 
BRANCH  40  41
HETATM   41  C   UNK     0     -24.290  10.696  11.742  0.00  0.00     0.139 C 
HETATM   42  O   UNK     0     -23.219  10.832  12.350  0.00  0.00    -0.650 OA
BRANCH  41  43
HETATM   43  O   UNK     0     -25.417  10.250  12.489  0.00  0.00    -0.776 OA
HETATM   44  H   UNK     0     -26.312  10.511  12.093  0.00  0.00     0.167 HD
ENDBRANCH  41  43
ENDBRANCH  40  41
ENDBRANCH  39  40
ENDBRANCH  27  39
BRANCH  11  45
HETATM   45  C   UNK     0     -29.390  19.035   6.349  0.00  0.00     0.051 C 
BRANCH  45  46
HETATM   46  C   UNK     0     -28.935  18.777   4.959  0.00  0.00     0.114 C 
BRANCH  46  47
HETATM   47  C   UNK     0     -29.094  20.050   4.199  0.00  0.00     0.139 C 
HETATM   48  O   UNK     0     -30.015  20.816   4.512  0.00  0.00    -0.650 OA
BRANCH  47  49
HETATM   49  O   UNK     0     -28.239  20.367   3.173  0.00  0.00    -0.776 OA
HETATM   50  H   UNK     0     -27.273  20.669   3.343  0.00  0.00     0.167 HD
ENDBRANCH  47  49
ENDBRANCH  46  47
ENDBRANCH  45  46
ENDBRANCH  11  45
BRANCH  18  51
HETATM   51  C   UNK     0     -26.993  12.668   4.774  0.00  0.00     0.051 C 
BRANCH  51  52
HETATM   52  C   UNK     0     -27.965  11.516   4.972  0.00  0.00     0.114 C 
BRANCH  52  53
HETATM   53  C   UNK     0     -27.322  10.360   5.628  0.00  0.00     0.139 C 
HETATM   54  O   UNK     0     -26.165  10.036   5.318  0.00  0.00    -0.650 OA
BRANCH  53  55
HETATM   55  O   UNK     0     -28.012   9.646   6.577  0.00  0.00    -0.776 OA
HETATM   56  H   UNK     0     -27.612   9.126   7.321  0.00  0.00     0.167 HD
ENDBRANCH  53  55
ENDBRANCH  52  53
ENDBRANCH  51  52
ENDBRANCH  18  51
TORSDOF 16
ENDMDL
MODEL 11
REMARK VINA RESULT:      -8.8     29.173     32.859
REMARK  16 active torsions:
REMARK  status: ('A' for Active; 'I' for Inactive)
REMARK    1  A    between atoms: C_6  and  C_7 
REMARK    2  A    between atoms: C_7  and  C_8 
REMARK    3  A    between atoms: C_8  and  C_9 
REMARK    4  A    between atoms: C_9  and  O_11 
REMARK    5  A    between atoms: C_16  and  C_17 
REMARK    6  A    between atoms: C_17  and  C_18 
REMARK    7  A    between atoms: C_18  and  C_19 
REMARK    8  A    between atoms: C_19  and  O_21 
REMARK    9  A    between atoms: C_28  and  C_29 
REMARK   10  A    between atoms: C_29  and  C_30 
REMARK   11  A    between atoms: C_30  and  C_31 
REMARK   12  A    between atoms: C_31  and  O_33 
REMARK   13  A    between atoms: C_42  and  C_43 
REMARK   14  A    between atoms: C_43  and  C_44 
REMARK   15  A    between atoms: C_44  and  C_45 
REMARK   16  A    between atoms: C_45  and  O_47 
ROOT
HETATM    1  C   UNK     0     -28.845  17.527   7.317  0.00  0.00     0.051 C 
HETATM    2  C   UNK     0     -28.100  16.249   6.990  0.00  0.00    -0.031 A 
HETATM    3  C   UNK     0     -26.735  16.009   6.962  0.00  0.00     0.021 A 
HETATM    4  N   UNK     0     -26.520  14.726   6.586  0.00  0.00    -0.361 N 
HETATM    5  C   UNK     0     -27.718  14.140   6.382  0.00  0.00     0.022 A 
HETATM    6  C   UNK     0     -28.728  15.066   6.623  0.00  0.00    -0.027 A 
HETATM    7  C   UNK     0     -28.038  12.717   6.047  0.00  0.00     0.115 C 
HETATM    8  C   UNK     0     -27.255  11.650   6.792  0.00  0.00     0.021 A 
HETATM    9  N   UNK     0     -26.824  11.662   8.063  0.00  0.00    -0.361 N 
HETATM   10  C   UNK     0     -26.092  10.547   8.269  0.00  0.00     0.022 A 
HETATM   11  C   UNK     0     -26.057   9.791   7.101  0.00  0.00    -0.027 A 
HETATM   12  C   UNK     0     -26.788  10.480   6.167  0.00  0.00    -0.031 A 
HETATM   13  C   UNK     0     -27.030  10.032   4.743  0.00  0.00     0.051 C 
HETATM   14  C   UNK     0     -25.354  10.178   9.553  0.00  0.00     0.115 C 
HETATM   15  C   UNK     0     -24.285  11.179   9.959  0.00  0.00     0.021 A 
HETATM   16  N   UNK     0     -24.445  12.491  10.219  0.00  0.00    -0.361 N 
HETATM   17  C   UNK     0     -23.253  13.036  10.471  0.00  0.00     0.022 A 
HETATM   18  C   UNK     0     -22.270  12.029  10.381  0.00  0.00    -0.027 A 
HETATM   19  C   UNK     0     -22.930  10.871  10.061  0.00  0.00    -0.031 A 
HETATM   20  C   UNK     0     -22.245   9.526   9.902  0.00  0.00     0.051 C 
HETATM   21  C   UNK     0     -22.881  14.475  10.747  0.00  0.00     0.115 C 
HETATM   22  C   UNK     0     -23.681  15.548  10.046  0.00  0.00     0.022 A 
HETATM   23  N   UNK     0     -24.126  15.560   8.783  0.00  0.00    -0.361 N 
HETATM   24  C   UNK     0     -24.917  16.641   8.624  0.00  0.00     0.021 A 
HETATM   25  C   UNK     0     -24.974  17.347   9.810  0.00  0.00    -0.031 A 
HETATM   26  C   UNK     0     -25.696  18.643  10.114  0.00  0.00     0.051 C 
HETATM   27  C   UNK     0     -24.191  16.667  10.735  0.00  0.00    -0.027 A 
HETATM   28  C   UNK     0     -25.722  17.030   7.395  0.00  0.00     0.115 C 
HETATM   29  H   UNK     0     -25.522  14.254   6.428  0.00  0.00     0.165 HD
HETATM   30  H   UNK     0     -27.077  12.433   8.832  0.00  0.00     0.165 HD
HETATM   31  H   UNK     0     -25.424  13.034  10.272  0.00  0.00     0.165 HD
HETATM   32  H   UNK     0     -23.851  14.829   7.979  0.00  0.00     0.165 HD
ENDROOT
BRANCH   6  33
HETATM   33  C   UNK     0     -30.226  14.914   6.530  0.00  0.00     0.051 C 
BRANCH  33  34
HETATM   34  C   UNK     0     -30.799  14.447   7.848  0.00  0.00     0.114 C 
BRANCH  34  35
HETATM   35  C   UNK     0     -31.190  13.018   7.684  0.00  0.00     0.139 C 
HETATM   36  O   UNK     0     -32.008  12.681   6.779  0.00  0.00    -0.650 OA
BRANCH  35  37
HETATM   37  O   UNK     0     -30.687  12.006   8.493  0.00  0.00    -0.776 OA
HETATM   38  H   UNK     0     -29.725  11.713   8.447  0.00  0.00     0.167 HD
ENDBRANCH  35  37
ENDBRANCH  34  35
ENDBRANCH  33  34
ENDBRANCH   6  33
BRANCH  27  39
HETATM   39  C   UNK     0     -23.950  17.167  12.116  0.00  0.00     0.051 C 
BRANCH  39  40
HETATM   40  C   UNK     0     -22.875  18.136  12.326  0.00  0.00     0.114 C 
BRANCH  40  41
HETATM   41  C   UNK     0     -23.123  19.462  12.846  0.00  0.00     0.139 C 
HETATM   42  O   UNK     0     -23.157  20.478  12.138  0.00  0.00    -0.650 OA
BRANCH  41  43
HETATM   43  O   UNK     0     -23.341  19.628  14.243  0.00  0.00    -0.776 OA
HETATM   44  H   UNK     0     -24.055  19.023  14.630  0.00  0.00     0.167 HD
ENDBRANCH  41  43
ENDBRANCH  40  41
ENDBRANCH  39  40
ENDBRANCH  27  39
BRANCH  11  45
HETATM   45  C   UNK     0     -25.375   8.472   6.853  0.00  0.00     0.051 C 
BRANCH  45  46
HETATM   46  C   UNK     0     -26.295   7.306   6.844  0.00  0.00     0.114 C 
BRANCH  46  47
HETATM   47  C   UNK     0     -26.179   6.662   5.505  0.00  0.00     0.139 C 
HETATM   48  O   UNK     0     -27.071   5.882   5.143  0.00  0.00    -0.650 OA
BRANCH  47  49
HETATM   49  O   UNK     0     -25.108   6.925   4.689  0.00  0.00    -0.776 OA
HETATM   50  H   UNK     0     -24.551   6.176   4.262  0.00  0.00     0.167 HD
ENDBRANCH  47  49
ENDBRANCH  46  47
ENDBRANCH  45  46
ENDBRANCH  11  45
BRANCH  18  51
HETATM   51  C   UNK     0     -20.787  12.160  10.609  0.00  0.00     0.051 C 
BRANCH  51  52
HETATM   52  C   UNK     0     -20.514  11.574  11.986  0.00  0.00     0.114 C 
BRANCH  52  53
HETATM   53  C   UNK     0     -19.283  10.760  12.002  0.00  0.00     0.139 C 
HETATM   54  O   UNK     0     -19.336   9.549  11.734  0.00  0.00    -0.650 OA
BRANCH  53  55
HETATM   55  O   UNK     0     -18.083  11.348  12.319  0.00  0.00    -0.776 OA
HETATM   56  H   UNK     0     -17.792  11.628  13.226  0.00  0.00     0.167 HD
ENDBRANCH  53  55
ENDBRANCH  52  53
ENDBRANCH  51  52
ENDBRANCH  18  51
TORSDOF 16
ENDMDL
MODEL 12
REMARK VINA RESULT:      -8.8     29.931     34.372
REMARK  16 active torsions:
REMARK  status: ('A' for Active; 'I' for Inactive)
REMARK    1  A    between atoms: C_6  and  C_7 
REMARK    2  A    between atoms: C_7  and  C_8 
REMARK    3  A    between atoms: C_8  and  C_9 
REMARK    4  A    between atoms: C_9  and  O_11 
REMARK    5  A    between atoms: C_16  and  C_17 
REMARK    6  A    between atoms: C_17  and  C_18 
REMARK    7  A    between atoms: C_18  and  C_19 
REMARK    8  A    between atoms: C_19  and  O_21 
REMARK    9  A    between atoms: C_28  and  C_29 
REMARK   10  A    between atoms: C_29  and  C_30 
REMARK   11  A    between atoms: C_30  and  C_31 
REMARK   12  A    between atoms: C_31  and  O_33 
REMARK   13  A    between atoms: C_42  and  C_43 
REMARK   14  A    between atoms: C_43  and  C_44 
REMARK   15  A    between atoms: C_44  and  C_45 
REMARK   16  A    between atoms: C_45  and  O_47 
ROOT
HETATM    1  C   UNK     0     -25.480   9.884   9.229  0.00  0.00     0.051 C 
HETATM    2  C   UNK     0     -25.082  11.303   8.875  0.00  0.00    -0.031 A 
HETATM    3  C   UNK     0     -25.465  12.080   7.793  0.00  0.00     0.021 A 
HETATM    4  N   UNK     0     -24.837  13.277   7.865  0.00  0.00    -0.361 N 
HETATM    5  C   UNK     0     -24.069  13.283   8.975  0.00  0.00     0.022 A 
HETATM    6  C   UNK     0     -24.197  12.062   9.628  0.00  0.00    -0.027 A 
HETATM    7  C   UNK     0     -23.251  14.392   9.560  0.00  0.00     0.115 C 
HETATM    8  C   UNK     0     -23.883  15.773   9.570  0.00  0.00     0.021 A 
HETATM    9  N   UNK     0     -25.171  16.102   9.754  0.00  0.00    -0.361 N 
HETATM   10  C   UNK     0     -25.290  17.436   9.589  0.00  0.00     0.022 A 
HETATM   11  C   UNK     0     -24.043  17.983   9.300  0.00  0.00    -0.027 A 
HETATM   12  C   UNK     0     -23.152  16.941   9.287  0.00  0.00    -0.031 A 
HETATM   13  C   UNK     0     -21.669  17.062   9.020  0.00  0.00     0.051 C 
HETATM   14  C   UNK     0     -26.587  18.239   9.645  0.00  0.00     0.115 C 
HETATM   15  C   UNK     0     -27.609  17.830   8.597  0.00  0.00     0.021 A 
HETATM   16  N   UNK     0     -28.161  16.615   8.418  0.00  0.00    -0.361 N 
HETATM   17  C   UNK     0     -28.959  16.649   7.348  0.00  0.00     0.022 A 
HETATM   18  C   UNK     0     -28.933  17.951   6.809  0.00  0.00    -0.027 A 
HETATM   19  C   UNK     0     -28.085  18.681   7.601  0.00  0.00    -0.031 A 
HETATM   20  C   UNK     0     -27.796  20.156   7.393  0.00  0.00     0.051 C 
HETATM   21  C   UNK     0     -29.747  15.540   6.688  0.00  0.00     0.115 C 
HETATM   22  C   UNK     0     -29.151  14.153   6.709  0.00  0.00     0.022 A 
HETATM   23  N   UNK     0     -27.872  13.796   6.533  0.00  0.00    -0.361 N 
HETATM   24  C   UNK     0     -27.763  12.475   6.778  0.00  0.00     0.021 A 
HETATM   25  C   UNK     0     -29.004  11.966   7.111  0.00  0.00    -0.031 A 
HETATM   26  C   UNK     0     -29.394  10.538   7.429  0.00  0.00     0.051 C 
HETATM   27  C   UNK     0     -29.908  13.021   7.073  0.00  0.00    -0.027 A 
HETATM   28  C   UNK     0     -26.498  11.634   6.797  0.00  0.00     0.115 C 
HETATM   29  H   UNK     0     -24.909  14.095   7.111  0.00  0.00     0.165 HD
HETATM   30  H   UNK     0     -25.990  15.401  10.050  0.00  0.00     0.165 HD
HETATM   31  H   UNK     0     -28.023  15.727   9.088  0.00  0.00     0.165 HD
HETATM   32  H   UNK     0     -27.041  14.466   6.191  0.00  0.00     0.165 HD
ENDROOT
BRANCH   6  33
HETATM   33  C   UNK     0     -23.548  11.568  10.897  0.00  0.00     0.051 C 
BRANCH  33  34
HETATM   34  C   UNK     0     -22.112  11.176  10.645  0.00  0.00     0.114 C 
BRANCH  34  35
HETATM   35  C   UNK     0     -22.083   9.702  10.424  0.00  0.00     0.139 C 
HETATM   36  O   UNK     0     -22.686   8.926  11.222  0.00  0.00    -0.650 OA
BRANCH  35  37
HETATM   37  O   UNK     0     -21.413   9.118   9.356  0.00  0.00    -0.776 OA
HETATM   38  H   UNK     0     -21.677   8.218   8.988  0.00  0.00     0.167 HD
ENDBRANCH  35  37
ENDBRANCH  34  35
ENDBRANCH  33  34
ENDBRANCH   6  33
BRANCH  27  39
HETATM   39  C   UNK     0     -31.368  12.846   7.306  0.00  0.00     0.051 C 
BRANCH  39  40
HETATM   40  C   UNK     0     -32.215  12.493   6.168  0.00  0.00     0.114 C 
BRANCH  40  41
HETATM   41  C   UNK     0     -31.780  12.667   4.800  0.00  0.00     0.139 C 
HETATM   42  O   UNK     0     -31.348  11.744   4.098  0.00  0.00    -0.650 OA
BRANCH  41  43
HETATM   43  O   UNK     0     -31.845  13.963   4.214  0.00  0.00    -0.776 OA
HETATM   44  H   UNK     0     -31.739  14.726   4.871  0.00  0.00     0.167 HD
ENDBRANCH  41  43
ENDBRANCH  40  41
ENDBRANCH  39  40
ENDBRANCH  27  39
BRANCH  11  45
HETATM   45  C   UNK     0     -23.682  19.422   9.047  0.00  0.00     0.051 C 
BRANCH  45  46
HETATM   46  C   UNK     0     -23.594  20.251  10.276  0.00  0.00     0.114 C 
BRANCH  46  47
HETATM   47  C   UNK     0     -22.173  20.679  10.420  0.00  0.00     0.139 C 
HETATM   48  O   UNK     0     -21.789  21.099  11.520  0.00  0.00    -0.650 OA
BRANCH  47  49
HETATM   49  O   UNK     0     -21.308  20.612   9.357  0.00  0.00    -0.776 OA
HETATM   50  H   UNK     0     -20.817  19.746   9.108  0.00  0.00     0.167 HD
ENDBRANCH  47  49
ENDBRANCH  46  47
ENDBRANCH  45  46
ENDBRANCH  11  45
BRANCH  18  51
HETATM   51  C   UNK     0     -29.691  18.476   5.618  0.00  0.00     0.051 C 
BRANCH  51  52
HETATM   52  C   UNK     0     -31.167  18.314   5.947  0.00  0.00     0.114 C 
BRANCH  52  53
HETATM   53  C   UNK     0     -31.902  17.638   4.860  0.00  0.00     0.139 C 
HETATM   54  O   UNK     0     -32.676  16.703   5.121  0.00  0.00    -0.650 OA
BRANCH  53  55
HETATM   55  O   UNK     0     -31.722  18.048   3.561  0.00  0.00    -0.776 OA
HETATM   56  H   UNK     0     -30.918  18.503   3.199  0.00  0.00     0.167 HD
ENDBRANCH  53  55
ENDBRANCH  52  53
ENDBRANCH  51  52
ENDBRANCH  18  51
TORSDOF 16
ENDMDL
MODEL 13
REMARK VINA RESULT:      -8.6     29.746     33.428
REMARK  16 active torsions:
REMARK  status: ('A' for Active; 'I' for Inactive)
REMARK    1  A    between atoms: C_6  and  C_7 
REMARK    2  A    between atoms: C_7  and  C_8 
REMARK    3  A    between atoms: C_8  and  C_9 
REMARK    4  A    between atoms: C_9  and  O_11 
REMARK    5  A    between atoms: C_16  and  C_17 
REMARK    6  A    between atoms: C_17  and  C_18 
REMARK    7  A    between atoms: C_18  and  C_19 
REMARK    8  A    between atoms: C_19  and  O_21 
REMARK    9  A    between atoms: C_28  and  C_29 
REMARK   10  A    between atoms: C_29  and  C_30 
REMARK   11  A    between atoms: C_30  and  C_31 
REMARK   12  A    between atoms: C_31  and  O_33 
REMARK   13  A    between atoms: C_42  and  C_43 
REMARK   14  A    between atoms: C_43  and  C_44 
REMARK   15  A    between atoms: C_44  and  C_45 
REMARK   16  A    between atoms: C_45  and  O_47 
ROOT
HETATM    1  C   UNK     0     -19.141  16.928  11.207  0.00  0.00     0.051 C 
HETATM    2  C   UNK     0     -20.450  16.195  10.998  0.00  0.00    -0.031 A 
HETATM    3  C   UNK     0     -21.748  16.635  11.205  0.00  0.00     0.021 A 
HETATM    4  N   UNK     0     -22.607  15.629  10.916  0.00  0.00    -0.361 N 
HETATM    5  C   UNK     0     -21.885  14.560  10.522  0.00  0.00     0.022 A 
HETATM    6  C   UNK     0     -20.532  14.878  10.564  0.00  0.00    -0.027 A 
HETATM    7  C   UNK     0     -22.352  13.233  10.008  0.00  0.00     0.115 C 
HETATM    8  C   UNK     0     -23.507  13.252   9.023  0.00  0.00     0.021 A 
HETATM    9  N   UNK     0     -23.776  14.155   8.067  0.00  0.00    -0.361 N 
HETATM   10  C   UNK     0     -24.952  13.821   7.494  0.00  0.00     0.022 A 
HETATM   11  C   UNK     0     -25.449  12.667   8.091  0.00  0.00    -0.027 A 
HETATM   12  C   UNK     0     -24.544  12.303   9.055  0.00  0.00    -0.031 A 
HETATM   13  C   UNK     0     -24.668  11.098   9.960  0.00  0.00     0.051 C 
HETATM   14  C   UNK     0     -25.676  14.604   6.402  0.00  0.00     0.115 C 
HETATM   15  C   UNK     0     -26.062  16.017   6.810  0.00  0.00     0.021 A 
HETATM   16  N   UNK     0     -25.245  17.004   7.222  0.00  0.00    -0.361 N 
HETATM   17  C   UNK     0     -25.978  18.069   7.554  0.00  0.00     0.022 A 
HETATM   18  C   UNK     0     -27.337  17.764   7.339  0.00  0.00    -0.027 A 
HETATM   19  C   UNK     0     -27.376  16.476   6.872  0.00  0.00    -0.031 A 
HETATM   20  C   UNK     0     -28.654  15.760   6.476  0.00  0.00     0.051 C 
HETATM   21  C   UNK     0     -25.553  19.398   8.136  0.00  0.00     0.115 C 
HETATM   22  C   UNK     0     -24.378  19.400   9.085  0.00  0.00     0.022 A 
HETATM   23  N   UNK     0     -24.083  18.513  10.043  0.00  0.00    -0.361 N 
HETATM   24  C   UNK     0     -22.870  18.820  10.547  0.00  0.00     0.021 A 
HETATM   25  C   UNK     0     -22.377  19.939   9.904  0.00  0.00    -0.031 A 
HETATM   26  C   UNK     0     -21.080  20.683  10.146  0.00  0.00     0.051 C 
HETATM   27  C   UNK     0     -23.324  20.329   8.964  0.00  0.00    -0.027 A 
HETATM   28  C   UNK     0     -22.074  18.051  11.587  0.00  0.00     0.115 C 
HETATM   29  H   UNK     0     -23.715  15.669  11.031  0.00  0.00     0.165 HD
HETATM   30  H   UNK     0     -23.112  15.000   7.760  0.00  0.00     0.165 HD
HETATM   31  H   UNK     0     -24.125  16.967   7.234  0.00  0.00     0.165 HD
HETATM   32  H   UNK     0     -24.748  17.685  10.404  0.00  0.00     0.165 HD
ENDROOT
BRANCH   6  33
HETATM   33  C   UNK     0     -19.326  14.036  10.230  0.00  0.00     0.051 C 
BRANCH  33  34
HETATM   34  C   UNK     0     -18.667  13.522  11.488  0.00  0.00     0.114 C 
BRANCH  34  35
HETATM   35  C   UNK     0     -19.465  12.356  11.966  0.00  0.00     0.139 C 
HETATM   36  O   UNK     0     -20.041  12.397  13.092  0.00  0.00    -0.650 OA
BRANCH  35  37
HETATM   37  O   UNK     0     -19.615  11.195  11.218  0.00  0.00    -0.776 OA
HETATM   38  H   UNK     0     -18.982  10.416  11.306  0.00  0.00     0.167 HD
ENDBRANCH  35  37
ENDBRANCH  34  35
ENDBRANCH  33  34
ENDBRANCH   6  33
BRANCH  27  39
HETATM   39  C   UNK     0     -23.175  21.546   8.120  0.00  0.00     0.051 C 
BRANCH  39  40
HETATM   40  C   UNK     0     -23.310  22.854   8.760  0.00  0.00     0.114 C 
BRANCH  40  41
HETATM   41  C   UNK     0     -22.389  23.938   8.501  0.00  0.00     0.139 C 
HETATM   42  O   UNK     0     -21.371  24.145   9.175  0.00  0.00    -0.650 OA
BRANCH  41  43
HETATM   43  O   UNK     0     -22.650  24.822   7.416  0.00  0.00    -0.776 OA
HETATM   44  H   UNK     0     -23.569  25.247   7.434  0.00  0.00     0.167 HD
ENDBRANCH  41  43
ENDBRANCH  40  41
ENDBRANCH  39  40
ENDBRANCH  27  39
BRANCH  11  45
HETATM   45  C   UNK     0     -26.719  11.919   7.783  0.00  0.00     0.051 C 
BRANCH  45  46
HETATM   46  C   UNK     0     -26.578  10.904   6.708  0.00  0.00     0.114 C 
BRANCH  46  47
HETATM   47  C   UNK     0     -27.702   9.937   6.864  0.00  0.00     0.139 C 
HETATM   48  O   UNK     0     -27.439   8.774   7.201  0.00  0.00    -0.650 OA
BRANCH  47  49
HETATM   49  O   UNK     0     -28.999  10.324   6.639  0.00  0.00    -0.776 OA
HETATM   50  H   UNK     0     -29.335  11.265   6.873  0.00  0.00     0.167 HD
ENDBRANCH  47  49
ENDBRANCH  46  47
ENDBRANCH  45  46
ENDBRANCH  11  45
BRANCH  18  51
HETATM   51  C   UNK     0     -28.532  18.659   7.547  0.00  0.00     0.051 C 
BRANCH  51  52
HETATM   52  C   UNK     0     -29.185  18.821   6.182  0.00  0.00     0.114 C 
BRANCH  52  53
HETATM   53  C   UNK     0     -28.734  20.048   5.499  0.00  0.00     0.139 C 
HETATM   54  O   UNK     0     -28.943  20.196   4.284  0.00  0.00    -0.650 OA
BRANCH  53  55
HETATM   55  O   UNK     0     -28.079  21.022   6.213  0.00  0.00    -0.776 OA
HETATM   56  H   UNK     0     -27.520  20.878   7.021  0.00  0.00     0.167 HD
ENDBRANCH  53  55
ENDBRANCH  52  53
ENDBRANCH  51  52
ENDBRANCH  18  51
TORSDOF 16
ENDMDL
MODEL 14
REMARK VINA RESULT:      -8.5     30.851     33.974
REMARK  16 active torsions:
REMARK  status: ('A' for Active; 'I' for Inactive)
REMARK    1  A    between atoms: C_6  and  C_7 
REMARK    2  A    between atoms: C_7  and  C_8 
REMARK    3  A    between atoms: C_8  and  C_9 
REMARK    4  A    between atoms: C_9  and  O_11 
REMARK    5  A    between atoms: C_16  and  C_17 
REMARK    6  A    between atoms: C_17  and  C_18 
REMARK    7  A    between atoms: C_18  and  C_19 
REMARK    8  A    between atoms: C_19  and  O_21 
REMARK    9  A    between atoms: C_28  and  C_29 
REMARK   10  A    between atoms: C_29  and  C_30 
REMARK   11  A    between atoms: C_30  and  C_31 
REMARK   12  A    between atoms: C_31  and  O_33 
REMARK   13  A    between atoms: C_42  and  C_43 
REMARK   14  A    between atoms: C_43  and  C_44 
REMARK   15  A    between atoms: C_44  and  C_45 
REMARK   16  A    between atoms: C_45  and  O_47 
ROOT
HETATM    1  C   UNK     0     -25.917  21.863   7.820  0.00  0.00     0.051 C 
HETATM    2  C   UNK     0     -25.791  20.422   8.270  0.00  0.00    -0.031 A 
HETATM    3  C   UNK     0     -26.763  19.438   8.355  0.00  0.00     0.021 A 
HETATM    4  N   UNK     0     -26.203  18.304   8.840  0.00  0.00    -0.361 N 
HETATM    5  C   UNK     0     -24.893  18.542   9.058  0.00  0.00     0.022 A 
HETATM    6  C   UNK     0     -24.602  19.858   8.715  0.00  0.00    -0.027 A 
HETATM    7  C   UNK     0     -23.815  17.601   9.498  0.00  0.00     0.115 C 
HETATM    8  C   UNK     0     -23.814  16.221   8.865  0.00  0.00     0.021 A 
HETATM    9  N   UNK     0     -24.140  15.878   7.609  0.00  0.00    -0.361 N 
HETATM   10  C   UNK     0     -24.083  14.532   7.515  0.00  0.00     0.022 A 
HETATM   11  C   UNK     0     -23.702  13.995   8.741  0.00  0.00    -0.027 A 
HETATM   12  C   UNK     0     -23.531  15.054   9.596  0.00  0.00    -0.031 A 
HETATM   13  C   UNK     0     -23.109  14.948  11.044  0.00  0.00     0.051 C 
HETATM   14  C   UNK     0     -24.436  13.699   6.286  0.00  0.00     0.115 C 
HETATM   15  C   UNK     0     -25.878  13.857   5.828  0.00  0.00     0.021 A 
HETATM   16  N   UNK     0     -26.502  14.991   5.458  0.00  0.00    -0.361 N 
HETATM   17  C   UNK     0     -27.782  14.720   5.194  0.00  0.00     0.022 A 
HETATM   18  C   UNK     0     -28.000  13.342   5.393  0.00  0.00    -0.027 A 
HETATM   19  C   UNK     0     -26.799  12.813   5.788  0.00  0.00    -0.031 A 
HETATM   20  C   UNK     0     -26.580  11.339   6.075  0.00  0.00     0.051 C 
HETATM   21  C   UNK     0     -28.913  15.648   4.813  0.00  0.00     0.115 C 
HETATM   22  C   UNK     0     -28.903  17.039   5.401  0.00  0.00     0.022 A 
HETATM   23  N   UNK     0     -28.580  17.411   6.647  0.00  0.00    -0.361 N 
HETATM   24  C   UNK     0     -28.567  18.758   6.697  0.00  0.00     0.021 A 
HETATM   25  C   UNK     0     -28.901  19.266   5.456  0.00  0.00    -0.031 A 
HETATM   26  C   UNK     0     -29.057  20.711   5.028  0.00  0.00     0.051 C 
HETATM   27  C   UNK     0     -29.121  18.185   4.610  0.00  0.00    -0.027 A 
HETATM   28  C   UNK     0     -28.170  19.641   7.867  0.00  0.00     0.115 C 
HETATM   29  H   UNK     0     -26.745  17.356   9.062  0.00  0.00     0.165 HD
HETATM   30  H   UNK     0     -24.361  16.585   6.773  0.00  0.00     0.165 HD
HETATM   31  H   UNK     0     -26.019  15.995   5.334  0.00  0.00     0.165 HD
HETATM   32  H   UNK     0     -28.399  16.725   7.515  0.00  0.00     0.165 HD
ENDROOT
BRANCH   6  33
HETATM   33  C   UNK     0     -23.297  20.612   8.779  0.00  0.00     0.051 C 
BRANCH  33  34
HETATM   34  C   UNK     0     -22.961  20.979  10.205  0.00  0.00     0.114 C 
BRANCH  34  35
HETATM   35  C   UNK     0     -22.695  22.446  10.238  0.00  0.00     0.139 C 
HETATM   36  O   UNK     0     -22.892  23.152   9.206  0.00  0.00    -0.650 OA
BRANCH  35  37
HETATM   37  O   UNK     0     -22.233  23.098  11.374  0.00  0.00    -0.776 OA
HETATM   38  H   UNK     0     -21.595  23.876  11.321  0.00  0.00     0.167 HD
ENDBRANCH  35  37
ENDBRANCH  34  35
ENDBRANCH  33  34
ENDBRANCH   6  33
BRANCH  27  39
HETATM   39  C   UNK     0     -29.571  18.337   3.200  0.00  0.00     0.051 C 
BRANCH  39  40
HETATM   40  C   UNK     0     -28.590  18.145   2.133  0.00  0.00     0.114 C 
BRANCH  40  41
HETATM   41  C   UNK     0     -27.588  19.139   1.819  0.00  0.00     0.139 C 
HETATM   42  O   UNK     0     -27.830  20.350   1.734  0.00  0.00    -0.650 OA
BRANCH  41  43
HETATM   43  O   UNK     0     -26.246  18.720   1.592  0.00  0.00    -0.776 OA
HETATM   44  H   UNK     0     -26.050  17.769   1.880  0.00  0.00     0.167 HD
ENDBRANCH  41  43
ENDBRANCH  40  41
ENDBRANCH  39  40
ENDBRANCH  27  39
BRANCH  11  45
HETATM   45  C   UNK     0     -23.498  12.551   9.114  0.00  0.00     0.051 C 
BRANCH  45  46
HETATM   46  C   UNK     0     -24.732  11.864   9.574  0.00  0.00     0.114 C 
BRANCH  46  47
HETATM   47  C   UNK     0     -24.422  11.233  10.889  0.00  0.00     0.139 C 
HETATM   48  O   UNK     0     -23.363  11.535  11.456  0.00  0.00    -0.650 OA
BRANCH  47  49
HETATM   49  O   UNK     0     -25.290  10.336  11.459  0.00  0.00    -0.776 OA
HETATM   50  H   UNK     0     -25.121   9.930  12.387  0.00  0.00     0.167 HD
ENDBRANCH  47  49
ENDBRANCH  46  47
ENDBRANCH  45  46
ENDBRANCH  11  45
BRANCH  18  51
HETATM   51  C   UNK     0     -29.278  12.568   5.196  0.00  0.00     0.051 C 
BRANCH  51  52
HETATM   52  C   UNK     0     -30.087  12.750   6.471  0.00  0.00     0.114 C 
BRANCH  52  53
HETATM   53  C   UNK     0     -30.091  11.527   7.298  0.00  0.00     0.139 C 
HETATM   54  O   UNK     0     -30.014  10.412   6.758  0.00  0.00    -0.650 OA
BRANCH  53  55
HETATM   55  O   UNK     0     -30.184  11.632   8.664  0.00  0.00    -0.776 OA
HETATM   56  H   UNK     0     -29.424  11.719   9.297  0.00  0.00     0.167 HD
ENDBRANCH  53  55
ENDBRANCH  52  53
ENDBRANCH  51  52
ENDBRANCH  18  51
TORSDOF 16
ENDMDL
MODEL 15
REMARK VINA RESULT:      -8.5     31.202     34.373
REMARK  16 active torsions:
REMARK  status: ('A' for Active; 'I' for Inactive)
REMARK    1  A    between atoms: C_6  and  C_7 
REMARK    2  A    between atoms: C_7  and  C_8 
REMARK    3  A    between atoms: C_8  and  C_9 
REMARK    4  A    between atoms: C_9  and  O_11 
REMARK    5  A    between atoms: C_16  and  C_17 
REMARK    6  A    between atoms: C_17  and  C_18 
REMARK    7  A    between atoms: C_18  and  C_19 
REMARK    8  A    between atoms: C_19  and  O_21 
REMARK    9  A    between atoms: C_28  and  C_29 
REMARK   10  A    between atoms: C_29  and  C_30 
REMARK   11  A    between atoms: C_30  and  C_31 
REMARK   12  A    between atoms: C_31  and  O_33 
REMARK   13  A    between atoms: C_42  and  C_43 
REMARK   14  A    between atoms: C_43  and  C_44 
REMARK   15  A    between atoms: C_44  and  C_45 
REMARK   16  A    between atoms: C_45  and  O_47 
ROOT
HETATM    1  C   UNK     0     -24.473  19.555  10.096  0.00  0.00     0.051 C 
HETATM    2  C   UNK     0     -24.949  18.135   9.867  0.00  0.00    -0.031 A 
HETATM    3  C   UNK     0     -26.233  17.664   9.640  0.00  0.00     0.021 A 
HETATM    4  N   UNK     0     -26.193  16.315   9.522  0.00  0.00    -0.361 N 
HETATM    5  C   UNK     0     -24.911  15.918   9.660  0.00  0.00     0.022 A 
HETATM    6  C   UNK     0     -24.107  17.031   9.880  0.00  0.00    -0.027 A 
HETATM    7  C   UNK     0     -24.318  14.550   9.521  0.00  0.00     0.115 C 
HETATM    8  C   UNK     0     -24.819  13.705   8.363  0.00  0.00     0.021 A 
HETATM    9  N   UNK     0     -25.174  14.100   7.131  0.00  0.00    -0.361 N 
HETATM   10  C   UNK     0     -25.644  13.025   6.464  0.00  0.00     0.022 A 
HETATM   11  C   UNK     0     -25.581  11.903   7.286  0.00  0.00    -0.027 A 
HETATM   12  C   UNK     0     -25.062  12.325   8.484  0.00  0.00    -0.031 A 
HETATM   13  C   UNK     0     -24.807  11.442   9.685  0.00  0.00     0.051 C 
HETATM   14  C   UNK     0     -26.218  13.021   5.050  0.00  0.00     0.115 C 
HETATM   15  C   UNK     0     -27.451  13.895   4.884  0.00  0.00     0.021 A 
HETATM   16  N   UNK     0     -27.557  15.217   5.113  0.00  0.00    -0.361 N 
HETATM   17  C   UNK     0     -28.821  15.596   4.917  0.00  0.00     0.022 A 
HETATM   18  C   UNK     0     -29.574  14.469   4.532  0.00  0.00    -0.027 A 
HETATM   19  C   UNK     0     -28.703  13.410   4.514  0.00  0.00    -0.031 A 
HETATM   20  C   UNK     0     -29.098  12.000   4.114  0.00  0.00     0.051 C 
HETATM   21  C   UNK     0     -29.472  16.947   5.110  0.00  0.00     0.115 C 
HETATM   22  C   UNK     0     -28.954  17.818   6.230  0.00  0.00     0.022 A 
HETATM   23  N   UNK     0     -28.589  17.450   7.465  0.00  0.00    -0.361 N 
HETATM   24  C   UNK     0     -28.052  18.521   8.084  0.00  0.00     0.021 A 
HETATM   25  C   UNK     0     -28.082  19.607   7.231  0.00  0.00    -0.031 A 
HETATM   26  C   UNK     0     -27.633  21.031   7.484  0.00  0.00     0.051 C 
HETATM   27  C   UNK     0     -28.655  19.182   6.038  0.00  0.00    -0.027 A 
HETATM   28  C   UNK     0     -27.414  18.575   9.462  0.00  0.00     0.115 C 
HETATM   29  H   UNK     0     -27.076  15.650   9.382  0.00  0.00     0.165 HD
HETATM   30  H   UNK     0     -25.048  15.129   6.712  0.00  0.00     0.165 HD
HETATM   31  H   UNK     0     -26.712  15.907   5.372  0.00  0.00     0.165 HD
HETATM   32  H   UNK     0     -28.746  16.441   7.928  0.00  0.00     0.165 HD
ENDROOT
BRANCH   6  33
HETATM   33  C   UNK     0     -22.618  17.124  10.100  0.00  0.00     0.051 C 
BRANCH  33  34
HETATM   34  C   UNK     0     -22.282  16.946  11.562  0.00  0.00     0.114 C 
BRANCH  34  35
HETATM   35  C   UNK     0     -21.094  17.799  11.853  0.00  0.00     0.139 C 
HETATM   36  O   UNK     0     -21.155  19.053  11.692  0.00  0.00    -0.650 OA
BRANCH  35  37
HETATM   37  O   UNK     0     -19.890  17.276  12.308  0.00  0.00    -0.776 OA
HETATM   38  H   UNK     0     -19.005  17.542  11.905  0.00  0.00     0.167 HD
ENDBRANCH  35  37
ENDBRANCH  34  35
ENDBRANCH  33  34
ENDBRANCH   6  33
BRANCH  27  39
HETATM   39  C   UNK     0     -28.921  20.097   4.895  0.00  0.00     0.051 C 
BRANCH  39  40
HETATM   40  C   UNK     0     -30.312  20.378   4.540  0.00  0.00     0.114 C 
BRANCH  40  41
HETATM   41  C   UNK     0     -30.691  20.865   3.233  0.00  0.00     0.139 C 
HETATM   42  O   UNK     0     -31.545  21.743   3.052  0.00  0.00    -0.650 OA
BRANCH  41  43
HETATM   43  O   UNK     0     -30.058  20.317   2.081  0.00  0.00    -0.776 OA
HETATM   44  H   UNK     0     -29.329  20.900   1.687  0.00  0.00     0.167 HD
ENDBRANCH  41  43
ENDBRANCH  40  41
ENDBRANCH  39  40
ENDBRANCH  27  39
BRANCH  11  45
HETATM   45  C   UNK     0     -25.983  10.486   6.979  0.00  0.00     0.051 C 
BRANCH  45  46
HETATM   46  C   UNK     0     -27.450  10.283   6.866  0.00  0.00     0.114 C 
BRANCH  46  47
HETATM   47  C   UNK     0     -27.939   9.850   8.206  0.00  0.00     0.139 C 
HETATM   48  O   UNK     0     -28.490  10.687   8.935  0.00  0.00    -0.650 OA
BRANCH  47  49
HETATM   49  O   UNK     0     -27.784   8.553   8.626  0.00  0.00    -0.776 OA
HETATM   50  H   UNK     0     -28.336   7.782   8.231  0.00  0.00     0.167 HD
ENDBRANCH  47  49
ENDBRANCH  46  47
ENDBRANCH  45  46
ENDBRANCH  11  45
BRANCH  18  51
HETATM   51  C   UNK     0     -31.037  14.408   4.180  0.00  0.00     0.051 C 
BRANCH  51  52
HETATM   52  C   UNK     0     -31.795  14.458   5.499  0.00  0.00     0.114 C 
BRANCH  52  53
HETATM   53  C   UNK     0     -32.150  13.109   5.980  0.00  0.00     0.139 C 
HETATM   54  O   UNK     0     -32.859  12.367   5.282  0.00  0.00    -0.650 OA
BRANCH  53  55
HETATM   55  O   UNK     0     -31.696  12.683   7.205  0.00  0.00    -0.776 OA
HETATM   56  H   UNK     0     -30.751  12.494   7.444  0.00  0.00     0.167 HD
ENDBRANCH  53  55
ENDBRANCH  52  53
ENDBRANCH  51  52
ENDBRANCH  18  51
TORSDOF 16
ENDMDL
MODEL 16
REMARK VINA RESULT:      -8.5     30.018     33.849
REMARK  16 active torsions:
REMARK  status: ('A' for Active; 'I' for Inactive)
REMARK    1  A    between atoms: C_6  and  C_7 
REMARK    2  A    between atoms: C_7  and  C_8 
REMARK    3  A    between atoms: C_8  and  C_9 
REMARK    4  A    between atoms: C_9  and  O_11 
REMARK    5  A    between atoms: C_16  and  C_17 
REMARK    6  A    between atoms: C_17  and  C_18 
REMARK    7  A    between atoms: C_18  and  C_19 
REMARK    8  A    between atoms: C_19  and  O_21 
REMARK    9  A    between atoms: C_28  and  C_29 
REMARK   10  A    between atoms: C_29  and  C_30 
REMARK   11  A    between atoms: C_30  and  C_31 
REMARK   12  A    between atoms: C_31  and  O_33 
REMARK   13  A    between atoms: C_42  and  C_43 
REMARK   14  A    between atoms: C_43  and  C_44 
REMARK   15  A    between atoms: C_44  and  C_45 
REMARK   16  A    between atoms: C_45  and  O_47 
ROOT
HETATM    1  C   UNK     0     -23.916  19.791   8.940  0.00  0.00     0.051 C 
HETATM    2  C   UNK     0     -24.290  18.369   9.304  0.00  0.00    -0.031 A 
HETATM    3  C   UNK     0     -25.530  17.842   9.633  0.00  0.00     0.021 A 
HETATM    4  N   UNK     0     -25.388  16.526   9.917  0.00  0.00    -0.361 N 
HETATM    5  C   UNK     0     -24.088  16.200   9.769  0.00  0.00     0.022 A 
HETATM    6  C   UNK     0     -23.372  17.330   9.388  0.00  0.00    -0.027 A 
HETATM    7  C   UNK     0     -23.424  14.862   9.871  0.00  0.00     0.115 C 
HETATM    8  C   UNK     0     -24.148  13.691   9.231  0.00  0.00     0.021 A 
HETATM    9  N   UNK     0     -24.882  13.675   8.108  0.00  0.00    -0.361 N 
HETATM   10  C   UNK     0     -25.411  12.440   7.971  0.00  0.00     0.022 A 
HETATM   11  C   UNK     0     -24.999  11.637   9.030  0.00  0.00    -0.027 A 
HETATM   12  C   UNK     0     -24.203  12.419   9.828  0.00  0.00    -0.031 A 
HETATM   13  C   UNK     0     -23.524  11.963  11.100  0.00  0.00     0.051 C 
HETATM   14  C   UNK     0     -26.365  11.986   6.870  0.00  0.00     0.115 C 
HETATM   15  C   UNK     0     -27.676  12.755   6.834  0.00  0.00     0.021 A 
HETATM   16  N   UNK     0     -27.846  14.082   6.678  0.00  0.00    -0.361 N 
HETATM   17  C   UNK     0     -29.145  14.372   6.774  0.00  0.00     0.022 A 
HETATM   18  C   UNK     0     -29.857  13.176   6.994  0.00  0.00    -0.027 A 
HETATM   19  C   UNK     0     -28.926  12.171   7.028  0.00  0.00    -0.031 A 
HETATM   20  C   UNK     0     -29.273  10.704   7.209  0.00  0.00     0.051 C 
HETATM   21  C   UNK     0     -29.847  15.710   6.743  0.00  0.00     0.115 C 
HETATM   22  C   UNK     0     -29.119  16.894   7.337  0.00  0.00     0.022 A 
HETATM   23  N   UNK     0     -28.378  16.938   8.451  0.00  0.00    -0.361 N 
HETATM   24  C   UNK     0     -27.798  18.153   8.526  0.00  0.00     0.021 A 
HETATM   25  C   UNK     0     -28.183  18.913   7.439  0.00  0.00    -0.031 A 
HETATM   26  C   UNK     0     -27.828  20.347   7.104  0.00  0.00     0.051 C 
HETATM   27  C   UNK     0     -29.029  18.129   6.663  0.00  0.00    -0.027 A 
HETATM   28  C   UNK     0     -26.798  18.644   9.559  0.00  0.00     0.115 C 
HETATM   29  H   UNK     0     -26.202  15.845  10.260  0.00  0.00     0.165 HD
HETATM   30  H   UNK     0     -24.988  14.518   7.382  0.00  0.00     0.165 HD
HETATM   31  H   UNK     0     -27.037  14.823   6.448  0.00  0.00     0.165 HD
HETATM   32  H   UNK     0     -28.292  16.126   9.219  0.00  0.00     0.165 HD
ENDROOT
BRANCH   6  33
HETATM   33  C   UNK     0     -21.900  17.497   9.105  0.00  0.00     0.051 C 
BRANCH  33  34
HETATM   34  C   UNK     0     -21.113  17.570  10.391  0.00  0.00     0.114 C 
BRANCH  34  35
HETATM   35  C   UNK     0     -20.598  18.963  10.521  0.00  0.00     0.139 C 
HETATM   36  O   UNK     0     -20.938  19.679  11.508  0.00  0.00    -0.650 OA
BRANCH  35  37
HETATM   37  O   UNK     0     -19.737  19.533   9.591  0.00  0.00    -0.776 OA
HETATM   38  H   UNK     0     -19.963  19.577   8.610  0.00  0.00     0.167 HD
ENDBRANCH  35  37
ENDBRANCH  34  35
ENDBRANCH  33  34
ENDBRANCH   6  33
BRANCH  27  39
HETATM   39  C   UNK     0     -29.706  18.634   5.437  0.00  0.00     0.051 C 
BRANCH  39  40
HETATM   40  C   UNK     0     -29.053  18.419   4.146  0.00  0.00     0.114 C 
BRANCH  40  41
HETATM   41  C   UNK     0     -28.510  17.136   3.761  0.00  0.00     0.139 C 
HETATM   42  O   UNK     0     -29.193  16.222   3.278  0.00  0.00    -0.650 OA
BRANCH  41  43
HETATM   43  O   UNK     0     -27.119  16.892   3.939  0.00  0.00    -0.776 OA
HETATM   44  H   UNK     0     -26.779  17.070   4.876  0.00  0.00     0.167 HD
ENDBRANCH  41  43
ENDBRANCH  40  41
ENDBRANCH  39  40
ENDBRANCH  27  39
BRANCH  11  45
HETATM   45  C   UNK     0     -25.326  10.193   9.299  0.00  0.00     0.051 C 
BRANCH  45  46
HETATM   46  C   UNK     0     -24.500   9.230   8.527  0.00  0.00     0.114 C 
BRANCH  46  47
HETATM   47  C   UNK     0     -23.330   8.870   9.377  0.00  0.00     0.139 C 
HETATM   48  O   UNK     0     -22.222   9.344   9.092  0.00  0.00    -0.650 OA
BRANCH  47  49
HETATM   49  O   UNK     0     -23.475   8.031  10.453  0.00  0.00    -0.776 OA
HETATM   50  H   UNK     0     -23.868   8.352  11.346  0.00  0.00     0.167 HD
ENDBRANCH  47  49
ENDBRANCH  46  47
ENDBRANCH  45  46
ENDBRANCH  11  45
BRANCH  18  51
HETATM   51  C   UNK     0     -31.346  12.998   7.142  0.00  0.00     0.051 C 
BRANCH  51  52
HETATM   52  C   UNK     0     -31.846  12.465   5.808  0.00  0.00     0.114 C 
BRANCH  52  53
HETATM   53  C   UNK     0     -31.968  13.535   4.799  0.00  0.00     0.139 C 
HETATM   54  O   UNK     0     -32.975  14.261   4.782  0.00  0.00    -0.650 OA
BRANCH  53  55
HETATM   55  O   UNK     0     -30.965  13.719   3.879  0.00  0.00    -0.776 OA
HETATM   56  H   UNK     0     -30.446  13.002   3.430  0.00  0.00     0.167 HD
ENDBRANCH  53  55
ENDBRANCH  52  53
ENDBRANCH  51  52
ENDBRANCH  18  51
TORSDOF 16
ENDMDL
MODEL 17
REMARK VINA RESULT:      -8.5     29.878     34.560
REMARK  16 active torsions:
REMARK  status: ('A' for Active; 'I' for Inactive)
REMARK    1  A    between atoms: C_6  and  C_7 
REMARK    2  A    between atoms: C_7  and  C_8 
REMARK    3  A    between atoms: C_8  and  C_9 
REMARK    4  A    between atoms: C_9  and  O_11 
REMARK    5  A    between atoms: C_16  and  C_17 
REMARK    6  A    between atoms: C_17  and  C_18 
REMARK    7  A    between atoms: C_18  and  C_19 
REMARK    8  A    between atoms: C_19  and  O_21 
REMARK    9  A    between atoms: C_28  and  C_29 
REMARK   10  A    between atoms: C_29  and  C_30 
REMARK   11  A    between atoms: C_30  and  C_31 
REMARK   12  A    between atoms: C_31  and  O_33 
REMARK   13  A    between atoms: C_42  and  C_43 
REMARK   14  A    between atoms: C_43  and  C_44 
REMARK   15  A    between atoms: C_44  and  C_45 
REMARK   16  A    between atoms: C_45  and  O_47 
ROOT
HETATM    1  C   UNK     0     -25.202  10.077   7.775  0.00  0.00     0.051 C 
HETATM    2  C   UNK     0     -24.843  11.535   7.976  0.00  0.00    -0.031 A 
HETATM    3  C   UNK     0     -24.963  12.600   7.097  0.00  0.00     0.021 A 
HETATM    4  N   UNK     0     -24.488  13.720   7.693  0.00  0.00    -0.361 N 
HETATM    5  C   UNK     0     -24.075  13.393   8.935  0.00  0.00     0.022 A 
HETATM    6  C   UNK     0     -24.280  12.033   9.144  0.00  0.00    -0.027 A 
HETATM    7  C   UNK     0     -23.558  14.274  10.029  0.00  0.00     0.115 C 
HETATM    8  C   UNK     0     -24.282  15.592  10.242  0.00  0.00     0.021 A 
HETATM    9  N   UNK     0     -25.592  15.856  10.117  0.00  0.00    -0.361 N 
HETATM   10  C   UNK     0     -25.773  17.179  10.311  0.00  0.00     0.022 A 
HETATM   11  C   UNK     0     -24.547  17.783  10.578  0.00  0.00    -0.027 A 
HETATM   12  C   UNK     0     -23.604  16.788  10.535  0.00  0.00    -0.031 A 
HETATM   13  C   UNK     0     -22.122  16.978  10.771  0.00  0.00     0.051 C 
HETATM   14  C   UNK     0     -27.095  17.934  10.202  0.00  0.00     0.115 C 
HETATM   15  C   UNK     0     -27.734  17.859   8.824  0.00  0.00     0.021 A 
HETATM   16  N   UNK     0     -28.105  16.754   8.150  0.00  0.00    -0.361 N 
HETATM   17  C   UNK     0     -28.562  17.108   6.947  0.00  0.00     0.022 A 
HETATM   18  C   UNK     0     -28.494  18.511   6.835  0.00  0.00    -0.027 A 
HETATM   19  C   UNK     0     -27.975  18.969   8.018  0.00  0.00    -0.031 A 
HETATM   20  C   UNK     0     -27.766  20.439   8.335  0.00  0.00     0.051 C 
HETATM   21  C   UNK     0     -29.028  16.248   5.794  0.00  0.00     0.115 C 
HETATM   22  C   UNK     0     -28.347  14.915   5.596  0.00  0.00     0.022 A 
HETATM   23  N   UNK     0     -27.045  14.622   5.718  0.00  0.00    -0.361 N 
HETATM   24  C   UNK     0     -26.898  13.287   5.597  0.00  0.00     0.021 A 
HETATM   25  C   UNK     0     -28.134  12.708   5.383  0.00  0.00    -0.031 A 
HETATM   26  C   UNK     0     -28.476  11.251   5.149  0.00  0.00     0.051 C 
HETATM   27  C   UNK     0     -29.077  13.729   5.378  0.00  0.00    -0.027 A 
HETATM   28  C   UNK     0     -25.625  12.474   5.754  0.00  0.00     0.115 C 
HETATM   29  H   UNK     0     -24.411  14.725   7.217  0.00  0.00     0.165 HD
HETATM   30  H   UNK     0     -26.398  15.102   9.942  0.00  0.00     0.165 HD
HETATM   31  H   UNK     0     -28.090  15.706   8.549  0.00  0.00     0.165 HD
HETATM   32  H   UNK     0     -26.212  15.361   5.846  0.00  0.00     0.165 HD
ENDROOT
BRANCH   6  33
HETATM   33  C   UNK     0     -23.983  11.182  10.352  0.00  0.00     0.051 C 
BRANCH  33  34
HETATM   34  C   UNK     0     -22.543  10.725  10.344  0.00  0.00     0.114 C 
BRANCH  34  35
HETATM   35  C   UNK     0     -22.542   9.255  10.093  0.00  0.00     0.139 C 
HETATM   36  O   UNK     0     -21.732   8.752   9.262  0.00  0.00    -0.650 OA
BRANCH  35  37
HETATM   37  O   UNK     0     -23.407   8.383  10.743  0.00  0.00    -0.776 OA
HETATM   38  H   UNK     0     -23.209   7.399  10.829  0.00  0.00     0.167 HD
ENDBRANCH  35  37
ENDBRANCH  34  35
ENDBRANCH  33  34
ENDBRANCH   6  33
BRANCH  27  39
HETATM   39  C   UNK     0     -30.521  13.498   5.104  0.00  0.00     0.051 C 
BRANCH  39  40
HETATM   40  C   UNK     0     -31.453  13.515   6.231  0.00  0.00     0.114 C 
BRANCH  40  41
HETATM   41  C   UNK     0     -31.009  13.382   7.600  0.00  0.00     0.139 C 
HETATM   42  O   UNK     0     -30.912  12.295   8.185  0.00  0.00    -0.650 OA
BRANCH  41  43
HETATM   43  O   UNK     0     -30.660  14.553   8.331  0.00  0.00    -0.776 OA
HETATM   44  H   UNK     0     -31.313  15.321   8.227  0.00  0.00     0.167 HD
ENDBRANCH  41  43
ENDBRANCH  40  41
ENDBRANCH  39  40
ENDBRANCH  27  39
BRANCH  11  45
HETATM   45  C   UNK     0     -24.253  19.231  10.865  0.00  0.00     0.051 C 
BRANCH  45  46
HETATM   46  C   UNK     0     -24.612  19.660  12.241  0.00  0.00     0.114 C 
BRANCH  46  47
HETATM   47  C   UNK     0     -23.342  20.020  12.936  0.00  0.00     0.139 C 
HETATM   48  O   UNK     0     -22.315  20.161  12.258  0.00  0.00    -0.650 OA
BRANCH  47  49
HETATM   49  O   UNK     0     -23.310  20.191  14.297  0.00  0.00    -0.776 OA
HETATM   50  H   UNK     0     -22.779  19.563  14.912  0.00  0.00     0.167 HD
ENDBRANCH  47  49
ENDBRANCH  46  47
ENDBRANCH  45  46
ENDBRANCH  11  45
BRANCH  18  51
HETATM   51  C   UNK     0     -28.920  19.369   5.672  0.00  0.00     0.051 C 
BRANCH  51  52
HETATM   52  C   UNK     0     -30.431  19.226   5.568  0.00  0.00     0.114 C 
BRANCH  52  53
HETATM   53  C   UNK     0     -30.913  19.473   4.196  0.00  0.00     0.139 C 
HETATM   54  O   UNK     0     -31.092  18.521   3.419  0.00  0.00    -0.650 OA
BRANCH  53  55
HETATM   55  O   UNK     0     -31.159  20.760   3.783  0.00  0.00    -0.776 OA
HETATM   56  H   UNK     0     -30.824  21.587   4.219  0.00  0.00     0.167 HD
ENDBRANCH  53  55
ENDBRANCH  52  53
ENDBRANCH  51  52
ENDBRANCH  18  51
TORSDOF 16
ENDMDL
MODEL 18
REMARK VINA RESULT:      -8.5     29.956     33.702
REMARK  16 active torsions:
REMARK  status: ('A' for Active; 'I' for Inactive)
REMARK    1  A    between atoms: C_6  and  C_7 
REMARK    2  A    between atoms: C_7  and  C_8 
REMARK    3  A    between atoms: C_8  and  C_9 
REMARK    4  A    between atoms: C_9  and  O_11 
REMARK    5  A    between atoms: C_16  and  C_17 
REMARK    6  A    between atoms: C_17  and  C_18 
REMARK    7  A    between atoms: C_18  and  C_19 
REMARK    8  A    between atoms: C_19  and  O_21 
REMARK    9  A    between atoms: C_28  and  C_29 
REMARK   10  A    between atoms: C_29  and  C_30 
REMARK   11  A    between atoms: C_30  and  C_31 
REMARK   12  A    between atoms: C_31  and  O_33 
REMARK   13  A    between atoms: C_42  and  C_43 
REMARK   14  A    between atoms: C_43  and  C_44 
REMARK   15  A    between atoms: C_44  and  C_45 
REMARK   16  A    between atoms: C_45  and  O_47 
ROOT
HETATM    1  C   UNK     0     -30.811  15.255   3.590  0.00  0.00     0.051 C 
HETATM    2  C   UNK     0     -30.174  15.789   4.857  0.00  0.00    -0.031 A 
HETATM    3  C   UNK     0     -29.834  15.117   6.021  0.00  0.00     0.021 A 
HETATM    4  N   UNK     0     -29.315  16.002   6.905  0.00  0.00    -0.361 N 
HETATM    5  C   UNK     0     -29.310  17.221   6.327  0.00  0.00     0.022 A 
HETATM    6  C   UNK     0     -29.842  17.124   5.046  0.00  0.00    -0.027 A 
HETATM    7  C   UNK     0     -28.758  18.515   6.840  0.00  0.00     0.115 C 
HETATM    8  C   UNK     0     -27.407  18.454   7.530  0.00  0.00     0.021 A 
HETATM    9  N   UNK     0     -26.356  17.671   7.243  0.00  0.00    -0.361 N 
HETATM   10  C   UNK     0     -25.403  17.890   8.174  0.00  0.00     0.022 A 
HETATM   11  C   UNK     0     -25.850  18.847   9.081  0.00  0.00    -0.027 A 
HETATM   12  C   UNK     0     -27.112  19.207   8.681  0.00  0.00    -0.031 A 
HETATM   13  C   UNK     0     -27.989  20.229   9.369  0.00  0.00     0.051 C 
HETATM   14  C   UNK     0     -24.062  17.171   8.278  0.00  0.00     0.115 C 
HETATM   15  C   UNK     0     -24.182  15.669   8.484  0.00  0.00     0.021 A 
HETATM   16  N   UNK     0     -24.799  14.777   7.687  0.00  0.00    -0.361 N 
HETATM   17  C   UNK     0     -24.744  13.570   8.253  0.00  0.00     0.022 A 
HETATM   18  C   UNK     0     -24.049  13.679   9.474  0.00  0.00    -0.027 A 
HETATM   19  C   UNK     0     -23.701  14.998   9.606  0.00  0.00    -0.031 A 
HETATM   20  C   UNK     0     -22.902  15.547  10.774  0.00  0.00     0.051 C 
HETATM   21  C   UNK     0     -25.342  12.257   7.803  0.00  0.00     0.115 C 
HETATM   22  C   UNK     0     -26.665  12.306   7.076  0.00  0.00     0.022 A 
HETATM   23  N   UNK     0     -27.728  13.078   7.337  0.00  0.00    -0.361 N 
HETATM   24  C   UNK     0     -28.632  12.901   6.353  0.00  0.00     0.021 A 
HETATM   25  C   UNK     0     -28.145  11.985   5.441  0.00  0.00    -0.031 A 
HETATM   26  C   UNK     0     -28.807  11.434   4.196  0.00  0.00     0.051 C 
HETATM   27  C   UNK     0     -26.887  11.589   5.883  0.00  0.00    -0.027 A 
HETATM   28  C   UNK     0     -29.953  13.626   6.163  0.00  0.00     0.115 C 
HETATM   29  H   UNK     0     -28.994  15.766   7.946  0.00  0.00     0.165 HD
HETATM   30  H   UNK     0     -26.263  17.000   6.355  0.00  0.00     0.165 HD
HETATM   31  H   UNK     0     -25.242  14.995   6.680  0.00  0.00     0.165 HD
HETATM   32  H   UNK     0     -27.868  13.724   8.243  0.00  0.00     0.165 HD
ENDROOT
BRANCH   6  33
HETATM   33  C   UNK     0     -30.060  18.191   4.003  0.00  0.00     0.051 C 
BRANCH  33  34
HETATM   34  C   UNK     0     -28.855  18.311   3.101  0.00  0.00     0.114 C 
BRANCH  34  35
HETATM   35  C   UNK     0     -28.560  19.764   2.941  0.00  0.00     0.139 C 
HETATM   36  O   UNK     0     -28.301  20.239   1.797  0.00  0.00    -0.650 OA
BRANCH  35  37
HETATM   37  O   UNK     0     -28.558  20.651   4.011  0.00  0.00    -0.776 OA
HETATM   38  H   UNK     0     -27.744  21.189   4.258  0.00  0.00     0.167 HD
ENDBRANCH  35  37
ENDBRANCH  34  35
ENDBRANCH  33  34
ENDBRANCH   6  33
BRANCH  27  39
HETATM   39  C   UNK     0     -26.075  10.551   5.192  0.00  0.00     0.051 C 
BRANCH  39  40
HETATM   40  C   UNK     0     -26.300   9.148   5.541  0.00  0.00     0.114 C 
BRANCH  40  41
HETATM   41  C   UNK     0     -26.419   8.705   6.912  0.00  0.00     0.139 C 
HETATM   42  O   UNK     0     -27.493   8.378   7.434  0.00  0.00    -0.650 OA
BRANCH  41  43
HETATM   43  O   UNK     0     -25.248   8.635   7.720  0.00  0.00    -0.776 OA
HETATM   44  H   UNK     0     -25.292   7.948   8.463  0.00  0.00     0.167 HD
ENDBRANCH  41  43
ENDBRANCH  40  41
ENDBRANCH  39  40
ENDBRANCH  27  39
BRANCH  11  45
HETATM   45  C   UNK     0     -25.137  19.416  10.278  0.00  0.00     0.051 C 
BRANCH  45  46
HETATM   46  C   UNK     0     -25.034  18.477  11.425  0.00  0.00     0.114 C 
BRANCH  46  47
HETATM   47  C   UNK     0     -26.293  18.604  12.213  0.00  0.00     0.139 C 
HETATM   48  O   UNK     0     -27.005  17.600  12.357  0.00  0.00    -0.650 OA
BRANCH  47  49
HETATM   49  O   UNK     0     -26.657  19.805  12.767  0.00  0.00    -0.776 OA
HETATM   50  H   UNK     0     -26.675  19.954  13.783  0.00  0.00     0.167 HD
ENDBRANCH  47  49
ENDBRANCH  46  47
ENDBRANCH  45  46
ENDBRANCH  11  45
BRANCH  18  51
HETATM   51  C   UNK     0     -23.715  12.581  10.451  0.00  0.00     0.051 C 
BRANCH  51  52
HETATM   52  C   UNK     0     -22.497  11.864   9.887  0.00  0.00     0.114 C 
BRANCH  52  53
HETATM   53  C   UNK     0     -22.724  10.412   9.759  0.00  0.00     0.139 C 
HETATM   54  O   UNK     0     -23.841   9.933  10.015  0.00  0.00    -0.650 OA
BRANCH  53  55
HETATM   55  O   UNK     0     -21.694   9.595   9.361  0.00  0.00    -0.776 OA
HETATM   56  H   UNK     0     -21.785   8.740   8.866  0.00  0.00     0.167 HD
ENDBRANCH  53  55
ENDBRANCH  52  53
ENDBRANCH  51  52
ENDBRANCH  18  51
TORSDOF 16
ENDMDL
MODEL 19
REMARK VINA RESULT:      -8.4     28.968     31.356
REMARK  16 active torsions:
REMARK  status: ('A' for Active; 'I' for Inactive)
REMARK    1  A    between atoms: C_6  and  C_7 
REMARK    2  A    between atoms: C_7  and  C_8 
REMARK    3  A    between atoms: C_8  and  C_9 
REMARK    4  A    between atoms: C_9  and  O_11 
REMARK    5  A    between atoms: C_16  and  C_17 
REMARK    6  A    between atoms: C_17  and  C_18 
REMARK    7  A    between atoms: C_18  and  C_19 
REMARK    8  A    between atoms: C_19  and  O_21 
REMARK    9  A    between atoms: C_28  and  C_29 
REMARK   10  A    between atoms: C_29  and  C_30 
REMARK   11  A    between atoms: C_30  and  C_31 
REMARK   12  A    between atoms: C_31  and  O_33 
REMARK   13  A    between atoms: C_42  and  C_43 
REMARK   14  A    between atoms: C_43  and  C_44 
REMARK   15  A    between atoms: C_44  and  C_45 
REMARK   16  A    between atoms: C_45  and  O_47 
ROOT
HETATM    1  C   UNK     0     -23.657   7.820   9.137  0.00  0.00     0.051 C 
HETATM    2  C   UNK     0     -24.337   9.150   8.887  0.00  0.00    -0.031 A 
HETATM    3  C   UNK     0     -24.403  10.271   9.700  0.00  0.00     0.021 A 
HETATM    4  N   UNK     0     -25.145  11.221   9.083  0.00  0.00    -0.361 N 
HETATM    5  C   UNK     0     -25.546  10.733   7.891  0.00  0.00     0.022 A 
HETATM    6  C   UNK     0     -25.060   9.439   7.737  0.00  0.00    -0.027 A 
HETATM    7  C   UNK     0     -26.304  11.410   6.792  0.00  0.00     0.115 C 
HETATM    8  C   UNK     0     -25.899  12.836   6.463  0.00  0.00     0.021 A 
HETATM    9  N   UNK     0     -24.673  13.383   6.483  0.00  0.00    -0.361 N 
HETATM   10  C   UNK     0     -24.797  14.700   6.210  0.00  0.00     0.022 A 
HETATM   11  C   UNK     0     -26.138  15.007   5.998  0.00  0.00    -0.027 A 
HETATM   12  C   UNK     0     -26.838  13.837   6.156  0.00  0.00    -0.031 A 
HETATM   13  C   UNK     0     -28.336  13.689   6.014  0.00  0.00     0.051 C 
HETATM   14  C   UNK     0     -23.669  15.726   6.189  0.00  0.00     0.115 C 
HETATM   15  C   UNK     0     -22.952  15.879   7.521  0.00  0.00     0.021 A 
HETATM   16  N   UNK     0     -22.311  14.926   8.224  0.00  0.00    -0.361 N 
HETATM   17  C   UNK     0     -21.876  15.447   9.373  0.00  0.00     0.022 A 
HETATM   18  C   UNK     0     -22.243  16.807   9.418  0.00  0.00    -0.027 A 
HETATM   19  C   UNK     0     -22.915  17.065   8.252  0.00  0.00    -0.031 A 
HETATM   20  C   UNK     0     -23.457  18.432   7.876  0.00  0.00     0.051 C 
HETATM   21  C   UNK     0     -21.168  14.785  10.534  0.00  0.00     0.115 C 
HETATM   22  C   UNK     0     -21.529  13.351  10.845  0.00  0.00     0.022 A 
HETATM   23  N   UNK     0     -22.740  12.778  10.829  0.00  0.00    -0.361 N 
HETATM   24  C   UNK     0     -22.584  11.454  11.026  0.00  0.00     0.021 A 
HETATM   25  C   UNK     0     -21.241  11.168  11.184  0.00  0.00    -0.031 A 
HETATM   26  C   UNK     0     -20.577   9.837  11.467  0.00  0.00     0.051 C 
HETATM   27  C   UNK     0     -20.546  12.367  11.072  0.00  0.00    -0.027 A 
HETATM   28  C   UNK     0     -23.656  10.377  10.999  0.00  0.00     0.115 C 
HETATM   29  H   UNK     0     -25.413  12.215   9.511  0.00  0.00     0.165 HD
HETATM   30  H   UNK     0     -23.713  12.834   6.640  0.00  0.00     0.165 HD
HETATM   31  H   UNK     0     -22.119  13.876   7.880  0.00  0.00     0.165 HD
HETATM   32  H   UNK     0     -23.721  13.310  10.721  0.00  0.00     0.165 HD
ENDROOT
BRANCH   6  33
HETATM   33  C   UNK     0     -25.232   8.468   6.597  0.00  0.00     0.051 C 
BRANCH  33  34
HETATM   34  C   UNK     0     -26.642   7.929   6.560  0.00  0.00     0.114 C 
BRANCH  34  35
HETATM   35  C   UNK     0     -26.614   6.562   7.155  0.00  0.00     0.139 C 
HETATM   36  O   UNK     0     -25.613   5.810   6.975  0.00  0.00    -0.650 OA
BRANCH  35  37
HETATM   37  O   UNK     0     -27.658   6.057   7.920  0.00  0.00    -0.776 OA
HETATM   38  H   UNK     0     -27.888   6.434   8.826  0.00  0.00     0.167 HD
ENDBRANCH  35  37
ENDBRANCH  34  35
ENDBRANCH  33  34
ENDBRANCH   6  33
BRANCH  27  39
HETATM   39  C   UNK     0     -19.073  12.470  11.257  0.00  0.00     0.051 C 
BRANCH  39  40
HETATM   40  C   UNK     0     -18.512  12.123  12.563  0.00  0.00     0.114 C 
BRANCH  40  41
HETATM   41  C   UNK     0     -17.323  11.312  12.700  0.00  0.00     0.139 C 
HETATM   42  O   UNK     0     -17.282  10.266  13.361  0.00  0.00    -0.650 OA
BRANCH  41  43
HETATM   43  O   UNK     0     -16.127  11.723  12.046  0.00  0.00    -0.776 OA
HETATM   44  H   UNK     0     -15.740  11.036  11.410  0.00  0.00     0.167 HD
ENDBRANCH  41  43
ENDBRANCH  40  41
ENDBRANCH  39  40
ENDBRANCH  27  39
BRANCH  11  45
HETATM   45  C   UNK     0     -26.758  16.336   5.659  0.00  0.00     0.051 C 
BRANCH  45  46
HETATM   46  C   UNK     0     -27.393  16.384   4.317  0.00  0.00     0.114 C 
BRANCH  46  47
HETATM   47  C   UNK     0     -26.297  16.324   3.308  0.00  0.00     0.139 C 
HETATM   48  O   UNK     0     -26.424  15.561   2.340  0.00  0.00    -0.650 OA
BRANCH  47  49
HETATM   49  O   UNK     0     -25.170  17.095   3.447  0.00  0.00    -0.776 OA
HETATM   50  H   UNK     0     -24.760  17.300   4.366  0.00  0.00     0.167 HD
ENDBRANCH  47  49
ENDBRANCH  46  47
ENDBRANCH  45  46
ENDBRANCH  11  45
BRANCH  18  51
HETATM   51  C   UNK     0     -21.950  17.810  10.504  0.00  0.00     0.051 C 
BRANCH  51  52
HETATM   52  C   UNK     0     -20.503  18.238  10.309  0.00  0.00     0.114 C 
BRANCH  52  53
HETATM   53  C   UNK     0     -20.387  19.690  10.072  0.00  0.00     0.139 C 
HETATM   54  O   UNK     0     -21.237  20.465  10.537  0.00  0.00    -0.650 OA
BRANCH  53  55
HETATM   55  O   UNK     0     -19.336  20.176   9.333  0.00  0.00    -0.776 OA
HETATM   56  H   UNK     0     -18.435  20.408   9.681  0.00  0.00     0.167 HD
ENDBRANCH  53  55
ENDBRANCH  52  53
ENDBRANCH  51  52
ENDBRANCH  18  51
TORSDOF 16
ENDMDL
MODEL 20
REMARK VINA RESULT:      -8.3     28.958     32.465
REMARK  16 active torsions:
REMARK  status: ('A' for Active; 'I' for Inactive)
REMARK    1  A    between atoms: C_6  and  C_7 
REMARK    2  A    between atoms: C_7  and  C_8 
REMARK    3  A    between atoms: C_8  and  C_9 
REMARK    4  A    between atoms: C_9  and  O_11 
REMARK    5  A    between atoms: C_16  and  C_17 
REMARK    6  A    between atoms: C_17  and  C_18 
REMARK    7  A    between atoms: C_18  and  C_19 
REMARK    8  A    between atoms: C_19  and  O_21 
REMARK    9  A    between atoms: C_28  and  C_29 
REMARK   10  A    between atoms: C_29  and  C_30 
REMARK   11  A    between atoms: C_30  and  C_31 
REMARK   12  A    between atoms: C_31  and  O_33 
REMARK   13  A    between atoms: C_42  and  C_43 
REMARK   14  A    between atoms: C_43  and  C_44 
REMARK   15  A    between atoms: C_44  and  C_45 
REMARK   16  A    between atoms: C_45  and  O_47 
ROOT
HETATM    1  C   UNK     0     -23.825   8.658   8.918  0.00  0.00     0.051 C 
HETATM    2  C   UNK     0     -24.435  10.045   8.926  0.00  0.00    -0.031 A 
HETATM    3  C   UNK     0     -24.352  11.038   9.889  0.00  0.00     0.021 A 
HETATM    4  N   UNK     0     -25.083  12.105   9.488  0.00  0.00    -0.361 N 
HETATM    5  C   UNK     0     -25.622  11.817   8.285  0.00  0.00     0.022 A 
HETATM    6  C   UNK     0     -25.240  10.535   7.905  0.00  0.00    -0.027 A 
HETATM    7  C   UNK     0     -26.431  12.685   7.372  0.00  0.00     0.115 C 
HETATM    8  C   UNK     0     -25.964  14.120   7.206  0.00  0.00     0.021 A 
HETATM    9  N   UNK     0     -24.709  14.594   7.180  0.00  0.00    -0.361 N 
HETATM   10  C   UNK     0     -24.770  15.940   7.106  0.00  0.00     0.022 A 
HETATM   11  C   UNK     0     -26.101  16.345   7.075  0.00  0.00    -0.027 A 
HETATM   12  C   UNK     0     -26.859  15.203   7.137  0.00  0.00    -0.031 A 
HETATM   13  C   UNK     0     -28.370  15.156   7.126  0.00  0.00     0.051 C 
HETATM   14  C   UNK     0     -23.582  16.898   7.117  0.00  0.00     0.115 C 
HETATM   15  C   UNK     0     -22.738  16.819   8.378  0.00  0.00     0.021 A 
HETATM   16  N   UNK     0     -22.100  15.742   8.873  0.00  0.00    -0.361 N 
HETATM   17  C   UNK     0     -21.528  16.066  10.035  0.00  0.00     0.022 A 
HETATM   18  C   UNK     0     -21.798  17.422  10.305  0.00  0.00    -0.027 A 
HETATM   19  C   UNK     0     -22.555  17.882   9.260  0.00  0.00    -0.031 A 
HETATM   20  C   UNK     0     -23.038  19.316   9.134  0.00  0.00     0.051 C 
HETATM   21  C   UNK     0     -20.762  15.206  11.015  0.00  0.00     0.115 C 
HETATM   22  C   UNK     0     -21.188  13.764  11.158  0.00  0.00     0.022 A 
HETATM   23  N   UNK     0     -22.430  13.264  11.184  0.00  0.00    -0.361 N 
HETATM   24  C   UNK     0     -22.345  11.918  11.178  0.00  0.00     0.021 A 
HETATM   25  C   UNK     0     -21.016  11.543  11.160  0.00  0.00    -0.031 A 
HETATM   26  C   UNK     0     -20.417  10.152  11.187  0.00  0.00     0.051 C 
HETATM   27  C   UNK     0     -20.256  12.707  11.147  0.00  0.00    -0.027 A 
HETATM   28  C   UNK     0     -23.484  10.915  11.109  0.00  0.00     0.115 C 
HETATM   29  H   UNK     0     -25.244  13.039  10.074  0.00  0.00     0.165 HD
HETATM   30  H   UNK     0     -23.777  13.977   7.162  0.00  0.00     0.165 HD
HETATM   31  H   UNK     0     -22.010  14.744   8.370  0.00  0.00     0.165 HD
HETATM   32  H   UNK     0     -23.379  13.857  11.249  0.00  0.00     0.165 HD
ENDROOT
BRANCH   6  33
HETATM   33  C   UNK     0     -25.579   9.749   6.663  0.00  0.00     0.051 C 
BRANCH  33  34
HETATM   34  C   UNK     0     -26.489   8.591   6.995  0.00  0.00     0.114 C 
BRANCH  34  35
HETATM   35  C   UNK     0     -27.732   9.156   7.593  0.00  0.00     0.139 C 
HETATM   36  O   UNK     0     -28.521   9.848   6.886  0.00  0.00    -0.650 OA
BRANCH  35  37
HETATM   37  O   UNK     0     -28.082   8.956   8.923  0.00  0.00    -0.776 OA
HETATM   38  H   UNK     0     -28.890   9.395   9.334  0.00  0.00     0.167 HD
ENDBRANCH  35  37
ENDBRANCH  34  35
ENDBRANCH  33  34
ENDBRANCH   6  33
BRANCH  27  39
HETATM   39  C   UNK     0     -18.768  12.705  11.197  0.00  0.00     0.051 C 
BRANCH  39  40
HETATM   40  C   UNK     0     -18.116  12.255  12.426  0.00  0.00     0.114 C 
BRANCH  40  41
HETATM   41  C   UNK     0     -16.871  11.520  12.413  0.00  0.00     0.139 C 
HETATM   42  O   UNK     0     -15.758  12.062  12.392  0.00  0.00    -0.650 OA
BRANCH  41  43
HETATM   43  O   UNK     0     -16.908  10.097  12.425  0.00  0.00    -0.776 OA
HETATM   44  H   UNK     0     -16.517   9.660  11.599  0.00  0.00     0.167 HD
ENDBRANCH  41  43
ENDBRANCH  40  41
ENDBRANCH  39  40
ENDBRANCH  27  39
BRANCH  11  45
HETATM   45  C   UNK     0     -26.659  17.740   6.987  0.00  0.00     0.051 C 
BRANCH  45  46
HETATM   46  C   UNK     0     -27.331  18.203   8.229  0.00  0.00     0.114 C 
BRANCH  46  47
HETATM   47  C   UNK     0     -26.650  19.457   8.658  0.00  0.00     0.139 C 
HETATM   48  O   UNK     0     -26.350  20.294   7.795  0.00  0.00    -0.650 OA
BRANCH  47  49
HETATM   49  O   UNK     0     -26.358  19.681   9.980  0.00  0.00    -0.776 OA
HETATM   50  H   UNK     0     -26.892  20.346  10.551  0.00  0.00     0.167 HD
ENDBRANCH  47  49
ENDBRANCH  46  47
ENDBRANCH  45  46
ENDBRANCH  11  45
BRANCH  18  51
HETATM   51  C   UNK     0     -21.342  18.241  11.485  0.00  0.00     0.051 C 
BRANCH  51  52
HETATM   52  C   UNK     0     -22.364  18.006  12.587  0.00  0.00     0.114 C 
BRANCH  52  53
HETATM   53  C   UNK     0     -23.176  19.210  12.849  0.00  0.00     0.139 C 
HETATM   54  O   UNK     0     -24.304  19.321  12.343  0.00  0.00    -0.650 OA
BRANCH  53  55
HETATM   55  O   UNK     0     -22.675  20.207  13.650  0.00  0.00    -0.776 OA
HETATM   56  H   UNK     0     -22.448  21.130  13.362  0.00  0.00     0.167 HD
ENDBRANCH  53  55
ENDBRANCH  52  53
ENDBRANCH  51  52
ENDBRANCH  18  51
TORSDOF 16
ENDMDL
