MODEL 1
REMARK VINA RESULT:     -10.2      0.000      0.000
REMARK  28 active torsions:
REMARK  status: ('A' for Active; 'I' for Inactive)
REMARK    1  A    between atoms: C_2  and  O_3 
REMARK    2  A    between atoms: C_2  and  C_4 
REMARK    3  A    between atoms: C_4  and  C_5 
REMARK    4  A    between atoms: C_5  and  C_6 
REMARK    5  A    between atoms: C_7  and  C_8 
REMARK    6  A    between atoms: C_8  and  C_9 
REMARK    7  A    between atoms: C_9  and  O_11 
REMARK    8  A    between atoms: C_28  and  C_29 
REMARK    9  A    between atoms: C_29  and  C_30 
REMARK   10  A    between atoms: C_30  and  O_32 
REMARK   11  A    between atoms: C_33  and  C_34 
REMARK   12  A    between atoms: C_34  and  C_35 
REMARK   13  A    between atoms: C_35  and  C_36 
REMARK   14  A    between atoms: C_36  and  O_38 
REMARK   15  A    between atoms: C_39  and  C_40 
REMARK   16  A    between atoms: C_40  and  C_41 
REMARK   17  A    between atoms: C_41  and  C_42 
REMARK   18  A    between atoms: C_42  and  O_44 
REMARK   19  A    between atoms: C_45  and  C_46 
REMARK   20  A    between atoms: C_46  and  C_47 
REMARK   21  A    between atoms: C_47  and  O_49 
REMARK   22  A    between atoms: C_50  and  C_51 
REMARK   23  A    between atoms: C_51  and  C_52 
REMARK   24  A    between atoms: C_52  and  O_54 
REMARK   25  A    between atoms: C_55  and  C_56 
REMARK   26  A    between atoms: C_56  and  C_57 
REMARK   27  A    between atoms: C_57  and  C_58 
REMARK   28  A    between atoms: C_58  and  O_60 
ROOT
ATOM      1  O   UNK d   0       0.869   7.571  -6.391  0.00  0.00    -0.650 OA
ATOM      2  C   UNK d   0       0.016   6.660  -6.293  0.00  0.00     0.139 C 
ENDROOT
BRANCH   2   3
ATOM      3  O   UNK d   0      -1.302   6.991  -6.092  0.00  0.00    -0.776 OA
ATOM      4  H   UNK d   0      -1.566   7.737  -5.446  0.00  0.00     0.167 HD
ENDBRANCH   2   3
BRANCH   2   5
ATOM      5  C   UNK d   0       0.431   5.232  -6.394  0.00  0.00     0.115 C 
BRANCH   5   6
ATOM      6  C   UNK d   0       1.322   5.035  -7.590  0.00  0.00     0.052 C 
BRANCH   6   7
ATOM      7  C   UNK d   0       0.689   4.165  -8.649  0.00  0.00    -0.020 A 
ATOM      8  C   UNK d   0       1.082   2.983  -9.051  0.00  0.00    -0.011 A 
ATOM      9  C   UNK d   0       0.168   2.541 -10.091  0.00  0.00     0.067 A 
ATOM     10  C   UNK d   0       0.023   1.397 -10.892  0.00  0.00     0.062 C 
ATOM     11  N   UNK d   0      -0.747   3.517 -10.263  0.00  0.00    -0.248 NA
ATOM     12  C   UNK d   0      -1.093   1.031 -11.652  0.00  0.00     0.041 A 
ATOM     13  N   UNK d   0      -1.902   1.757 -12.447  0.00  0.00    -0.355 N 
ATOM     14  C   UNK d   0      -1.552  -0.298 -11.591  0.00  0.00    -0.022 A 
ATOM     15  C   UNK d   0      -2.866   0.926 -12.885  0.00  0.00     0.042 A 
ATOM     16  H   UNK d   0      -1.782   2.832 -12.708  0.00  0.00     0.166 HD
ATOM     17  C   UNK d   0      -3.960   1.166 -13.740  0.00  0.00     0.062 C 
ATOM     18  C   UNK d   0      -2.680  -0.371 -12.369  0.00  0.00    -0.013 A 
ATOM     19  C   UNK d   0      -4.842   2.217 -13.738  0.00  0.00     0.067 A 
ATOM     20  N   UNK d   0      -4.535   3.261 -12.964  0.00  0.00    -0.248 NA
ATOM     21  C   UNK d   0      -6.110   2.517 -14.380  0.00  0.00    -0.011 A 
ATOM     22  C   UNK d   0      -5.513   4.222 -13.053  0.00  0.00     0.066 A 
ATOM     23  C   UNK d   0      -5.302   5.385 -12.326  0.00  0.00     0.062 C 
ATOM     24  C   UNK d   0      -6.500   3.690 -13.971  0.00  0.00    -0.020 A 
ATOM     25  C   UNK d   0      -4.168   5.739 -11.579  0.00  0.00     0.041 A 
ATOM     26  N   UNK d   0      -3.373   5.020 -10.777  0.00  0.00    -0.355 N 
ATOM     27  C   UNK d   0      -3.705   7.071 -11.644  0.00  0.00    -0.022 A 
ATOM     28  C   UNK d   0      -2.416   5.849 -10.331  0.00  0.00     0.042 A 
ATOM     29  H   UNK d   0      -3.500   3.943 -10.507  0.00  0.00     0.166 HD
ATOM     30  C   UNK d   0      -1.327   5.625  -9.474  0.00  0.00     0.062 C 
ATOM     31  C   UNK d   0      -2.597   7.150 -10.858  0.00  0.00    -0.013 A 
ATOM     32  C   UNK d   0      -0.490   4.522  -9.424  0.00  0.00     0.066 A 
BRANCH   8  33
ATOM     33  C   UNK d   0       2.243   2.221  -8.557  0.00  0.00     0.151 C 
BRANCH  33  34
ATOM     34  C   UNK d   0       3.494   2.572  -9.254  0.00  0.00     0.143 C 
ATOM     35  O   UNK d   0       4.541   2.769  -8.621  0.00  0.00    -0.650 OA
BRANCH  34  36
ATOM     36  O   UNK d   0       3.495   2.681 -10.625  0.00  0.00    -0.776 OA
ATOM     37  H   UNK d   0       3.909   1.949 -11.219  0.00  0.00     0.167 HD
ENDBRANCH  34  36
ENDBRANCH  33  34
ENDBRANCH   8  33
BRANCH  31  38
ATOM     38  C   UNK d   0      -1.751   8.381 -10.630  0.00  0.00     0.151 C 
BRANCH  38  39
ATOM     39  C   UNK d   0      -1.951   8.965  -9.321  0.00  0.00     0.143 C 
ATOM     40  O   UNK d   0      -3.068   9.340  -8.924  0.00  0.00    -0.650 OA
BRANCH  39  41
ATOM     41  O   UNK d   0      -0.862   9.118  -8.464  0.00  0.00    -0.776 OA
ATOM     42  H   UNK d   0       0.017   8.674  -8.751  0.00  0.00     0.167 HD
ENDBRANCH  39  41
ENDBRANCH  38  39
ENDBRANCH  31  38
BRANCH  27  43
ATOM     43  C   UNK d   0      -4.268   8.244 -12.407  0.00  0.00     0.052 C 
BRANCH  43  44
ATOM     44  C   UNK d   0      -5.228   9.064 -11.607  0.00  0.00     0.115 C 
BRANCH  44  45
ATOM     45  C   UNK d   0      -4.699  10.453 -11.604  0.00  0.00     0.139 C 
ATOM     46  O   UNK d   0      -4.068  10.848 -12.615  0.00  0.00    -0.650 OA
BRANCH  45  47
ATOM     47  O   UNK d   0      -4.878  11.318 -10.546  0.00  0.00    -0.776 OA
ATOM     48  H   UNK d   0      -4.109  11.877 -10.143  0.00  0.00     0.167 HD
ENDBRANCH  45  47
ENDBRANCH  44  45
ENDBRANCH  43  44
ENDBRANCH  27  43
BRANCH  24  49
ATOM     49  C   UNK d   0      -7.717   4.400 -14.402  0.00  0.00     0.052 C 
BRANCH  49  50
ATOM     50  C   UNK d   0      -8.883   4.019 -13.526  0.00  0.00     0.115 C 
BRANCH  50  51
ATOM     51  C   UNK d   0      -9.631   5.104 -12.906  0.00  0.00     0.139 C 
ATOM     52  O   UNK d   0     -10.803   4.962 -12.483  0.00  0.00    -0.650 OA
BRANCH  51  53
ATOM     53  O   UNK d   0      -9.044   6.352 -12.770  0.00  0.00    -0.776 OA
ATOM     54  H   UNK d   0      -8.602   6.760 -13.576  0.00  0.00     0.167 HD
ENDBRANCH  51  53
ENDBRANCH  50  51
ENDBRANCH  49  50
ENDBRANCH  24  49
BRANCH  21  55
ATOM     55  C   UNK d   0      -6.799   1.602 -15.337  0.00  0.00     0.151 C 
BRANCH  55  56
ATOM     56  C   UNK d   0      -6.781   2.126 -16.711  0.00  0.00     0.143 C 
ATOM     57  O   UNK d   0      -7.755   2.712 -17.223  0.00  0.00    -0.650 OA
BRANCH  56  58
ATOM     58  O   UNK d   0      -5.616   1.952 -17.457  0.00  0.00    -0.776 OA
ATOM     59  H   UNK d   0      -5.579   1.075 -18.009  0.00  0.00     0.167 HD
ENDBRANCH  56  58
ENDBRANCH  55  56
ENDBRANCH  21  55
BRANCH  18  60
ATOM     60  C   UNK d   0      -3.504  -1.617 -12.582  0.00  0.00     0.151 C 
BRANCH  60  61
ATOM     61  C   UNK d   0      -4.488  -1.642 -11.488  0.00  0.00     0.143 C 
ATOM     62  O   UNK d   0      -4.606  -0.821 -10.578  0.00  0.00    -0.650 OA
BRANCH  61  63
ATOM     63  O   UNK d   0      -5.384  -2.737 -11.509  0.00  0.00    -0.776 OA
ATOM     64  H   UNK d   0      -6.237  -2.699 -12.038  0.00  0.00     0.167 HD
ENDBRANCH  61  63
ENDBRANCH  60  61
ENDBRANCH  18  60
BRANCH  14  65
ATOM     65  C   UNK d   0      -0.955  -1.513 -10.938  0.00  0.00     0.052 C 
BRANCH  65  66
ATOM     66  C   UNK d   0      -1.292  -1.622  -9.494  0.00  0.00     0.115 C 
BRANCH  66  67
ATOM     67  C   UNK d   0      -0.238  -1.706  -8.522  0.00  0.00     0.139 C 
ATOM     68  O   UNK d   0      -0.459  -2.353  -7.432  0.00  0.00    -0.650 OA
BRANCH  67  69
ATOM     69  O   UNK d   0       1.042  -1.160  -8.602  0.00  0.00    -0.776 OA
ATOM     70  H   UNK d   0       1.728  -1.703  -9.147  0.00  0.00     0.167 HD
ENDBRANCH  67  69
ENDBRANCH  66  67
ENDBRANCH  65  66
ENDBRANCH  14  65
ENDBRANCH   6   7
ENDBRANCH   5   6
ENDBRANCH   2   5
TORSDOF 28
ENDMDL
MODEL 2
REMARK VINA RESULT:     -10.0      1.908     10.515
REMARK  28 active torsions:
REMARK  status: ('A' for Active; 'I' for Inactive)
REMARK    1  A    between atoms: C_2  and  O_3 
REMARK    2  A    between atoms: C_2  and  C_4 
REMARK    3  A    between atoms: C_4  and  C_5 
REMARK    4  A    between atoms: C_5  and  C_6 
REMARK    5  A    between atoms: C_7  and  C_8 
REMARK    6  A    between atoms: C_8  and  C_9 
REMARK    7  A    between atoms: C_9  and  O_11 
REMARK    8  A    between atoms: C_28  and  C_29 
REMARK    9  A    between atoms: C_29  and  C_30 
REMARK   10  A    between atoms: C_30  and  O_32 
REMARK   11  A    between atoms: C_33  and  C_34 
REMARK   12  A    between atoms: C_34  and  C_35 
REMARK   13  A    between atoms: C_35  and  C_36 
REMARK   14  A    between atoms: C_36  and  O_38 
REMARK   15  A    between atoms: C_39  and  C_40 
REMARK   16  A    between atoms: C_40  and  C_41 
REMARK   17  A    between atoms: C_41  and  C_42 
REMARK   18  A    between atoms: C_42  and  O_44 
REMARK   19  A    between atoms: C_45  and  C_46 
REMARK   20  A    between atoms: C_46  and  C_47 
REMARK   21  A    between atoms: C_47  and  O_49 
REMARK   22  A    between atoms: C_50  and  C_51 
REMARK   23  A    between atoms: C_51  and  C_52 
REMARK   24  A    between atoms: C_52  and  O_54 
REMARK   25  A    between atoms: C_55  and  C_56 
REMARK   26  A    between atoms: C_56  and  C_57 
REMARK   27  A    between atoms: C_57  and  C_58 
REMARK   28  A    between atoms: C_58  and  O_60 
ROOT
ATOM      1  O   UNK d   0      -7.864   2.031 -16.846  0.00  0.00    -0.650 OA
ATOM      2  C   UNK d   0      -7.575   3.063 -16.201  0.00  0.00     0.139 C 
ENDROOT
BRANCH   2   3
ATOM      3  O   UNK d   0      -8.210   4.244 -16.501  0.00  0.00    -0.776 OA
ATOM      4  H   UNK d   0      -7.726   4.990 -17.005  0.00  0.00     0.167 HD
ENDBRANCH   2   3
BRANCH   2   5
ATOM      5  C   UNK d   0      -6.550   3.008 -15.120  0.00  0.00     0.115 C 
BRANCH   5   6
ATOM      6  C   UNK d   0      -7.030   3.768 -13.913  0.00  0.00     0.052 C 
BRANCH   6   7
ATOM      7  C   UNK d   0      -5.897   4.383 -13.126  0.00  0.00    -0.020 A 
ATOM      8  C   UNK d   0      -5.681   5.653 -12.897  0.00  0.00    -0.011 A 
ATOM      9  C   UNK d   0      -4.469   5.762 -12.104  0.00  0.00     0.067 A 
ATOM     10  C   UNK d   0      -3.728   6.805 -11.525  0.00  0.00     0.062 C 
ATOM     11  N   UNK d   0      -4.009   4.510 -11.900  0.00  0.00    -0.248 NA
ATOM     12  C   UNK d   0      -2.729   6.695 -10.552  0.00  0.00     0.041 A 
ATOM     13  N   UNK d   0      -1.710   5.824 -10.421  0.00  0.00    -0.355 N 
ATOM     14  C   UNK d   0      -2.748   7.575  -9.455  0.00  0.00    -0.022 A 
ATOM     15  C   UNK d   0      -1.088   6.124  -9.265  0.00  0.00     0.042 A 
ATOM     16  H   UNK d   0      -1.424   5.026 -11.141  0.00  0.00     0.166 HD
ATOM     17  C   UNK d   0       0.034   5.532  -8.651  0.00  0.00     0.062 C 
ATOM     18  C   UNK d   0      -1.710   7.216  -8.631  0.00  0.00    -0.013 A 
ATOM     19  C   UNK d   0       0.322   4.201  -8.483  0.00  0.00     0.067 A 
ATOM     20  N   UNK d   0      -0.440   3.328  -9.146  0.00  0.00    -0.248 NA
ATOM     21  C   UNK d   0       1.287   3.430  -7.716  0.00  0.00    -0.011 A 
ATOM     22  C   UNK d   0      -0.045   2.043  -8.868  0.00  0.00     0.066 A 
ATOM     23  C   UNK d   0      -0.732   1.032  -9.524  0.00  0.00     0.062 C 
ATOM     24  C   UNK d   0       1.064   2.168  -7.943  0.00  0.00    -0.020 A 
ATOM     25  C   UNK d   0      -1.723   1.163 -10.508  0.00  0.00     0.041 A 
ATOM     26  N   UNK d   0      -2.745   2.019 -10.630  0.00  0.00    -0.355 N 
ATOM     27  C   UNK d   0      -1.700   0.282 -11.611  0.00  0.00    -0.022 A 
ATOM     28  C   UNK d   0      -3.372   1.716 -11.778  0.00  0.00     0.042 A 
ATOM     29  H   UNK d   0      -3.037   2.814  -9.901  0.00  0.00     0.166 HD
ATOM     30  C   UNK d   0      -4.494   2.291 -12.396  0.00  0.00     0.062 C 
ATOM     31  C   UNK d   0      -2.740   0.626 -12.420  0.00  0.00    -0.013 A 
ATOM     32  C   UNK d   0      -4.824   3.634 -12.490  0.00  0.00     0.066 A 
BRANCH   8  33
ATOM     33  C   UNK d   0      -6.504   6.787 -13.357  0.00  0.00     0.151 C 
BRANCH  33  34
ATOM     34  C   UNK d   0      -5.724   8.028 -13.522  0.00  0.00     0.143 C 
ATOM     35  O   UNK d   0      -6.021   9.054 -12.895  0.00  0.00    -0.650 OA
BRANCH  34  36
ATOM     36  O   UNK d   0      -4.653   8.042 -14.386  0.00  0.00    -0.776 OA
ATOM     37  H   UNK d   0      -4.577   7.361 -15.153  0.00  0.00     0.167 HD
ENDBRANCH  34  36
ENDBRANCH  33  34
ENDBRANCH   8  33
BRANCH  31  38
ATOM     38  C   UNK d   0      -3.104  -0.032 -13.731  0.00  0.00     0.151 C 
BRANCH  38  39
ATOM     39  C   UNK d   0      -2.463   0.591 -14.869  0.00  0.00     0.143 C 
ATOM     40  O   UNK d   0      -3.045   1.423 -15.588  0.00  0.00    -0.650 OA
BRANCH  39  41
ATOM     41  O   UNK d   0      -1.146   0.257 -15.182  0.00  0.00    -0.776 OA
ATOM     42  H   UNK d   0      -0.803  -0.643 -14.834  0.00  0.00     0.167 HD
ENDBRANCH  39  41
ENDBRANCH  38  39
ENDBRANCH  31  38
BRANCH  27  43
ATOM     43  C   UNK d   0      -0.749  -0.849 -11.915  0.00  0.00     0.052 C 
BRANCH  43  44
ATOM     44  C   UNK d   0      -1.417  -2.185 -11.966  0.00  0.00     0.115 C 
BRANCH  44  45
ATOM     45  C   UNK d   0      -1.837  -2.502 -10.576  0.00  0.00     0.139 C 
ATOM     46  O   UNK d   0      -3.023  -2.870 -10.386  0.00  0.00    -0.650 OA
BRANCH  45  47
ATOM     47  O   UNK d   0      -0.983  -2.414  -9.498  0.00  0.00    -0.776 OA
ATOM     48  H   UNK d   0      -1.288  -2.089  -8.567  0.00  0.00     0.167 HD
ENDBRANCH  45  47
ENDBRANCH  44  45
ENDBRANCH  43  44
ENDBRANCH  27  43
BRANCH  24  49
ATOM     49  C   UNK d   0       1.835   1.038  -7.397  0.00  0.00     0.052 C 
BRANCH  49  50
ATOM     50  C   UNK d   0       1.226   0.563  -6.103  0.00  0.00     0.115 C 
BRANCH  50  51
ATOM     51  C   UNK d   0       0.420  -0.650  -6.154  0.00  0.00     0.139 C 
ATOM     52  O   UNK d   0      -0.372  -0.975  -5.238  0.00  0.00    -0.650 OA
BRANCH  51  53
ATOM     53  O   UNK d   0       0.520  -1.495  -7.249  0.00  0.00    -0.776 OA
ATOM     54  H   UNK d   0       0.141  -2.422  -7.170  0.00  0.00     0.167 HD
ENDBRANCH  51  53
ENDBRANCH  50  51
ENDBRANCH  49  50
ENDBRANCH  24  49
BRANCH  21  55
ATOM     55  C   UNK d   0       2.333   4.036  -6.840  0.00  0.00     0.151 C 
BRANCH  55  56
ATOM     56  C   UNK d   0       3.690   3.650  -7.255  0.00  0.00     0.143 C 
ATOM     57  O   UNK d   0       4.509   3.122  -6.478  0.00  0.00    -0.650 OA
BRANCH  56  58
ATOM     58  O   UNK d   0       4.059   3.893  -8.578  0.00  0.00    -0.776 OA
ATOM     59  H   UNK d   0       3.411   4.505  -9.106  0.00  0.00     0.167 HD
ENDBRANCH  56  58
ENDBRANCH  55  56
ENDBRANCH  21  55
BRANCH  18  60
ATOM     60  C   UNK d   0      -1.367   7.894  -7.327  0.00  0.00     0.151 C 
BRANCH  60  61
ATOM     61  C   UNK d   0      -2.301   7.348  -6.331  0.00  0.00     0.143 C 
ATOM     62  O   UNK d   0      -2.792   6.219  -6.313  0.00  0.00    -0.650 OA
BRANCH  61  63
ATOM     63  O   UNK d   0      -2.658   8.238  -5.289  0.00  0.00    -0.776 OA
ATOM     64  H   UNK d   0      -3.351   8.952  -5.431  0.00  0.00     0.167 HD
ENDBRANCH  61  63
ENDBRANCH  60  61
ENDBRANCH  18  60
BRANCH  14  65
ATOM     65  C   UNK d   0      -3.604   8.779  -9.178  0.00  0.00     0.052 C 
BRANCH  65  66
ATOM     66  C   UNK d   0      -3.082  10.021  -9.809  0.00  0.00     0.115 C 
BRANCH  66  67
ATOM     67  C   UNK d   0      -3.709  10.534 -10.994  0.00  0.00     0.139 C 
ATOM     68  O   UNK d   0      -4.641  11.411 -10.865  0.00  0.00    -0.650 OA
BRANCH  67  69
ATOM     69  O   UNK d   0      -3.433  10.198 -12.319  0.00  0.00    -0.776 OA
ATOM     70  H   UNK d   0      -2.632  10.684 -12.747  0.00  0.00     0.167 HD
ENDBRANCH  67  69
ENDBRANCH  66  67
ENDBRANCH  65  66
ENDBRANCH  14  65
ENDBRANCH   6   7
ENDBRANCH   5   6
ENDBRANCH   2   5
TORSDOF 28
ENDMDL
MODEL 3
REMARK VINA RESULT:      -9.8      1.871     10.471
REMARK  28 active torsions:
REMARK  status: ('A' for Active; 'I' for Inactive)
REMARK    1  A    between atoms: C_2  and  O_3 
REMARK    2  A    between atoms: C_2  and  C_4 
REMARK    3  A    between atoms: C_4  and  C_5 
REMARK    4  A    between atoms: C_5  and  C_6 
REMARK    5  A    between atoms: C_7  and  C_8 
REMARK    6  A    between atoms: C_8  and  C_9 
REMARK    7  A    between atoms: C_9  and  O_11 
REMARK    8  A    between atoms: C_28  and  C_29 
REMARK    9  A    between atoms: C_29  and  C_30 
REMARK   10  A    between atoms: C_30  and  O_32 
REMARK   11  A    between atoms: C_33  and  C_34 
REMARK   12  A    between atoms: C_34  and  C_35 
REMARK   13  A    between atoms: C_35  and  C_36 
REMARK   14  A    between atoms: C_36  and  O_38 
REMARK   15  A    between atoms: C_39  and  C_40 
REMARK   16  A    between atoms: C_40  and  C_41 
REMARK   17  A    between atoms: C_41  and  C_42 
REMARK   18  A    between atoms: C_42  and  O_44 
REMARK   19  A    between atoms: C_45  and  C_46 
REMARK   20  A    between atoms: C_46  and  C_47 
REMARK   21  A    between atoms: C_47  and  O_49 
REMARK   22  A    between atoms: C_50  and  C_51 
REMARK   23  A    between atoms: C_51  and  C_52 
REMARK   24  A    between atoms: C_52  and  O_54 
REMARK   25  A    between atoms: C_55  and  C_56 
REMARK   26  A    between atoms: C_56  and  C_57 
REMARK   27  A    between atoms: C_57  and  C_58 
REMARK   28  A    between atoms: C_58  and  O_60 
ROOT
ATOM      1  O   UNK d   0      -9.792   5.743 -13.877  0.00  0.00    -0.650 OA
ATOM      2  C   UNK d   0      -8.891   4.999 -14.324  0.00  0.00     0.139 C 
ENDROOT
BRANCH   2   3
ATOM      3  O   UNK d   0      -8.664   4.955 -15.679  0.00  0.00    -0.776 OA
ATOM      4  H   UNK d   0      -8.364   4.092 -16.136  0.00  0.00     0.167 HD
ENDBRANCH   2   3
BRANCH   2   5
ATOM      5  C   UNK d   0      -8.076   4.168 -13.393  0.00  0.00     0.115 C 
BRANCH   5   6
ATOM      6  C   UNK d   0      -6.700   3.952 -13.962  0.00  0.00     0.052 C 
BRANCH   6   7
ATOM      7  C   UNK d   0      -5.609   4.470 -13.057  0.00  0.00    -0.020 A 
ATOM      8  C   UNK d   0      -5.390   5.710 -12.700  0.00  0.00    -0.011 A 
ATOM      9  C   UNK d   0      -4.226   5.723 -11.829  0.00  0.00     0.067 A 
ATOM     10  C   UNK d   0      -3.507   6.694 -11.115  0.00  0.00     0.062 C 
ATOM     11  N   UNK d   0      -3.797   4.449 -11.715  0.00  0.00    -0.248 NA
ATOM     12  C   UNK d   0      -2.570   6.478 -10.099  0.00  0.00     0.041 A 
ATOM     13  N   UNK d   0      -1.573   5.579  -9.989  0.00  0.00    -0.355 N 
ATOM     14  C   UNK d   0      -2.644   7.255  -8.929  0.00  0.00    -0.022 A 
ATOM     15  C   UNK d   0      -1.018   5.760  -8.776  0.00  0.00     0.042 A 
ATOM     16  H   UNK d   0      -1.256   4.844 -10.761  0.00  0.00     0.166 HD
ATOM     17  C   UNK d   0       0.056   5.093  -8.154  0.00  0.00     0.062 C 
ATOM     18  C   UNK d   0      -1.663   6.802  -8.082  0.00  0.00    -0.013 A 
ATOM     19  C   UNK d   0       0.315   3.747  -8.091  0.00  0.00     0.067 A 
ATOM     20  N   UNK d   0      -0.418   2.953  -8.876  0.00  0.00    -0.248 NA
ATOM     21  C   UNK d   0       1.220   2.891  -7.343  0.00  0.00    -0.011 A 
ATOM     22  C   UNK d   0      -0.058   1.640  -8.694  0.00  0.00     0.066 A 
ATOM     23  C   UNK d   0      -0.718   0.706  -9.479  0.00  0.00     0.062 C 
ATOM     24  C   UNK d   0       0.994   1.659  -7.697  0.00  0.00    -0.020 A 
ATOM     25  C   UNK d   0      -1.647   0.945 -10.504  0.00  0.00     0.041 A 
ATOM     26  N   UNK d   0      -2.647   1.829 -10.607  0.00  0.00    -0.355 N 
ATOM     27  C   UNK d   0      -1.569   0.168 -11.680  0.00  0.00    -0.022 A 
ATOM     28  C   UNK d   0      -3.208   1.644 -11.812  0.00  0.00     0.042 A 
ATOM     29  H   UNK d   0      -2.971   2.560  -9.826  0.00  0.00     0.166 HD
ATOM     30  C   UNK d   0      -4.282   2.294 -12.440  0.00  0.00     0.062 C 
ATOM     31  C   UNK d   0      -2.553   0.604 -12.513  0.00  0.00    -0.013 A 
ATOM     32  C   UNK d   0      -4.587   3.646 -12.429  0.00  0.00     0.066 A 
BRANCH   8  33
ATOM     33  C   UNK d   0      -6.167   6.897 -13.102  0.00  0.00     0.151 C 
BRANCH  33  34
ATOM     34  C   UNK d   0      -5.314   8.052 -13.435  0.00  0.00     0.143 C 
ATOM     35  O   UNK d   0      -5.369   9.097 -12.772  0.00  0.00    -0.650 OA
BRANCH  34  36
ATOM     36  O   UNK d   0      -4.446   7.965 -14.499  0.00  0.00    -0.776 OA
ATOM     37  H   UNK d   0      -3.481   7.629 -14.376  0.00  0.00     0.167 HD
ENDBRANCH  34  36
ENDBRANCH  33  34
ENDBRANCH   8  33
BRANCH  31  38
ATOM     38  C   UNK d   0      -2.847   0.075 -13.898  0.00  0.00     0.151 C 
BRANCH  38  39
ATOM     39  C   UNK d   0      -2.147   0.801 -14.937  0.00  0.00     0.143 C 
ATOM     40  O   UNK d   0      -2.720   1.614 -15.683  0.00  0.00    -0.650 OA
BRANCH  39  41
ATOM     41  O   UNK d   0      -0.780   0.592 -15.117  0.00  0.00    -0.776 OA
ATOM     42  H   UNK d   0      -0.501   0.040 -15.934  0.00  0.00     0.167 HD
ENDBRANCH  39  41
ENDBRANCH  38  39
ENDBRANCH  31  38
BRANCH  27  43
ATOM     43  C   UNK d   0      -0.618  -0.949 -12.030  0.00  0.00     0.052 C 
BRANCH  43  44
ATOM     44  C   UNK d   0      -1.280  -2.286 -12.112  0.00  0.00     0.115 C 
BRANCH  44  45
ATOM     45  C   UNK d   0      -1.895  -2.537 -10.783  0.00  0.00     0.139 C 
ATOM     46  O   UNK d   0      -1.133  -2.677  -9.795  0.00  0.00    -0.650 OA
BRANCH  45  47
ATOM     47  O   UNK d   0      -3.258  -2.616 -10.593  0.00  0.00    -0.776 OA
ATOM     48  H   UNK d   0      -3.753  -2.085  -9.858  0.00  0.00     0.167 HD
ENDBRANCH  45  47
ENDBRANCH  44  45
ENDBRANCH  43  44
ENDBRANCH  27  43
BRANCH  24  49
ATOM     49  C   UNK d   0       1.715   0.470  -7.213  0.00  0.00     0.052 C 
BRANCH  49  50
ATOM     50  C   UNK d   0       1.036  -0.094  -5.991  0.00  0.00     0.115 C 
BRANCH  50  51
ATOM     51  C   UNK d   0       0.306  -1.344  -6.154  0.00  0.00     0.139 C 
ATOM     52  O   UNK d   0      -0.374  -1.855  -5.233  0.00  0.00    -0.650 OA
BRANCH  51  53
ATOM     53  O   UNK d   0       0.354  -2.014  -7.367  0.00  0.00    -0.776 OA
ATOM     54  H   UNK d   0       0.169  -3.002  -7.372  0.00  0.00     0.167 HD
ENDBRANCH  51  53
ENDBRANCH  50  51
ENDBRANCH  49  50
ENDBRANCH  24  49
BRANCH  21  55
ATOM     55  C   UNK d   0       2.220   3.395  -6.355  0.00  0.00     0.151 C 
BRANCH  55  56
ATOM     56  C   UNK d   0       3.179   4.327  -6.968  0.00  0.00     0.143 C 
ATOM     57  O   UNK d   0       3.933   4.001  -7.905  0.00  0.00    -0.650 OA
BRANCH  56  58
ATOM     58  O   UNK d   0       3.232   5.626  -6.465  0.00  0.00    -0.776 OA
ATOM     59  H   UNK d   0       4.138   5.892  -6.039  0.00  0.00     0.167 HD
ENDBRANCH  56  58
ENDBRANCH  55  56
ENDBRANCH  21  55
BRANCH  18  60
ATOM     60  C   UNK d   0      -1.389   7.352  -6.703  0.00  0.00     0.151 C 
BRANCH  60  61
ATOM     61  C   UNK d   0      -0.142   8.123  -6.816  0.00  0.00     0.143 C 
ATOM     62  O   UNK d   0       0.048   9.132  -7.497  0.00  0.00    -0.650 OA
BRANCH  61  63
ATOM     63  O   UNK d   0       0.942   7.632  -6.049  0.00  0.00    -0.776 OA
ATOM     64  H   UNK d   0       0.891   7.593  -5.047  0.00  0.00     0.167 HD
ENDBRANCH  61  63
ENDBRANCH  60  61
ENDBRANCH  18  60
BRANCH  14  65
ATOM     65  C   UNK d   0      -3.497   8.444  -8.593  0.00  0.00     0.052 C 
BRANCH  65  66
ATOM     66  C   UNK d   0      -2.955   9.720  -9.133  0.00  0.00     0.115 C 
BRANCH  66  67
ATOM     67  C   UNK d   0      -3.534  10.297 -10.314  0.00  0.00     0.139 C 
ATOM     68  O   UNK d   0      -2.832  10.323 -11.391  0.00  0.00    -0.650 OA
BRANCH  67  69
ATOM     69  O   UNK d   0      -4.804  10.854 -10.456  0.00  0.00    -0.776 OA
ATOM     70  H   UNK d   0      -5.016  11.255 -11.382  0.00  0.00     0.167 HD
ENDBRANCH  67  69
ENDBRANCH  66  67
ENDBRANCH  65  66
ENDBRANCH  14  65
ENDBRANCH   6   7
ENDBRANCH   5   6
ENDBRANCH   2   5
TORSDOF 28
ENDMDL
MODEL 4
REMARK VINA RESULT:      -9.8      2.032      8.433
REMARK  28 active torsions:
REMARK  status: ('A' for Active; 'I' for Inactive)
REMARK    1  A    between atoms: C_2  and  O_3 
REMARK    2  A    between atoms: C_2  and  C_4 
REMARK    3  A    between atoms: C_4  and  C_5 
REMARK    4  A    between atoms: C_5  and  C_6 
REMARK    5  A    between atoms: C_7  and  C_8 
REMARK    6  A    between atoms: C_8  and  C_9 
REMARK    7  A    between atoms: C_9  and  O_11 
REMARK    8  A    between atoms: C_28  and  C_29 
REMARK    9  A    between atoms: C_29  and  C_30 
REMARK   10  A    between atoms: C_30  and  O_32 
REMARK   11  A    between atoms: C_33  and  C_34 
REMARK   12  A    between atoms: C_34  and  C_35 
REMARK   13  A    between atoms: C_35  and  C_36 
REMARK   14  A    between atoms: C_36  and  O_38 
REMARK   15  A    between atoms: C_39  and  C_40 
REMARK   16  A    between atoms: C_40  and  C_41 
REMARK   17  A    between atoms: C_41  and  C_42 
REMARK   18  A    between atoms: C_42  and  O_44 
REMARK   19  A    between atoms: C_45  and  C_46 
REMARK   20  A    between atoms: C_46  and  C_47 
REMARK   21  A    between atoms: C_47  and  O_49 
REMARK   22  A    between atoms: C_50  and  C_51 
REMARK   23  A    between atoms: C_51  and  C_52 
REMARK   24  A    between atoms: C_52  and  O_54 
REMARK   25  A    between atoms: C_55  and  C_56 
REMARK   26  A    between atoms: C_56  and  C_57 
REMARK   27  A    between atoms: C_57  and  C_58 
REMARK   28  A    between atoms: C_58  and  O_60 
ROOT
ATOM      1  O   UNK d   0      -3.021  12.515 -12.500  0.00  0.00    -0.650 OA
ATOM      2  C   UNK d   0      -4.016  12.464 -11.743  0.00  0.00     0.139 C 
ENDROOT
BRANCH   2   3
ATOM      3  O   UNK d   0      -4.203  13.454 -10.809  0.00  0.00    -0.776 OA
ATOM      4  H   UNK d   0      -5.132  13.655 -10.432  0.00  0.00     0.167 HD
ENDBRANCH   2   3
BRANCH   2   5
ATOM      5  C   UNK d   0      -4.985  11.337 -11.856  0.00  0.00     0.115 C 
BRANCH   5   6
ATOM      6  C   UNK d   0      -4.693  10.526 -13.089  0.00  0.00     0.052 C 
BRANCH   6   7
ATOM      7  C   UNK d   0      -4.753   9.039 -12.834  0.00  0.00    -0.020 A 
ATOM      8  C   UNK d   0      -5.613   8.180 -13.318  0.00  0.00    -0.011 A 
ATOM      9  C   UNK d   0      -5.280   6.869 -12.786  0.00  0.00     0.067 A 
ATOM     10  C   UNK d   0      -5.778   5.564 -12.924  0.00  0.00     0.062 C 
ATOM     11  N   UNK d   0      -4.206   7.023 -11.983  0.00  0.00    -0.248 NA
ATOM     12  C   UNK d   0      -5.148   4.372 -12.546  0.00  0.00     0.041 A 
ATOM     13  N   UNK d   0      -4.453   4.049 -11.440  0.00  0.00    -0.355 N 
ATOM     14  C   UNK d   0      -5.149   3.289 -13.444  0.00  0.00    -0.022 A 
ATOM     15  C   UNK d   0      -4.004   2.792 -11.615  0.00  0.00     0.042 A 
ATOM     16  H   UNK d   0      -4.298   4.690 -10.544  0.00  0.00     0.166 HD
ATOM     17  C   UNK d   0      -3.230   1.972 -10.770  0.00  0.00     0.062 C 
ATOM     18  C   UNK d   0      -4.421   2.282 -12.860  0.00  0.00    -0.013 A 
ATOM     19  C   UNK d   0      -2.107   2.291 -10.051  0.00  0.00     0.067 A 
ATOM     20  N   UNK d   0      -1.793   3.586  -9.964  0.00  0.00    -0.248 NA
ATOM     21  C   UNK d   0      -1.089   1.554  -9.321  0.00  0.00    -0.011 A 
ATOM     22  C   UNK d   0      -0.642   3.749  -9.231  0.00  0.00     0.066 A 
ATOM     23  C   UNK d   0      -0.220   5.055  -9.029  0.00  0.00     0.062 C 
ATOM     24  C   UNK d   0      -0.233   2.413  -8.848  0.00  0.00    -0.020 A 
ATOM     25  C   UNK d   0      -0.874   6.239  -9.405  0.00  0.00     0.041 A 
ATOM     26  N   UNK d   0      -1.553   6.565 -10.512  0.00  0.00    -0.355 N 
ATOM     27  C   UNK d   0      -0.877   7.324  -8.502  0.00  0.00    -0.022 A 
ATOM     28  C   UNK d   0      -1.993   7.822 -10.343  0.00  0.00     0.042 A 
ATOM     29  H   UNK d   0      -1.698   5.923 -11.415  0.00  0.00     0.166 HD
ATOM     30  C   UNK d   0      -2.756   8.652 -11.179  0.00  0.00     0.062 C 
ATOM     31  C   UNK d   0      -1.584   8.329  -9.087  0.00  0.00    -0.013 A 
ATOM     32  C   UNK d   0      -3.840   8.306 -11.970  0.00  0.00     0.066 A 
BRANCH   8  33
ATOM     33  C   UNK d   0      -6.732   8.468 -14.234  0.00  0.00     0.151 C 
BRANCH  33  34
ATOM     34  C   UNK d   0      -8.005   7.877 -13.784  0.00  0.00     0.143 C 
ATOM     35  O   UNK d   0      -8.540   8.246 -12.729  0.00  0.00    -0.650 OA
BRANCH  34  36
ATOM     36  O   UNK d   0      -8.604   6.902 -14.547  0.00  0.00    -0.776 OA
ATOM     37  H   UNK d   0      -8.785   5.962 -14.168  0.00  0.00     0.167 HD
ENDBRANCH  34  36
ENDBRANCH  33  34
ENDBRANCH   8  33
BRANCH  31  38
ATOM     38  C   UNK d   0      -1.866   9.687  -8.487  0.00  0.00     0.151 C 
BRANCH  38  39
ATOM     39  C   UNK d   0      -3.088   9.715  -7.711  0.00  0.00     0.143 C 
ATOM     40  O   UNK d   0      -3.149  10.240  -6.585  0.00  0.00    -0.650 OA
BRANCH  39  41
ATOM     41  O   UNK d   0      -4.245   9.137  -8.232  0.00  0.00    -0.776 OA
ATOM     42  H   UNK d   0      -4.779   9.698  -8.903  0.00  0.00     0.167 HD
ENDBRANCH  39  41
ENDBRANCH  38  39
ENDBRANCH  31  38
BRANCH  27  43
ATOM     43  C   UNK d   0      -0.245   7.437  -7.137  0.00  0.00     0.052 C 
BRANCH  43  44
ATOM     44  C   UNK d   0      -0.822   6.486  -6.139  0.00  0.00     0.115 C 
BRANCH  44  45
ATOM     45  C   UNK d   0      -2.249   6.864  -5.968  0.00  0.00     0.139 C 
ATOM     46  O   UNK d   0      -3.118   6.179  -6.561  0.00  0.00    -0.650 OA
BRANCH  45  47
ATOM     47  O   UNK d   0      -2.652   7.924  -5.185  0.00  0.00    -0.776 OA
ATOM     48  H   UNK d   0      -2.738   7.862  -4.158  0.00  0.00     0.167 HD
ENDBRANCH  45  47
ENDBRANCH  44  45
ENDBRANCH  43  44
ENDBRANCH  27  43
BRANCH  24  49
ATOM     49  C   UNK d   0       0.939   2.100  -8.012  0.00  0.00     0.052 C 
BRANCH  49  50
ATOM     50  C   UNK d   0       2.212   2.367  -8.773  0.00  0.00     0.115 C 
BRANCH  50  51
ATOM     51  C   UNK d   0       3.465   2.223  -8.044  0.00  0.00     0.139 C 
ATOM     52  O   UNK d   0       4.579   2.495  -8.553  0.00  0.00    -0.650 OA
BRANCH  51  53
ATOM     53  O   UNK d   0       3.449   1.767  -6.735  0.00  0.00    -0.776 OA
ATOM     54  H   UNK d   0       4.329   1.585  -6.285  0.00  0.00     0.167 HD
ENDBRANCH  51  53
ENDBRANCH  50  51
ENDBRANCH  49  50
ENDBRANCH  24  49
BRANCH  21  55
ATOM     55  C   UNK d   0      -1.081   0.069  -9.170  0.00  0.00     0.151 C 
BRANCH  55  56
ATOM     56  C   UNK d   0      -1.491  -0.350  -7.821  0.00  0.00     0.143 C 
ATOM     57  O   UNK d   0      -2.350   0.262  -7.156  0.00  0.00    -0.650 OA
BRANCH  56  58
ATOM     58  O   UNK d   0      -0.882  -1.481  -7.280  0.00  0.00    -0.776 OA
ATOM     59  H   UNK d   0      -1.503  -2.304  -7.178  0.00  0.00     0.167 HD
ENDBRANCH  56  58
ENDBRANCH  55  56
ENDBRANCH  21  55
BRANCH  18  60
ATOM     60  C   UNK d   0      -4.157   0.933 -13.483  0.00  0.00     0.151 C 
BRANCH  60  61
ATOM     61  C   UNK d   0      -2.880   1.063 -14.201  0.00  0.00     0.143 C 
ATOM     62  O   UNK d   0      -1.748   1.003 -13.720  0.00  0.00    -0.650 OA
BRANCH  61  63
ATOM     63  O   UNK d   0      -2.993   1.278 -15.596  0.00  0.00    -0.776 OA
ATOM     64  H   UNK d   0      -3.018   2.208 -15.976  0.00  0.00     0.167 HD
ENDBRANCH  61  63
ENDBRANCH  60  61
ENDBRANCH  18  60
BRANCH  14  65
ATOM     65  C   UNK d   0      -5.860   3.100 -14.754  0.00  0.00     0.052 C 
BRANCH  65  66
ATOM     66  C   UNK d   0      -7.303   2.779 -14.591  0.00  0.00     0.115 C 
BRANCH  66  67
ATOM     67  C   UNK d   0      -8.294   3.758 -14.939  0.00  0.00     0.139 C 
ATOM     68  O   UNK d   0      -9.200   4.047 -14.074  0.00  0.00    -0.650 OA
BRANCH  67  69
ATOM     69  O   UNK d   0      -8.411   4.466 -16.134  0.00  0.00    -0.776 OA
ATOM     70  H   UNK d   0      -8.656   3.906 -16.964  0.00  0.00     0.167 HD
ENDBRANCH  67  69
ENDBRANCH  66  67
ENDBRANCH  65  66
ENDBRANCH  14  65
ENDBRANCH   6   7
ENDBRANCH   5   6
ENDBRANCH   2   5
TORSDOF 28
ENDMDL
MODEL 5
REMARK VINA RESULT:      -9.8      1.323      1.737
REMARK  28 active torsions:
REMARK  status: ('A' for Active; 'I' for Inactive)
REMARK    1  A    between atoms: C_2  and  O_3 
REMARK    2  A    between atoms: C_2  and  C_4 
REMARK    3  A    between atoms: C_4  and  C_5 
REMARK    4  A    between atoms: C_5  and  C_6 
REMARK    5  A    between atoms: C_7  and  C_8 
REMARK    6  A    between atoms: C_8  and  C_9 
REMARK    7  A    between atoms: C_9  and  O_11 
REMARK    8  A    between atoms: C_28  and  C_29 
REMARK    9  A    between atoms: C_29  and  C_30 
REMARK   10  A    between atoms: C_30  and  O_32 
REMARK   11  A    between atoms: C_33  and  C_34 
REMARK   12  A    between atoms: C_34  and  C_35 
REMARK   13  A    between atoms: C_35  and  C_36 
REMARK   14  A    between atoms: C_36  and  O_38 
REMARK   15  A    between atoms: C_39  and  C_40 
REMARK   16  A    between atoms: C_40  and  C_41 
REMARK   17  A    between atoms: C_41  and  C_42 
REMARK   18  A    between atoms: C_42  and  O_44 
REMARK   19  A    between atoms: C_45  and  C_46 
REMARK   20  A    between atoms: C_46  and  C_47 
REMARK   21  A    between atoms: C_47  and  O_49 
REMARK   22  A    between atoms: C_50  and  C_51 
REMARK   23  A    between atoms: C_51  and  C_52 
REMARK   24  A    between atoms: C_52  and  O_54 
REMARK   25  A    between atoms: C_55  and  C_56 
REMARK   26  A    between atoms: C_56  and  C_57 
REMARK   27  A    between atoms: C_57  and  C_58 
REMARK   28  A    between atoms: C_58  and  O_60 
ROOT
ATOM      1  O   UNK d   0       4.563   5.054  -5.695  0.00  0.00    -0.650 OA
ATOM      2  C   UNK d   0       3.545   5.354  -6.357  0.00  0.00     0.139 C 
ENDROOT
BRANCH   2   3
ATOM      3  O   UNK d   0       2.947   6.575  -6.157  0.00  0.00    -0.776 OA
ATOM      4  H   UNK d   0       1.979   6.641  -5.836  0.00  0.00     0.167 HD
ENDBRANCH   2   3
BRANCH   2   5
ATOM      5  C   UNK d   0       2.990   4.394  -7.353  0.00  0.00     0.115 C 
BRANCH   5   6
ATOM      6  C   UNK d   0       1.526   4.167  -7.093  0.00  0.00     0.052 C 
BRANCH   6   7
ATOM      7  C   UNK d   0       0.861   3.359  -8.182  0.00  0.00    -0.020 A 
ATOM      8  C   UNK d   0       1.162   2.148  -8.575  0.00  0.00    -0.011 A 
ATOM      9  C   UNK d   0       0.255   1.793  -9.654  0.00  0.00     0.067 A 
ATOM     10  C   UNK d   0       0.040   0.669 -10.467  0.00  0.00     0.062 C 
ATOM     11  N   UNK d   0      -0.561   2.848  -9.856  0.00  0.00    -0.248 NA
ATOM     12  C   UNK d   0      -1.073   0.406 -11.273  0.00  0.00     0.041 A 
ATOM     13  N   UNK d   0      -1.779   1.205 -12.095  0.00  0.00    -0.355 N 
ATOM     14  C   UNK d   0      -1.651  -0.875 -11.239  0.00  0.00    -0.022 A 
ATOM     15  C   UNK d   0      -2.796   0.465 -12.578  0.00  0.00     0.042 A 
ATOM     16  H   UNK d   0      -1.553   2.265 -12.345  0.00  0.00     0.166 HD
ATOM     17  C   UNK d   0      -3.828   0.806 -13.475  0.00  0.00     0.062 C 
ATOM     18  C   UNK d   0      -2.749  -0.845 -12.063  0.00  0.00    -0.013 A 
ATOM     19  C   UNK d   0      -4.611   1.931 -13.501  0.00  0.00     0.067 A 
ATOM     20  N   UNK d   0      -4.243   2.942 -12.710  0.00  0.00    -0.248 NA
ATOM     21  C   UNK d   0      -5.820   2.347 -14.192  0.00  0.00    -0.011 A 
ATOM     22  C   UNK d   0      -5.125   3.988 -12.832  0.00  0.00     0.066 A 
ATOM     23  C   UNK d   0      -4.841   5.124 -12.090  0.00  0.00     0.062 C 
ATOM     24  C   UNK d   0      -6.118   3.549 -13.793  0.00  0.00    -0.020 A 
ATOM     25  C   UNK d   0      -3.710   5.373 -11.296  0.00  0.00     0.041 A 
ATOM     26  N   UNK d   0      -3.017   4.583 -10.467  0.00  0.00    -0.355 N 
ATOM     27  C   UNK d   0      -3.128   6.658 -11.334  0.00  0.00    -0.022 A 
ATOM     28  C   UNK d   0      -2.008   5.321  -9.978  0.00  0.00     0.042 A 
ATOM     29  H   UNK d   0      -3.252   3.521 -10.208  0.00  0.00     0.166 HD
ATOM     30  C   UNK d   0      -0.980   4.998  -9.078  0.00  0.00     0.062 C 
ATOM     31  C   UNK d   0      -2.050   6.634 -10.504  0.00  0.00    -0.013 A 
ATOM     32  C   UNK d   0      -0.249   3.824  -9.002  0.00  0.00     0.066 A 
BRANCH   8  33
ATOM     33  C   UNK d   0       2.229   1.283  -8.039  0.00  0.00     0.151 C 
BRANCH  33  34
ATOM     34  C   UNK d   0       1.961   0.836  -6.660  0.00  0.00     0.143 C 
ATOM     35  O   UNK d   0       2.880   0.731  -5.835  0.00  0.00    -0.650 OA
BRANCH  34  36
ATOM     36  O   UNK d   0       0.673   0.529  -6.288  0.00  0.00    -0.776 OA
ATOM     37  H   UNK d   0       0.364  -0.448  -6.189  0.00  0.00     0.167 HD
ENDBRANCH  34  36
ENDBRANCH  33  34
ENDBRANCH   8  33
BRANCH  31  38
ATOM     38  C   UNK d   0      -1.106   7.783 -10.234  0.00  0.00     0.151 C 
BRANCH  38  39
ATOM     39  C   UNK d   0      -1.378   8.450  -8.979  0.00  0.00     0.143 C 
ATOM     40  O   UNK d   0      -2.508   8.459  -8.461  0.00  0.00    -0.650 OA
BRANCH  39  41
ATOM     41  O   UNK d   0      -0.344   9.110  -8.314  0.00  0.00    -0.776 OA
ATOM     42  H   UNK d   0       0.608   8.778  -8.498  0.00  0.00     0.167 HD
ENDBRANCH  39  41
ENDBRANCH  38  39
ENDBRANCH  31  38
BRANCH  27  43
ATOM     43  C   UNK d   0      -3.551   7.879 -12.112  0.00  0.00     0.052 C 
BRANCH  43  44
ATOM     44  C   UNK d   0      -4.412   8.812 -11.324  0.00  0.00     0.115 C 
BRANCH  44  45
ATOM     45  C   UNK d   0      -3.877  10.180 -11.553  0.00  0.00     0.139 C 
ATOM     46  O   UNK d   0      -3.803  10.958 -10.570  0.00  0.00    -0.650 OA
BRANCH  45  47
ATOM     47  O   UNK d   0      -3.456  10.621 -12.789  0.00  0.00    -0.776 OA
ATOM     48  H   UNK d   0      -2.641  11.242 -12.914  0.00  0.00     0.167 HD
ENDBRANCH  45  47
ENDBRANCH  44  45
ENDBRANCH  43  44
ENDBRANCH  27  43
BRANCH  24  49
ATOM     49  C   UNK d   0      -7.248   4.367 -14.268  0.00  0.00     0.052 C 
BRANCH  49  50
ATOM     50  C   UNK d   0      -8.262   4.550 -13.167  0.00  0.00     0.115 C 
BRANCH  50  51
ATOM     51  C   UNK d   0      -9.444   5.341 -13.478  0.00  0.00     0.139 C 
ATOM     52  O   UNK d   0     -10.490   5.295 -12.787  0.00  0.00    -0.650 OA
BRANCH  51  53
ATOM     53  O   UNK d   0      -9.437   6.184 -14.579  0.00  0.00    -0.776 OA
ATOM     54  H   UNK d   0      -8.584   6.273 -15.103  0.00  0.00     0.167 HD
ENDBRANCH  51  53
ENDBRANCH  50  51
ENDBRANCH  49  50
ENDBRANCH  24  49
BRANCH  21  55
ATOM     55  C   UNK d   0      -6.549   1.500 -15.182  0.00  0.00     0.151 C 
BRANCH  55  56
ATOM     56  C   UNK d   0      -6.430   2.025 -16.551  0.00  0.00     0.143 C 
ATOM     57  O   UNK d   0      -5.374   1.959 -17.210  0.00  0.00    -0.650 OA
BRANCH  56  58
ATOM     58  O   UNK d   0      -7.557   2.619 -17.118  0.00  0.00    -0.776 OA
ATOM     59  H   UNK d   0      -7.844   2.225 -18.032  0.00  0.00     0.167 HD
ENDBRANCH  56  58
ENDBRANCH  55  56
ENDBRANCH  21  55
BRANCH  18  60
ATOM     60  C   UNK d   0      -3.672  -2.010 -12.316  0.00  0.00     0.151 C 
BRANCH  60  61
ATOM     61  C   UNK d   0      -4.645  -2.002 -11.212  0.00  0.00     0.143 C 
ATOM     62  O   UNK d   0      -5.017  -1.027 -10.559  0.00  0.00    -0.650 OA
BRANCH  61  63
ATOM     63  O   UNK d   0      -5.198  -3.263 -10.887  0.00  0.00    -0.776 OA
ATOM     64  H   UNK d   0      -5.106  -3.648  -9.963  0.00  0.00     0.167 HD
ENDBRANCH  61  63
ENDBRANCH  60  61
ENDBRANCH  18  60
BRANCH  14  65
ATOM     65  C   UNK d   0      -1.193  -2.141 -10.570  0.00  0.00     0.052 C 
BRANCH  65  66
ATOM     66  C   UNK d   0      -1.775  -2.325  -9.213  0.00  0.00     0.115 C 
BRANCH  66  67
ATOM     67  C   UNK d   0      -1.119  -1.747  -8.074  0.00  0.00     0.139 C 
ATOM     68  O   UNK d   0       0.152  -1.898  -7.956  0.00  0.00    -0.650 OA
BRANCH  67  69
ATOM     69  O   UNK d   0      -1.697  -1.016  -7.037  0.00  0.00    -0.776 OA
ATOM     70  H   UNK d   0      -2.633  -1.326  -6.738  0.00  0.00     0.167 HD
ENDBRANCH  67  69
ENDBRANCH  66  67
ENDBRANCH  65  66
ENDBRANCH  14  65
ENDBRANCH   6   7
ENDBRANCH   5   6
ENDBRANCH   2   5
TORSDOF 28
ENDMDL
MODEL 6
REMARK VINA RESULT:      -9.6      2.207      8.288
REMARK  28 active torsions:
REMARK  status: ('A' for Active; 'I' for Inactive)
REMARK    1  A    between atoms: C_2  and  O_3 
REMARK    2  A    between atoms: C_2  and  C_4 
REMARK    3  A    between atoms: C_4  and  C_5 
REMARK    4  A    between atoms: C_5  and  C_6 
REMARK    5  A    between atoms: C_7  and  C_8 
REMARK    6  A    between atoms: C_8  and  C_9 
REMARK    7  A    between atoms: C_9  and  O_11 
REMARK    8  A    between atoms: C_28  and  C_29 
REMARK    9  A    between atoms: C_29  and  C_30 
REMARK   10  A    between atoms: C_30  and  O_32 
REMARK   11  A    between atoms: C_33  and  C_34 
REMARK   12  A    between atoms: C_34  and  C_35 
REMARK   13  A    between atoms: C_35  and  C_36 
REMARK   14  A    between atoms: C_36  and  O_38 
REMARK   15  A    between atoms: C_39  and  C_40 
REMARK   16  A    between atoms: C_40  and  C_41 
REMARK   17  A    between atoms: C_41  and  C_42 
REMARK   18  A    between atoms: C_42  and  O_44 
REMARK   19  A    between atoms: C_45  and  C_46 
REMARK   20  A    between atoms: C_46  and  C_47 
REMARK   21  A    between atoms: C_47  and  O_49 
REMARK   22  A    between atoms: C_50  and  C_51 
REMARK   23  A    between atoms: C_51  and  C_52 
REMARK   24  A    between atoms: C_52  and  O_54 
REMARK   25  A    between atoms: C_55  and  C_56 
REMARK   26  A    between atoms: C_56  and  C_57 
REMARK   27  A    between atoms: C_57  and  C_58 
REMARK   28  A    between atoms: C_58  and  O_60 
ROOT
ATOM      1  O   UNK d   0      -4.252  13.060 -10.941  0.00  0.00    -0.650 OA
ATOM      2  C   UNK d   0      -4.399  11.847 -10.673  0.00  0.00     0.139 C 
ENDROOT
BRANCH   2   3
ATOM      3  O   UNK d   0      -3.822  11.333  -9.537  0.00  0.00    -0.776 OA
ATOM      4  H   UNK d   0      -2.832  11.082  -9.515  0.00  0.00     0.167 HD
ENDBRANCH   2   3
BRANCH   2   5
ATOM      5  C   UNK d   0      -5.192  10.970 -11.581  0.00  0.00     0.115 C 
BRANCH   5   6
ATOM      6  C   UNK d   0      -4.278  10.253 -12.537  0.00  0.00     0.052 C 
BRANCH   6   7
ATOM      7  C   UNK d   0      -4.372   8.751 -12.415  0.00  0.00    -0.020 A 
ATOM      8  C   UNK d   0      -5.233   7.955 -12.994  0.00  0.00    -0.011 A 
ATOM      9  C   UNK d   0      -4.939   6.596 -12.570  0.00  0.00     0.067 A 
ATOM     10  C   UNK d   0      -5.456   5.319 -12.834  0.00  0.00     0.062 C 
ATOM     11  N   UNK d   0      -3.886   6.659 -11.729  0.00  0.00    -0.248 NA
ATOM     12  C   UNK d   0      -4.859   4.086 -12.546  0.00  0.00     0.041 A 
ATOM     13  N   UNK d   0      -4.201   3.655 -11.453  0.00  0.00    -0.355 N 
ATOM     14  C   UNK d   0      -4.854   3.085 -13.534  0.00  0.00    -0.022 A 
ATOM     15  C   UNK d   0      -3.771   2.408 -11.726  0.00  0.00     0.042 A 
ATOM     16  H   UNK d   0      -4.060   4.212 -10.501  0.00  0.00     0.166 HD
ATOM     17  C   UNK d   0      -3.036   1.502 -10.935  0.00  0.00     0.062 C 
ATOM     18  C   UNK d   0      -4.161   2.017 -13.021  0.00  0.00    -0.013 A 
ATOM     19  C   UNK d   0      -1.928   1.735 -10.161  0.00  0.00     0.067 A 
ATOM     20  N   UNK d   0      -1.593   3.011  -9.953  0.00  0.00    -0.248 NA
ATOM     21  C   UNK d   0      -0.944   0.917  -9.472  0.00  0.00    -0.011 A 
ATOM     22  C   UNK d   0      -0.461   3.086  -9.179  0.00  0.00     0.066 A 
ATOM     23  C   UNK d   0      -0.021   4.361  -8.852  0.00  0.00     0.062 C 
ATOM     24  C   UNK d   0      -0.087   1.713  -8.902  0.00  0.00    -0.020 A 
ATOM     25  C   UNK d   0      -0.643   5.586  -9.141  0.00  0.00     0.041 A 
ATOM     26  N   UNK d   0      -1.284   6.020 -10.232  0.00  0.00    -0.355 N 
ATOM     27  C   UNK d   0      -0.652   6.589  -8.147  0.00  0.00    -0.022 A 
ATOM     28  C   UNK d   0      -1.706   7.266  -9.966  0.00  0.00     0.042 A 
ATOM     29  H   UNK d   0      -1.415   5.463 -11.192  0.00  0.00     0.166 HD
ATOM     30  C   UNK d   0      -2.430   8.182 -10.747  0.00  0.00     0.062 C 
ATOM     31  C   UNK d   0      -1.323   7.655  -8.661  0.00  0.00    -0.013 A 
ATOM     32  C   UNK d   0      -3.497   7.927 -11.593  0.00  0.00     0.066 A 
BRANCH   8  33
ATOM     33  C   UNK d   0      -6.320   8.345 -13.911  0.00  0.00     0.151 C 
BRANCH  33  34
ATOM     34  C   UNK d   0      -7.609   7.717 -13.567  0.00  0.00     0.143 C 
ATOM     35  O   UNK d   0      -8.392   8.264 -12.778  0.00  0.00    -0.650 OA
BRANCH  34  36
ATOM     36  O   UNK d   0      -7.944   6.508 -14.132  0.00  0.00    -0.776 OA
ATOM     37  H   UNK d   0      -8.064   5.665 -13.555  0.00  0.00     0.167 HD
ENDBRANCH  34  36
ENDBRANCH  33  34
ENDBRANCH   8  33
BRANCH  31  38
ATOM     38  C   UNK d   0      -1.598   8.961  -7.952  0.00  0.00     0.151 C 
BRANCH  38  39
ATOM     39  C   UNK d   0      -2.837   8.944  -7.203  0.00  0.00     0.143 C 
ATOM     40  O   UNK d   0      -2.863   8.883  -5.962  0.00  0.00    -0.650 OA
BRANCH  39  41
ATOM     41  O   UNK d   0      -4.052   8.998  -7.886  0.00  0.00    -0.776 OA
ATOM     42  H   UNK d   0      -4.005   9.039  -8.909  0.00  0.00     0.167 HD
ENDBRANCH  39  41
ENDBRANCH  38  39
ENDBRANCH  31  38
BRANCH  27  43
ATOM     43  C   UNK d   0      -0.057   6.570  -6.761  0.00  0.00     0.052 C 
BRANCH  43  44
ATOM     44  C   UNK d   0       1.346   7.081  -6.713  0.00  0.00     0.115 C 
BRANCH  44  45
ATOM     45  C   UNK d   0       1.319   8.317  -5.888  0.00  0.00     0.139 C 
ATOM     46  O   UNK d   0       1.546   9.413  -6.457  0.00  0.00    -0.650 OA
BRANCH  45  47
ATOM     47  O   UNK d   0       1.051   8.308  -4.536  0.00  0.00    -0.776 OA
ATOM     48  H   UNK d   0       0.886   9.169  -3.991  0.00  0.00     0.167 HD
ENDBRANCH  45  47
ENDBRANCH  44  45
ENDBRANCH  43  44
ENDBRANCH  27  43
BRANCH  24  49
ATOM     49  C   UNK d   0       1.055   1.305  -8.066  0.00  0.00     0.052 C 
BRANCH  49  50
ATOM     50  C   UNK d   0       0.654   1.263  -6.614  0.00  0.00     0.115 C 
BRANCH  50  51
ATOM     51  C   UNK d   0       0.700  -0.033  -5.949  0.00  0.00     0.139 C 
ATOM     52  O   UNK d   0       1.696  -0.791  -6.014  0.00  0.00    -0.650 OA
BRANCH  51  53
ATOM     53  O   UNK d   0      -0.392  -0.465  -5.212  0.00  0.00    -0.776 OA
ATOM     54  H   UNK d   0      -1.306  -0.151  -5.488  0.00  0.00     0.167 HD
ENDBRANCH  51  53
ENDBRANCH  50  51
ENDBRANCH  49  50
ENDBRANCH  24  49
BRANCH  21  55
ATOM     55  C   UNK d   0      -0.967  -0.576  -9.450  0.00  0.00     0.151 C 
BRANCH  55  56
ATOM     56  C   UNK d   0      -1.608  -1.100  -8.235  0.00  0.00     0.143 C 
ATOM     57  O   UNK d   0      -1.321  -2.210  -7.745  0.00  0.00    -0.650 OA
BRANCH  56  58
ATOM     58  O   UNK d   0      -2.575  -0.308  -7.617  0.00  0.00    -0.776 OA
ATOM     59  H   UNK d   0      -2.298   0.080  -6.697  0.00  0.00     0.167 HD
ENDBRANCH  56  58
ENDBRANCH  55  56
ENDBRANCH  21  55
BRANCH  18  60
ATOM     60  C   UNK d   0      -3.904   0.722 -13.752  0.00  0.00     0.151 C 
BRANCH  60  61
ATOM     61  C   UNK d   0      -2.720   0.960 -14.592  0.00  0.00     0.143 C 
ATOM     62  O   UNK d   0      -2.704   1.212 -15.797  0.00  0.00    -0.650 OA
BRANCH  61  63
ATOM     63  O   UNK d   0      -1.478   0.887 -13.917  0.00  0.00    -0.776 OA
ATOM     64  H   UNK d   0      -0.626   1.170 -14.368  0.00  0.00     0.167 HD
ENDBRANCH  61  63
ENDBRANCH  60  61
ENDBRANCH  18  60
BRANCH  14  65
ATOM     65  C   UNK d   0      -5.530   3.025 -14.874  0.00  0.00     0.052 C 
BRANCH  65  66
ATOM     66  C   UNK d   0      -7.010   2.902 -14.773  0.00  0.00     0.115 C 
BRANCH  66  67
ATOM     67  C   UNK d   0      -7.826   3.174 -15.922  0.00  0.00     0.139 C 
ATOM     68  O   UNK d   0      -8.130   2.199 -16.704  0.00  0.00    -0.650 OA
BRANCH  67  69
ATOM     69  O   UNK d   0      -8.355   4.401 -16.323  0.00  0.00    -0.776 OA
ATOM     70  H   UNK d   0      -8.706   4.443 -17.290  0.00  0.00     0.167 HD
ENDBRANCH  67  69
ENDBRANCH  66  67
ENDBRANCH  65  66
ENDBRANCH  14  65
ENDBRANCH   6   7
ENDBRANCH   5   6
ENDBRANCH   2   5
TORSDOF 28
ENDMDL
MODEL 7
REMARK VINA RESULT:      -9.3      1.992      9.475
REMARK  28 active torsions:
REMARK  status: ('A' for Active; 'I' for Inactive)
REMARK    1  A    between atoms: C_2  and  O_3 
REMARK    2  A    between atoms: C_2  and  C_4 
REMARK    3  A    between atoms: C_4  and  C_5 
REMARK    4  A    between atoms: C_5  and  C_6 
REMARK    5  A    between atoms: C_7  and  C_8 
REMARK    6  A    between atoms: C_8  and  C_9 
REMARK    7  A    between atoms: C_9  and  O_11 
REMARK    8  A    between atoms: C_28  and  C_29 
REMARK    9  A    between atoms: C_29  and  C_30 
REMARK   10  A    between atoms: C_30  and  O_32 
REMARK   11  A    between atoms: C_33  and  C_34 
REMARK   12  A    between atoms: C_34  and  C_35 
REMARK   13  A    between atoms: C_35  and  C_36 
REMARK   14  A    between atoms: C_36  and  O_38 
REMARK   15  A    between atoms: C_39  and  C_40 
REMARK   16  A    between atoms: C_40  and  C_41 
REMARK   17  A    between atoms: C_41  and  C_42 
REMARK   18  A    between atoms: C_42  and  O_44 
REMARK   19  A    between atoms: C_45  and  C_46 
REMARK   20  A    between atoms: C_46  and  C_47 
REMARK   21  A    between atoms: C_47  and  O_49 
REMARK   22  A    between atoms: C_50  and  C_51 
REMARK   23  A    between atoms: C_51  and  C_52 
REMARK   24  A    between atoms: C_52  and  O_54 
REMARK   25  A    between atoms: C_55  and  C_56 
REMARK   26  A    between atoms: C_56  and  C_57 
REMARK   27  A    between atoms: C_57  and  C_58 
REMARK   28  A    between atoms: C_58  and  O_60 
ROOT
ATOM      1  O   UNK d   0      -9.688   8.301 -13.589  0.00  0.00    -0.650 OA
ATOM      2  C   UNK d   0      -8.540   7.822 -13.727  0.00  0.00     0.139 C 
ENDROOT
BRANCH   2   3
ATOM      3  O   UNK d   0      -8.364   6.716 -14.523  0.00  0.00    -0.776 OA
ATOM      4  H   UNK d   0      -9.144   6.310 -15.043  0.00  0.00     0.167 HD
ENDBRANCH   2   3
BRANCH   2   5
ATOM      5  C   UNK d   0      -7.379   8.447 -13.032  0.00  0.00     0.115 C 
BRANCH   5   6
ATOM      6  C   UNK d   0      -6.109   8.159 -13.784  0.00  0.00     0.052 C 
BRANCH   6   7
ATOM      7  C   UNK d   0      -4.988   7.704 -12.880  0.00  0.00    -0.020 A 
ATOM      8  C   UNK d   0      -4.104   8.449 -12.268  0.00  0.00    -0.011 A 
ATOM      9  C   UNK d   0      -3.222   7.569 -11.520  0.00  0.00     0.067 A 
ATOM     10  C   UNK d   0      -2.120   7.727 -10.665  0.00  0.00     0.062 C 
ATOM     11  N   UNK d   0      -3.638   6.304 -11.739  0.00  0.00    -0.248 NA
ATOM     12  C   UNK d   0      -1.566   6.769  -9.810  0.00  0.00     0.041 A 
ATOM     13  N   UNK d   0      -1.304   5.461  -9.995  0.00  0.00    -0.355 N 
ATOM     14  C   UNK d   0      -1.248   7.137  -8.490  0.00  0.00    -0.022 A 
ATOM     15  C   UNK d   0      -0.835   4.988  -8.825  0.00  0.00     0.042 A 
ATOM     16  H   UNK d   0      -1.430   4.888 -10.940  0.00  0.00     0.166 HD
ATOM     17  C   UNK d   0      -0.410   3.693  -8.468  0.00  0.00     0.062 C 
ATOM     18  C   UNK d   0      -0.786   6.010  -7.857  0.00  0.00    -0.013 A 
ATOM     19  C   UNK d   0      -1.001   2.486  -8.739  0.00  0.00     0.067 A 
ATOM     20  N   UNK d   0      -2.005   2.489  -9.620  0.00  0.00    -0.248 NA
ATOM     21  C   UNK d   0      -0.831   1.115  -8.288  0.00  0.00    -0.011 A 
ATOM     22  C   UNK d   0      -2.505   1.219  -9.777  0.00  0.00     0.066 A 
ATOM     23  C   UNK d   0      -3.532   1.070 -10.697  0.00  0.00     0.062 C 
ATOM     24  C   UNK d   0      -1.717   0.379  -8.896  0.00  0.00    -0.020 A 
ATOM     25  C   UNK d   0      -4.065   2.044 -11.556  0.00  0.00     0.041 A 
ATOM     26  N   UNK d   0      -4.340   3.340 -11.367  0.00  0.00    -0.355 N 
ATOM     27  C   UNK d   0      -4.380   1.674 -12.882  0.00  0.00    -0.022 A 
ATOM     28  C   UNK d   0      -4.816   3.811 -12.530  0.00  0.00     0.042 A 
ATOM     29  H   UNK d   0      -4.223   3.912 -10.414  0.00  0.00     0.166 HD
ATOM     30  C   UNK d   0      -5.251   5.095 -12.897  0.00  0.00     0.062 C 
ATOM     31  C   UNK d   0      -4.855   2.787 -13.505  0.00  0.00    -0.013 A 
ATOM     32  C   UNK d   0      -4.698   6.317 -12.549  0.00  0.00     0.066 A 
BRANCH   8  33
ATOM     33  C   UNK d   0      -3.999   9.919 -12.317  0.00  0.00     0.151 C 
BRANCH  33  34
ATOM     34  C   UNK d   0      -4.607  10.574 -11.145  0.00  0.00     0.143 C 
ATOM     35  O   UNK d   0      -4.049  10.545 -10.039  0.00  0.00    -0.650 OA
BRANCH  34  36
ATOM     36  O   UNK d   0      -5.812  11.224 -11.283  0.00  0.00    -0.776 OA
ATOM     37  H   UNK d   0      -6.697  10.770 -11.021  0.00  0.00     0.167 HD
ENDBRANCH  34  36
ENDBRANCH  33  34
ENDBRANCH   8  33
BRANCH  31  38
ATOM     38  C   UNK d   0      -5.307   2.877 -14.944  0.00  0.00     0.151 C 
BRANCH  38  39
ATOM     39  C   UNK d   0      -6.746   2.800 -15.087  0.00  0.00     0.143 C 
ATOM     40  O   UNK d   0      -7.475   3.806 -15.029  0.00  0.00    -0.650 OA
BRANCH  39  41
ATOM     41  O   UNK d   0      -7.349   1.561 -15.297  0.00  0.00    -0.776 OA
ATOM     42  H   UNK d   0      -6.854   0.739 -14.936  0.00  0.00     0.167 HD
ENDBRANCH  39  41
ENDBRANCH  38  39
ENDBRANCH  31  38
BRANCH  27  43
ATOM     43  C   UNK d   0      -4.251   0.333 -13.559  0.00  0.00     0.052 C 
BRANCH  43  44
ATOM     44  C   UNK d   0      -2.864  -0.221 -13.514  0.00  0.00     0.115 C 
BRANCH  44  45
ATOM     45  C   UNK d   0      -2.125   0.393 -14.648  0.00  0.00     0.139 C 
ATOM     46  O   UNK d   0      -2.790   0.836 -15.617  0.00  0.00    -0.650 OA
BRANCH  45  47
ATOM     47  O   UNK d   0      -0.751   0.498 -14.675  0.00  0.00    -0.776 OA
ATOM     48  H   UNK d   0      -0.134  -0.067 -14.071  0.00  0.00     0.167 HD
ENDBRANCH  45  47
ENDBRANCH  44  45
ENDBRANCH  43  44
ENDBRANCH  27  43
BRANCH  24  49
ATOM     49  C   UNK d   0      -1.874  -1.079  -8.762  0.00  0.00     0.052 C 
BRANCH  49  50
ATOM     50  C   UNK d   0      -1.409  -1.774 -10.016  0.00  0.00     0.115 C 
BRANCH  50  51
ATOM     51  C   UNK d   0      -2.411  -2.501 -10.784  0.00  0.00     0.139 C 
ATOM     52  O   UNK d   0      -2.117  -3.227 -11.763  0.00  0.00    -0.650 OA
BRANCH  51  53
ATOM     53  O   UNK d   0      -3.749  -2.397 -10.438  0.00  0.00    -0.776 OA
ATOM     54  H   UNK d   0      -4.401  -2.100 -11.142  0.00  0.00     0.167 HD
ENDBRANCH  51  53
ENDBRANCH  50  51
ENDBRANCH  49  50
ENDBRANCH  24  49
BRANCH  21  55
ATOM     55  C   UNK d   0       0.201   0.682  -7.300  0.00  0.00     0.151 C 
BRANCH  55  56
ATOM     56  C   UNK d   0       1.454   0.276  -7.954  0.00  0.00     0.143 C 
ATOM     57  O   UNK d   0       2.345   1.089  -8.270  0.00  0.00    -0.650 OA
BRANCH  56  58
ATOM     58  O   UNK d   0       1.636  -1.080  -8.224  0.00  0.00    -0.776 OA
ATOM     59  H   UNK d   0       0.893  -1.513  -8.802  0.00  0.00     0.167 HD
ENDBRANCH  56  58
ENDBRANCH  55  56
ENDBRANCH  21  55
BRANCH  18  60
ATOM     60  C   UNK d   0      -0.337   5.949  -6.418  0.00  0.00     0.151 C 
BRANCH  60  61
ATOM     61  C   UNK d   0       1.108   6.220  -6.434  0.00  0.00     0.143 C 
ATOM     62  O   UNK d   0       2.001   5.463  -6.819  0.00  0.00    -0.650 OA
BRANCH  61  63
ATOM     63  O   UNK d   0       1.488   7.494  -5.949  0.00  0.00    -0.776 OA
ATOM     64  H   UNK d   0       2.253   7.598  -5.306  0.00  0.00     0.167 HD
ENDBRANCH  61  63
ENDBRANCH  60  61
ENDBRANCH  18  60
BRANCH  14  65
ATOM     65  C   UNK d   0      -1.254   8.481  -7.818  0.00  0.00     0.052 C 
BRANCH  65  66
ATOM     66  C   UNK d   0      -2.623   8.960  -7.489  0.00  0.00     0.115 C 
BRANCH  66  67
ATOM     67  C   UNK d   0      -2.805  10.275  -6.941  0.00  0.00     0.139 C 
ATOM     68  O   UNK d   0      -3.071  10.386  -5.688  0.00  0.00    -0.650 OA
BRANCH  67  69
ATOM     69  O   UNK d   0      -2.729  11.496  -7.611  0.00  0.00    -0.776 OA
ATOM     70  H   UNK d   0      -3.631  11.914  -7.883  0.00  0.00     0.167 HD
ENDBRANCH  67  69
ENDBRANCH  66  67
ENDBRANCH  65  66
ENDBRANCH  14  65
ENDBRANCH   6   7
ENDBRANCH   5   6
ENDBRANCH   2   5
TORSDOF 28
ENDMDL
MODEL 8
REMARK VINA RESULT:      -9.1      1.956      8.177
REMARK  28 active torsions:
REMARK  status: ('A' for Active; 'I' for Inactive)
REMARK    1  A    between atoms: C_2  and  O_3 
REMARK    2  A    between atoms: C_2  and  C_4 
REMARK    3  A    between atoms: C_4  and  C_5 
REMARK    4  A    between atoms: C_5  and  C_6 
REMARK    5  A    between atoms: C_7  and  C_8 
REMARK    6  A    between atoms: C_8  and  C_9 
REMARK    7  A    between atoms: C_9  and  O_11 
REMARK    8  A    between atoms: C_28  and  C_29 
REMARK    9  A    between atoms: C_29  and  C_30 
REMARK   10  A    between atoms: C_30  and  O_32 
REMARK   11  A    between atoms: C_33  and  C_34 
REMARK   12  A    between atoms: C_34  and  C_35 
REMARK   13  A    between atoms: C_35  and  C_36 
REMARK   14  A    between atoms: C_36  and  O_38 
REMARK   15  A    between atoms: C_39  and  C_40 
REMARK   16  A    between atoms: C_40  and  C_41 
REMARK   17  A    between atoms: C_41  and  C_42 
REMARK   18  A    between atoms: C_42  and  O_44 
REMARK   19  A    between atoms: C_45  and  C_46 
REMARK   20  A    between atoms: C_46  and  C_47 
REMARK   21  A    between atoms: C_47  and  O_49 
REMARK   22  A    between atoms: C_50  and  C_51 
REMARK   23  A    between atoms: C_51  and  C_52 
REMARK   24  A    between atoms: C_52  and  O_54 
REMARK   25  A    between atoms: C_55  and  C_56 
REMARK   26  A    between atoms: C_56  and  C_57 
REMARK   27  A    between atoms: C_57  and  C_58 
REMARK   28  A    between atoms: C_58  and  O_60 
ROOT
ATOM      1  O   UNK d   0      -0.485  -4.561  -6.365  0.00  0.00    -0.650 OA
ATOM      2  C   UNK d   0      -0.733  -4.186  -7.532  0.00  0.00     0.139 C 
ENDROOT
BRANCH   2   3
ATOM      3  O   UNK d   0      -1.063  -5.119  -8.484  0.00  0.00    -0.776 OA
ATOM      4  H   UNK d   0      -1.068  -6.118  -8.265  0.00  0.00     0.167 HD
ENDBRANCH   2   3
BRANCH   2   5
ATOM      5  C   UNK d   0      -0.668  -2.738  -7.882  0.00  0.00     0.115 C 
BRANCH   5   6
ATOM      6  C   UNK d   0       0.038  -2.554  -9.197  0.00  0.00     0.052 C 
BRANCH   6   7
ATOM      7  C   UNK d   0      -0.424  -1.323  -9.938  0.00  0.00    -0.020 A 
ATOM      8  C   UNK d   0      -1.065  -1.271 -11.078  0.00  0.00    -0.011 A 
ATOM      9  C   UNK d   0      -1.288   0.129 -11.399  0.00  0.00     0.067 A 
ATOM     10  C   UNK d   0      -1.914   0.843 -12.433  0.00  0.00     0.062 C 
ATOM     11  N   UNK d   0      -0.745   0.860 -10.403  0.00  0.00    -0.248 NA
ATOM     12  C   UNK d   0      -2.274   2.195 -12.431  0.00  0.00     0.041 A 
ATOM     13  N   UNK d   0      -1.616   3.288 -12.000  0.00  0.00    -0.355 N 
ATOM     14  C   UNK d   0      -3.552   2.559 -12.893  0.00  0.00    -0.022 A 
ATOM     15  C   UNK d   0      -2.446   4.334 -12.169  0.00  0.00     0.042 A 
ATOM     16  H   UNK d   0      -0.578   3.321 -11.602  0.00  0.00     0.166 HD
ATOM     17  C   UNK d   0      -2.260   5.702 -11.886  0.00  0.00     0.062 C 
ATOM     18  C   UNK d   0      -3.670   3.917 -12.727  0.00  0.00    -0.013 A 
ATOM     19  C   UNK d   0      -1.723   6.286 -10.767  0.00  0.00     0.067 A 
ATOM     20  N   UNK d   0      -1.108   5.479  -9.900  0.00  0.00    -0.248 NA
ATOM     21  C   UNK d   0      -1.648   7.633 -10.226  0.00  0.00    -0.011 A 
ATOM     22  C   UNK d   0      -0.637   6.199  -8.830  0.00  0.00     0.066 A 
ATOM     23  C   UNK d   0       0.060   5.486  -7.865  0.00  0.00     0.062 C 
ATOM     24  C   UNK d   0      -1.015   7.574  -9.090  0.00  0.00    -0.020 A 
ATOM     25  C   UNK d   0       0.423   4.131  -7.892  0.00  0.00     0.041 A 
ATOM     26  N   UNK d   0      -0.237   3.043  -8.307  0.00  0.00    -0.355 N 
ATOM     27  C   UNK d   0       1.707   3.767  -7.432  0.00  0.00    -0.022 A 
ATOM     28  C   UNK d   0       0.585   1.996  -8.131  0.00  0.00     0.042 A 
ATOM     29  H   UNK d   0      -1.284   3.009  -8.697  0.00  0.00     0.166 HD
ATOM     30  C   UNK d   0       0.410   0.630  -8.399  0.00  0.00     0.062 C 
ATOM     31  C   UNK d   0       1.819   2.418  -7.580  0.00  0.00    -0.013 A 
ATOM     32  C   UNK d   0      -0.210   0.046  -9.493  0.00  0.00     0.066 A 
BRANCH   8  33
ATOM     33  C   UNK d   0      -1.489  -2.414 -11.908  0.00  0.00     0.151 C 
BRANCH  33  34
ATOM     34  C   UNK d   0      -2.811  -2.940 -11.521  0.00  0.00     0.143 C 
ATOM     35  O   UNK d   0      -3.840  -2.564 -12.100  0.00  0.00    -0.650 OA
BRANCH  34  36
ATOM     36  O   UNK d   0      -2.900  -3.860 -10.502  0.00  0.00    -0.776 OA
ATOM     37  H   UNK d   0      -2.231  -4.638 -10.425  0.00  0.00     0.167 HD
ENDBRANCH  34  36
ENDBRANCH  33  34
ENDBRANCH   8  33
BRANCH  31  38
ATOM     38  C   UNK d   0       3.027   1.580  -7.233  0.00  0.00     0.151 C 
BRANCH  38  39
ATOM     39  C   UNK d   0       4.120   1.758  -8.164  0.00  0.00     0.143 C 
ATOM     40  O   UNK d   0       3.936   2.038  -9.362  0.00  0.00    -0.650 OA
BRANCH  39  41
ATOM     41  O   UNK d   0       5.433   1.616  -7.716  0.00  0.00    -0.776 OA
ATOM     42  H   UNK d   0       6.028   2.450  -7.755  0.00  0.00     0.167 HD
ENDBRANCH  39  41
ENDBRANCH  38  39
ENDBRANCH  31  38
BRANCH  27  43
ATOM     43  C   UNK d   0       2.805   4.634  -6.869  0.00  0.00     0.052 C 
BRANCH  43  44
ATOM     44  C   UNK d   0       2.315   5.951  -6.359  0.00  0.00     0.115 C 
BRANCH  44  45
ATOM     45  C   UNK d   0       3.504   6.673  -5.837  0.00  0.00     0.139 C 
ATOM     46  O   UNK d   0       3.547   7.920  -5.978  0.00  0.00    -0.650 OA
BRANCH  45  47
ATOM     47  O   UNK d   0       4.549   6.034  -5.206  0.00  0.00    -0.776 OA
ATOM     48  H   UNK d   0       5.085   6.465  -4.435  0.00  0.00     0.167 HD
ENDBRANCH  45  47
ENDBRANCH  44  45
ENDBRANCH  43  44
ENDBRANCH  27  43
BRANCH  24  49
ATOM     49  C   UNK d   0      -0.682   8.716  -8.221  0.00  0.00     0.052 C 
BRANCH  49  50
ATOM     50  C   UNK d   0      -1.037   8.407  -6.789  0.00  0.00     0.115 C 
BRANCH  50  51
ATOM     51  C   UNK d   0      -2.375   8.769  -6.342  0.00  0.00     0.139 C 
ATOM     52  O   UNK d   0      -3.135   9.508  -7.011  0.00  0.00    -0.650 OA
BRANCH  51  53
ATOM     53  O   UNK d   0      -2.846   8.289  -5.129  0.00  0.00    -0.776 OA
ATOM     54  H   UNK d   0      -3.672   7.717  -5.133  0.00  0.00     0.167 HD
ENDBRANCH  51  53
ENDBRANCH  50  51
ENDBRANCH  49  50
ENDBRANCH  24  49
BRANCH  21  55
ATOM     55  C   UNK d   0      -2.213   8.838 -10.902  0.00  0.00     0.151 C 
BRANCH  55  56
ATOM     56  C   UNK d   0      -3.679   8.889 -10.802  0.00  0.00     0.143 C 
ATOM     57  O   UNK d   0      -4.432   8.544 -11.734  0.00  0.00    -0.650 OA
BRANCH  56  58
ATOM     58  O   UNK d   0      -4.233   9.346  -9.607  0.00  0.00    -0.776 OA
ATOM     59  H   UNK d   0      -3.557   9.469  -8.832  0.00  0.00     0.167 HD
ENDBRANCH  56  58
ENDBRANCH  55  56
ENDBRANCH  21  55
BRANCH  18  60
ATOM     60  C   UNK d   0      -4.889   4.729 -13.086  0.00  0.00     0.151 C 
BRANCH  60  61
ATOM     61  C   UNK d   0      -5.955   4.281 -12.178  0.00  0.00     0.143 C 
ATOM     62  O   UNK d   0      -7.169   4.320 -12.381  0.00  0.00    -0.650 OA
BRANCH  61  63
ATOM     63  O   UNK d   0      -5.511   3.750 -10.943  0.00  0.00    -0.776 OA
ATOM     64  H   UNK d   0      -6.103   3.154 -10.392  0.00  0.00     0.167 HD
ENDBRANCH  61  63
ENDBRANCH  60  61
ENDBRANCH  18  60
BRANCH  14  65
ATOM     65  C   UNK d   0      -4.622   1.745 -13.564  0.00  0.00     0.052 C 
BRANCH  65  66
ATOM     66  C   UNK d   0      -4.509   1.746 -15.048  0.00  0.00     0.115 C 
BRANCH  66  67
ATOM     67  C   UNK d   0      -5.661   2.052 -15.848  0.00  0.00     0.139 C 
ATOM     68  O   UNK d   0      -6.764   2.337 -15.253  0.00  0.00    -0.650 OA
BRANCH  67  69
ATOM     69  O   UNK d   0      -5.750   2.081 -17.240  0.00  0.00    -0.776 OA
ATOM     70  H   UNK d   0      -5.252   2.854 -17.704  0.00  0.00     0.167 HD
ENDBRANCH  67  69
ENDBRANCH  66  67
ENDBRANCH  65  66
ENDBRANCH  14  65
ENDBRANCH   6   7
ENDBRANCH   5   6
ENDBRANCH   2   5
TORSDOF 28
ENDMDL
MODEL 9
REMARK VINA RESULT:      -9.1     29.760     33.105
REMARK  28 active torsions:
REMARK  status: ('A' for Active; 'I' for Inactive)
REMARK    1  A    between atoms: C_2  and  O_3 
REMARK    2  A    between atoms: C_2  and  C_4 
REMARK    3  A    between atoms: C_4  and  C_5 
REMARK    4  A    between atoms: C_5  and  C_6 
REMARK    5  A    between atoms: C_7  and  C_8 
REMARK    6  A    between atoms: C_8  and  C_9 
REMARK    7  A    between atoms: C_9  and  O_11 
REMARK    8  A    between atoms: C_28  and  C_29 
REMARK    9  A    between atoms: C_29  and  C_30 
REMARK   10  A    between atoms: C_30  and  O_32 
REMARK   11  A    between atoms: C_33  and  C_34 
REMARK   12  A    between atoms: C_34  and  C_35 
REMARK   13  A    between atoms: C_35  and  C_36 
REMARK   14  A    between atoms: C_36  and  O_38 
REMARK   15  A    between atoms: C_39  and  C_40 
REMARK   16  A    between atoms: C_40  and  C_41 
REMARK   17  A    between atoms: C_41  and  C_42 
REMARK   18  A    between atoms: C_42  and  O_44 
REMARK   19  A    between atoms: C_45  and  C_46 
REMARK   20  A    between atoms: C_46  and  C_47 
REMARK   21  A    between atoms: C_47  and  O_49 
REMARK   22  A    between atoms: C_50  and  C_51 
REMARK   23  A    between atoms: C_51  and  C_52 
REMARK   24  A    between atoms: C_52  and  O_54 
REMARK   25  A    between atoms: C_55  and  C_56 
REMARK   26  A    between atoms: C_56  and  C_57 
REMARK   27  A    between atoms: C_57  and  C_58 
REMARK   28  A    between atoms: C_58  and  O_60 
ROOT
ATOM      1  O   UNK d   0     -27.784   8.692   7.865  0.00  0.00    -0.650 OA
ATOM      2  C   UNK d   0     -28.198   9.701   8.478  0.00  0.00     0.139 C 
ENDROOT
BRANCH   2   3
ATOM      3  O   UNK d   0     -28.836   9.541   9.685  0.00  0.00    -0.776 OA
ATOM      4  H   UNK d   0     -29.491  10.244  10.033  0.00  0.00     0.167 HD
ENDBRANCH   2   3
BRANCH   2   5
ATOM      5  C   UNK d   0     -28.002  11.060   7.900  0.00  0.00     0.115 C 
BRANCH   5   6
ATOM      6  C   UNK d   0     -26.643  11.160   7.261  0.00  0.00     0.052 C 
BRANCH   6   7
ATOM      7  C   UNK d   0     -25.693  12.029   8.049  0.00  0.00    -0.020 A 
ATOM      8  C   UNK d   0     -24.721  11.642   8.834  0.00  0.00    -0.011 A 
ATOM      9  C   UNK d   0     -24.088  12.831   9.380  0.00  0.00     0.067 A 
ATOM     10  C   UNK d   0     -23.012  13.102  10.239  0.00  0.00     0.062 C 
ATOM     11  N   UNK d   0     -24.742  13.899   8.877  0.00  0.00    -0.248 NA
ATOM     12  C   UNK d   0     -22.370  14.330  10.432  0.00  0.00     0.041 A 
ATOM     13  N   UNK d   0     -22.863  15.576  10.567  0.00  0.00    -0.355 N 
ATOM     14  C   UNK d   0     -20.964  14.368  10.448  0.00  0.00    -0.022 A 
ATOM     15  C   UNK d   0     -21.805  16.405  10.659  0.00  0.00     0.042 A 
ATOM     16  H   UNK d   0     -23.936  15.862  10.614  0.00  0.00     0.166 HD
ATOM     17  C   UNK d   0     -21.752  17.804  10.813  0.00  0.00     0.062 C 
ATOM     18  C   UNK d   0     -20.597  15.684  10.589  0.00  0.00    -0.013 A 
ATOM     19  C   UNK d   0     -22.476  18.771  10.163  0.00  0.00     0.067 A 
ATOM     20  N   UNK d   0     -23.510  18.359   9.425  0.00  0.00    -0.248 NA
ATOM     21  C   UNK d   0     -22.411  20.218  10.039  0.00  0.00    -0.011 A 
ATOM     22  C   UNK d   0     -24.125  19.431   8.827  0.00  0.00     0.066 A 
ATOM     23  C   UNK d   0     -25.244  19.149   8.057  0.00  0.00     0.062 C 
ATOM     24  C   UNK d   0     -23.376  20.598   9.252  0.00  0.00    -0.020 A 
ATOM     25  C   UNK d   0     -25.880  17.910   7.886  0.00  0.00     0.041 A 
ATOM     26  N   UNK d   0     -25.391  16.673   7.738  0.00  0.00    -0.355 N 
ATOM     27  C   UNK d   0     -27.292  17.872   7.874  0.00  0.00    -0.022 A 
ATOM     28  C   UNK d   0     -26.443  15.846   7.636  0.00  0.00     0.042 A 
ATOM     29  H   UNK d   0     -24.311  16.389   7.679  0.00  0.00     0.166 HD
ATOM     30  C   UNK d   0     -26.510  14.454   7.473  0.00  0.00     0.062 C 
ATOM     31  C   UNK d   0     -27.656  16.570   7.718  0.00  0.00    -0.013 A 
ATOM     32  C   UNK d   0     -25.719  13.484   8.069  0.00  0.00     0.066 A 
BRANCH   8  33
ATOM     33  C   UNK d   0     -24.324  10.253   9.132  0.00  0.00     0.151 C 
BRANCH  33  34
ATOM     34  C   UNK d   0     -24.345   9.951  10.575  0.00  0.00     0.143 C 
ATOM     35  O   UNK d   0     -23.365   9.436  11.132  0.00  0.00    -0.650 OA
BRANCH  34  36
ATOM     36  O   UNK d   0     -25.470  10.243  11.310  0.00  0.00    -0.776 OA
ATOM     37  H   UNK d   0     -26.409   9.990  10.973  0.00  0.00     0.167 HD
ENDBRANCH  34  36
ENDBRANCH  33  34
ENDBRANCH   8  33
BRANCH  31  38
ATOM     38  C   UNK d   0     -29.070  16.041   7.661  0.00  0.00     0.151 C 
BRANCH  38  39
ATOM     39  C   UNK d   0     -29.605  16.010   6.317  0.00  0.00     0.143 C 
ATOM     40  O   UNK d   0     -29.483  15.020   5.575  0.00  0.00    -0.650 OA
BRANCH  39  41
ATOM     41  O   UNK d   0     -30.285  17.123   5.823  0.00  0.00    -0.776 OA
ATOM     42  H   UNK d   0     -31.190  17.339   6.251  0.00  0.00     0.167 HD
ENDBRANCH  39  41
ENDBRANCH  38  39
ENDBRANCH  31  38
BRANCH  27  43
ATOM     43  C   UNK d   0     -28.282  19.003   8.002  0.00  0.00     0.052 C 
BRANCH  43  44
ATOM     44  C   UNK d   0     -27.796  20.119   8.869  0.00  0.00     0.115 C 
BRANCH  44  45
ATOM     45  C   UNK d   0     -28.489  19.974  10.176  0.00  0.00     0.139 C 
ATOM     46  O   UNK d   0     -28.396  18.875  10.776  0.00  0.00    -0.650 OA
BRANCH  45  47
ATOM     47  O   UNK d   0     -29.218  20.991  10.752  0.00  0.00    -0.776 OA
ATOM     48  H   UNK d   0     -29.452  21.865  10.252  0.00  0.00     0.167 HD
ENDBRANCH  45  47
ENDBRANCH  44  45
ENDBRANCH  43  44
ENDBRANCH  27  43
BRANCH  24  49
ATOM     49  C   UNK d   0     -23.702  21.986   8.885  0.00  0.00     0.052 C 
BRANCH  49  50
ATOM     50  C   UNK d   0     -22.840  22.440   7.734  0.00  0.00     0.115 C 
BRANCH  50  51
ATOM     51  C   UNK d   0     -22.139  23.707   7.888  0.00  0.00     0.139 C 
ATOM     52  O   UNK d   0     -21.740  24.129   8.999  0.00  0.00    -0.650 OA
BRANCH  51  53
ATOM     53  O   UNK d   0     -21.894  24.496   6.774  0.00  0.00    -0.776 OA
ATOM     54  H   UNK d   0     -22.488  25.291   6.615  0.00  0.00     0.167 HD
ENDBRANCH  51  53
ENDBRANCH  50  51
ENDBRANCH  49  50
ENDBRANCH  24  49
BRANCH  21  55
ATOM     55  C   UNK d   0     -21.394  21.070  10.723  0.00  0.00     0.151 C 
BRANCH  55  56
ATOM     56  C   UNK d   0     -21.881  21.581  12.014  0.00  0.00     0.143 C 
ATOM     57  O   UNK d   0     -22.344  22.731  12.153  0.00  0.00    -0.650 OA
BRANCH  56  58
ATOM     58  O   UNK d   0     -21.815  20.730  13.116  0.00  0.00    -0.776 OA
ATOM     59  H   UNK d   0     -21.368  19.814  12.933  0.00  0.00     0.167 HD
ENDBRANCH  56  58
ENDBRANCH  55  56
ENDBRANCH  21  55
BRANCH  18  60
ATOM     60  C   UNK d   0     -19.175  16.184  10.645  0.00  0.00     0.151 C 
BRANCH  60  61
ATOM     61  C   UNK d   0     -18.866  16.361  12.072  0.00  0.00     0.143 C 
ATOM     62  O   UNK d   0     -19.526  15.959  13.030  0.00  0.00    -0.650 OA
BRANCH  61  63
ATOM     63  O   UNK d   0     -17.673  17.073  12.346  0.00  0.00    -0.776 OA
ATOM     64  H   UNK d   0     -17.280  17.090  13.270  0.00  0.00     0.167 HD
ENDBRANCH  61  63
ENDBRANCH  60  61
ENDBRANCH  18  60
BRANCH  14  65
ATOM     65  C   UNK d   0     -19.952  13.257  10.440  0.00  0.00     0.052 C 
BRANCH  65  66
ATOM     66  C   UNK d   0     -19.823  12.579  11.758  0.00  0.00     0.115 C 
BRANCH  66  67
ATOM     67  C   UNK d   0     -20.408  11.283  11.951  0.00  0.00     0.139 C 
ATOM     68  O   UNK d   0     -20.998  11.036  13.067  0.00  0.00    -0.650 OA
BRANCH  67  69
ATOM     69  O   UNK d   0     -20.425  10.212  11.058  0.00  0.00    -0.776 OA
ATOM     70  H   UNK d   0     -20.692  10.440  10.090  0.00  0.00     0.167 HD
ENDBRANCH  67  69
ENDBRANCH  66  67
ENDBRANCH  65  66
ENDBRANCH  14  65
ENDBRANCH   6   7
ENDBRANCH   5   6
ENDBRANCH   2   5
TORSDOF 28
ENDMDL
MODEL 10
REMARK VINA RESULT:      -9.1      1.857      8.018
REMARK  28 active torsions:
REMARK  status: ('A' for Active; 'I' for Inactive)
REMARK    1  A    between atoms: C_2  and  O_3 
REMARK    2  A    between atoms: C_2  and  C_4 
REMARK    3  A    between atoms: C_4  and  C_5 
REMARK    4  A    between atoms: C_5  and  C_6 
REMARK    5  A    between atoms: C_7  and  C_8 
REMARK    6  A    between atoms: C_8  and  C_9 
REMARK    7  A    between atoms: C_9  and  O_11 
REMARK    8  A    between atoms: C_28  and  C_29 
REMARK    9  A    between atoms: C_29  and  C_30 
REMARK   10  A    between atoms: C_30  and  O_32 
REMARK   11  A    between atoms: C_33  and  C_34 
REMARK   12  A    between atoms: C_34  and  C_35 
REMARK   13  A    between atoms: C_35  and  C_36 
REMARK   14  A    between atoms: C_36  and  O_38 
REMARK   15  A    between atoms: C_39  and  C_40 
REMARK   16  A    between atoms: C_40  and  C_41 
REMARK   17  A    between atoms: C_41  and  C_42 
REMARK   18  A    between atoms: C_42  and  O_44 
REMARK   19  A    between atoms: C_45  and  C_46 
REMARK   20  A    between atoms: C_46  and  C_47 
REMARK   21  A    between atoms: C_47  and  O_49 
REMARK   22  A    between atoms: C_50  and  C_51 
REMARK   23  A    between atoms: C_51  and  C_52 
REMARK   24  A    between atoms: C_52  and  O_54 
REMARK   25  A    between atoms: C_55  and  C_56 
REMARK   26  A    between atoms: C_56  and  C_57 
REMARK   27  A    between atoms: C_57  and  C_58 
REMARK   28  A    between atoms: C_58  and  O_60 
ROOT
ATOM      1  O   UNK d   0      -2.620  10.530  -7.757  0.00  0.00    -0.650 OA
ATOM      2  C   UNK d   0      -3.329   9.986  -8.633  0.00  0.00     0.139 C 
ENDROOT
BRANCH   2   3
ATOM      3  O   UNK d   0      -4.192   8.980  -8.271  0.00  0.00    -0.776 OA
ATOM      4  H   UNK d   0      -4.348   8.747  -7.288  0.00  0.00     0.167 HD
ENDBRANCH   2   3
BRANCH   2   5
ATOM      5  C   UNK d   0      -3.233  10.427 -10.053  0.00  0.00     0.115 C 
BRANCH   5   6
ATOM      6  C   UNK d   0      -2.246   9.569 -10.797  0.00  0.00     0.052 C 
BRANCH   6   7
ATOM      7  C   UNK d   0      -2.712   8.140 -10.943  0.00  0.00    -0.020 A 
ATOM      8  C   UNK d   0      -3.789   7.710 -11.549  0.00  0.00    -0.011 A 
ATOM      9  C   UNK d   0      -3.822   6.263 -11.424  0.00  0.00     0.067 A 
ATOM     10  C   UNK d   0      -4.668   5.228 -11.854  0.00  0.00     0.062 C 
ATOM     11  N   UNK d   0      -2.729   5.896 -10.723  0.00  0.00    -0.248 NA
ATOM     12  C   UNK d   0      -4.387   3.858 -11.875  0.00  0.00     0.041 A 
ATOM     13  N   UNK d   0      -3.782   3.063 -10.972  0.00  0.00    -0.355 N 
ATOM     14  C   UNK d   0      -4.711   3.114 -13.024  0.00  0.00    -0.022 A 
ATOM     15  C   UNK d   0      -3.707   1.836 -11.522  0.00  0.00     0.042 A 
ATOM     16  H   UNK d   0      -3.433   3.358  -9.958  0.00  0.00     0.166 HD
ATOM     17  C   UNK d   0      -3.173   0.637 -11.010  0.00  0.00     0.062 C 
ATOM     18  C   UNK d   0      -4.279   1.829 -12.809  0.00  0.00    -0.013 A 
ATOM     19  C   UNK d   0      -1.988   0.433 -10.351  0.00  0.00     0.067 A 
ATOM     20  N   UNK d   0      -1.322   1.521  -9.953  0.00  0.00    -0.248 NA
ATOM     21  C   UNK d   0      -1.198  -0.720  -9.952  0.00  0.00    -0.011 A 
ATOM     22  C   UNK d   0      -0.155   1.162  -9.324  0.00  0.00     0.066 A 
ATOM     23  C   UNK d   0       0.620   2.199  -8.825  0.00  0.00     0.062 C 
ATOM     24  C   UNK d   0      -0.125  -0.287  -9.356  0.00  0.00    -0.020 A 
ATOM     25  C   UNK d   0       0.314   3.568  -8.802  0.00  0.00     0.041 A 
ATOM     26  N   UNK d   0      -0.274   4.361  -9.706  0.00  0.00    -0.355 N 
ATOM     27  C   UNK d   0       0.635   4.312  -7.646  0.00  0.00    -0.022 A 
ATOM     28  C   UNK d   0      -0.342   5.587  -9.163  0.00  0.00     0.042 A 
ATOM     29  H   UNK d   0      -0.615   4.065 -10.728  0.00  0.00     0.166 HD
ATOM     30  C   UNK d   0      -0.863   6.791  -9.664  0.00  0.00     0.062 C 
ATOM     31  C   UNK d   0       0.224   5.591  -7.866  0.00  0.00    -0.013 A 
ATOM     32  C   UNK d   0      -2.019   6.979 -10.404  0.00  0.00     0.066 A 
BRANCH   8  33
ATOM     33  C   UNK d   0      -4.805   8.530 -12.236  0.00  0.00     0.151 C 
BRANCH  33  34
ATOM     34  C   UNK d   0      -5.233   7.948 -13.521  0.00  0.00     0.143 C 
ATOM     35  O   UNK d   0      -6.287   7.302 -13.608  0.00  0.00    -0.650 OA
BRANCH  34  36
ATOM     36  O   UNK d   0      -4.448   8.126 -14.637  0.00  0.00    -0.776 OA
ATOM     37  H   UNK d   0      -4.544   8.962 -15.230  0.00  0.00     0.167 HD
ENDBRANCH  34  36
ENDBRANCH  33  34
ENDBRANCH   8  33
BRANCH  31  38
ATOM     38  C   UNK d   0       0.346   6.745  -6.899  0.00  0.00     0.151 C 
BRANCH  38  39
ATOM     39  C   UNK d   0      -0.923   7.128  -6.318  0.00  0.00     0.143 C 
ATOM     40  O   UNK d   0      -1.817   6.301  -6.067  0.00  0.00    -0.650 OA
BRANCH  39  41
ATOM     41  O   UNK d   0      -1.166   8.470  -6.023  0.00  0.00    -0.776 OA
ATOM     42  H   UNK d   0      -0.522   9.155  -6.429  0.00  0.00     0.167 HD
ENDBRANCH  39  41
ENDBRANCH  38  39
ENDBRANCH  31  38
BRANCH  27  43
ATOM     43  C   UNK d   0       1.306   3.863  -6.373  0.00  0.00     0.052 C 
BRANCH  43  44
ATOM     44  C   UNK d   0       2.756   4.221  -6.310  0.00  0.00     0.115 C 
BRANCH  44  45
ATOM     45  C   UNK d   0       3.480   3.198  -7.109  0.00  0.00     0.139 C 
ATOM     46  O   UNK d   0       4.053   3.568  -8.164  0.00  0.00    -0.650 OA
BRANCH  45  47
ATOM     47  O   UNK d   0       3.552   1.873  -6.738  0.00  0.00    -0.776 OA
ATOM     48  H   UNK d   0       3.020   1.127  -7.215  0.00  0.00     0.167 HD
ENDBRANCH  45  47
ENDBRANCH  44  45
ENDBRANCH  43  44
ENDBRANCH  27  43
BRANCH  24  49
ATOM     49  C   UNK d   0       0.933  -1.120  -8.758  0.00  0.00     0.052 C 
BRANCH  49  50
ATOM     50  C   UNK d   0       0.481  -1.667  -7.428  0.00  0.00     0.115 C 
BRANCH  50  51
ATOM     51  C   UNK d   0       0.697  -0.828  -6.257  0.00  0.00     0.139 C 
ATOM     52  O   UNK d   0       1.720  -0.119  -6.112  0.00  0.00    -0.650 OA
BRANCH  51  53
ATOM     53  O   UNK d   0      -0.255  -0.799  -5.249  0.00  0.00    -0.776 OA
ATOM     54  H   UNK d   0      -1.086  -1.353  -5.364  0.00  0.00     0.167 HD
ENDBRANCH  51  53
ENDBRANCH  50  51
ENDBRANCH  49  50
ENDBRANCH  24  49
BRANCH  21  55
ATOM     55  C   UNK d   0      -1.601  -2.135 -10.205  0.00  0.00     0.151 C 
BRANCH  55  56
ATOM     56  C   UNK d   0      -1.632  -2.452 -11.641  0.00  0.00     0.143 C 
ATOM     57  O   UNK d   0      -2.506  -3.179 -12.153  0.00  0.00    -0.650 OA
BRANCH  56  58
ATOM     58  O   UNK d   0      -0.635  -1.906 -12.448  0.00  0.00    -0.776 OA
ATOM     59  H   UNK d   0      -0.971  -1.487 -13.334  0.00  0.00     0.167 HD
ENDBRANCH  56  58
ENDBRANCH  55  56
ENDBRANCH  21  55
BRANCH  18  60
ATOM     60  C   UNK d   0      -4.418   0.694 -13.793  0.00  0.00     0.151 C 
BRANCH  60  61
ATOM     61  C   UNK d   0      -3.215   0.742 -14.637  0.00  0.00     0.143 C 
ATOM     62  O   UNK d   0      -3.096   1.299 -15.729  0.00  0.00    -0.650 OA
BRANCH  61  63
ATOM     63  O   UNK d   0      -2.085   0.069 -14.114  0.00  0.00    -0.776 OA
ATOM     64  H   UNK d   0      -1.968  -0.921 -14.238  0.00  0.00     0.167 HD
ENDBRANCH  61  63
ENDBRANCH  60  61
ENDBRANCH  18  60
BRANCH  14  65
ATOM     65  C   UNK d   0      -5.478   3.499 -14.257  0.00  0.00     0.052 C 
BRANCH  65  66
ATOM     66  C   UNK d   0      -6.941   3.259 -14.131  0.00  0.00     0.115 C 
BRANCH  66  67
ATOM     67  C   UNK d   0      -7.833   4.372 -13.967  0.00  0.00     0.139 C 
ATOM     68  O   UNK d   0      -8.393   4.869 -15.012  0.00  0.00    -0.650 OA
BRANCH  67  69
ATOM     69  O   UNK d   0      -8.189   5.012 -12.780  0.00  0.00    -0.776 OA
ATOM     70  H   UNK d   0      -9.138   4.814 -12.431  0.00  0.00     0.167 HD
ENDBRANCH  67  69
ENDBRANCH  66  67
ENDBRANCH  65  66
ENDBRANCH  14  65
ENDBRANCH   6   7
ENDBRANCH   5   6
ENDBRANCH   2   5
TORSDOF 28
ENDMDL
MODEL 11
REMARK VINA RESULT:      -9.0     29.619     32.794
REMARK  28 active torsions:
REMARK  status: ('A' for Active; 'I' for Inactive)
REMARK    1  A    between atoms: C_2  and  O_3 
REMARK    2  A    between atoms: C_2  and  C_4 
REMARK    3  A    between atoms: C_4  and  C_5 
REMARK    4  A    between atoms: C_5  and  C_6 
REMARK    5  A    between atoms: C_7  and  C_8 
REMARK    6  A    between atoms: C_8  and  C_9 
REMARK    7  A    between atoms: C_9  and  O_11 
REMARK    8  A    between atoms: C_28  and  C_29 
REMARK    9  A    between atoms: C_29  and  C_30 
REMARK   10  A    between atoms: C_30  and  O_32 
REMARK   11  A    between atoms: C_33  and  C_34 
REMARK   12  A    between atoms: C_34  and  C_35 
REMARK   13  A    between atoms: C_35  and  C_36 
REMARK   14  A    between atoms: C_36  and  O_38 
REMARK   15  A    between atoms: C_39  and  C_40 
REMARK   16  A    between atoms: C_40  and  C_41 
REMARK   17  A    between atoms: C_41  and  C_42 
REMARK   18  A    between atoms: C_42  and  O_44 
REMARK   19  A    between atoms: C_45  and  C_46 
REMARK   20  A    between atoms: C_46  and  C_47 
REMARK   21  A    between atoms: C_47  and  O_49 
REMARK   22  A    between atoms: C_50  and  C_51 
REMARK   23  A    between atoms: C_51  and  C_52 
REMARK   24  A    between atoms: C_52  and  O_54 
REMARK   25  A    between atoms: C_55  and  C_56 
REMARK   26  A    between atoms: C_56  and  C_57 
REMARK   27  A    between atoms: C_57  and  C_58 
REMARK   28  A    between atoms: C_58  and  O_60 
ROOT
ATOM      1  O   UNK d   0     -22.267  22.184  13.115  0.00  0.00    -0.650 OA
ATOM      2  C   UNK d   0     -23.007  21.219  13.412  0.00  0.00     0.139 C 
ENDROOT
BRANCH   2   3
ATOM      3  O   UNK d   0     -23.039  20.770  14.711  0.00  0.00    -0.776 OA
ATOM      4  H   UNK d   0     -23.453  21.336  15.455  0.00  0.00     0.167 HD
ENDBRANCH   2   3
BRANCH   2   5
ATOM      5  C   UNK d   0     -23.843  20.566  12.365  0.00  0.00     0.115 C 
BRANCH   5   6
ATOM      6  C   UNK d   0     -24.494  19.329  12.920  0.00  0.00     0.052 C 
BRANCH   6   7
ATOM      7  C   UNK d   0     -24.319  18.128  12.021  0.00  0.00    -0.020 A 
ATOM      8  C   UNK d   0     -23.305  17.303  11.979  0.00  0.00    -0.011 A 
ATOM      9  C   UNK d   0     -23.580  16.311  10.953  0.00  0.00     0.067 A 
ATOM     10  C   UNK d   0     -22.930  15.177  10.441  0.00  0.00     0.062 C 
ATOM     11  N   UNK d   0     -24.782  16.611  10.418  0.00  0.00    -0.248 NA
ATOM     12  C   UNK d   0     -23.483  14.175   9.636  0.00  0.00     0.041 A 
ATOM     13  N   UNK d   0     -24.314  14.245   8.578  0.00  0.00    -0.355 N 
ATOM     14  C   UNK d   0     -23.220  12.829   9.947  0.00  0.00    -0.022 A 
ATOM     15  C   UNK d   0     -24.591  12.978   8.216  0.00  0.00     0.042 A 
ATOM     16  H   UNK d   0     -24.682  15.172   8.085  0.00  0.00     0.166 HD
ATOM     17  C   UNK d   0     -25.403  12.482   7.176  0.00  0.00     0.062 C 
ATOM     18  C   UNK d   0     -23.923  12.062   9.052  0.00  0.00    -0.013 A 
ATOM     19  C   UNK d   0     -26.657  12.885   6.794  0.00  0.00     0.067 A 
ATOM     20  N   UNK d   0     -27.117  14.019   7.329  0.00  0.00    -0.248 NA
ATOM     21  C   UNK d   0     -27.697  12.372   5.919  0.00  0.00    -0.011 A 
ATOM     22  C   UNK d   0     -28.383  14.284   6.867  0.00  0.00     0.066 A 
ATOM     23  C   UNK d   0     -28.969  15.459   7.315  0.00  0.00     0.062 C 
ATOM     24  C   UNK d   0     -28.706  13.193   5.969  0.00  0.00    -0.020 A 
ATOM     25  C   UNK d   0     -28.392  16.458   8.113  0.00  0.00     0.041 A 
ATOM     26  N   UNK d   0     -27.578  16.388   9.173  0.00  0.00    -0.355 N 
ATOM     27  C   UNK d   0     -28.653  17.809   7.797  0.00  0.00    -0.022 A 
ATOM     28  C   UNK d   0     -27.307  17.650   9.542  0.00  0.00     0.042 A 
ATOM     29  H   UNK d   0     -27.218  15.456   9.674  0.00  0.00     0.166 HD
ATOM     30  C   UNK d   0     -26.510  18.158  10.579  0.00  0.00     0.062 C 
ATOM     31  C   UNK d   0     -27.970  18.570   8.695  0.00  0.00    -0.013 A 
ATOM     32  C   UNK d   0     -25.279  17.694  11.017  0.00  0.00     0.066 A 
BRANCH   8  33
ATOM     33  C   UNK d   0     -22.087  17.354  12.809  0.00  0.00     0.151 C 
BRANCH  33  34
ATOM     34  C   UNK d   0     -20.891  17.749  12.044  0.00  0.00     0.143 C 
ATOM     35  O   UNK d   0     -19.961  16.951  11.860  0.00  0.00    -0.650 OA
BRANCH  34  36
ATOM     36  O   UNK d   0     -20.808  19.022  11.529  0.00  0.00    -0.776 OA
ATOM     37  H   UNK d   0     -20.278  19.760  12.012  0.00  0.00     0.167 HD
ENDBRANCH  34  36
ENDBRANCH  33  34
ENDBRANCH   8  33
BRANCH  31  38
ATOM     38  C   UNK d   0     -27.937  20.080   8.742  0.00  0.00     0.151 C 
BRANCH  38  39
ATOM     39  C   UNK d   0     -26.910  20.645   7.892  0.00  0.00     0.143 C 
ATOM     40  O   UNK d   0     -25.771  20.154   7.809  0.00  0.00    -0.650 OA
BRANCH  39  41
ATOM     41  O   UNK d   0     -27.195  21.781   7.134  0.00  0.00    -0.776 OA
ATOM     42  H   UNK d   0     -27.634  21.628   6.221  0.00  0.00     0.167 HD
ENDBRANCH  39  41
ENDBRANCH  38  39
ENDBRANCH  31  38
BRANCH  27  43
ATOM     43  C   UNK d   0     -29.509  18.388   6.699  0.00  0.00     0.052 C 
BRANCH  43  44
ATOM     44  C   UNK d   0     -28.763  18.615   5.424  0.00  0.00     0.115 C 
BRANCH  44  45
ATOM     45  C   UNK d   0     -29.276  19.887   4.853  0.00  0.00     0.139 C 
ATOM     46  O   UNK d   0     -30.468  19.921   4.459  0.00  0.00    -0.650 OA
BRANCH  45  47
ATOM     47  O   UNK d   0     -28.503  21.023   4.744  0.00  0.00    -0.776 OA
ATOM     48  H   UNK d   0     -27.486  20.994   4.568  0.00  0.00     0.167 HD
ENDBRANCH  45  47
ENDBRANCH  44  45
ENDBRANCH  43  44
ENDBRANCH  27  43
BRANCH  24  49
ATOM     49  C   UNK d   0     -29.960  13.076   5.205  0.00  0.00     0.052 C 
BRANCH  49  50
ATOM     50  C   UNK d   0     -31.106  12.743   6.126  0.00  0.00     0.115 C 
BRANCH  50  51
ATOM     51  C   UNK d   0     -30.872  11.719   7.135  0.00  0.00     0.139 C 
ATOM     52  O   UNK d   0     -30.835  11.975   8.362  0.00  0.00    -0.650 OA
BRANCH  51  53
ATOM     53  O   UNK d   0     -30.678  10.403   6.745  0.00  0.00    -0.776 OA
ATOM     54  H   UNK d   0     -30.109   9.814   7.327  0.00  0.00     0.167 HD
ENDBRANCH  51  53
ENDBRANCH  50  51
ENDBRANCH  49  50
ENDBRANCH  24  49
BRANCH  21  55
ATOM     55  C   UNK d   0     -27.573  11.117   5.120  0.00  0.00     0.151 C 
BRANCH  55  56
ATOM     56  C   UNK d   0     -27.155   9.975   5.948  0.00  0.00     0.143 C 
ATOM     57  O   UNK d   0     -26.110   9.331   5.733  0.00  0.00    -0.650 OA
BRANCH  56  58
ATOM     58  O   UNK d   0     -27.977   9.612   7.014  0.00  0.00    -0.776 OA
ATOM     59  H   UNK d   0     -27.708  10.018   7.929  0.00  0.00     0.167 HD
ENDBRANCH  56  58
ENDBRANCH  55  56
ENDBRANCH  21  55
BRANCH  18  60
ATOM     60  C   UNK d   0     -23.936  10.554   9.027  0.00  0.00     0.151 C 
BRANCH  60  61
ATOM     61  C   UNK d   0     -25.114  10.147   9.808  0.00  0.00     0.143 C 
ATOM     62  O   UNK d   0     -26.283  10.114   9.425  0.00  0.00    -0.650 OA
BRANCH  61  63
ATOM     63  O   UNK d   0     -24.846   9.756  11.142  0.00  0.00    -0.776 OA
ATOM     64  H   UNK d   0     -24.726   8.788  11.384  0.00  0.00     0.167 HD
ENDBRANCH  61  63
ENDBRANCH  60  61
ENDBRANCH  18  60
BRANCH  14  65
ATOM     65  C   UNK d   0     -22.287  12.220  10.955  0.00  0.00     0.052 C 
BRANCH  65  66
ATOM     66  C   UNK d   0     -20.867  12.223  10.509  0.00  0.00     0.115 C 
BRANCH  66  67
ATOM     67  C   UNK d   0     -19.866  12.844  11.329  0.00  0.00     0.139 C 
ATOM     68  O   UNK d   0     -20.239  13.456  12.396  0.00  0.00    -0.650 OA
BRANCH  67  69
ATOM     69  O   UNK d   0     -18.488  12.876  11.116  0.00  0.00    -0.776 OA
ATOM     70  H   UNK d   0     -18.053  11.977  10.862  0.00  0.00     0.167 HD
ENDBRANCH  67  69
ENDBRANCH  66  67
ENDBRANCH  65  66
ENDBRANCH  14  65
ENDBRANCH   6   7
ENDBRANCH   5   6
ENDBRANCH   2   5
TORSDOF 28
ENDMDL
MODEL 12
REMARK VINA RESULT:      -9.0      2.286      4.966
REMARK  28 active torsions:
REMARK  status: ('A' for Active; 'I' for Inactive)
REMARK    1  A    between atoms: C_2  and  O_3 
REMARK    2  A    between atoms: C_2  and  C_4 
REMARK    3  A    between atoms: C_4  and  C_5 
REMARK    4  A    between atoms: C_5  and  C_6 
REMARK    5  A    between atoms: C_7  and  C_8 
REMARK    6  A    between atoms: C_8  and  C_9 
REMARK    7  A    between atoms: C_9  and  O_11 
REMARK    8  A    between atoms: C_28  and  C_29 
REMARK    9  A    between atoms: C_29  and  C_30 
REMARK   10  A    between atoms: C_30  and  O_32 
REMARK   11  A    between atoms: C_33  and  C_34 
REMARK   12  A    between atoms: C_34  and  C_35 
REMARK   13  A    between atoms: C_35  and  C_36 
REMARK   14  A    between atoms: C_36  and  O_38 
REMARK   15  A    between atoms: C_39  and  C_40 
REMARK   16  A    between atoms: C_40  and  C_41 
REMARK   17  A    between atoms: C_41  and  C_42 
REMARK   18  A    between atoms: C_42  and  O_44 
REMARK   19  A    between atoms: C_45  and  C_46 
REMARK   20  A    between atoms: C_46  and  C_47 
REMARK   21  A    between atoms: C_47  and  O_49 
REMARK   22  A    between atoms: C_50  and  C_51 
REMARK   23  A    between atoms: C_51  and  C_52 
REMARK   24  A    between atoms: C_52  and  O_54 
REMARK   25  A    between atoms: C_55  and  C_56 
REMARK   26  A    between atoms: C_56  and  C_57 
REMARK   27  A    between atoms: C_57  and  C_58 
REMARK   28  A    between atoms: C_58  and  O_60 
ROOT
ATOM      1  O   UNK d   0      -3.052  10.055  -6.029  0.00  0.00    -0.650 OA
ATOM      2  C   UNK d   0      -2.427  10.415  -7.052  0.00  0.00     0.139 C 
ENDROOT
BRANCH   2   3
ATOM      3  O   UNK d   0      -3.003  11.320  -7.910  0.00  0.00    -0.776 OA
ATOM      4  H   UNK d   0      -2.431  11.890  -8.537  0.00  0.00     0.167 HD
ENDBRANCH   2   3
BRANCH   2   5
ATOM      5  C   UNK d   0      -1.070   9.863  -7.332  0.00  0.00     0.115 C 
BRANCH   5   6
ATOM      6  C   UNK d   0      -0.672   8.895  -6.252  0.00  0.00     0.052 C 
BRANCH   6   7
ATOM      7  C   UNK d   0      -0.306   7.535  -6.796  0.00  0.00    -0.020 A 
ATOM      8  C   UNK d   0       0.689   6.769  -6.428  0.00  0.00    -0.011 A 
ATOM      9  C   UNK d   0       0.646   5.563  -7.238  0.00  0.00     0.067 A 
ATOM     10  C   UNK d   0       1.389   4.376  -7.326  0.00  0.00     0.062 C 
ATOM     11  N   UNK d   0      -0.405   5.682  -8.077  0.00  0.00    -0.248 NA
ATOM     12  C   UNK d   0       1.026   3.197  -7.986  0.00  0.00     0.041 A 
ATOM     13  N   UNK d   0       0.453   2.993  -9.187  0.00  0.00    -0.355 N 
ATOM     14  C   UNK d   0       1.207   1.966  -7.328  0.00  0.00    -0.022 A 
ATOM     15  C   UNK d   0       0.259   1.666  -9.306  0.00  0.00     0.042 A 
ATOM     16  H   UNK d   0       0.209   3.770  -9.945  0.00  0.00     0.166 HD
ATOM     17  C   UNK d   0      -0.301   0.915 -10.358  0.00  0.00     0.062 C 
ATOM     18  C   UNK d   0       0.719   0.989  -8.160  0.00  0.00    -0.013 A 
ATOM     19  C   UNK d   0      -1.437   1.165 -11.086  0.00  0.00     0.067 A 
ATOM     20  N   UNK d   0      -2.000   2.366 -10.936  0.00  0.00    -0.248 NA
ATOM     21  C   UNK d   0      -2.257   0.423 -12.030  0.00  0.00    -0.011 A 
ATOM     22  C   UNK d   0      -3.129   2.464 -11.711  0.00  0.00     0.066 A 
ATOM     23  C   UNK d   0      -3.796   3.680 -11.679  0.00  0.00     0.062 C 
ATOM     24  C   UNK d   0      -3.248   1.187 -12.388  0.00  0.00    -0.020 A 
ATOM     25  C   UNK d   0      -3.408   4.857 -11.020  0.00  0.00     0.041 A 
ATOM     26  N   UNK d   0      -2.852   5.060  -9.820  0.00  0.00    -0.355 N 
ATOM     27  C   UNK d   0      -3.586   6.091 -11.683  0.00  0.00    -0.022 A 
ATOM     28  C   UNK d   0      -2.665   6.384  -9.696  0.00  0.00     0.042 A 
ATOM     29  H   UNK d   0      -2.617   4.279  -9.055  0.00  0.00     0.166 HD
ATOM     30  C   UNK d   0      -2.118   7.145  -8.651  0.00  0.00     0.062 C 
ATOM     31  C   UNK d   0      -3.118   7.062 -10.852  0.00  0.00    -0.013 A 
ATOM     32  C   UNK d   0      -1.019   6.846  -7.861  0.00  0.00     0.066 A 
BRANCH   8  33
ATOM     33  C   UNK d   0       1.690   7.060  -5.385  0.00  0.00     0.151 C 
BRANCH  33  34
ATOM     34  C   UNK d   0       2.848   7.814  -5.899  0.00  0.00     0.143 C 
ATOM     35  O   UNK d   0       2.815   9.050  -5.982  0.00  0.00    -0.650 OA
BRANCH  34  36
ATOM     36  O   UNK d   0       3.977   7.134  -6.292  0.00  0.00    -0.776 OA
ATOM     37  H   UNK d   0       3.984   6.107  -6.363  0.00  0.00     0.167 HD
ENDBRANCH  34  36
ENDBRANCH  33  34
ENDBRANCH   8  33
BRANCH  31  38
ATOM     38  C   UNK d   0      -3.089   8.545 -11.141  0.00  0.00     0.151 C 
BRANCH  38  39
ATOM     39  C   UNK d   0      -4.266   9.235 -10.656  0.00  0.00     0.143 C 
ATOM     40  O   UNK d   0      -5.023   9.870 -11.411  0.00  0.00    -0.650 OA
BRANCH  39  41
ATOM     41  O   UNK d   0      -4.574   9.193  -9.297  0.00  0.00    -0.776 OA
ATOM     42  H   UNK d   0      -5.508   8.856  -9.045  0.00  0.00     0.167 HD
ENDBRANCH  39  41
ENDBRANCH  38  39
ENDBRANCH  31  38
BRANCH  27  43
ATOM     43  C   UNK d   0      -4.172   6.372 -13.043  0.00  0.00     0.052 C 
BRANCH  43  44
ATOM     44  C   UNK d   0      -5.654   6.565 -13.020  0.00  0.00     0.115 C 
BRANCH  44  45
ATOM     45  C   UNK d   0      -5.924   7.865 -13.686  0.00  0.00     0.139 C 
ATOM     46  O   UNK d   0      -7.116   8.253 -13.766  0.00  0.00    -0.650 OA
BRANCH  45  47
ATOM     47  O   UNK d   0      -4.926   8.659 -14.208  0.00  0.00    -0.776 OA
ATOM     48  H   UNK d   0      -4.828   8.843 -15.220  0.00  0.00     0.167 HD
ENDBRANCH  45  47
ENDBRANCH  44  45
ENDBRANCH  43  44
ENDBRANCH  27  43
BRANCH  24  49
ATOM     49  C   UNK d   0      -4.300   0.846 -13.361  0.00  0.00     0.052 C 
BRANCH  49  50
ATOM     50  C   UNK d   0      -4.109   1.628 -14.635  0.00  0.00     0.115 C 
BRANCH  50  51
ATOM     51  C   UNK d   0      -5.309   2.113 -15.304  0.00  0.00     0.139 C 
ATOM     52  O   UNK d   0      -6.273   2.618 -14.681  0.00  0.00    -0.650 OA
BRANCH  51  53
ATOM     53  O   UNK d   0      -5.411   2.020 -16.684  0.00  0.00    -0.776 OA
ATOM     54  H   UNK d   0      -5.808   1.185 -17.076  0.00  0.00     0.167 HD
ENDBRANCH  51  53
ENDBRANCH  50  51
ENDBRANCH  49  50
ENDBRANCH  24  49
BRANCH  21  55
ATOM     55  C   UNK d   0      -1.962  -0.970 -12.477  0.00  0.00     0.151 C 
BRANCH  55  56
ATOM     56  C   UNK d   0      -0.654  -1.070 -13.143  0.00  0.00     0.143 C 
ATOM     57  O   UNK d   0       0.231  -1.869 -12.776  0.00  0.00    -0.650 OA
BRANCH  56  58
ATOM     58  O   UNK d   0      -0.411  -0.229 -14.227  0.00  0.00    -0.776 OA
ATOM     59  H   UNK d   0       0.590  -0.040 -14.417  0.00  0.00     0.167 HD
ENDBRANCH  56  58
ENDBRANCH  55  56
ENDBRANCH  21  55
BRANCH  18  60
ATOM     60  C   UNK d   0       0.706  -0.486  -7.845  0.00  0.00     0.151 C 
BRANCH  60  61
ATOM     61  C   UNK d   0      -0.435  -0.697  -6.942  0.00  0.00     0.143 C 
ATOM     62  O   UNK d   0      -0.396  -0.858  -5.721  0.00  0.00    -0.650 OA
BRANCH  61  63
ATOM     63  O   UNK d   0      -1.705  -0.710  -7.568  0.00  0.00    -0.776 OA
ATOM     64  H   UNK d   0      -2.497  -1.143  -7.126  0.00  0.00     0.167 HD
ENDBRANCH  61  63
ENDBRANCH  60  61
ENDBRANCH  18  60
BRANCH  14  65
ATOM     65  C   UNK d   0       1.889   1.639  -6.030  0.00  0.00     0.052 C 
BRANCH  65  66
ATOM     66  C   UNK d   0       3.128   0.835  -6.211  0.00  0.00     0.115 C 
BRANCH  66  67
ATOM     67  C   UNK d   0       4.392   1.500  -6.357  0.00  0.00     0.139 C 
ATOM     68  O   UNK d   0       4.505   2.413  -7.256  0.00  0.00    -0.650 OA
BRANCH  67  69
ATOM     69  O   UNK d   0       5.561   1.280  -5.629  0.00  0.00    -0.776 OA
ATOM     70  H   UNK d   0       5.557   1.630  -4.660  0.00  0.00     0.167 HD
ENDBRANCH  67  69
ENDBRANCH  66  67
ENDBRANCH  65  66
ENDBRANCH  14  65
ENDBRANCH   6   7
ENDBRANCH   5   6
ENDBRANCH   2   5
TORSDOF 28
ENDMDL
MODEL 13
REMARK VINA RESULT:      -9.0      2.050      8.414
REMARK  28 active torsions:
REMARK  status: ('A' for Active; 'I' for Inactive)
REMARK    1  A    between atoms: C_2  and  O_3 
REMARK    2  A    between atoms: C_2  and  C_4 
REMARK    3  A    between atoms: C_4  and  C_5 
REMARK    4  A    between atoms: C_5  and  C_6 
REMARK    5  A    between atoms: C_7  and  C_8 
REMARK    6  A    between atoms: C_8  and  C_9 
REMARK    7  A    between atoms: C_9  and  O_11 
REMARK    8  A    between atoms: C_28  and  C_29 
REMARK    9  A    between atoms: C_29  and  C_30 
REMARK   10  A    between atoms: C_30  and  O_32 
REMARK   11  A    between atoms: C_33  and  C_34 
REMARK   12  A    between atoms: C_34  and  C_35 
REMARK   13  A    between atoms: C_35  and  C_36 
REMARK   14  A    between atoms: C_36  and  O_38 
REMARK   15  A    between atoms: C_39  and  C_40 
REMARK   16  A    between atoms: C_40  and  C_41 
REMARK   17  A    between atoms: C_41  and  C_42 
REMARK   18  A    between atoms: C_42  and  O_44 
REMARK   19  A    between atoms: C_45  and  C_46 
REMARK   20  A    between atoms: C_46  and  C_47 
REMARK   21  A    between atoms: C_47  and  O_49 
REMARK   22  A    between atoms: C_50  and  C_51 
REMARK   23  A    between atoms: C_51  and  C_52 
REMARK   24  A    between atoms: C_52  and  O_54 
REMARK   25  A    between atoms: C_55  and  C_56 
REMARK   26  A    between atoms: C_56  and  C_57 
REMARK   27  A    between atoms: C_57  and  C_58 
REMARK   28  A    between atoms: C_58  and  O_60 
ROOT
ATOM      1  O   UNK d   0      -6.067   9.974 -12.025  0.00  0.00    -0.650 OA
ATOM      2  C   UNK d   0      -5.054  10.093 -11.301  0.00  0.00     0.139 C 
ENDROOT
BRANCH   2   3
ATOM      3  O   UNK d   0      -4.951  11.175 -10.460  0.00  0.00    -0.776 OA
ATOM      4  H   UNK d   0      -5.783  11.618 -10.065  0.00  0.00     0.167 HD
ENDBRANCH   2   3
BRANCH   2   5
ATOM      5  C   UNK d   0      -3.972   9.069 -11.354  0.00  0.00     0.115 C 
BRANCH   5   6
ATOM      6  C   UNK d   0      -4.224   8.107 -12.483  0.00  0.00     0.052 C 
BRANCH   6   7
ATOM      7  C   UNK d   0      -4.031   6.667 -12.073  0.00  0.00    -0.020 A 
ATOM      8  C   UNK d   0      -4.707   5.623 -12.480  0.00  0.00    -0.011 A 
ATOM      9  C   UNK d   0      -4.168   4.454 -11.806  0.00  0.00     0.067 A 
ATOM     10  C   UNK d   0      -4.423   3.073 -11.815  0.00  0.00     0.062 C 
ATOM     11  N   UNK d   0      -3.170   4.878 -11.004  0.00  0.00    -0.248 NA
ATOM     12  C   UNK d   0      -3.609   2.058 -11.302  0.00  0.00     0.041 A 
ATOM     13  N   UNK d   0      -2.909   1.978 -10.154  0.00  0.00    -0.355 N 
ATOM     14  C   UNK d   0      -3.384   0.908 -12.079  0.00  0.00    -0.022 A 
ATOM     15  C   UNK d   0      -2.240   0.810 -10.187  0.00  0.00     0.042 A 
ATOM     16  H   UNK d   0      -2.904   2.723  -9.328  0.00  0.00     0.166 HD
ATOM     17  C   UNK d   0      -1.366   0.231  -9.245  0.00  0.00     0.062 C 
ATOM     18  C   UNK d   0      -2.513   0.111 -11.379  0.00  0.00    -0.013 A 
ATOM     19  C   UNK d   0      -0.344   0.817  -8.543  0.00  0.00     0.067 A 
ATOM     20  N   UNK d   0      -0.267   2.150  -8.587  0.00  0.00    -0.248 NA
ATOM     21  C   UNK d   0       0.759   0.351  -7.719  0.00  0.00    -0.011 A 
ATOM     22  C   UNK d   0       0.808   2.589  -7.853  0.00  0.00     0.066 A 
ATOM     23  C   UNK d   0       0.986   3.963  -7.782  0.00  0.00     0.062 C 
ATOM     24  C   UNK d   0       1.432   1.393  -7.323  0.00  0.00    -0.020 A 
ATOM     25  C   UNK d   0       0.149   4.966  -8.294  0.00  0.00     0.041 A 
ATOM     26  N   UNK d   0      -0.535   5.052  -9.441  0.00  0.00    -0.355 N 
ATOM     27  C   UNK d   0      -0.080   6.119  -7.511  0.00  0.00    -0.022 A 
ATOM     28  C   UNK d   0      -1.196   6.221  -9.415  0.00  0.00     0.042 A 
ATOM     29  H   UNK d   0      -0.531   4.308 -10.275  0.00  0.00     0.166 HD
ATOM     30  C   UNK d   0      -2.061   6.813 -10.348  0.00  0.00     0.062 C 
ATOM     31  C   UNK d   0      -0.930   6.917  -8.212  0.00  0.00    -0.013 A 
ATOM     32  C   UNK d   0      -3.036   6.200 -11.119  0.00  0.00     0.066 A 
BRANCH   8  33
ATOM     33  C   UNK d   0      -5.824   5.613 -13.443  0.00  0.00     0.151 C 
BRANCH  33  34
ATOM     34  C   UNK d   0      -6.857   4.616 -13.109  0.00  0.00     0.143 C 
ATOM     35  O   UNK d   0      -7.656   4.813 -12.182  0.00  0.00    -0.650 OA
BRANCH  34  36
ATOM     36  O   UNK d   0      -6.930   3.450 -13.836  0.00  0.00    -0.776 OA
ATOM     37  H   UNK d   0      -6.093   2.878 -14.015  0.00  0.00     0.167 HD
ENDBRANCH  34  36
ENDBRANCH  33  34
ENDBRANCH   8  33
BRANCH  31  38
ATOM     38  C   UNK d   0      -1.470   8.256  -7.764  0.00  0.00     0.151 C 
BRANCH  38  39
ATOM     39  C   UNK d   0      -2.810   8.168  -7.224  0.00  0.00     0.143 C 
ATOM     40  O   UNK d   0      -3.802   8.605  -7.833  0.00  0.00    -0.650 OA
BRANCH  39  41
ATOM     41  O   UNK d   0      -3.010   7.576  -5.977  0.00  0.00    -0.776 OA
ATOM     42  H   UNK d   0      -3.119   6.557  -5.962  0.00  0.00     0.167 HD
ENDBRANCH  39  41
ENDBRANCH  38  39
ENDBRANCH  31  38
BRANCH  27  43
ATOM     43  C   UNK d   0       0.470   6.479  -6.153  0.00  0.00     0.052 C 
BRANCH  43  44
ATOM     44  C   UNK d   0       0.688   7.947  -5.975  0.00  0.00     0.115 C 
BRANCH  44  45
ATOM     45  C   UNK d   0       2.137   8.130  -5.698  0.00  0.00     0.139 C 
ATOM     46  O   UNK d   0       2.512   9.224  -5.208  0.00  0.00    -0.650 OA
BRANCH  45  47
ATOM     47  O   UNK d   0       3.075   7.153  -5.950  0.00  0.00    -0.776 OA
ATOM     48  H   UNK d   0       3.231   6.755  -6.890  0.00  0.00     0.167 HD
ENDBRANCH  45  47
ENDBRANCH  44  45
ENDBRANCH  43  44
ENDBRANCH  27  43
BRANCH  24  49
ATOM     49  C   UNK d   0       2.609   1.380  -6.436  0.00  0.00     0.052 C 
BRANCH  49  50
ATOM     50  C   UNK d   0       3.650   2.350  -6.933  0.00  0.00     0.115 C 
BRANCH  50  51
ATOM     51  C   UNK d   0       4.476   1.922  -8.055  0.00  0.00     0.139 C 
ATOM     52  O   UNK d   0       4.144   2.109  -9.249  0.00  0.00    -0.650 OA
BRANCH  51  53
ATOM     53  O   UNK d   0       5.679   1.277  -7.814  0.00  0.00    -0.776 OA
ATOM     54  H   UNK d   0       6.465   1.832  -7.521  0.00  0.00     0.167 HD
ENDBRANCH  51  53
ENDBRANCH  50  51
ENDBRANCH  49  50
ENDBRANCH  24  49
BRANCH  21  55
ATOM     55  C   UNK d   0       1.023  -1.085  -7.412  0.00  0.00     0.151 C 
BRANCH  55  56
ATOM     56  C   UNK d   0       0.134  -1.596  -6.357  0.00  0.00     0.143 C 
ATOM     57  O   UNK d   0      -0.031  -1.007  -5.270  0.00  0.00    -0.650 OA
BRANCH  56  58
ATOM     58  O   UNK d   0      -0.543  -2.789  -6.600  0.00  0.00    -0.776 OA
ATOM     59  H   UNK d   0      -1.564  -2.690  -6.746  0.00  0.00     0.167 HD
ENDBRANCH  56  58
ENDBRANCH  55  56
ENDBRANCH  21  55
BRANCH  18  60
ATOM     60  C   UNK d   0      -1.992  -1.224 -11.850  0.00  0.00     0.151 C 
BRANCH  60  61
ATOM     61  C   UNK d   0      -0.661  -0.961 -12.418  0.00  0.00     0.143 C 
ATOM     62  O   UNK d   0      -0.408  -0.450 -13.509  0.00  0.00    -0.650 OA
BRANCH  61  63
ATOM     63  O   UNK d   0       0.429  -1.347 -11.602  0.00  0.00    -0.776 OA
ATOM     64  H   UNK d   0       1.359  -1.410 -11.975  0.00  0.00     0.167 HD
ENDBRANCH  61  63
ENDBRANCH  60  61
ENDBRANCH  18  60
BRANCH  14  65
ATOM     65  C   UNK d   0      -4.001   0.464 -13.375  0.00  0.00     0.052 C 
BRANCH  65  66
ATOM     66  C   UNK d   0      -3.272   0.969 -14.569  0.00  0.00     0.115 C 
BRANCH  66  67
ATOM     67  C   UNK d   0      -4.001   1.588 -15.640  0.00  0.00     0.139 C 
ATOM     68  O   UNK d   0      -3.492   1.571 -16.820  0.00  0.00    -0.650 OA
BRANCH  67  69
ATOM     69  O   UNK d   0      -5.236   2.232 -15.569  0.00  0.00    -0.776 OA
ATOM     70  H   UNK d   0      -6.054   1.620 -15.444  0.00  0.00     0.167 HD
ENDBRANCH  67  69
ENDBRANCH  66  67
ENDBRANCH  65  66
ENDBRANCH  14  65
ENDBRANCH   6   7
ENDBRANCH   5   6
ENDBRANCH   2   5
TORSDOF 28
ENDMDL
MODEL 14
REMARK VINA RESULT:      -9.0     29.666     32.730
REMARK  28 active torsions:
REMARK  status: ('A' for Active; 'I' for Inactive)
REMARK    1  A    between atoms: C_2  and  O_3 
REMARK    2  A    between atoms: C_2  and  C_4 
REMARK    3  A    between atoms: C_4  and  C_5 
REMARK    4  A    between atoms: C_5  and  C_6 
REMARK    5  A    between atoms: C_7  and  C_8 
REMARK    6  A    between atoms: C_8  and  C_9 
REMARK    7  A    between atoms: C_9  and  O_11 
REMARK    8  A    between atoms: C_28  and  C_29 
REMARK    9  A    between atoms: C_29  and  C_30 
REMARK   10  A    between atoms: C_30  and  O_32 
REMARK   11  A    between atoms: C_33  and  C_34 
REMARK   12  A    between atoms: C_34  and  C_35 
REMARK   13  A    between atoms: C_35  and  C_36 
REMARK   14  A    between atoms: C_36  and  O_38 
REMARK   15  A    between atoms: C_39  and  C_40 
REMARK   16  A    between atoms: C_40  and  C_41 
REMARK   17  A    between atoms: C_41  and  C_42 
REMARK   18  A    between atoms: C_42  and  O_44 
REMARK   19  A    between atoms: C_45  and  C_46 
REMARK   20  A    between atoms: C_46  and  C_47 
REMARK   21  A    between atoms: C_47  and  O_49 
REMARK   22  A    between atoms: C_50  and  C_51 
REMARK   23  A    between atoms: C_51  and  C_52 
REMARK   24  A    between atoms: C_52  and  O_54 
REMARK   25  A    between atoms: C_55  and  C_56 
REMARK   26  A    between atoms: C_56  and  C_57 
REMARK   27  A    between atoms: C_57  and  C_58 
REMARK   28  A    between atoms: C_58  and  O_60 
ROOT
ATOM      1  O   UNK d   0     -21.348  10.699  12.724  0.00  0.00    -0.650 OA
ATOM      2  C   UNK d   0     -20.273  10.882  12.111  0.00  0.00     0.139 C 
ENDROOT
BRANCH   2   3
ATOM      3  O   UNK d   0     -19.850   9.945  11.200  0.00  0.00    -0.776 OA
ATOM      4  H   UNK d   0     -20.464   9.624  10.448  0.00  0.00     0.167 HD
ENDBRANCH   2   3
BRANCH   2   5
ATOM      5  C   UNK d   0     -19.462  12.105  12.371  0.00  0.00     0.115 C 
BRANCH   5   6
ATOM      6  C   UNK d   0     -19.484  13.006  11.167  0.00  0.00     0.052 C 
BRANCH   6   7
ATOM      7  C   UNK d   0     -20.709  13.887  11.123  0.00  0.00    -0.020 A 
ATOM      8  C   UNK d   0     -20.908  15.011  11.764  0.00  0.00    -0.011 A 
ATOM      9  C   UNK d   0     -22.235  15.492  11.416  0.00  0.00     0.067 A 
ATOM     10  C   UNK d   0     -23.021  16.611  11.732  0.00  0.00     0.062 C 
ATOM     11  N   UNK d   0     -22.775  14.597  10.562  0.00  0.00    -0.248 NA
ATOM     12  C   UNK d   0     -24.178  17.047  11.077  0.00  0.00     0.041 A 
ATOM     13  N   UNK d   0     -25.239  16.365  10.605  0.00  0.00    -0.355 N 
ATOM     14  C   UNK d   0     -24.312  18.413  10.770  0.00  0.00    -0.022 A 
ATOM     15  C   UNK d   0     -26.039  17.263   9.999  0.00  0.00     0.042 A 
ATOM     16  H   UNK d   0     -25.428  15.275  10.714  0.00  0.00     0.166 HD
ATOM     17  C   UNK d   0     -27.274  17.089   9.343  0.00  0.00     0.062 C 
ATOM     18  C   UNK d   0     -25.491  18.558  10.082  0.00  0.00    -0.013 A 
ATOM     19  C   UNK d   0     -27.642  16.124   8.440  0.00  0.00     0.067 A 
ATOM     20  N   UNK d   0     -26.813  15.088   8.290  0.00  0.00    -0.248 NA
ATOM     21  C   UNK d   0     -28.757  15.916   7.530  0.00  0.00    -0.011 A 
ATOM     22  C   UNK d   0     -27.304  14.218   7.348  0.00  0.00     0.066 A 
ATOM     23  C   UNK d   0     -26.557  13.072   7.119  0.00  0.00     0.062 C 
ATOM     24  C   UNK d   0     -28.551  14.800   6.891  0.00  0.00    -0.020 A 
ATOM     25  C   UNK d   0     -25.404  12.646   7.798  0.00  0.00     0.041 A 
ATOM     26  N   UNK d   0     -24.342  13.321   8.254  0.00  0.00    -0.355 N 
ATOM     27  C   UNK d   0     -25.272  11.275   8.109  0.00  0.00    -0.022 A 
ATOM     28  C   UNK d   0     -23.538  12.427   8.850  0.00  0.00     0.042 A 
ATOM     29  H   UNK d   0     -24.149  14.415   8.133  0.00  0.00     0.166 HD
ATOM     30  C   UNK d   0     -22.304  12.585   9.499  0.00  0.00     0.062 C 
ATOM     31  C   UNK d   0     -24.095  11.128   8.776  0.00  0.00    -0.013 A 
ATOM     32  C   UNK d   0     -21.907  13.608  10.345  0.00  0.00     0.066 A 
BRANCH   8  33
ATOM     33  C   UNK d   0     -19.972  15.683  12.684  0.00  0.00     0.151 C 
BRANCH  33  34
ATOM     34  C   UNK d   0     -18.916  16.430  11.977  0.00  0.00     0.143 C 
ATOM     35  O   UNK d   0     -18.963  16.592  10.750  0.00  0.00    -0.650 OA
BRANCH  34  36
ATOM     36  O   UNK d   0     -17.864  16.953  12.694  0.00  0.00    -0.776 OA
ATOM     37  H   UNK d   0     -17.140  16.345  13.100  0.00  0.00     0.167 HD
ENDBRANCH  34  36
ENDBRANCH  33  34
ENDBRANCH   8  33
BRANCH  31  38
ATOM     38  C   UNK d   0     -23.535   9.835   9.322  0.00  0.00     0.151 C 
BRANCH  38  39
ATOM     39  C   UNK d   0     -23.899   9.605  10.704  0.00  0.00     0.143 C 
ATOM     40  O   UNK d   0     -24.708  10.331  11.309  0.00  0.00    -0.650 OA
BRANCH  39  41
ATOM     41  O   UNK d   0     -23.332   8.535  11.394  0.00  0.00    -0.776 OA
ATOM     42  H   UNK d   0     -22.515   8.089  10.964  0.00  0.00     0.167 HD
ENDBRANCH  39  41
ENDBRANCH  38  39
ENDBRANCH  31  38
BRANCH  27  43
ATOM     43  C   UNK d   0     -26.202  10.128   7.801  0.00  0.00     0.052 C 
BRANCH  43  44
ATOM     44  C   UNK d   0     -27.226   9.896   8.865  0.00  0.00     0.115 C 
BRANCH  44  45
ATOM     45  C   UNK d   0     -28.520   9.678   8.167  0.00  0.00     0.139 C 
ATOM     46  O   UNK d   0     -28.509   9.586   6.915  0.00  0.00    -0.650 OA
BRANCH  45  47
ATOM     47  O   UNK d   0     -29.720   9.568   8.836  0.00  0.00    -0.776 OA
ATOM     48  H   UNK d   0     -29.857   9.909   9.801  0.00  0.00     0.167 HD
ENDBRANCH  45  47
ENDBRANCH  44  45
ENDBRANCH  43  44
ENDBRANCH  27  43
BRANCH  24  49
ATOM     49  C   UNK d   0     -29.452  14.188   5.900  0.00  0.00     0.052 C 
BRANCH  49  50
ATOM     50  C   UNK d   0     -30.745  13.774   6.552  0.00  0.00     0.115 C 
BRANCH  50  51
ATOM     51  C   UNK d   0     -30.788  12.453   7.166  0.00  0.00     0.139 C 
ATOM     52  O   UNK d   0     -30.840  12.286   8.407  0.00  0.00    -0.650 OA
BRANCH  51  53
ATOM     53  O   UNK d   0     -30.768  11.323   6.364  0.00  0.00    -0.776 OA
ATOM     54  H   UNK d   0     -30.260  10.519   6.688  0.00  0.00     0.167 HD
ENDBRANCH  51  53
ENDBRANCH  50  51
ENDBRANCH  49  50
ENDBRANCH  24  49
BRANCH  21  55
ATOM     55  C   UNK d   0     -29.913  16.850   7.398  0.00  0.00     0.151 C 
BRANCH  55  56
ATOM     56  C   UNK d   0     -29.686  17.865   6.358  0.00  0.00     0.143 C 
ATOM     57  O   UNK d   0     -28.806  18.743   6.452  0.00  0.00    -0.650 OA
BRANCH  56  58
ATOM     58  O   UNK d   0     -30.498  17.827   5.226  0.00  0.00    -0.776 OA
ATOM     59  H   UNK d   0     -29.989  17.770   4.325  0.00  0.00     0.167 HD
ENDBRANCH  56  58
ENDBRANCH  55  56
ENDBRANCH  21  55
BRANCH  18  60
ATOM     60  C   UNK d   0     -26.027  19.864   9.550  0.00  0.00     0.151 C 
BRANCH  60  61
ATOM     61  C   UNK d   0     -25.398  20.052   8.234  0.00  0.00     0.143 C 
ATOM     62  O   UNK d   0     -25.015  19.173   7.462  0.00  0.00    -0.650 OA
BRANCH  61  63
ATOM     63  O   UNK d   0     -25.227  21.400   7.836  0.00  0.00    -0.776 OA
ATOM     64  H   UNK d   0     -24.374  21.709   7.403  0.00  0.00     0.167 HD
ENDBRANCH  61  63
ENDBRANCH  60  61
ENDBRANCH  18  60
BRANCH  14  65
ATOM     65  C   UNK d   0     -23.468  19.593  11.159  0.00  0.00     0.052 C 
BRANCH  65  66
ATOM     66  C   UNK d   0     -22.349  19.846  10.212  0.00  0.00     0.115 C 
BRANCH  66  67
ATOM     67  C   UNK d   0     -21.015  19.453  10.566  0.00  0.00     0.139 C 
ATOM     68  O   UNK d   0     -20.742  19.256  11.807  0.00  0.00    -0.650 OA
BRANCH  67  69
ATOM     69  O   UNK d   0     -19.931  19.247   9.713  0.00  0.00    -0.776 OA
ATOM     70  H   UNK d   0     -20.157  18.849   8.790  0.00  0.00     0.167 HD
ENDBRANCH  67  69
ENDBRANCH  66  67
ENDBRANCH  65  66
ENDBRANCH  14  65
ENDBRANCH   6   7
ENDBRANCH   5   6
ENDBRANCH   2   5
TORSDOF 28
ENDMDL
MODEL 15
REMARK VINA RESULT:      -8.9      1.691      7.842
REMARK  28 active torsions:
REMARK  status: ('A' for Active; 'I' for Inactive)
REMARK    1  A    between atoms: C_2  and  O_3 
REMARK    2  A    between atoms: C_2  and  C_4 
REMARK    3  A    between atoms: C_4  and  C_5 
REMARK    4  A    between atoms: C_5  and  C_6 
REMARK    5  A    between atoms: C_7  and  C_8 
REMARK    6  A    between atoms: C_8  and  C_9 
REMARK    7  A    between atoms: C_9  and  O_11 
REMARK    8  A    between atoms: C_28  and  C_29 
REMARK    9  A    between atoms: C_29  and  C_30 
REMARK   10  A    between atoms: C_30  and  O_32 
REMARK   11  A    between atoms: C_33  and  C_34 
REMARK   12  A    between atoms: C_34  and  C_35 
REMARK   13  A    between atoms: C_35  and  C_36 
REMARK   14  A    between atoms: C_36  and  O_38 
REMARK   15  A    between atoms: C_39  and  C_40 
REMARK   16  A    between atoms: C_40  and  C_41 
REMARK   17  A    between atoms: C_41  and  C_42 
REMARK   18  A    between atoms: C_42  and  O_44 
REMARK   19  A    between atoms: C_45  and  C_46 
REMARK   20  A    between atoms: C_46  and  C_47 
REMARK   21  A    between atoms: C_47  and  O_49 
REMARK   22  A    between atoms: C_50  and  C_51 
REMARK   23  A    between atoms: C_51  and  C_52 
REMARK   24  A    between atoms: C_52  and  O_54 
REMARK   25  A    between atoms: C_55  and  C_56 
REMARK   26  A    between atoms: C_56  and  C_57 
REMARK   27  A    between atoms: C_57  and  C_58 
REMARK   28  A    between atoms: C_58  and  O_60 
ROOT
ATOM      1  O   UNK d   0      -3.056  -4.091 -10.798  0.00  0.00    -0.650 OA
ATOM      2  C   UNK d   0      -3.293  -2.931 -11.202  0.00  0.00     0.139 C 
ENDROOT
BRANCH   2   3
ATOM      3  O   UNK d   0      -4.205  -2.156 -10.527  0.00  0.00    -0.776 OA
ATOM      4  H   UNK d   0      -3.906  -1.494  -9.808  0.00  0.00     0.167 HD
ENDBRANCH   2   3
BRANCH   2   5
ATOM      5  C   UNK d   0      -2.590  -2.399 -12.404  0.00  0.00     0.115 C 
BRANCH   5   6
ATOM      6  C   UNK d   0      -1.145  -2.130 -12.081  0.00  0.00     0.052 C 
BRANCH   6   7
ATOM      7  C   UNK d   0      -0.971  -1.010 -11.083  0.00  0.00    -0.020 A 
ATOM      8  C   UNK d   0      -0.423  -1.077  -9.897  0.00  0.00    -0.011 A 
ATOM      9  C   UNK d   0      -0.490   0.247  -9.301  0.00  0.00     0.067 A 
ATOM     10  C   UNK d   0      -0.076   0.838  -8.097  0.00  0.00     0.062 C 
ATOM     11  N   UNK d   0      -1.100   1.057 -10.192  0.00  0.00    -0.248 NA
ATOM     12  C   UNK d   0       0.020   2.204  -7.812  0.00  0.00     0.041 A 
ATOM     13  N   UNK d   0      -0.806   3.229  -8.095  0.00  0.00    -0.355 N 
ATOM     14  C   UNK d   0       1.175   2.685  -7.168  0.00  0.00    -0.022 A 
ATOM     15  C   UNK d   0      -0.203   4.349  -7.654  0.00  0.00     0.042 A 
ATOM     16  H   UNK d   0      -1.805   3.160  -8.579  0.00  0.00     0.166 HD
ATOM     17  C   UNK d   0      -0.627   5.692  -7.695  0.00  0.00     0.062 C 
ATOM     18  C   UNK d   0       1.042   4.048  -7.068  0.00  0.00    -0.013 A 
ATOM     19  C   UNK d   0      -1.196   6.385  -8.733  0.00  0.00     0.067 A 
ATOM     20  N   UNK d   0      -1.592   5.673  -9.791  0.00  0.00    -0.248 NA
ATOM     21  C   UNK d   0      -1.492   7.779  -9.020  0.00  0.00    -0.011 A 
ATOM     22  C   UNK d   0      -2.124   6.500 -10.750  0.00  0.00     0.066 A 
ATOM     23  C   UNK d   0      -2.613   5.884 -11.893  0.00  0.00     0.062 C 
ATOM     24  C   UNK d   0      -2.031   7.840 -10.203  0.00  0.00    -0.020 A 
ATOM     25  C   UNK d   0      -2.712   4.509 -12.153  0.00  0.00     0.041 A 
ATOM     26  N   UNK d   0      -1.884   3.492 -11.885  0.00  0.00    -0.355 N 
ATOM     27  C   UNK d   0      -3.873   4.026 -12.796  0.00  0.00    -0.022 A 
ATOM     28  C   UNK d   0      -2.480   2.376 -12.332  0.00  0.00     0.042 A 
ATOM     29  H   UNK d   0      -0.876   3.565 -11.409  0.00  0.00     0.166 HD
ATOM     30  C   UNK d   0      -2.065   1.035 -12.306  0.00  0.00     0.062 C 
ATOM     31  C   UNK d   0      -3.735   2.677 -12.912  0.00  0.00    -0.013 A 
ATOM     32  C   UNK d   0      -1.414   0.361 -11.285  0.00  0.00     0.066 A 
BRANCH   8  33
ATOM     33  C   UNK d   0       0.159  -2.271  -9.256  0.00  0.00     0.151 C 
BRANCH  33  34
ATOM     34  C   UNK d   0      -0.760  -2.909  -8.297  0.00  0.00     0.143 C 
ATOM     35  O   UNK d   0      -0.994  -2.389  -7.197  0.00  0.00    -0.650 OA
BRANCH  34  36
ATOM     36  O   UNK d   0      -1.364  -4.099  -8.630  0.00  0.00    -0.776 OA
ATOM     37  H   UNK d   0      -0.834  -4.981  -8.650  0.00  0.00     0.167 HD
ENDBRANCH  34  36
ENDBRANCH  33  34
ENDBRANCH   8  33
BRANCH  31  38
ATOM     38  C   UNK d   0      -4.738   1.728 -13.525  0.00  0.00     0.151 C 
BRANCH  38  39
ATOM     39  C   UNK d   0      -4.722   1.751 -14.972  0.00  0.00     0.143 C 
ATOM     40  O   UNK d   0      -5.708   2.106 -15.643  0.00  0.00    -0.650 OA
BRANCH  39  41
ATOM     41  O   UNK d   0      -3.567   1.366 -15.652  0.00  0.00    -0.776 OA
ATOM     42  H   UNK d   0      -2.891   2.104 -15.868  0.00  0.00     0.167 HD
ENDBRANCH  39  41
ENDBRANCH  38  39
ENDBRANCH  31  38
BRANCH  27  43
ATOM     43  C   UNK d   0      -5.079   4.784 -13.292  0.00  0.00     0.052 C 
BRANCH  43  44
ATOM     44  C   UNK d   0      -6.277   4.632 -12.411  0.00  0.00     0.115 C 
BRANCH  44  45
ATOM     45  C   UNK d   0      -7.458   4.556 -13.310  0.00  0.00     0.139 C 
ATOM     46  O   UNK d   0      -8.587   4.821 -12.828  0.00  0.00    -0.650 OA
BRANCH  45  47
ATOM     47  O   UNK d   0      -7.363   4.213 -14.642  0.00  0.00    -0.776 OA
ATOM     48  H   UNK d   0      -6.459   4.123 -15.134  0.00  0.00     0.167 HD
ENDBRANCH  45  47
ENDBRANCH  44  45
ENDBRANCH  43  44
ENDBRANCH  27  43
BRANCH  24  49
ATOM     49  C   UNK d   0      -2.521   9.057 -10.873  0.00  0.00     0.052 C 
BRANCH  49  50
ATOM     50  C   UNK d   0      -4.026   9.045 -10.948  0.00  0.00     0.115 C 
BRANCH  50  51
ATOM     51  C   UNK d   0      -4.664  10.129 -11.683  0.00  0.00     0.139 C 
ATOM     52  O   UNK d   0      -4.165  10.629 -12.719  0.00  0.00    -0.650 OA
BRANCH  51  53
ATOM     53  O   UNK d   0      -5.871  10.644 -11.236  0.00  0.00    -0.776 OA
ATOM     54  H   UNK d   0      -6.650  10.016 -11.141  0.00  0.00     0.167 HD
ENDBRANCH  51  53
ENDBRANCH  50  51
ENDBRANCH  49  50
ENDBRANCH  24  49
BRANCH  21  55
ATOM     55  C   UNK d   0      -1.209   8.904  -8.080  0.00  0.00     0.151 C 
BRANCH  55  56
ATOM     56  C   UNK d   0      -2.329   9.146  -7.158  0.00  0.00     0.143 C 
ATOM     57  O   UNK d   0      -2.359   8.691  -5.998  0.00  0.00    -0.650 OA
BRANCH  56  58
ATOM     58  O   UNK d   0      -3.393   9.921  -7.618  0.00  0.00    -0.776 OA
ATOM     59  H   UNK d   0      -3.119  10.755  -8.168  0.00  0.00     0.167 HD
ENDBRANCH  56  58
ENDBRANCH  55  56
ENDBRANCH  21  55
BRANCH  18  60
ATOM     60  C   UNK d   0       2.060   4.972  -6.447  0.00  0.00     0.151 C 
BRANCH  60  61
ATOM     61  C   UNK d   0       3.300   4.781  -7.215  0.00  0.00     0.143 C 
ATOM     62  O   UNK d   0       3.424   4.796  -8.440  0.00  0.00    -0.650 OA
BRANCH  61  63
ATOM     63  O   UNK d   0       4.462   4.558  -6.438  0.00  0.00    -0.776 OA
ATOM     64  H   UNK d   0       5.379   4.659  -6.835  0.00  0.00     0.167 HD
ENDBRANCH  61  63
ENDBRANCH  60  61
ENDBRANCH  18  60
BRANCH  14  65
ATOM     65  C   UNK d   0       2.336   1.952  -6.560  0.00  0.00     0.052 C 
BRANCH  65  66
ATOM     66  C   UNK d   0       3.212   1.306  -7.574  0.00  0.00     0.115 C 
BRANCH  66  67
ATOM     67  C   UNK d   0       4.590   1.697  -7.677  0.00  0.00     0.139 C 
ATOM     68  O   UNK d   0       5.386   1.401  -6.711  0.00  0.00    -0.650 OA
BRANCH  67  69
ATOM     69  O   UNK d   0       5.206   2.383  -8.723  0.00  0.00    -0.776 OA
ATOM     70  H   UNK d   0       5.512   1.804  -9.519  0.00  0.00     0.167 HD
ENDBRANCH  67  69
ENDBRANCH  66  67
ENDBRANCH  65  66
ENDBRANCH  14  65
ENDBRANCH   6   7
ENDBRANCH   5   6
ENDBRANCH   2   5
TORSDOF 28
ENDMDL
MODEL 16
REMARK VINA RESULT:      -8.9      2.681      6.736
REMARK  28 active torsions:
REMARK  status: ('A' for Active; 'I' for Inactive)
REMARK    1  A    between atoms: C_2  and  O_3 
REMARK    2  A    between atoms: C_2  and  C_4 
REMARK    3  A    between atoms: C_4  and  C_5 
REMARK    4  A    between atoms: C_5  and  C_6 
REMARK    5  A    between atoms: C_7  and  C_8 
REMARK    6  A    between atoms: C_8  and  C_9 
REMARK    7  A    between atoms: C_9  and  O_11 
REMARK    8  A    between atoms: C_28  and  C_29 
REMARK    9  A    between atoms: C_29  and  C_30 
REMARK   10  A    between atoms: C_30  and  O_32 
REMARK   11  A    between atoms: C_33  and  C_34 
REMARK   12  A    between atoms: C_34  and  C_35 
REMARK   13  A    between atoms: C_35  and  C_36 
REMARK   14  A    between atoms: C_36  and  O_38 
REMARK   15  A    between atoms: C_39  and  C_40 
REMARK   16  A    between atoms: C_40  and  C_41 
REMARK   17  A    between atoms: C_41  and  C_42 
REMARK   18  A    between atoms: C_42  and  O_44 
REMARK   19  A    between atoms: C_45  and  C_46 
REMARK   20  A    between atoms: C_46  and  C_47 
REMARK   21  A    between atoms: C_47  and  O_49 
REMARK   22  A    between atoms: C_50  and  C_51 
REMARK   23  A    between atoms: C_51  and  C_52 
REMARK   24  A    between atoms: C_52  and  O_54 
REMARK   25  A    between atoms: C_55  and  C_56 
REMARK   26  A    between atoms: C_56  and  C_57 
REMARK   27  A    between atoms: C_57  and  C_58 
REMARK   28  A    between atoms: C_58  and  O_60 
ROOT
ATOM      1  O   UNK d   0      -3.188   7.961  -8.032  0.00  0.00    -0.650 OA
ATOM      2  C   UNK d   0      -2.580   6.872  -7.933  0.00  0.00     0.139 C 
ENDROOT
BRANCH   2   3
ATOM      3  O   UNK d   0      -3.296   5.715  -7.745  0.00  0.00    -0.776 OA
ATOM      4  H   UNK d   0      -4.235   5.607  -8.134  0.00  0.00     0.167 HD
ENDBRANCH   2   3
BRANCH   2   5
ATOM      5  C   UNK d   0      -1.092   6.836  -8.018  0.00  0.00     0.115 C 
BRANCH   5   6
ATOM      6  C   UNK d   0      -0.663   6.297  -9.356  0.00  0.00     0.052 C 
BRANCH   6   7
ATOM      7  C   UNK d   0      -0.336   4.824  -9.311  0.00  0.00    -0.020 A 
ATOM      8  C   UNK d   0       0.740   4.259  -8.826  0.00  0.00    -0.011 A 
ATOM      9  C   UNK d   0       0.613   2.824  -9.013  0.00  0.00     0.067 A 
ATOM     10  C   UNK d   0       1.381   1.690  -8.705  0.00  0.00     0.062 C 
ATOM     11  N   UNK d   0      -0.570   2.603  -9.625  0.00  0.00    -0.248 NA
ATOM     12  C   UNK d   0       0.964   0.355  -8.715  0.00  0.00     0.041 A 
ATOM     13  N   UNK d   0       0.204  -0.330  -9.591  0.00  0.00    -0.355 N 
ATOM     14  C   UNK d   0       1.308  -0.474  -7.632  0.00  0.00    -0.022 A 
ATOM     15  C   UNK d   0       0.051  -1.569  -9.087  0.00  0.00     0.042 A 
ATOM     16  H   UNK d   0      -0.200   0.049 -10.555  0.00  0.00     0.166 HD
ATOM     17  C   UNK d   0      -0.647  -2.682  -9.597  0.00  0.00     0.062 C 
ATOM     18  C   UNK d   0       0.729  -1.697  -7.860  0.00  0.00    -0.013 A 
ATOM     19  C   UNK d   0      -1.900  -2.734 -10.152  0.00  0.00     0.067 A 
ATOM     20  N   UNK d   0      -2.482  -1.567 -10.442  0.00  0.00    -0.248 NA
ATOM     21  C   UNK d   0      -2.835  -3.783 -10.524  0.00  0.00    -0.011 A 
ATOM     22  C   UNK d   0      -3.730  -1.777 -10.975  0.00  0.00     0.066 A 
ATOM     23  C   UNK d   0      -4.434  -0.645 -11.359  0.00  0.00     0.062 C 
ATOM     24  C   UNK d   0      -3.906  -3.216 -11.001  0.00  0.00    -0.020 A 
ATOM     25  C   UNK d   0      -3.992   0.687 -11.353  0.00  0.00     0.041 A 
ATOM     26  N   UNK d   0      -3.249   1.372 -10.475  0.00  0.00    -0.355 N 
ATOM     27  C   UNK d   0      -4.334   1.517 -12.443  0.00  0.00    -0.022 A 
ATOM     28  C   UNK d   0      -3.102   2.611 -10.970  0.00  0.00     0.042 A 
ATOM     29  H   UNK d   0      -2.852   0.992  -9.501  0.00  0.00     0.166 HD
ATOM     30  C   UNK d   0      -2.419   3.730 -10.470  0.00  0.00     0.062 C 
ATOM     31  C   UNK d   0      -3.775   2.735 -12.209  0.00  0.00    -0.013 A 
ATOM     32  C   UNK d   0      -1.189   3.766  -9.832  0.00  0.00     0.066 A 
BRANCH   8  33
ATOM     33  C   UNK d   0       1.891   4.938  -8.202  0.00  0.00     0.151 C 
BRANCH  33  34
ATOM     34  C   UNK d   0       1.960   4.722  -6.746  0.00  0.00     0.143 C 
ATOM     35  O   UNK d   0       0.954   4.389  -6.103  0.00  0.00    -0.650 OA
BRANCH  34  36
ATOM     36  O   UNK d   0       3.159   4.893  -6.093  0.00  0.00    -0.776 OA
ATOM     37  H   UNK d   0       3.758   4.091  -5.856  0.00  0.00     0.167 HD
ENDBRANCH  34  36
ENDBRANCH  33  34
ENDBRANCH   8  33
BRANCH  31  38
ATOM     38  C   UNK d   0      -3.862   3.944 -13.112  0.00  0.00     0.151 C 
BRANCH  38  39
ATOM     39  C   UNK d   0      -4.996   4.791 -12.810  0.00  0.00     0.143 C 
ATOM     40  O   UNK d   0      -5.210   5.856 -13.414  0.00  0.00    -0.650 OA
BRANCH  39  41
ATOM     41  O   UNK d   0      -5.888   4.411 -11.808  0.00  0.00    -0.776 OA
ATOM     42  H   UNK d   0      -6.729   3.905 -12.106  0.00  0.00     0.167 HD
ENDBRANCH  39  41
ENDBRANCH  38  39
ENDBRANCH  31  38
BRANCH  27  43
ATOM     43  C   UNK d   0      -5.156   1.200 -13.667  0.00  0.00     0.052 C 
BRANCH  43  44
ATOM     44  C   UNK d   0      -4.509   1.634 -14.942  0.00  0.00     0.115 C 
BRANCH  44  45
ATOM     45  C   UNK d   0      -5.601   2.101 -15.835  0.00  0.00     0.139 C 
ATOM     46  O   UNK d   0      -6.606   2.641 -15.309  0.00  0.00    -0.650 OA
BRANCH  45  47
ATOM     47  O   UNK d   0      -5.553   1.970 -17.206  0.00  0.00    -0.776 OA
ATOM     48  H   UNK d   0      -4.712   1.641 -17.708  0.00  0.00     0.167 HD
ENDBRANCH  45  47
ENDBRANCH  44  45
ENDBRANCH  43  44
ENDBRANCH  27  43
BRANCH  24  49
ATOM     49  C   UNK d   0      -5.092  -3.908 -11.533  0.00  0.00     0.052 C 
BRANCH  49  50
ATOM     50  C   UNK d   0      -6.339  -3.420 -10.841  0.00  0.00     0.115 C 
BRANCH  50  51
ATOM     51  C   UNK d   0      -6.946  -4.308  -9.859  0.00  0.00     0.139 C 
ATOM     52  O   UNK d   0      -7.726  -3.899  -8.967  0.00  0.00    -0.650 OA
BRANCH  51  53
ATOM     53  O   UNK d   0      -6.663  -5.665  -9.894  0.00  0.00    -0.776 OA
ATOM     54  H   UNK d   0      -7.128  -6.231 -10.581  0.00  0.00     0.167 HD
ENDBRANCH  51  53
ENDBRANCH  50  51
ENDBRANCH  49  50
ENDBRANCH  24  49
BRANCH  21  55
ATOM     55  C   UNK d   0      -2.560  -5.241 -10.368  0.00  0.00     0.151 C 
BRANCH  55  56
ATOM     56  C   UNK d   0      -2.863  -5.717  -9.009  0.00  0.00     0.143 C 
ATOM     57  O   UNK d   0      -3.975  -6.179  -8.688  0.00  0.00    -0.650 OA
BRANCH  56  58
ATOM     58  O   UNK d   0      -1.850  -5.641  -8.054  0.00  0.00    -0.776 OA
ATOM     59  H   UNK d   0      -1.085  -4.982  -8.282  0.00  0.00     0.167 HD
ENDBRANCH  56  58
ENDBRANCH  55  56
ENDBRANCH  21  55
BRANCH  18  60
ATOM     60  C   UNK d   0       0.835  -2.889  -6.940  0.00  0.00     0.151 C 
BRANCH  60  61
ATOM     61  C   UNK d   0      -0.384  -2.873  -6.117  0.00  0.00     0.143 C 
ATOM     62  O   UNK d   0      -1.131  -3.823  -5.880  0.00  0.00    -0.650 OA
BRANCH  61  63
ATOM     63  O   UNK d   0      -0.710  -1.619  -5.547  0.00  0.00    -0.776 OA
ATOM     64  H   UNK d   0      -0.179  -1.244  -4.781  0.00  0.00     0.167 HD
ENDBRANCH  61  63
ENDBRANCH  60  61
ENDBRANCH  18  60
BRANCH  14  65
ATOM     65  C   UNK d   0       2.215  -0.229  -6.459  0.00  0.00     0.052 C 
BRANCH  65  66
ATOM     66  C   UNK d   0       2.850   1.116  -6.486  0.00  0.00     0.115 C 
BRANCH  66  67
ATOM     67  C   UNK d   0       4.269   1.230  -6.677  0.00  0.00     0.139 C 
ATOM     68  O   UNK d   0       4.717   1.375  -7.873  0.00  0.00    -0.650 OA
BRANCH  67  69
ATOM     69  O   UNK d   0       5.265   1.203  -5.702  0.00  0.00    -0.776 OA
ATOM     70  H   UNK d   0       4.965   0.910  -4.761  0.00  0.00     0.167 HD
ENDBRANCH  67  69
ENDBRANCH  66  67
ENDBRANCH  65  66
ENDBRANCH  14  65
ENDBRANCH   6   7
ENDBRANCH   5   6
ENDBRANCH   2   5
TORSDOF 28
ENDMDL
MODEL 17
REMARK VINA RESULT:      -8.9      1.738      8.389
REMARK  28 active torsions:
REMARK  status: ('A' for Active; 'I' for Inactive)
REMARK    1  A    between atoms: C_2  and  O_3 
REMARK    2  A    between atoms: C_2  and  C_4 
REMARK    3  A    between atoms: C_4  and  C_5 
REMARK    4  A    between atoms: C_5  and  C_6 
REMARK    5  A    between atoms: C_7  and  C_8 
REMARK    6  A    between atoms: C_8  and  C_9 
REMARK    7  A    between atoms: C_9  and  O_11 
REMARK    8  A    between atoms: C_28  and  C_29 
REMARK    9  A    between atoms: C_29  and  C_30 
REMARK   10  A    between atoms: C_30  and  O_32 
REMARK   11  A    between atoms: C_33  and  C_34 
REMARK   12  A    between atoms: C_34  and  C_35 
REMARK   13  A    between atoms: C_35  and  C_36 
REMARK   14  A    between atoms: C_36  and  O_38 
REMARK   15  A    between atoms: C_39  and  C_40 
REMARK   16  A    between atoms: C_40  and  C_41 
REMARK   17  A    between atoms: C_41  and  C_42 
REMARK   18  A    between atoms: C_42  and  O_44 
REMARK   19  A    between atoms: C_45  and  C_46 
REMARK   20  A    between atoms: C_46  and  C_47 
REMARK   21  A    between atoms: C_47  and  O_49 
REMARK   22  A    between atoms: C_50  and  C_51 
REMARK   23  A    between atoms: C_51  and  C_52 
REMARK   24  A    between atoms: C_52  and  O_54 
REMARK   25  A    between atoms: C_55  and  C_56 
REMARK   26  A    between atoms: C_56  and  C_57 
REMARK   27  A    between atoms: C_57  and  C_58 
REMARK   28  A    between atoms: C_58  and  O_60 
ROOT
ATOM      1  O   UNK d   0      -5.211  11.893 -12.179  0.00  0.00    -0.650 OA
ATOM      2  C   UNK d   0      -4.744  10.769 -12.468  0.00  0.00     0.139 C 
ENDROOT
BRANCH   2   3
ATOM      3  O   UNK d   0      -3.412  10.655 -12.785  0.00  0.00    -0.776 OA
ATOM      4  H   UNK d   0      -3.115  10.355 -13.716  0.00  0.00     0.167 HD
ENDBRANCH   2   3
BRANCH   2   5
ATOM      5  C   UNK d   0      -5.627   9.568 -12.468  0.00  0.00     0.115 C 
BRANCH   5   6
ATOM      6  C   UNK d   0      -5.154   8.578 -13.497  0.00  0.00     0.052 C 
BRANCH   6   7
ATOM      7  C   UNK d   0      -4.930   7.201 -12.919  0.00  0.00    -0.020 A 
ATOM      8  C   UNK d   0      -5.632   6.119 -13.140  0.00  0.00    -0.011 A 
ATOM      9  C   UNK d   0      -5.046   5.042 -12.360  0.00  0.00     0.067 A 
ATOM     10  C   UNK d   0      -5.298   3.674 -12.172  0.00  0.00     0.062 C 
ATOM     11  N   UNK d   0      -3.995   5.559 -11.689  0.00  0.00    -0.248 NA
ATOM     12  C   UNK d   0      -4.448   2.728 -11.589  0.00  0.00     0.041 A 
ATOM     13  N   UNK d   0      -3.671   2.791 -10.492  0.00  0.00    -0.355 N 
ATOM     14  C   UNK d   0      -4.276   1.485 -12.225  0.00  0.00    -0.022 A 
ATOM     15  C   UNK d   0      -3.004   1.624 -10.419  0.00  0.00     0.042 A 
ATOM     16  H   UNK d   0      -3.610   3.637  -9.771  0.00  0.00     0.166 HD
ATOM     17  C   UNK d   0      -2.066   1.165  -9.473  0.00  0.00     0.062 C 
ATOM     18  C   UNK d   0      -3.357   0.779 -11.489  0.00  0.00    -0.013 A 
ATOM     19  C   UNK d   0      -0.999   1.829  -8.924  0.00  0.00     0.067 A 
ATOM     20  N   UNK d   0      -0.927   3.145  -9.145  0.00  0.00    -0.248 NA
ATOM     21  C   UNK d   0       0.159   1.466  -8.125  0.00  0.00    -0.011 A 
ATOM     22  C   UNK d   0       0.195   3.667  -8.550  0.00  0.00     0.066 A 
ATOM     23  C   UNK d   0       0.375   5.037  -8.669  0.00  0.00     0.062 C 
ATOM     24  C   UNK d   0       0.856   2.545  -7.913  0.00  0.00    -0.020 A 
ATOM     25  C   UNK d   0      -0.497   5.972  -9.248  0.00  0.00     0.041 A 
ATOM     26  N   UNK d   0      -1.259   5.915 -10.347  0.00  0.00    -0.355 N 
ATOM     27  C   UNK d   0      -0.673   7.218  -8.606  0.00  0.00    -0.022 A 
ATOM     28  C   UNK d   0      -1.918   7.081 -10.426  0.00  0.00     0.042 A 
ATOM     29  H   UNK d   0      -1.311   5.068 -11.075  0.00  0.00     0.166 HD
ATOM     30  C   UNK d   0      -2.847   7.554 -11.367  0.00  0.00     0.062 C 
ATOM     31  C   UNK d   0      -1.571   7.925  -9.345  0.00  0.00    -0.013 A 
ATOM     32  C   UNK d   0      -3.872   6.854 -11.983  0.00  0.00     0.066 A 
BRANCH   8  33
ATOM     33  C   UNK d   0      -6.812   5.993 -14.015  0.00  0.00     0.151 C 
BRANCH  33  34
ATOM     34  C   UNK d   0      -8.082   6.173 -13.289  0.00  0.00     0.143 C 
ATOM     35  O   UNK d   0      -8.614   7.290 -13.205  0.00  0.00    -0.650 OA
BRANCH  34  36
ATOM     36  O   UNK d   0      -8.682   5.086 -12.696  0.00  0.00    -0.776 OA
ATOM     37  H   UNK d   0      -9.403   4.540 -13.187  0.00  0.00     0.167 HD
ENDBRANCH  34  36
ENDBRANCH  33  34
ENDBRANCH   8  33
BRANCH  31  38
ATOM     38  C   UNK d   0      -2.080   9.314  -9.038  0.00  0.00     0.151 C 
BRANCH  38  39
ATOM     39  C   UNK d   0      -3.053   9.331  -7.966  0.00  0.00     0.143 C 
ATOM     40  O   UNK d   0      -3.030  10.183  -7.060  0.00  0.00    -0.650 OA
BRANCH  39  41
ATOM     41  O   UNK d   0      -4.057   8.364  -7.935  0.00  0.00    -0.776 OA
ATOM     42  H   UNK d   0      -3.757   7.385  -7.973  0.00  0.00     0.167 HD
ENDBRANCH  39  41
ENDBRANCH  38  39
ENDBRANCH  31  38
BRANCH  27  43
ATOM     43  C   UNK d   0      -0.032   7.747  -7.348  0.00  0.00     0.052 C 
BRANCH  43  44
ATOM     44  C   UNK d   0      -0.346   6.931  -6.136  0.00  0.00     0.115 C 
BRANCH  44  45
ATOM     45  C   UNK d   0      -1.816   7.021  -5.934  0.00  0.00     0.139 C 
ATOM     46  O   UNK d   0      -2.536   6.112  -6.417  0.00  0.00    -0.650 OA
BRANCH  45  47
ATOM     47  O   UNK d   0      -2.413   8.050  -5.239  0.00  0.00    -0.776 OA
ATOM     48  H   UNK d   0      -2.940   8.807  -5.702  0.00  0.00     0.167 HD
ENDBRANCH  45  47
ENDBRANCH  44  45
ENDBRANCH  43  44
ENDBRANCH  27  43
BRANCH  24  49
ATOM     49  C   UNK d   0       2.091   2.638  -7.116  0.00  0.00     0.052 C 
BRANCH  49  50
ATOM     50  C   UNK d   0       3.261   2.092  -7.894  0.00  0.00     0.115 C 
BRANCH  50  51
ATOM     51  C   UNK d   0       4.375   1.552  -7.127  0.00  0.00     0.139 C 
ATOM     52  O   UNK d   0       4.248   1.132  -5.952  0.00  0.00    -0.650 OA
BRANCH  51  53
ATOM     53  O   UNK d   0       5.637   1.492  -7.699  0.00  0.00    -0.776 OA
ATOM     54  H   UNK d   0       6.228   0.714  -7.466  0.00  0.00     0.167 HD
ENDBRANCH  51  53
ENDBRANCH  50  51
ENDBRANCH  49  50
ENDBRANCH  24  49
BRANCH  21  55
ATOM     55  C   UNK d   0       0.446   0.079  -7.653  0.00  0.00     0.151 C 
BRANCH  55  56
ATOM     56  C   UNK d   0      -0.435  -0.320  -6.545  0.00  0.00     0.143 C 
ATOM     57  O   UNK d   0      -1.506  -0.932  -6.721  0.00  0.00    -0.650 OA
BRANCH  56  58
ATOM     58  O   UNK d   0      -0.038   0.009  -5.250  0.00  0.00    -0.776 OA
ATOM     59  H   UNK d   0       0.846  -0.432  -4.939  0.00  0.00     0.167 HD
ENDBRANCH  56  58
ENDBRANCH  55  56
ENDBRANCH  21  55
BRANCH  18  60
ATOM     60  C   UNK d   0      -2.868  -0.610 -11.819  0.00  0.00     0.151 C 
BRANCH  60  61
ATOM     61  C   UNK d   0      -3.941  -1.525 -11.402  0.00  0.00     0.143 C 
ATOM     62  O   UNK d   0      -4.373  -2.495 -12.025  0.00  0.00    -0.650 OA
BRANCH  61  63
ATOM     63  O   UNK d   0      -4.524  -1.237 -10.144  0.00  0.00    -0.776 OA
ATOM     64  H   UNK d   0      -4.459  -1.888  -9.382  0.00  0.00     0.167 HD
ENDBRANCH  61  63
ENDBRANCH  60  61
ENDBRANCH  18  60
BRANCH  14  65
ATOM     65  C   UNK d   0      -4.980   0.882 -13.408  0.00  0.00     0.052 C 
BRANCH  65  66
ATOM     66  C   UNK d   0      -4.674   1.581 -14.685  0.00  0.00     0.115 C 
BRANCH  66  67
ATOM     67  C   UNK d   0      -5.687   1.688 -15.697  0.00  0.00     0.139 C 
ATOM     68  O   UNK d   0      -6.899   1.393 -15.386  0.00  0.00    -0.650 OA
BRANCH  67  69
ATOM     69  O   UNK d   0      -5.528   2.085 -17.024  0.00  0.00    -0.776 OA
ATOM     70  H   UNK d   0      -5.735   3.074 -17.224  0.00  0.00     0.167 HD
ENDBRANCH  67  69
ENDBRANCH  66  67
ENDBRANCH  65  66
ENDBRANCH  14  65
ENDBRANCH   6   7
ENDBRANCH   5   6
ENDBRANCH   2   5
TORSDOF 28
ENDMDL
MODEL 18
REMARK VINA RESULT:      -8.9     29.091     32.788
REMARK  28 active torsions:
REMARK  status: ('A' for Active; 'I' for Inactive)
REMARK    1  A    between atoms: C_2  and  O_3 
REMARK    2  A    between atoms: C_2  and  C_4 
REMARK    3  A    between atoms: C_4  and  C_5 
REMARK    4  A    between atoms: C_5  and  C_6 
REMARK    5  A    between atoms: C_7  and  C_8 
REMARK    6  A    between atoms: C_8  and  C_9 
REMARK    7  A    between atoms: C_9  and  O_11 
REMARK    8  A    between atoms: C_28  and  C_29 
REMARK    9  A    between atoms: C_29  and  C_30 
REMARK   10  A    between atoms: C_30  and  O_32 
REMARK   11  A    between atoms: C_33  and  C_34 
REMARK   12  A    between atoms: C_34  and  C_35 
REMARK   13  A    between atoms: C_35  and  C_36 
REMARK   14  A    between atoms: C_36  and  O_38 
REMARK   15  A    between atoms: C_39  and  C_40 
REMARK   16  A    between atoms: C_40  and  C_41 
REMARK   17  A    between atoms: C_41  and  C_42 
REMARK   18  A    between atoms: C_42  and  O_44 
REMARK   19  A    between atoms: C_45  and  C_46 
REMARK   20  A    between atoms: C_46  and  C_47 
REMARK   21  A    between atoms: C_47  and  O_49 
REMARK   22  A    between atoms: C_50  and  C_51 
REMARK   23  A    between atoms: C_51  and  C_52 
REMARK   24  A    between atoms: C_52  and  O_54 
REMARK   25  A    between atoms: C_55  and  C_56 
REMARK   26  A    between atoms: C_56  and  C_57 
REMARK   27  A    between atoms: C_57  and  C_58 
REMARK   28  A    between atoms: C_58  and  O_60 
ROOT
ATOM      1  O   UNK d   0     -29.964  12.395   7.801  0.00  0.00    -0.650 OA
ATOM      2  C   UNK d   0     -29.817  11.707   6.767  0.00  0.00     0.139 C 
ENDROOT
BRANCH   2   3
ATOM      3  O   UNK d   0     -30.276  10.412   6.748  0.00  0.00    -0.776 OA
ATOM      4  H   UNK d   0     -30.362   9.895   5.870  0.00  0.00     0.167 HD
ENDBRANCH   2   3
BRANCH   2   5
ATOM      5  C   UNK d   0     -29.147  12.290   5.569  0.00  0.00     0.115 C 
BRANCH   5   6
ATOM      6  C   UNK d   0     -27.800  11.651   5.367  0.00  0.00     0.052 C 
BRANCH   6   7
ATOM      7  C   UNK d   0     -26.840  11.949   6.494  0.00  0.00    -0.020 A 
ATOM      8  C   UNK d   0     -26.274  11.095   7.307  0.00  0.00    -0.011 A 
ATOM      9  C   UNK d   0     -25.439  11.846   8.230  0.00  0.00     0.067 A 
ATOM     10  C   UNK d   0     -24.579  11.539   9.297  0.00  0.00     0.062 C 
ATOM     11  N   UNK d   0     -25.561  13.151   7.910  0.00  0.00    -0.248 NA
ATOM     12  C   UNK d   0     -23.637  12.383   9.895  0.00  0.00     0.041 A 
ATOM     13  N   UNK d   0     -23.709  13.680  10.253  0.00  0.00    -0.355 N 
ATOM     14  C   UNK d   0     -22.346  11.888  10.153  0.00  0.00    -0.022 A 
ATOM     15  C   UNK d   0     -22.495  14.021  10.724  0.00  0.00     0.042 A 
ATOM     16  H   UNK d   0     -24.606  14.335  10.192  0.00  0.00     0.166 HD
ATOM     17  C   UNK d   0     -22.024  15.249  11.230  0.00  0.00     0.062 C 
ATOM     18  C   UNK d   0     -21.614  12.924  10.677  0.00  0.00    -0.013 A 
ATOM     19  C   UNK d   0     -22.206  16.514  10.732  0.00  0.00     0.067 A 
ATOM     20  N   UNK d   0     -23.104  16.655   9.754  0.00  0.00    -0.248 NA
ATOM     21  C   UNK d   0     -21.641  17.828  10.987  0.00  0.00    -0.011 A 
ATOM     22  C   UNK d   0     -23.166  17.966   9.349  0.00  0.00     0.066 A 
ATOM     23  C   UNK d   0     -24.090  18.262   8.358  0.00  0.00     0.062 C 
ATOM     24  C   UNK d   0     -22.204  18.673  10.172  0.00  0.00    -0.020 A 
ATOM     25  C   UNK d   0     -25.036  17.402   7.780  0.00  0.00     0.041 A 
ATOM     26  N   UNK d   0     -24.960  16.118   7.410  0.00  0.00    -0.355 N 
ATOM     27  C   UNK d   0     -26.333  17.899   7.525  0.00  0.00    -0.022 A 
ATOM     28  C   UNK d   0     -26.167  15.778   6.931  0.00  0.00     0.042 A 
ATOM     29  H   UNK d   0     -24.055  15.464   7.462  0.00  0.00     0.166 HD
ATOM     30  C   UNK d   0     -26.647  14.563   6.416  0.00  0.00     0.062 C 
ATOM     31  C   UNK d   0     -27.055  16.878   6.989  0.00  0.00    -0.013 A 
ATOM     32  C   UNK d   0     -26.390  13.280   6.873  0.00  0.00     0.066 A 
BRANCH   8  33
ATOM     33  C   UNK d   0     -26.442   9.630   7.310  0.00  0.00     0.151 C 
BRANCH  33  34
ATOM     34  C   UNK d   0     -27.507   9.179   8.223  0.00  0.00     0.143 C 
ATOM     35  O   UNK d   0     -28.038   9.967   9.019  0.00  0.00    -0.650 OA
BRANCH  34  36
ATOM     36  O   UNK d   0     -27.914   7.866   8.190  0.00  0.00    -0.776 OA
ATOM     37  H   UNK d   0     -27.233   7.097   8.128  0.00  0.00     0.167 HD
ENDBRANCH  34  36
ENDBRANCH  33  34
ENDBRANCH   8  33
BRANCH  31  38
ATOM     38  C   UNK d   0     -28.505  16.936   6.568  0.00  0.00     0.151 C 
BRANCH  38  39
ATOM     39  C   UNK d   0     -29.364  16.115   7.394  0.00  0.00     0.143 C 
ATOM     40  O   UNK d   0     -30.388  15.566   6.951  0.00  0.00    -0.650 OA
BRANCH  39  41
ATOM     41  O   UNK d   0     -29.042  15.921   8.738  0.00  0.00    -0.776 OA
ATOM     42  H   UNK d   0     -28.474  15.099   8.963  0.00  0.00     0.167 HD
ENDBRANCH  39  41
ENDBRANCH  38  39
ENDBRANCH  31  38
BRANCH  27  43
ATOM     43  C   UNK d   0     -26.895  19.278   7.765  0.00  0.00     0.052 C 
BRANCH  43  44
ATOM     44  C   UNK d   0     -28.077  19.283   8.680  0.00  0.00     0.115 C 
BRANCH  44  45
ATOM     45  C   UNK d   0     -27.561  18.990  10.042  0.00  0.00     0.139 C 
ATOM     46  O   UNK d   0     -28.171  18.137  10.735  0.00  0.00    -0.650 OA
BRANCH  45  47
ATOM     47  O   UNK d   0     -26.447  19.607  10.568  0.00  0.00    -0.776 OA
ATOM     48  H   UNK d   0     -26.019  20.446  10.145  0.00  0.00     0.167 HD
ENDBRANCH  45  47
ENDBRANCH  44  45
ENDBRANCH  43  44
ENDBRANCH  27  43
BRANCH  24  49
ATOM     49  C   UNK d   0     -21.953  20.123  10.114  0.00  0.00     0.052 C 
BRANCH  49  50
ATOM     50  C   UNK d   0     -22.888  20.854  11.044  0.00  0.00     0.115 C 
BRANCH  50  51
ATOM     51  C   UNK d   0     -22.283  21.696  12.067  0.00  0.00     0.139 C 
ATOM     52  O   UNK d   0     -21.843  21.238  13.148  0.00  0.00    -0.650 OA
BRANCH  51  53
ATOM     53  O   UNK d   0     -22.183  23.063  11.859  0.00  0.00    -0.776 OA
ATOM     54  H   UNK d   0     -21.394  23.547  12.251  0.00  0.00     0.167 HD
ENDBRANCH  51  53
ENDBRANCH  50  51
ENDBRANCH  49  50
ENDBRANCH  24  49
BRANCH  21  55
ATOM     55  C   UNK d   0     -20.601  18.104  12.022  0.00  0.00     0.151 C 
BRANCH  55  56
ATOM     56  C   UNK d   0     -19.356  17.365  11.763  0.00  0.00     0.143 C 
ATOM     57  O   UNK d   0     -18.772  16.697  12.639  0.00  0.00    -0.650 OA
BRANCH  56  58
ATOM     58  O   UNK d   0     -18.820  17.426  10.477  0.00  0.00    -0.776 OA
ATOM     59  H   UNK d   0     -18.391  18.335  10.226  0.00  0.00     0.167 HD
ENDBRANCH  56  58
ENDBRANCH  55  56
ENDBRANCH  21  55
BRANCH  18  60
ATOM     60  C   UNK d   0     -20.166  12.835  11.092  0.00  0.00     0.151 C 
BRANCH  60  61
ATOM     61  C   UNK d   0     -19.405  13.556  10.060  0.00  0.00     0.143 C 
ATOM     62  O   UNK d   0     -19.581  13.512   8.842  0.00  0.00    -0.650 OA
BRANCH  61  63
ATOM     63  O   UNK d   0     -18.365  14.384  10.546  0.00  0.00    -0.776 OA
ATOM     64  H   UNK d   0     -18.485  14.932  11.379  0.00  0.00     0.167 HD
ENDBRANCH  61  63
ENDBRANCH  60  61
ENDBRANCH  18  60
BRANCH  14  65
ATOM     65  C   UNK d   0     -21.787  10.498  10.035  0.00  0.00     0.052 C 
BRANCH  65  66
ATOM     66  C   UNK d   0     -21.712   9.788  11.340  0.00  0.00     0.115 C 
BRANCH  66  67
ATOM     67  C   UNK d   0     -22.842   9.808  12.227  0.00  0.00     0.139 C 
ATOM     68  O   UNK d   0     -23.900   9.162  11.887  0.00  0.00    -0.650 OA
BRANCH  67  69
ATOM     69  O   UNK d   0     -22.951  10.459  13.455  0.00  0.00    -0.776 OA
ATOM     70  H   UNK d   0     -22.233  11.172  13.649  0.00  0.00     0.167 HD
ENDBRANCH  67  69
ENDBRANCH  66  67
ENDBRANCH  65  66
ENDBRANCH  14  65
ENDBRANCH   6   7
ENDBRANCH   5   6
ENDBRANCH   2   5
TORSDOF 28
ENDMDL
MODEL 19
REMARK VINA RESULT:      -8.8     28.987     33.368
REMARK  28 active torsions:
REMARK  status: ('A' for Active; 'I' for Inactive)
REMARK    1  A    between atoms: C_2  and  O_3 
REMARK    2  A    between atoms: C_2  and  C_4 
REMARK    3  A    between atoms: C_4  and  C_5 
REMARK    4  A    between atoms: C_5  and  C_6 
REMARK    5  A    between atoms: C_7  and  C_8 
REMARK    6  A    between atoms: C_8  and  C_9 
REMARK    7  A    between atoms: C_9  and  O_11 
REMARK    8  A    between atoms: C_28  and  C_29 
REMARK    9  A    between atoms: C_29  and  C_30 
REMARK   10  A    between atoms: C_30  and  O_32 
REMARK   11  A    between atoms: C_33  and  C_34 
REMARK   12  A    between atoms: C_34  and  C_35 
REMARK   13  A    between atoms: C_35  and  C_36 
REMARK   14  A    between atoms: C_36  and  O_38 
REMARK   15  A    between atoms: C_39  and  C_40 
REMARK   16  A    between atoms: C_40  and  C_41 
REMARK   17  A    between atoms: C_41  and  C_42 
REMARK   18  A    between atoms: C_42  and  O_44 
REMARK   19  A    between atoms: C_45  and  C_46 
REMARK   20  A    between atoms: C_46  and  C_47 
REMARK   21  A    between atoms: C_47  and  O_49 
REMARK   22  A    between atoms: C_50  and  C_51 
REMARK   23  A    between atoms: C_51  and  C_52 
REMARK   24  A    between atoms: C_52  and  O_54 
REMARK   25  A    between atoms: C_55  and  C_56 
REMARK   26  A    between atoms: C_56  and  C_57 
REMARK   27  A    between atoms: C_57  and  C_58 
REMARK   28  A    between atoms: C_58  and  O_60 
ROOT
ATOM      1  O   UNK d   0     -23.333   8.909  10.825  0.00  0.00    -0.650 OA
ATOM      2  C   UNK d   0     -23.103   8.975   9.597  0.00  0.00     0.139 C 
ENDROOT
BRANCH   2   3
ATOM      3  O   UNK d   0     -21.806   8.896   9.149  0.00  0.00    -0.776 OA
ATOM      4  H   UNK d   0     -21.468   8.066   8.657  0.00  0.00     0.167 HD
ENDBRANCH   2   3
BRANCH   2   5
ATOM      5  C   UNK d   0     -24.228   9.139   8.633  0.00  0.00     0.115 C 
BRANCH   5   6
ATOM      6  C   UNK d   0     -25.397   9.802   9.309  0.00  0.00     0.052 C 
BRANCH   6   7
ATOM      7  C   UNK d   0     -25.548  11.252   8.919  0.00  0.00    -0.020 A 
ATOM      8  C   UNK d   0     -26.424  11.771   8.097  0.00  0.00    -0.011 A 
ATOM      9  C   UNK d   0     -26.178  13.201   8.028  0.00  0.00     0.067 A 
ATOM     10  C   UNK d   0     -26.756  14.298   7.369  0.00  0.00     0.062 C 
ATOM     11  N   UNK d   0     -25.130  13.467   8.836  0.00  0.00    -0.248 NA
ATOM     12  C   UNK d   0     -26.553  15.655   7.644  0.00  0.00     0.041 A 
ATOM     13  N   UNK d   0     -25.431  16.344   7.925  0.00  0.00    -0.355 N 
ATOM     14  C   UNK d   0     -27.668  16.509   7.712  0.00  0.00    -0.022 A 
ATOM     15  C   UNK d   0     -25.807  17.612   8.177  0.00  0.00     0.042 A 
ATOM     16  H   UNK d   0     -24.392  15.947   7.926  0.00  0.00     0.166 HD
ATOM     17  C   UNK d   0     -25.037  18.742   8.519  0.00  0.00     0.062 C 
ATOM     18  C   UNK d   0     -27.202  17.755   8.053  0.00  0.00    -0.013 A 
ATOM     19  C   UNK d   0     -24.014  18.846   9.427  0.00  0.00     0.067 A 
ATOM     20  N   UNK d   0     -23.530  17.705   9.925  0.00  0.00    -0.248 NA
ATOM     21  C   UNK d   0     -23.273  19.932  10.046  0.00  0.00    -0.011 A 
ATOM     22  C   UNK d   0     -22.527  17.967  10.827  0.00  0.00     0.066 A 
ATOM     23  C   UNK d   0     -21.907  16.865  11.395  0.00  0.00     0.062 C 
ATOM     24  C   UNK d   0     -22.408  19.411  10.868  0.00  0.00    -0.020 A 
ATOM     25  C   UNK d   0     -22.116  15.510  11.096  0.00  0.00     0.041 A 
ATOM     26  N   UNK d   0     -23.233  14.821  10.831  0.00  0.00    -0.355 N 
ATOM     27  C   UNK d   0     -20.995  14.653  11.024  0.00  0.00    -0.022 A 
ATOM     28  C   UNK d   0     -22.862  13.554  10.589  0.00  0.00     0.042 A 
ATOM     29  H   UNK d   0     -24.277  15.220  10.841  0.00  0.00     0.166 HD
ATOM     30  C   UNK d   0     -23.617  12.419  10.256  0.00  0.00     0.062 C 
ATOM     31  C   UNK d   0     -21.458  13.414  10.703  0.00  0.00    -0.013 A 
ATOM     32  C   UNK d   0     -24.705  12.336   9.402  0.00  0.00     0.066 A 
BRANCH   8  33
ATOM     33  C   UNK d   0     -27.477  11.051   7.357  0.00  0.00     0.151 C 
BRANCH  33  34
ATOM     34  C   UNK d   0     -28.811  11.211   7.963  0.00  0.00     0.143 C 
ATOM     35  O   UNK d   0     -29.095  10.656   9.034  0.00  0.00    -0.650 OA
BRANCH  34  36
ATOM     36  O   UNK d   0     -29.753  11.987   7.328  0.00  0.00    -0.776 OA
ATOM     37  H   UNK d   0     -29.710  12.156   6.314  0.00  0.00     0.167 HD
ENDBRANCH  34  36
ENDBRANCH  33  34
ENDBRANCH   8  33
BRANCH  31  38
ATOM     38  C   UNK d   0     -20.619  12.174  10.503  0.00  0.00     0.151 C 
BRANCH  38  39
ATOM     39  C   UNK d   0     -20.569  11.334  11.681  0.00  0.00     0.143 C 
ATOM     40  O   UNK d   0     -20.647  11.798  12.832  0.00  0.00    -0.650 OA
BRANCH  39  41
ATOM     41  O   UNK d   0     -20.429   9.954  11.535  0.00  0.00    -0.776 OA
ATOM     42  H   UNK d   0     -19.971   9.453  12.303  0.00  0.00     0.167 HD
ENDBRANCH  39  41
ENDBRANCH  38  39
ENDBRANCH  31  38
BRANCH  27  43
ATOM     43  C   UNK d   0     -19.536  14.964  11.247  0.00  0.00     0.052 C 
BRANCH  43  44
ATOM     44  C   UNK d   0     -18.782  15.200   9.978  0.00  0.00     0.115 C 
BRANCH  44  45
ATOM     45  C   UNK d   0     -17.809  14.084   9.848  0.00  0.00     0.139 C 
ATOM     46  O   UNK d   0     -17.320  13.855   8.715  0.00  0.00    -0.650 OA
BRANCH  45  47
ATOM     47  O   UNK d   0     -17.422  13.302  10.915  0.00  0.00    -0.776 OA
ATOM     48  H   UNK d   0     -17.536  12.276  10.928  0.00  0.00     0.167 HD
ENDBRANCH  45  47
ENDBRANCH  44  45
ENDBRANCH  43  44
ENDBRANCH  27  43
BRANCH  24  49
ATOM     49  C   UNK d   0     -21.424  20.151  11.676  0.00  0.00     0.052 C 
BRANCH  49  50
ATOM     50  C   UNK d   0     -21.860  20.199  13.118  0.00  0.00     0.115 C 
BRANCH  50  51
ATOM     51  C   UNK d   0     -22.715  21.308  13.518  0.00  0.00     0.139 C 
ATOM     52  O   UNK d   0     -22.647  22.441  12.984  0.00  0.00    -0.650 OA
BRANCH  51  53
ATOM     53  O   UNK d   0     -23.647  21.127  14.528  0.00  0.00    -0.776 OA
ATOM     54  H   UNK d   0     -23.319  20.823  15.428  0.00  0.00     0.167 HD
ENDBRANCH  51  53
ENDBRANCH  50  51
ENDBRANCH  49  50
ENDBRANCH  24  49
BRANCH  21  55
ATOM     55  C   UNK d   0     -23.505  21.377   9.750  0.00  0.00     0.151 C 
BRANCH  55  56
ATOM     56  C   UNK d   0     -22.900  21.781   8.472  0.00  0.00     0.143 C 
ATOM     57  O   UNK d   0     -23.576  22.044   7.458  0.00  0.00    -0.650 OA
BRANCH  56  58
ATOM     58  O   UNK d   0     -21.510  21.870   8.411  0.00  0.00    -0.776 OA
ATOM     59  H   UNK d   0     -21.141  22.375   7.585  0.00  0.00     0.167 HD
ENDBRANCH  56  58
ENDBRANCH  55  56
ENDBRANCH  21  55
BRANCH  18  60
ATOM     60  C   UNK d   0     -28.064  18.978   8.243  0.00  0.00     0.151 C 
BRANCH  60  61
ATOM     61  C   UNK d   0     -28.199  19.155   9.697  0.00  0.00     0.143 C 
ATOM     62  O   UNK d   0     -28.285  18.269  10.548  0.00  0.00    -0.650 OA
BRANCH  61  63
ATOM     63  O   UNK d   0     -28.230  20.500  10.140  0.00  0.00    -0.776 OA
ATOM     64  H   UNK d   0     -27.449  20.903  10.626  0.00  0.00     0.167 HD
ENDBRANCH  61  63
ENDBRANCH  60  61
ENDBRANCH  18  60
BRANCH  14  65
ATOM     65  C   UNK d   0     -29.114  16.263   7.385  0.00  0.00     0.052 C 
BRANCH  65  66
ATOM     66  C   UNK d   0     -29.496  16.753   6.033  0.00  0.00     0.115 C 
BRANCH  66  67
ATOM     67  C   UNK d   0     -30.723  17.478   5.860  0.00  0.00     0.139 C 
ATOM     68  O   UNK d   0     -30.673  18.656   5.346  0.00  0.00    -0.650 OA
BRANCH  67  69
ATOM     69  O   UNK d   0     -32.014  17.063   6.187  0.00  0.00    -0.776 OA
ATOM     70  H   UNK d   0     -32.745  17.288   5.498  0.00  0.00     0.167 HD
ENDBRANCH  67  69
ENDBRANCH  66  67
ENDBRANCH  65  66
ENDBRANCH  14  65
ENDBRANCH   6   7
ENDBRANCH   5   6
ENDBRANCH   2   5
TORSDOF 28
ENDMDL
MODEL 20
REMARK VINA RESULT:      -8.8     29.386     33.002
REMARK  28 active torsions:
REMARK  status: ('A' for Active; 'I' for Inactive)
REMARK    1  A    between atoms: C_2  and  O_3 
REMARK    2  A    between atoms: C_2  and  C_4 
REMARK    3  A    between atoms: C_4  and  C_5 
REMARK    4  A    between atoms: C_5  and  C_6 
REMARK    5  A    between atoms: C_7  and  C_8 
REMARK    6  A    between atoms: C_8  and  C_9 
REMARK    7  A    between atoms: C_9  and  O_11 
REMARK    8  A    between atoms: C_28  and  C_29 
REMARK    9  A    between atoms: C_29  and  C_30 
REMARK   10  A    between atoms: C_30  and  O_32 
REMARK   11  A    between atoms: C_33  and  C_34 
REMARK   12  A    between atoms: C_34  and  C_35 
REMARK   13  A    between atoms: C_35  and  C_36 
REMARK   14  A    between atoms: C_36  and  O_38 
REMARK   15  A    between atoms: C_39  and  C_40 
REMARK   16  A    between atoms: C_40  and  C_41 
REMARK   17  A    between atoms: C_41  and  C_42 
REMARK   18  A    between atoms: C_42  and  O_44 
REMARK   19  A    between atoms: C_45  and  C_46 
REMARK   20  A    between atoms: C_46  and  C_47 
REMARK   21  A    between atoms: C_47  and  O_49 
REMARK   22  A    between atoms: C_50  and  C_51 
REMARK   23  A    between atoms: C_51  and  C_52 
REMARK   24  A    between atoms: C_52  and  O_54 
REMARK   25  A    between atoms: C_55  and  C_56 
REMARK   26  A    between atoms: C_56  and  C_57 
REMARK   27  A    between atoms: C_57  and  C_58 
REMARK   28  A    between atoms: C_58  and  O_60 
ROOT
ATOM      1  O   UNK d   0     -29.334  12.427   7.600  0.00  0.00    -0.650 OA
ATOM      2  C   UNK d   0     -28.933  11.697   6.667  0.00  0.00     0.139 C 
ENDROOT
BRANCH   2   3
ATOM      3  O   UNK d   0     -29.180  10.346   6.714  0.00  0.00    -0.776 OA
ATOM      4  H   UNK d   0     -28.449   9.686   6.986  0.00  0.00     0.167 HD
ENDBRANCH   2   3
BRANCH   2   5
ATOM      5  C   UNK d   0     -28.194  12.292   5.517  0.00  0.00     0.115 C 
BRANCH   5   6
ATOM      6  C   UNK d   0     -26.773  11.798   5.504  0.00  0.00     0.052 C 
BRANCH   6   7
ATOM      7  C   UNK d   0     -25.971  12.305   6.678  0.00  0.00    -0.020 A 
ATOM      8  C   UNK d   0     -25.294  11.598   7.547  0.00  0.00    -0.011 A 
ATOM      9  C   UNK d   0     -24.694  12.519   8.499  0.00  0.00     0.067 A 
ATOM     10  C   UNK d   0     -23.860  12.413   9.623  0.00  0.00     0.062 C 
ATOM     11  N   UNK d   0     -25.063  13.766   8.137  0.00  0.00    -0.248 NA
ATOM     12  C   UNK d   0     -23.154  13.442  10.254  0.00  0.00     0.041 A 
ATOM     13  N   UNK d   0     -23.516  14.700  10.573  0.00  0.00    -0.355 N 
ATOM     14  C   UNK d   0     -21.808  13.230  10.603  0.00  0.00    -0.022 A 
ATOM     15  C   UNK d   0     -22.432  15.293  11.107  0.00  0.00     0.042 A 
ATOM     16  H   UNK d   0     -24.523  15.153  10.440  0.00  0.00     0.166 HD
ATOM     17  C   UNK d   0     -22.259  16.599  11.608  0.00  0.00     0.062 C 
ATOM     18  C   UNK d   0     -21.341  14.403  11.143  0.00  0.00    -0.013 A 
ATOM     19  C   UNK d   0     -22.667  17.791  11.066  0.00  0.00     0.067 A 
ATOM     20  N   UNK d   0     -23.509  17.729  10.032  0.00  0.00    -0.248 NA
ATOM     21  C   UNK d   0     -22.403  19.198  11.319  0.00  0.00    -0.011 A 
ATOM     22  C   UNK d   0     -23.814  18.993   9.589  0.00  0.00     0.066 A 
ATOM     23  C   UNK d   0     -24.713  19.076   8.536  0.00  0.00     0.062 C 
ATOM     24  C   UNK d   0     -23.074  19.895  10.449  0.00  0.00    -0.020 A 
ATOM     25  C   UNK d   0     -25.422  18.031   7.925  0.00  0.00     0.041 A 
ATOM     26  N   UNK d   0     -25.058  16.786   7.594  0.00  0.00    -0.355 N 
ATOM     27  C   UNK d   0     -26.774  18.243   7.579  0.00  0.00    -0.022 A 
ATOM     28  C   UNK d   0     -26.135  16.195   7.053  0.00  0.00     0.042 A 
ATOM     29  H   UNK d   0     -24.042  16.335   7.719  0.00  0.00     0.166 HD
ATOM     30  C   UNK d   0     -26.318  14.900   6.542  0.00  0.00     0.062 C 
ATOM     31  C   UNK d   0     -27.233  17.087   7.027  0.00  0.00    -0.013 A 
ATOM     32  C   UNK d   0     -25.831  13.705   7.048  0.00  0.00     0.066 A 
BRANCH   8  33
ATOM     33  C   UNK d   0     -25.155  10.131   7.578  0.00  0.00     0.151 C 
BRANCH  33  34
ATOM     34  C   UNK d   0     -26.333   9.458   8.155  0.00  0.00     0.143 C 
ATOM     35  O   UNK d   0     -26.903   8.540   7.547  0.00  0.00    -0.650 OA
BRANCH  34  36
ATOM     36  O   UNK d   0     -26.805   9.858   9.384  0.00  0.00    -0.776 OA
ATOM     37  H   UNK d   0     -27.609  10.496   9.465  0.00  0.00     0.167 HD
ENDBRANCH  34  36
ENDBRANCH  33  34
ENDBRANCH   8  33
BRANCH  31  38
ATOM     38  C   UNK d   0     -28.633  16.836   6.518  0.00  0.00     0.151 C 
BRANCH  38  39
ATOM     39  C   UNK d   0     -29.371  15.900   7.339  0.00  0.00     0.143 C 
ATOM     40  O   UNK d   0     -29.165  15.781   8.560  0.00  0.00    -0.650 OA
BRANCH  39  41
ATOM     41  O   UNK d   0     -30.350  15.097   6.755  0.00  0.00    -0.776 OA
ATOM     42  H   UNK d   0     -30.099  14.628   5.879  0.00  0.00     0.167 HD
ENDBRANCH  39  41
ENDBRANCH  38  39
ENDBRANCH  31  38
BRANCH  27  43
ATOM     43  C   UNK d   0     -27.624  19.478   7.748  0.00  0.00     0.052 C 
BRANCH  43  44
ATOM     44  C   UNK d   0     -28.739  19.298   8.726  0.00  0.00     0.115 C 
BRANCH  44  45
ATOM     45  C   UNK d   0     -28.338  20.016   9.964  0.00  0.00     0.139 C 
ATOM     46  O   UNK d   0     -27.301  19.632  10.560  0.00  0.00    -0.650 OA
BRANCH  45  47
ATOM     47  O   UNK d   0     -29.049  21.080  10.475  0.00  0.00    -0.776 OA
ATOM     48  H   UNK d   0     -28.658  22.033  10.544  0.00  0.00     0.167 HD
ENDBRANCH  45  47
ENDBRANCH  44  45
ENDBRANCH  43  44
ENDBRANCH  27  43
BRANCH  24  49
ATOM     49  C   UNK d   0     -23.126  21.365  10.368  0.00  0.00     0.052 C 
BRANCH  49  50
ATOM     50  C   UNK d   0     -22.250  21.860   9.246  0.00  0.00     0.115 C 
BRANCH  50  51
ATOM     51  C   UNK d   0     -20.884  22.236   9.585  0.00  0.00     0.139 C 
ATOM     52  O   UNK d   0     -20.611  23.260  10.255  0.00  0.00    -0.650 OA
BRANCH  51  53
ATOM     53  O   UNK d   0     -19.829  21.445   9.158  0.00  0.00    -0.776 OA
ATOM     54  H   UNK d   0     -19.165  21.845   8.518  0.00  0.00     0.167 HD
ENDBRANCH  51  53
ENDBRANCH  50  51
ENDBRANCH  49  50
ENDBRANCH  24  49
BRANCH  21  55
ATOM     55  C   UNK d   0     -21.512  19.698  12.408  0.00  0.00     0.151 C 
BRANCH  55  56
ATOM     56  C   UNK d   0     -22.277  20.245  13.539  0.00  0.00     0.143 C 
ATOM     57  O   UNK d   0     -23.106  19.572  14.182  0.00  0.00    -0.650 OA
BRANCH  56  58
ATOM     58  O   UNK d   0     -22.051  21.574  13.893  0.00  0.00    -0.776 OA
ATOM     59  H   UNK d   0     -21.058  21.820  14.054  0.00  0.00     0.167 HD
ENDBRANCH  56  58
ENDBRANCH  55  56
ENDBRANCH  21  55
BRANCH  18  60
ATOM     60  C   UNK d   0     -19.937  14.623  11.647  0.00  0.00     0.151 C 
BRANCH  60  61
ATOM     61  C   UNK d   0     -19.142  15.010  10.471  0.00  0.00     0.143 C 
ATOM     62  O   UNK d   0     -18.503  14.264   9.729  0.00  0.00    -0.650 OA
BRANCH  61  63
ATOM     63  O   UNK d   0     -19.127  16.396  10.184  0.00  0.00    -0.776 OA
ATOM     64  H   UNK d   0     -18.314  16.836   9.791  0.00  0.00     0.167 HD
ENDBRANCH  61  63
ENDBRANCH  60  61
ENDBRANCH  18  60
BRANCH  14  65
ATOM     65  C   UNK d   0     -20.967  11.986  10.557  0.00  0.00     0.052 C 
BRANCH  65  66
ATOM     66  C   UNK d   0     -21.071  11.167  11.794  0.00  0.00     0.115 C 
BRANCH  66  67
ATOM     67  C   UNK d   0     -19.989  10.299  12.166  0.00  0.00     0.139 C 
ATOM     68  O   UNK d   0     -19.709  10.168  13.414  0.00  0.00    -0.650 OA
BRANCH  67  69
ATOM     69  O   UNK d   0     -19.168   9.550  11.324  0.00  0.00    -0.776 OA
ATOM     70  H   UNK d   0     -18.192   9.438  11.633  0.00  0.00     0.167 HD
ENDBRANCH  67  69
ENDBRANCH  66  67
ENDBRANCH  65  66
ENDBRANCH  14  65
ENDBRANCH   6   7
ENDBRANCH   5   6
ENDBRANCH   2   5
TORSDOF 28
ENDMDL
