MODEL 1
REMARK VINA RESULT:      -9.3      0.000      0.000
REMARK  28 active torsions:
REMARK  status: ('A' for Active; 'I' for Inactive)
REMARK    1  A    between atoms: C_2  and  O_3 
REMARK    2  A    between atoms: C_2  and  C_4 
REMARK    3  A    between atoms: C_4  and  C_5 
REMARK    4  A    between atoms: C_5  and  C_6 
REMARK    5  A    between atoms: C_7  and  C_8 
REMARK    6  A    between atoms: C_8  and  C_9 
REMARK    7  A    between atoms: C_9  and  O_11 
REMARK    8  A    between atoms: C_28  and  C_29 
REMARK    9  A    between atoms: C_29  and  C_30 
REMARK   10  A    between atoms: C_30  and  O_32 
REMARK   11  A    between atoms: C_33  and  C_34 
REMARK   12  A    between atoms: C_34  and  C_35 
REMARK   13  A    between atoms: C_35  and  C_36 
REMARK   14  A    between atoms: C_36  and  O_38 
REMARK   15  A    between atoms: C_39  and  C_40 
REMARK   16  A    between atoms: C_40  and  C_41 
REMARK   17  A    between atoms: C_41  and  C_42 
REMARK   18  A    between atoms: C_42  and  O_44 
REMARK   19  A    between atoms: C_45  and  C_46 
REMARK   20  A    between atoms: C_46  and  C_47 
REMARK   21  A    between atoms: C_47  and  O_49 
REMARK   22  A    between atoms: C_50  and  C_51 
REMARK   23  A    between atoms: C_51  and  C_52 
REMARK   24  A    between atoms: C_52  and  O_54 
REMARK   25  A    between atoms: C_55  and  C_56 
REMARK   26  A    between atoms: C_56  and  C_57 
REMARK   27  A    between atoms: C_57  and  C_58 
REMARK   28  A    between atoms: C_58  and  O_60 
ROOT
ATOM      1  O   UNK d   0     -18.330 -15.977  28.461  0.00  0.00    -0.650 OA
ATOM      2  C   UNK d   0     -18.408 -16.300  27.255  0.00  0.00     0.139 C 
ENDROOT
BRANCH   2   3
ATOM      3  O   UNK d   0     -17.396 -15.947  26.396  0.00  0.00    -0.776 OA
ATOM      4  H   UNK d   0     -17.119 -14.970  26.279  0.00  0.00     0.167 HD
ENDBRANCH   2   3
BRANCH   2   5
ATOM      5  C   UNK d   0     -19.591 -17.060  26.759  0.00  0.00     0.115 C 
BRANCH   5   6
ATOM      6  C   UNK d   0     -19.678 -16.961  25.261  0.00  0.00     0.052 C 
BRANCH   6   7
ATOM      7  C   UNK d   0     -20.629 -17.972  24.666  0.00  0.00    -0.020 A 
ATOM      8  C   UNK d   0     -21.755 -17.738  24.042  0.00  0.00    -0.011 A 
ATOM      9  C   UNK d   0     -22.326 -19.018  23.658  0.00  0.00     0.067 A 
ATOM     10  C   UNK d   0     -23.469 -19.452  22.968  0.00  0.00     0.062 C 
ATOM     11  N   UNK d   0     -21.483 -19.979  24.093  0.00  0.00    -0.248 NA
ATOM     12  C   UNK d   0     -23.712 -20.728  22.449  0.00  0.00     0.041 A 
ATOM     13  N   UNK d   0     -23.492 -21.952  22.965  0.00  0.00    -0.355 N 
ATOM     14  C   UNK d   0     -24.225 -20.845  21.144  0.00  0.00    -0.022 A 
ATOM     15  C   UNK d   0     -23.845 -22.842  22.018  0.00  0.00     0.042 A 
ATOM     16  H   UNK d   0     -23.113 -22.182  23.985  0.00  0.00     0.166 HD
ATOM     17  C   UNK d   0     -23.817 -24.251  22.034  0.00  0.00     0.062 C 
ATOM     18  C   UNK d   0     -24.309 -22.186  20.862  0.00  0.00    -0.013 A 
ATOM     19  C   UNK d   0     -22.827 -25.089  22.480  0.00  0.00     0.067 A 
ATOM     20  N   UNK d   0     -21.831 -24.534  23.173  0.00  0.00    -0.248 NA
ATOM     21  C   UNK d   0     -22.541 -26.511  22.385  0.00  0.00    -0.011 A 
ATOM     22  C   UNK d   0     -20.913 -25.488  23.537  0.00  0.00     0.066 A 
ATOM     23  C   UNK d   0     -19.839 -25.052  24.299  0.00  0.00     0.062 C 
ATOM     24  C   UNK d   0     -21.418 -26.737  23.002  0.00  0.00    -0.020 A 
ATOM     25  C   UNK d   0     -19.620 -23.768  24.822  0.00  0.00     0.041 A 
ATOM     26  N   UNK d   0     -19.825 -22.552  24.303  0.00  0.00    -0.355 N 
ATOM     27  C   UNK d   0     -19.109 -23.652  26.133  0.00  0.00    -0.022 A 
ATOM     28  C   UNK d   0     -19.465 -21.662  25.242  0.00  0.00     0.042 A 
ATOM     29  H   UNK d   0     -20.196 -22.322  23.274  0.00  0.00     0.166 HD
ATOM     30  C   UNK d   0     -19.478 -20.258  25.236  0.00  0.00     0.062 C 
ATOM     31  C   UNK d   0     -19.008 -22.322  26.407  0.00  0.00    -0.013 A 
ATOM     32  C   UNK d   0     -20.443 -19.414  24.708  0.00  0.00     0.066 A 
BRANCH   8  33
ATOM     33  C   UNK d   0     -22.360 -16.420  23.771  0.00  0.00     0.151 C 
BRANCH  33  34
ATOM     34  C   UNK d   0     -23.495 -16.119  24.661  0.00  0.00     0.143 C 
ATOM     35  O   UNK d   0     -23.309 -15.801  25.844  0.00  0.00    -0.650 OA
BRANCH  34  36
ATOM     36  O   UNK d   0     -24.778 -16.194  24.169  0.00  0.00    -0.776 OA
ATOM     37  H   UNK d   0     -25.293 -17.085  24.155  0.00  0.00     0.167 HD
ENDBRANCH  34  36
ENDBRANCH  33  34
ENDBRANCH   8  33
BRANCH  31  38
ATOM     38  C   UNK d   0     -18.521 -21.713  27.701  0.00  0.00     0.151 C 
BRANCH  38  39
ATOM     39  C   UNK d   0     -19.600 -21.383  28.607  0.00  0.00     0.143 C 
ATOM     40  O   UNK d   0     -19.810 -22.021  29.654  0.00  0.00    -0.650 OA
BRANCH  39  41
ATOM     41  O   UNK d   0     -20.443 -20.312  28.310  0.00  0.00    -0.776 OA
ATOM     42  H   UNK d   0     -20.182 -19.728  27.509  0.00  0.00     0.167 HD
ENDBRANCH  39  41
ENDBRANCH  38  39
ENDBRANCH  31  38
BRANCH  27  43
ATOM     43  C   UNK d   0     -18.720 -24.733  27.110  0.00  0.00     0.052 C 
BRANCH  43  44
ATOM     44  C   UNK d   0     -17.256 -25.031  27.109  0.00  0.00     0.115 C 
BRANCH  44  45
ATOM     45  C   UNK d   0     -17.056 -26.180  26.188  0.00  0.00     0.139 C 
ATOM     46  O   UNK d   0     -16.383 -25.992  25.145  0.00  0.00    -0.650 OA
BRANCH  45  47
ATOM     47  O   UNK d   0     -17.571 -27.434  26.436  0.00  0.00    -0.776 OA
ATOM     48  H   UNK d   0     -17.516 -28.207  25.753  0.00  0.00     0.167 HD
ENDBRANCH  45  47
ENDBRANCH  44  45
ENDBRANCH  43  44
ENDBRANCH  27  43
BRANCH  24  49
ATOM     49  C   UNK d   0     -20.774 -28.050  23.181  0.00  0.00     0.052 C 
BRANCH  49  50
ATOM     50  C   UNK d   0     -19.614 -28.200  22.231  0.00  0.00     0.115 C 
BRANCH  50  51
ATOM     51  C   UNK d   0     -18.278 -28.225  22.811  0.00  0.00     0.139 C 
ATOM     52  O   UNK d   0     -17.836 -29.211  23.447  0.00  0.00    -0.650 OA
BRANCH  51  53
ATOM     53  O   UNK d   0     -17.447 -27.125  22.668  0.00  0.00    -0.776 OA
ATOM     54  H   UNK d   0     -17.217 -26.593  23.490  0.00  0.00     0.167 HD
ENDBRANCH  51  53
ENDBRANCH  50  51
ENDBRANCH  49  50
ENDBRANCH  24  49
BRANCH  21  55
ATOM     55  C   UNK d   0     -23.423 -27.496  21.691  0.00  0.00     0.151 C 
BRANCH  55  56
ATOM     56  C   UNK d   0     -23.196 -27.511  20.237  0.00  0.00     0.143 C 
ATOM     57  O   UNK d   0     -23.798 -26.754  19.452  0.00  0.00    -0.650 OA
BRANCH  56  58
ATOM     58  O   UNK d   0     -22.263 -28.418  19.736  0.00  0.00    -0.776 OA
ATOM     59  H   UNK d   0     -22.669 -29.238  19.250  0.00  0.00     0.167 HD
ENDBRANCH  56  58
ENDBRANCH  55  56
ENDBRANCH  21  55
BRANCH  18  60
ATOM     60  C   UNK d   0     -24.803 -22.766  19.561  0.00  0.00     0.151 C 
BRANCH  60  61
ATOM     61  C   UNK d   0     -23.622 -22.870  18.691  0.00  0.00     0.143 C 
ATOM     62  O   UNK d   0     -23.169 -22.000  17.947  0.00  0.00    -0.650 OA
BRANCH  61  63
ATOM     63  O   UNK d   0     -22.951 -24.116  18.732  0.00  0.00    -0.776 OA
ATOM     64  H   UNK d   0     -21.989 -24.196  18.456  0.00  0.00     0.167 HD
ENDBRANCH  61  63
ENDBRANCH  60  61
ENDBRANCH  18  60
BRANCH  14  65
ATOM     65  C   UNK d   0     -24.729 -19.799  20.191  0.00  0.00     0.052 C 
BRANCH  65  66
ATOM     66  C   UNK d   0     -25.808 -18.954  20.771  0.00  0.00     0.115 C 
BRANCH  66  67
ATOM     67  C   UNK d   0     -25.797 -17.536  20.551  0.00  0.00     0.139 C 
ATOM     68  O   UNK d   0     -26.608 -17.043  19.684  0.00  0.00    -0.650 OA
BRANCH  67  69
ATOM     69  O   UNK d   0     -24.993 -16.582  21.175  0.00  0.00    -0.776 OA
ATOM     70  H   UNK d   0     -24.006 -16.845  21.307  0.00  0.00     0.167 HD
ENDBRANCH  67  69
ENDBRANCH  66  67
ENDBRANCH  65  66
ENDBRANCH  14  65
ENDBRANCH   6   7
ENDBRANCH   5   6
ENDBRANCH   2   5
TORSDOF 28
ENDMDL
MODEL 2
REMARK VINA RESULT:      -9.1      1.521      7.461
REMARK  28 active torsions:
REMARK  status: ('A' for Active; 'I' for Inactive)
REMARK    1  A    between atoms: C_2  and  O_3 
REMARK    2  A    between atoms: C_2  and  C_4 
REMARK    3  A    between atoms: C_4  and  C_5 
REMARK    4  A    between atoms: C_5  and  C_6 
REMARK    5  A    between atoms: C_7  and  C_8 
REMARK    6  A    between atoms: C_8  and  C_9 
REMARK    7  A    between atoms: C_9  and  O_11 
REMARK    8  A    between atoms: C_28  and  C_29 
REMARK    9  A    between atoms: C_29  and  C_30 
REMARK   10  A    between atoms: C_30  and  O_32 
REMARK   11  A    between atoms: C_33  and  C_34 
REMARK   12  A    between atoms: C_34  and  C_35 
REMARK   13  A    between atoms: C_35  and  C_36 
REMARK   14  A    between atoms: C_36  and  O_38 
REMARK   15  A    between atoms: C_39  and  C_40 
REMARK   16  A    between atoms: C_40  and  C_41 
REMARK   17  A    between atoms: C_41  and  C_42 
REMARK   18  A    between atoms: C_42  and  O_44 
REMARK   19  A    between atoms: C_45  and  C_46 
REMARK   20  A    between atoms: C_46  and  C_47 
REMARK   21  A    between atoms: C_47  and  O_49 
REMARK   22  A    between atoms: C_50  and  C_51 
REMARK   23  A    between atoms: C_51  and  C_52 
REMARK   24  A    between atoms: C_52  and  O_54 
REMARK   25  A    between atoms: C_55  and  C_56 
REMARK   26  A    between atoms: C_56  and  C_57 
REMARK   27  A    between atoms: C_57  and  C_58 
REMARK   28  A    between atoms: C_58  and  O_60 
ROOT
ATOM      1  O   UNK d   0     -24.689 -15.060  26.056  0.00  0.00    -0.650 OA
ATOM      2  C   UNK d   0     -24.132 -15.262  24.954  0.00  0.00     0.139 C 
ENDROOT
BRANCH   2   3
ATOM      3  O   UNK d   0     -23.260 -14.324  24.457  0.00  0.00    -0.776 OA
ATOM      4  H   UNK d   0     -22.339 -14.594  24.105  0.00  0.00     0.167 HD
ENDBRANCH   2   3
BRANCH   2   5
ATOM      5  C   UNK d   0     -24.416 -16.511  24.190  0.00  0.00     0.115 C 
BRANCH   5   6
ATOM      6  C   UNK d   0     -23.311 -16.777  23.205  0.00  0.00     0.052 C 
BRANCH   6   7
ATOM      7  C   UNK d   0     -22.476 -17.978  23.578  0.00  0.00    -0.020 A 
ATOM      8  C   UNK d   0     -21.446 -18.015  24.384  0.00  0.00    -0.011 A 
ATOM      9  C   UNK d   0     -20.963 -19.385  24.427  0.00  0.00     0.067 A 
ATOM     10  C   UNK d   0     -19.939 -20.077  25.093  0.00  0.00     0.062 C 
ATOM     11  N   UNK d   0     -21.754 -20.114  23.613  0.00  0.00    -0.248 NA
ATOM     12  C   UNK d   0     -19.800 -21.463  25.223  0.00  0.00     0.041 A 
ATOM     13  N   UNK d   0     -19.969 -22.459  24.332  0.00  0.00    -0.355 N 
ATOM     14  C   UNK d   0     -19.481 -22.000  26.483  0.00  0.00    -0.022 A 
ATOM     15  C   UNK d   0     -19.773 -23.613  24.996  0.00  0.00     0.042 A 
ATOM     16  H   UNK d   0     -20.203 -22.347  23.250  0.00  0.00     0.166 HD
ATOM     17  C   UNK d   0     -19.827 -24.947  24.545  0.00  0.00     0.062 C 
ATOM     18  C   UNK d   0     -19.465 -23.366  26.348  0.00  0.00    -0.013 A 
ATOM     19  C   UNK d   0     -20.760 -25.548  23.740  0.00  0.00     0.067 A 
ATOM     20  N   UNK d   0     -21.636 -24.747  23.127  0.00  0.00    -0.248 NA
ATOM     21  C   UNK d   0     -21.086 -26.912  23.356  0.00  0.00    -0.011 A 
ATOM     22  C   UNK d   0     -22.512 -25.488  22.372  0.00  0.00     0.066 A 
ATOM     23  C   UNK d   0     -23.457 -24.776  21.648  0.00  0.00     0.062 C 
ATOM     24  C   UNK d   0     -22.115 -26.870  22.559  0.00  0.00    -0.020 A 
ATOM     25  C   UNK d   0     -23.572 -23.383  21.521  0.00  0.00     0.041 A 
ATOM     26  N   UNK d   0     -23.419 -22.394  22.410  0.00  0.00    -0.355 N 
ATOM     27  C   UNK d   0     -23.888 -22.845  20.254  0.00  0.00    -0.022 A 
ATOM     28  C   UNK d   0     -23.622 -21.242  21.751  0.00  0.00     0.042 A 
ATOM     29  H   UNK d   0     -23.194 -22.509  23.499  0.00  0.00     0.166 HD
ATOM     30  C   UNK d   0     -23.581 -19.909  22.190  0.00  0.00     0.062 C 
ATOM     31  C   UNK d   0     -23.921 -21.491  20.391  0.00  0.00    -0.013 A 
ATOM     32  C   UNK d   0     -22.685 -19.327  23.072  0.00  0.00     0.066 A 
BRANCH   8  33
ATOM     33  C   UNK d   0     -20.860 -16.881  25.123  0.00  0.00     0.151 C 
BRANCH  33  34
ATOM     34  C   UNK d   0     -19.450 -16.638  24.770  0.00  0.00     0.143 C 
ATOM     35  O   UNK d   0     -18.552 -16.757  25.616  0.00  0.00    -0.650 OA
BRANCH  34  36
ATOM     36  O   UNK d   0     -19.129 -16.274  23.483  0.00  0.00    -0.776 OA
ATOM     37  H   UNK d   0     -19.125 -16.962  22.718  0.00  0.00     0.167 HD
ENDBRANCH  34  36
ENDBRANCH  33  34
ENDBRANCH   8  33
BRANCH  31  38
ATOM     38  C   UNK d   0     -24.205 -20.491  19.295  0.00  0.00     0.151 C 
BRANCH  38  39
ATOM     39  C   UNK d   0     -25.620 -20.241  19.116  0.00  0.00     0.143 C 
ATOM     40  O   UNK d   0     -26.245 -19.423  19.813  0.00  0.00    -0.650 OA
BRANCH  39  41
ATOM     41  O   UNK d   0     -26.320 -20.936  18.129  0.00  0.00    -0.776 OA
ATOM     42  H   UNK d   0     -26.775 -21.808  18.414  0.00  0.00     0.167 HD
ENDBRANCH  39  41
ENDBRANCH  38  39
ENDBRANCH  31  38
BRANCH  27  43
ATOM     43  C   UNK d   0     -24.156 -23.555  18.951  0.00  0.00     0.052 C 
BRANCH  43  44
ATOM     44  C   UNK d   0     -22.956 -23.632  18.063  0.00  0.00     0.115 C 
BRANCH  44  45
ATOM     45  C   UNK d   0     -23.417 -23.280  16.695  0.00  0.00     0.139 C 
ATOM     46  O   UNK d   0     -22.723 -23.661  15.720  0.00  0.00    -0.650 OA
BRANCH  45  47
ATOM     47  O   UNK d   0     -24.570 -22.563  16.456  0.00  0.00    -0.776 OA
ATOM     48  H   UNK d   0     -24.905 -21.815  17.085  0.00  0.00     0.167 HD
ENDBRANCH  45  47
ENDBRANCH  44  45
ENDBRANCH  43  44
ENDBRANCH  27  43
BRANCH  24  49
ATOM     49  C   UNK d   0     -22.753 -28.024  21.903  0.00  0.00     0.052 C 
BRANCH  49  50
ATOM     50  C   UNK d   0     -22.180 -28.226  20.523  0.00  0.00     0.115 C 
BRANCH  50  51
ATOM     51  C   UNK d   0     -23.103 -28.132  19.400  0.00  0.00     0.139 C 
ATOM     52  O   UNK d   0     -23.046 -28.901  18.412  0.00  0.00    -0.650 OA
BRANCH  51  53
ATOM     53  O   UNK d   0     -24.090 -27.158  19.403  0.00  0.00    -0.776 OA
ATOM     54  H   UNK d   0     -24.775 -27.174  18.668  0.00  0.00     0.167 HD
ENDBRANCH  51  53
ENDBRANCH  50  51
ENDBRANCH  49  50
ENDBRANCH  24  49
BRANCH  21  55
ATOM     55  C   UNK d   0     -20.333 -28.113  23.822  0.00  0.00     0.151 C 
BRANCH  55  56
ATOM     56  C   UNK d   0     -18.991 -28.189  23.225  0.00  0.00     0.143 C 
ATOM     57  O   UNK d   0     -17.947 -28.172  23.905  0.00  0.00    -0.650 OA
BRANCH  56  58
ATOM     58  O   UNK d   0     -18.903 -28.285  21.837  0.00  0.00    -0.776 OA
ATOM     59  H   UNK d   0     -18.944 -27.381  21.333  0.00  0.00     0.167 HD
ENDBRANCH  56  58
ENDBRANCH  55  56
ENDBRANCH  21  55
BRANCH  18  60
ATOM     60  C   UNK d   0     -19.174 -24.342  27.461  0.00  0.00     0.151 C 
BRANCH  60  61
ATOM     61  C   UNK d   0     -17.757 -24.708  27.317  0.00  0.00     0.143 C 
ATOM     62  O   UNK d   0     -16.914 -24.149  26.615  0.00  0.00    -0.650 OA
BRANCH  61  63
ATOM     63  O   UNK d   0     -17.344 -25.827  28.079  0.00  0.00    -0.776 OA
ATOM     64  H   UNK d   0     -17.535 -26.764  27.771  0.00  0.00     0.167 HD
ENDBRANCH  61  63
ENDBRANCH  60  61
ENDBRANCH  18  60
BRANCH  14  65
ATOM     65  C   UNK d   0     -19.096 -21.324  27.769  0.00  0.00     0.052 C 
BRANCH  65  66
ATOM     66  C   UNK d   0     -17.675 -20.886  27.793  0.00  0.00     0.115 C 
BRANCH  66  67
ATOM     67  C   UNK d   0     -17.143 -20.259  28.970  0.00  0.00     0.139 C 
ATOM     68  O   UNK d   0     -17.579 -20.640  30.119  0.00  0.00    -0.650 OA
BRANCH  67  69
ATOM     69  O   UNK d   0     -16.181 -19.252  29.041  0.00  0.00    -0.776 OA
ATOM     70  H   UNK d   0     -16.543 -18.289  29.093  0.00  0.00     0.167 HD
ENDBRANCH  67  69
ENDBRANCH  66  67
ENDBRANCH  65  66
ENDBRANCH  14  65
ENDBRANCH   6   7
ENDBRANCH   5   6
ENDBRANCH   2   5
TORSDOF 28
ENDMDL
MODEL 3
REMARK VINA RESULT:      -8.9      1.825      9.675
REMARK  28 active torsions:
REMARK  status: ('A' for Active; 'I' for Inactive)
REMARK    1  A    between atoms: C_2  and  O_3 
REMARK    2  A    between atoms: C_2  and  C_4 
REMARK    3  A    between atoms: C_4  and  C_5 
REMARK    4  A    between atoms: C_5  and  C_6 
REMARK    5  A    between atoms: C_7  and  C_8 
REMARK    6  A    between atoms: C_8  and  C_9 
REMARK    7  A    between atoms: C_9  and  O_11 
REMARK    8  A    between atoms: C_28  and  C_29 
REMARK    9  A    between atoms: C_29  and  C_30 
REMARK   10  A    between atoms: C_30  and  O_32 
REMARK   11  A    between atoms: C_33  and  C_34 
REMARK   12  A    between atoms: C_34  and  C_35 
REMARK   13  A    between atoms: C_35  and  C_36 
REMARK   14  A    between atoms: C_36  and  O_38 
REMARK   15  A    between atoms: C_39  and  C_40 
REMARK   16  A    between atoms: C_40  and  C_41 
REMARK   17  A    between atoms: C_41  and  C_42 
REMARK   18  A    between atoms: C_42  and  O_44 
REMARK   19  A    between atoms: C_45  and  C_46 
REMARK   20  A    between atoms: C_46  and  C_47 
REMARK   21  A    between atoms: C_47  and  O_49 
REMARK   22  A    between atoms: C_50  and  C_51 
REMARK   23  A    between atoms: C_51  and  C_52 
REMARK   24  A    between atoms: C_52  and  O_54 
REMARK   25  A    between atoms: C_55  and  C_56 
REMARK   26  A    between atoms: C_56  and  C_57 
REMARK   27  A    between atoms: C_57  and  C_58 
REMARK   28  A    between atoms: C_58  and  O_60 
ROOT
ATOM      1  O   UNK d   0     -23.778 -24.046  16.411  0.00  0.00    -0.650 OA
ATOM      2  C   UNK d   0     -23.680 -22.819  16.637  0.00  0.00     0.139 C 
ENDROOT
BRANCH   2   3
ATOM      3  O   UNK d   0     -23.124 -22.001  15.683  0.00  0.00    -0.776 OA
ATOM      4  H   UNK d   0     -22.948 -21.012  15.874  0.00  0.00     0.167 HD
ENDBRANCH   2   3
BRANCH   2   5
ATOM      5  C   UNK d   0     -24.162 -22.255  17.929  0.00  0.00     0.115 C 
BRANCH   5   6
ATOM      6  C   UNK d   0     -24.867 -23.319  18.727  0.00  0.00     0.052 C 
BRANCH   6   7
ATOM      7  C   UNK d   0     -24.067 -23.775  19.923  0.00  0.00    -0.020 A 
ATOM      8  C   UNK d   0     -23.819 -25.005  20.296  0.00  0.00    -0.011 A 
ATOM      9  C   UNK d   0     -23.018 -24.950  21.507  0.00  0.00     0.067 A 
ATOM     10  C   UNK d   0     -22.422 -25.882  22.370  0.00  0.00     0.062 C 
ATOM     11  N   UNK d   0     -22.830 -23.647  21.804  0.00  0.00    -0.248 NA
ATOM     12  C   UNK d   0     -21.445 -25.635  23.341  0.00  0.00     0.041 A 
ATOM     13  N   UNK d   0     -21.322 -24.640  24.241  0.00  0.00    -0.355 N 
ATOM     14  C   UNK d   0     -20.336 -26.495  23.426  0.00  0.00    -0.022 A 
ATOM     15  C   UNK d   0     -20.160 -24.844  24.889  0.00  0.00     0.042 A 
ATOM     16  H   UNK d   0     -22.052 -23.822  24.428  0.00  0.00     0.166 HD
ATOM     17  C   UNK d   0     -19.549 -24.106  25.923  0.00  0.00     0.062 C 
ATOM     18  C   UNK d   0     -19.513 -25.997  24.405  0.00  0.00    -0.013 A 
ATOM     19  C   UNK d   0     -19.398 -22.748  26.040  0.00  0.00     0.067 A 
ATOM     20  N   UNK d   0     -20.077 -21.987  25.178  0.00  0.00    -0.248 NA
ATOM     21  C   UNK d   0     -18.638 -21.851  26.895  0.00  0.00    -0.011 A 
ATOM     22  C   UNK d   0     -19.816 -20.658  25.406  0.00  0.00     0.066 A 
ATOM     23  C   UNK d   0     -20.489 -19.751  24.602  0.00  0.00     0.062 C 
ATOM     24  C   UNK d   0     -18.883 -20.630  26.516  0.00  0.00    -0.020 A 
ATOM     25  C   UNK d   0     -21.475 -20.019  23.641  0.00  0.00     0.041 A 
ATOM     26  N   UNK d   0     -21.590 -20.999  22.736  0.00  0.00    -0.355 N 
ATOM     27  C   UNK d   0     -22.591 -19.158  23.559  0.00  0.00    -0.022 A 
ATOM     28  C   UNK d   0     -22.745 -20.794  22.083  0.00  0.00     0.042 A 
ATOM     29  H   UNK d   0     -20.851 -21.814  22.542  0.00  0.00     0.166 HD
ATOM     30  C   UNK d   0     -23.360 -21.514  21.046  0.00  0.00     0.062 C 
ATOM     31  C   UNK d   0     -23.399 -19.640  22.577  0.00  0.00    -0.013 A 
ATOM     32  C   UNK d   0     -23.436 -22.889  20.889  0.00  0.00     0.066 A 
BRANCH   8  33
ATOM     33  C   UNK d   0     -24.266 -26.240  19.626  0.00  0.00     0.151 C 
BRANCH  33  34
ATOM     34  C   UNK d   0     -23.208 -26.862  18.810  0.00  0.00     0.143 C 
ATOM     35  O   UNK d   0     -22.647 -27.903  19.182  0.00  0.00    -0.650 OA
BRANCH  34  36
ATOM     36  O   UNK d   0     -22.839 -26.276  17.621  0.00  0.00    -0.776 OA
ATOM     37  H   UNK d   0     -22.961 -25.267  17.462  0.00  0.00     0.167 HD
ENDBRANCH  34  36
ENDBRANCH  33  34
ENDBRANCH   8  33
BRANCH  31  38
ATOM     38  C   UNK d   0     -24.721 -19.052  22.140  0.00  0.00     0.151 C 
BRANCH  38  39
ATOM     39  C   UNK d   0     -25.855 -19.683  22.781  0.00  0.00     0.143 C 
ATOM     40  O   UNK d   0     -26.348 -20.746  22.366  0.00  0.00    -0.650 OA
BRANCH  39  41
ATOM     41  O   UNK d   0     -26.426 -19.088  23.906  0.00  0.00    -0.776 OA
ATOM     42  H   UNK d   0     -25.824 -18.984  24.729  0.00  0.00     0.167 HD
ENDBRANCH  39  41
ENDBRANCH  38  39
ENDBRANCH  31  38
BRANCH  27  43
ATOM     43  C   UNK d   0     -22.906 -17.920  24.362  0.00  0.00     0.052 C 
BRANCH  43  44
ATOM     44  C   UNK d   0     -22.346 -16.670  23.765  0.00  0.00     0.115 C 
BRANCH  44  45
ATOM     45  C   UNK d   0     -22.693 -15.564  24.695  0.00  0.00     0.139 C 
ATOM     46  O   UNK d   0     -22.782 -15.826  25.920  0.00  0.00    -0.650 OA
BRANCH  45  47
ATOM     47  O   UNK d   0     -22.912 -14.271  24.270  0.00  0.00    -0.776 OA
ATOM     48  H   UNK d   0     -23.426 -14.046  23.403  0.00  0.00     0.167 HD
ENDBRANCH  45  47
ENDBRANCH  44  45
ENDBRANCH  43  44
ENDBRANCH  27  43
BRANCH  24  49
ATOM     49  C   UNK d   0     -18.350 -19.405  27.136  0.00  0.00     0.052 C 
BRANCH  49  50
ATOM     50  C   UNK d   0     -19.233 -18.227  26.813  0.00  0.00     0.115 C 
BRANCH  50  51
ATOM     51  C   UNK d   0     -18.601 -17.073  26.188  0.00  0.00     0.139 C 
ATOM     52  O   UNK d   0     -18.913 -16.668  25.043  0.00  0.00    -0.650 OA
BRANCH  51  53
ATOM     53  O   UNK d   0     -17.610 -16.382  26.867  0.00  0.00    -0.776 OA
ATOM     54  H   UNK d   0     -16.835 -16.904  27.238  0.00  0.00     0.167 HD
ENDBRANCH  51  53
ENDBRANCH  50  51
ENDBRANCH  49  50
ENDBRANCH  24  49
BRANCH  21  55
ATOM     55  C   UNK d   0     -17.749 -22.308  28.004  0.00  0.00     0.151 C 
BRANCH  55  56
ATOM     56  C   UNK d   0     -16.849 -23.391  27.578  0.00  0.00     0.143 C 
ATOM     57  O   UNK d   0     -16.999 -24.575  27.940  0.00  0.00    -0.650 OA
BRANCH  56  58
ATOM     58  O   UNK d   0     -15.789 -23.061  26.735  0.00  0.00    -0.776 OA
ATOM     59  H   UNK d   0     -15.915 -22.183  26.200  0.00  0.00     0.167 HD
ENDBRANCH  56  58
ENDBRANCH  55  56
ENDBRANCH  21  55
BRANCH  18  60
ATOM     60  C   UNK d   0     -18.198 -26.608  24.822  0.00  0.00     0.151 C 
BRANCH  60  61
ATOM     61  C   UNK d   0     -17.152 -25.736  24.266  0.00  0.00     0.143 C 
ATOM     62  O   UNK d   0     -16.126 -25.356  24.829  0.00  0.00    -0.650 OA
BRANCH  61  63
ATOM     63  O   UNK d   0     -17.374 -25.303  22.936  0.00  0.00    -0.776 OA
ATOM     64  H   UNK d   0     -18.066 -24.605  22.728  0.00  0.00     0.167 HD
ENDBRANCH  61  63
ENDBRANCH  60  61
ENDBRANCH  18  60
BRANCH  14  65
ATOM     65  C   UNK d   0     -20.046 -27.793  22.727  0.00  0.00     0.052 C 
BRANCH  65  66
ATOM     66  C   UNK d   0     -20.855 -28.928  23.248  0.00  0.00     0.115 C 
BRANCH  66  67
ATOM     67  C   UNK d   0     -20.209 -29.995  23.958  0.00  0.00     0.139 C 
ATOM     68  O   UNK d   0     -20.238 -31.176  23.449  0.00  0.00    -0.650 OA
BRANCH  67  69
ATOM     69  O   UNK d   0     -19.529 -29.923  25.173  0.00  0.00    -0.776 OA
ATOM     70  H   UNK d   0     -19.952 -30.445  25.954  0.00  0.00     0.167 HD
ENDBRANCH  67  69
ENDBRANCH  66  67
ENDBRANCH  65  66
ENDBRANCH  14  65
ENDBRANCH   6   7
ENDBRANCH   5   6
ENDBRANCH   2   5
TORSDOF 28
ENDMDL
MODEL 4
REMARK VINA RESULT:      -8.8      2.246      8.033
REMARK  28 active torsions:
REMARK  status: ('A' for Active; 'I' for Inactive)
REMARK    1  A    between atoms: C_2  and  O_3 
REMARK    2  A    between atoms: C_2  and  C_4 
REMARK    3  A    between atoms: C_4  and  C_5 
REMARK    4  A    between atoms: C_5  and  C_6 
REMARK    5  A    between atoms: C_7  and  C_8 
REMARK    6  A    between atoms: C_8  and  C_9 
REMARK    7  A    between atoms: C_9  and  O_11 
REMARK    8  A    between atoms: C_28  and  C_29 
REMARK    9  A    between atoms: C_29  and  C_30 
REMARK   10  A    between atoms: C_30  and  O_32 
REMARK   11  A    between atoms: C_33  and  C_34 
REMARK   12  A    between atoms: C_34  and  C_35 
REMARK   13  A    between atoms: C_35  and  C_36 
REMARK   14  A    between atoms: C_36  and  O_38 
REMARK   15  A    between atoms: C_39  and  C_40 
REMARK   16  A    between atoms: C_40  and  C_41 
REMARK   17  A    between atoms: C_41  and  C_42 
REMARK   18  A    between atoms: C_42  and  O_44 
REMARK   19  A    between atoms: C_45  and  C_46 
REMARK   20  A    between atoms: C_46  and  C_47 
REMARK   21  A    between atoms: C_47  and  O_49 
REMARK   22  A    between atoms: C_50  and  C_51 
REMARK   23  A    between atoms: C_51  and  C_52 
REMARK   24  A    between atoms: C_52  and  O_54 
REMARK   25  A    between atoms: C_55  and  C_56 
REMARK   26  A    between atoms: C_56  and  C_57 
REMARK   27  A    between atoms: C_57  and  C_58 
REMARK   28  A    between atoms: C_58  and  O_60 
ROOT
ATOM      1  O   UNK d   0     -23.534 -29.445  25.246  0.00  0.00    -0.650 OA
ATOM      2  C   UNK d   0     -23.422 -28.791  24.186  0.00  0.00     0.139 C 
ENDROOT
BRANCH   2   3
ATOM      3  O   UNK d   0     -24.531 -28.179  23.652  0.00  0.00    -0.776 OA
ATOM      4  H   UNK d   0     -24.662 -27.168  23.726  0.00  0.00     0.167 HD
ENDBRANCH   2   3
BRANCH   2   5
ATOM      5  C   UNK d   0     -22.098 -28.681  23.510  0.00  0.00     0.115 C 
BRANCH   5   6
ATOM      6  C   UNK d   0     -22.249 -27.979  22.188  0.00  0.00     0.052 C 
BRANCH   6   7
ATOM      7  C   UNK d   0     -22.219 -26.476  22.321  0.00  0.00    -0.020 A 
ATOM      8  C   UNK d   0     -22.929 -25.601  21.655  0.00  0.00    -0.011 A 
ATOM      9  C   UNK d   0     -22.552 -24.276  22.118  0.00  0.00     0.067 A 
ATOM     10  C   UNK d   0     -22.938 -22.957  21.836  0.00  0.00     0.062 C 
ATOM     11  N   UNK d   0     -21.602 -24.438  23.064  0.00  0.00    -0.248 NA
ATOM     12  C   UNK d   0     -22.657 -21.812  22.590  0.00  0.00     0.041 A 
ATOM     13  N   UNK d   0     -21.527 -21.409  23.201  0.00  0.00    -0.355 N 
ATOM     14  C   UNK d   0     -23.693 -20.895  22.847  0.00  0.00    -0.022 A 
ATOM     15  C   UNK d   0     -21.821 -20.264  23.846  0.00  0.00     0.042 A 
ATOM     16  H   UNK d   0     -20.536 -21.913  23.161  0.00  0.00     0.166 HD
ATOM     17  C   UNK d   0     -21.009 -19.426  24.636  0.00  0.00     0.062 C 
ATOM     18  C   UNK d   0     -23.170 -19.911  23.648  0.00  0.00    -0.013 A 
ATOM     19  C   UNK d   0     -20.111 -19.769  25.616  0.00  0.00     0.067 A 
ATOM     20  N   UNK d   0     -19.799 -21.063  25.724  0.00  0.00    -0.248 NA
ATOM     21  C   UNK d   0     -19.368 -19.063  26.646  0.00  0.00    -0.011 A 
ATOM     22  C   UNK d   0     -18.907 -21.254  26.751  0.00  0.00     0.066 A 
ATOM     23  C   UNK d   0     -18.467 -22.554  26.951  0.00  0.00     0.062 C 
ATOM     24  C   UNK d   0     -18.669 -19.938  27.309  0.00  0.00    -0.020 A 
ATOM     25  C   UNK d   0     -18.752 -23.688  26.174  0.00  0.00     0.041 A 
ATOM     26  N   UNK d   0     -19.879 -24.097  25.579  0.00  0.00    -0.355 N 
ATOM     27  C   UNK d   0     -17.710 -24.605  25.913  0.00  0.00    -0.022 A 
ATOM     28  C   UNK d   0     -19.590 -25.243  24.942  0.00  0.00     0.042 A 
ATOM     29  H   UNK d   0     -20.876 -23.595  25.629  0.00  0.00     0.166 HD
ATOM     30  C   UNK d   0     -20.391 -26.091  24.161  0.00  0.00     0.062 C 
ATOM     31  C   UNK d   0     -18.232 -25.592  25.133  0.00  0.00    -0.013 A 
ATOM     32  C   UNK d   0     -21.357 -25.738  23.233  0.00  0.00     0.066 A 
BRANCH   8  33
ATOM     33  C   UNK d   0     -23.932 -25.886  20.612  0.00  0.00     0.151 C 
BRANCH  33  34
ATOM     34  C   UNK d   0     -25.299 -25.517  21.021  0.00  0.00     0.143 C 
ATOM     35  O   UNK d   0     -25.839 -24.490  20.585  0.00  0.00    -0.650 OA
BRANCH  34  36
ATOM     36  O   UNK d   0     -25.983 -26.326  21.899  0.00  0.00    -0.776 OA
ATOM     37  H   UNK d   0     -26.915 -26.066  22.250  0.00  0.00     0.167 HD
ENDBRANCH  34  36
ENDBRANCH  33  34
ENDBRANCH   8  33
BRANCH  31  38
ATOM     38  C   UNK d   0     -17.485 -26.787  24.590  0.00  0.00     0.151 C 
BRANCH  38  39
ATOM     39  C   UNK d   0     -17.961 -28.041  25.135  0.00  0.00     0.143 C 
ATOM     40  O   UNK d   0     -18.506 -28.909  24.431  0.00  0.00    -0.650 OA
BRANCH  39  41
ATOM     41  O   UNK d   0     -17.807 -28.299  26.497  0.00  0.00    -0.776 OA
ATOM     42  H   UNK d   0     -17.672 -27.488  27.108  0.00  0.00     0.167 HD
ENDBRANCH  39  41
ENDBRANCH  38  39
ENDBRANCH  31  38
BRANCH  27  43
ATOM     43  C   UNK d   0     -16.273 -24.579  26.368  0.00  0.00     0.052 C 
BRANCH  43  44
ATOM     44  C   UNK d   0     -16.111 -24.844  27.830  0.00  0.00     0.115 C 
BRANCH  44  45
ATOM     45  C   UNK d   0     -16.044 -26.320  27.988  0.00  0.00     0.139 C 
ATOM     46  O   UNK d   0     -15.240 -26.957  27.262  0.00  0.00    -0.650 OA
BRANCH  45  47
ATOM     47  O   UNK d   0     -16.817 -27.011  28.896  0.00  0.00    -0.776 OA
ATOM     48  H   UNK d   0     -16.454 -27.799  29.457  0.00  0.00     0.167 HD
ENDBRANCH  45  47
ENDBRANCH  44  45
ENDBRANCH  43  44
ENDBRANCH  27  43
BRANCH  24  49
ATOM     49  C   UNK d   0     -17.742 -19.649  28.416  0.00  0.00     0.052 C 
BRANCH  49  50
ATOM     50  C   UNK d   0     -17.568 -20.868  29.286  0.00  0.00     0.115 C 
BRANCH  50  51
ATOM     51  C   UNK d   0     -18.560 -21.085  30.331  0.00  0.00     0.139 C 
ATOM     52  O   UNK d   0     -19.572 -21.806  30.164  0.00  0.00    -0.650 OA
BRANCH  51  53
ATOM     53  O   UNK d   0     -18.398 -20.479  31.567  0.00  0.00    -0.776 OA
ATOM     54  H   UNK d   0     -17.713 -19.749  31.653  0.00  0.00     0.167 HD
ENDBRANCH  51  53
ENDBRANCH  50  51
ENDBRANCH  49  50
ENDBRANCH  24  49
BRANCH  21  55
ATOM     55  C   UNK d   0     -19.432 -17.586  26.856  0.00  0.00     0.151 C 
BRANCH  55  56
ATOM     56  C   UNK d   0     -18.567 -16.857  25.916  0.00  0.00     0.143 C 
ATOM     57  O   UNK d   0     -18.780 -16.825  24.688  0.00  0.00    -0.650 OA
BRANCH  56  58
ATOM     58  O   UNK d   0     -17.466 -16.179  26.438  0.00  0.00    -0.776 OA
ATOM     59  H   UNK d   0     -17.586 -15.153  26.522  0.00  0.00     0.167 HD
ENDBRANCH  56  58
ENDBRANCH  55  56
ENDBRANCH  21  55
BRANCH  18  60
ATOM     60  C   UNK d   0     -23.939 -18.725  24.174  0.00  0.00     0.151 C 
BRANCH  60  61
ATOM     61  C   UNK d   0     -23.680 -17.625  23.233  0.00  0.00     0.143 C 
ATOM     62  O   UNK d   0     -22.682 -16.905  23.190  0.00  0.00    -0.650 OA
BRANCH  61  63
ATOM     63  O   UNK d   0     -24.703 -17.390  22.283  0.00  0.00    -0.776 OA
ATOM     64  H   UNK d   0     -25.523 -16.863  22.525  0.00  0.00     0.167 HD
ENDBRANCH  61  63
ENDBRANCH  60  61
ENDBRANCH  18  60
BRANCH  14  65
ATOM     65  C   UNK d   0     -25.097 -20.828  22.319  0.00  0.00     0.052 C 
BRANCH  65  66
ATOM     66  C   UNK d   0     -26.119 -21.200  23.334  0.00  0.00     0.115 C 
BRANCH  66  67
ATOM     67  C   UNK d   0     -26.130 -22.528  23.880  0.00  0.00     0.139 C 
ATOM     68  O   UNK d   0     -26.971 -23.379  23.408  0.00  0.00    -0.650 OA
BRANCH  67  69
ATOM     69  O   UNK d   0     -25.320 -23.041  24.892  0.00  0.00    -0.776 OA
ATOM     70  H   UNK d   0     -24.678 -22.369  25.337  0.00  0.00     0.167 HD
ENDBRANCH  67  69
ENDBRANCH  66  67
ENDBRANCH  65  66
ENDBRANCH  14  65
ENDBRANCH   6   7
ENDBRANCH   5   6
ENDBRANCH   2   5
TORSDOF 28
ENDMDL
MODEL 5
REMARK VINA RESULT:      -8.8      1.700      8.216
REMARK  28 active torsions:
REMARK  status: ('A' for Active; 'I' for Inactive)
REMARK    1  A    between atoms: C_2  and  O_3 
REMARK    2  A    between atoms: C_2  and  C_4 
REMARK    3  A    between atoms: C_4  and  C_5 
REMARK    4  A    between atoms: C_5  and  C_6 
REMARK    5  A    between atoms: C_7  and  C_8 
REMARK    6  A    between atoms: C_8  and  C_9 
REMARK    7  A    between atoms: C_9  and  O_11 
REMARK    8  A    between atoms: C_28  and  C_29 
REMARK    9  A    between atoms: C_29  and  C_30 
REMARK   10  A    between atoms: C_30  and  O_32 
REMARK   11  A    between atoms: C_33  and  C_34 
REMARK   12  A    between atoms: C_34  and  C_35 
REMARK   13  A    between atoms: C_35  and  C_36 
REMARK   14  A    between atoms: C_36  and  O_38 
REMARK   15  A    between atoms: C_39  and  C_40 
REMARK   16  A    between atoms: C_40  and  C_41 
REMARK   17  A    between atoms: C_41  and  C_42 
REMARK   18  A    between atoms: C_42  and  O_44 
REMARK   19  A    between atoms: C_45  and  C_46 
REMARK   20  A    between atoms: C_46  and  C_47 
REMARK   21  A    between atoms: C_47  and  O_49 
REMARK   22  A    between atoms: C_50  and  C_51 
REMARK   23  A    between atoms: C_51  and  C_52 
REMARK   24  A    between atoms: C_52  and  O_54 
REMARK   25  A    between atoms: C_55  and  C_56 
REMARK   26  A    between atoms: C_56  and  C_57 
REMARK   27  A    between atoms: C_57  and  C_58 
REMARK   28  A    between atoms: C_58  and  O_60 
ROOT
ATOM      1  O   UNK d   0     -18.383 -29.258  26.018  0.00  0.00    -0.650 OA
ATOM      2  C   UNK d   0     -17.516 -28.357  26.049  0.00  0.00     0.139 C 
ENDROOT
BRANCH   2   3
ATOM      3  O   UNK d   0     -16.314 -28.600  26.669  0.00  0.00    -0.776 OA
ATOM      4  H   UNK d   0     -15.940 -29.548  26.742  0.00  0.00     0.167 HD
ENDBRANCH   2   3
BRANCH   2   5
ATOM      5  C   UNK d   0     -17.788 -27.034  25.418  0.00  0.00     0.115 C 
BRANCH   5   6
ATOM      6  C   UNK d   0     -17.612 -25.933  26.428  0.00  0.00     0.052 C 
BRANCH   6   7
ATOM      7  C   UNK d   0     -18.405 -24.695  26.082  0.00  0.00    -0.020 A 
ATOM      8  C   UNK d   0     -18.328 -23.515  26.642  0.00  0.00    -0.011 A 
ATOM      9  C   UNK d   0     -19.288 -22.646  25.983  0.00  0.00     0.067 A 
ATOM     10  C   UNK d   0     -19.675 -21.301  26.089  0.00  0.00     0.062 C 
ATOM     11  N   UNK d   0     -19.910 -23.381  25.038  0.00  0.00    -0.248 NA
ATOM     12  C   UNK d   0     -20.430 -20.562  25.171  0.00  0.00     0.041 A 
ATOM     13  N   UNK d   0     -21.534 -20.883  24.470  0.00  0.00    -0.355 N 
ATOM     14  C   UNK d   0     -20.002 -19.268  24.823  0.00  0.00    -0.022 A 
ATOM     15  C   UNK d   0     -21.813 -19.829  23.680  0.00  0.00     0.042 A 
ATOM     16  H   UNK d   0     -22.116 -21.827  24.547  0.00  0.00     0.166 HD
ATOM     17  C   UNK d   0     -22.855 -19.633  22.752  0.00  0.00     0.062 C 
ATOM     18  C   UNK d   0     -20.873 -18.797  23.873  0.00  0.00    -0.013 A 
ATOM     19  C   UNK d   0     -23.335 -20.496  21.800  0.00  0.00     0.067 A 
ATOM     20  N   UNK d   0     -22.916 -21.763  21.866  0.00  0.00    -0.248 NA
ATOM     21  C   UNK d   0     -24.225 -20.399  20.656  0.00  0.00    -0.011 A 
ATOM     22  C   UNK d   0     -23.466 -22.500  20.846  0.00  0.00     0.066 A 
ATOM     23  C   UNK d   0     -23.143 -23.849  20.817  0.00  0.00     0.062 C 
ATOM     24  C   UNK d   0     -24.295 -21.574  20.099  0.00  0.00    -0.020 A 
ATOM     25  C   UNK d   0     -22.393 -24.574  21.755  0.00  0.00     0.041 A 
ATOM     26  N   UNK d   0     -21.287 -24.262  22.441  0.00  0.00    -0.355 N 
ATOM     27  C   UNK d   0     -22.827 -25.871  22.108  0.00  0.00    -0.022 A 
ATOM     28  C   UNK d   0     -21.002 -25.315  23.223  0.00  0.00     0.042 A 
ATOM     29  H   UNK d   0     -20.697 -23.316  22.355  0.00  0.00     0.166 HD
ATOM     30  C   UNK d   0     -19.964 -25.526  24.144  0.00  0.00     0.062 C 
ATOM     31  C   UNK d   0     -21.953 -26.346  23.037  0.00  0.00    -0.013 A 
ATOM     32  C   UNK d   0     -19.424 -24.623  25.046  0.00  0.00     0.066 A 
BRANCH   8  33
ATOM     33  C   UNK d   0     -17.438 -23.118  27.749  0.00  0.00     0.151 C 
BRANCH  33  34
ATOM     34  C   UNK d   0     -18.129 -22.321  28.779  0.00  0.00     0.143 C 
ATOM     35  O   UNK d   0     -19.137 -22.759  29.351  0.00  0.00    -0.650 OA
BRANCH  34  36
ATOM     36  O   UNK d   0     -17.645 -21.076  29.107  0.00  0.00    -0.776 OA
ATOM     37  H   UNK d   0     -18.263 -20.253  29.134  0.00  0.00     0.167 HD
ENDBRANCH  34  36
ENDBRANCH  33  34
ENDBRANCH   8  33
BRANCH  31  38
ATOM     38  C   UNK d   0     -22.021 -27.693  23.718  0.00  0.00     0.151 C 
BRANCH  38  39
ATOM     39  C   UNK d   0     -21.028 -28.623  23.223  0.00  0.00     0.143 C 
ATOM     40  O   UNK d   0     -20.732 -28.703  22.018  0.00  0.00    -0.650 OA
BRANCH  39  41
ATOM     41  O   UNK d   0     -20.371 -29.466  24.120  0.00  0.00    -0.776 OA
ATOM     42  H   UNK d   0     -20.582 -29.338  25.114  0.00  0.00     0.167 HD
ENDBRANCH  39  41
ENDBRANCH  38  39
ENDBRANCH  31  38
BRANCH  27  43
ATOM     43  C   UNK d   0     -24.012 -26.656  21.604  0.00  0.00     0.052 C 
BRANCH  43  44
ATOM     44  C   UNK d   0     -25.316 -25.959  21.819  0.00  0.00     0.115 C 
BRANCH  44  45
ATOM     45  C   UNK d   0     -25.626 -26.076  23.268  0.00  0.00     0.139 C 
ATOM     46  O   UNK d   0     -25.721 -25.020  23.940  0.00  0.00    -0.650 OA
BRANCH  45  47
ATOM     47  O   UNK d   0     -25.818 -27.288  23.895  0.00  0.00    -0.776 OA
ATOM     48  H   UNK d   0     -25.187 -27.644  24.632  0.00  0.00     0.167 HD
ENDBRANCH  45  47
ENDBRANCH  44  45
ENDBRANCH  43  44
ENDBRANCH  27  43
BRANCH  24  49
ATOM     49  C   UNK d   0     -25.116 -21.934  18.930  0.00  0.00     0.052 C 
BRANCH  49  50
ATOM     50  C   UNK d   0     -24.239 -22.180  17.729  0.00  0.00     0.115 C 
BRANCH  50  51
ATOM     51  C   UNK d   0     -23.459 -21.053  17.234  0.00  0.00     0.139 C 
ATOM     52  O   UNK d   0     -23.979 -19.955  16.925  0.00  0.00    -0.650 OA
BRANCH  51  53
ATOM     53  O   UNK d   0     -22.086 -21.180  17.089  0.00  0.00    -0.776 OA
ATOM     54  H   UNK d   0     -21.537 -20.342  17.009  0.00  0.00     0.167 HD
ENDBRANCH  51  53
ENDBRANCH  50  51
ENDBRANCH  49  50
ENDBRANCH  24  49
BRANCH  21  55
ATOM     55  C   UNK d   0     -24.917 -19.143  20.240  0.00  0.00     0.151 C 
BRANCH  55  56
ATOM     56  C   UNK d   0     -26.280 -19.058  20.787  0.00  0.00     0.143 C 
ATOM     57  O   UNK d   0     -26.548 -19.316  21.977  0.00  0.00    -0.650 OA
BRANCH  56  58
ATOM     58  O   UNK d   0     -27.303 -18.670  19.923  0.00  0.00    -0.776 OA
ATOM     59  H   UNK d   0     -27.769 -19.448  19.421  0.00  0.00     0.167 HD
ENDBRANCH  56  58
ENDBRANCH  55  56
ENDBRANCH  21  55
BRANCH  18  60
ATOM     60  C   UNK d   0     -20.783 -17.444  23.211  0.00  0.00     0.151 C 
BRANCH  60  61
ATOM     61  C   UNK d   0     -21.764 -16.592  23.899  0.00  0.00     0.143 C 
ATOM     62  O   UNK d   0     -21.685 -16.145  25.044  0.00  0.00    -0.650 OA
BRANCH  61  63
ATOM     63  O   UNK d   0     -22.913 -16.264  23.141  0.00  0.00    -0.776 OA
ATOM     64  H   UNK d   0     -23.836 -16.461  23.486  0.00  0.00     0.167 HD
ENDBRANCH  61  63
ENDBRANCH  60  61
ENDBRANCH  18  60
BRANCH  14  65
ATOM     65  C   UNK d   0     -18.900 -18.415  25.385  0.00  0.00     0.052 C 
BRANCH  65  66
ATOM     66  C   UNK d   0     -19.300 -17.689  26.620  0.00  0.00     0.115 C 
BRANCH  66  67
ATOM     67  C   UNK d   0     -18.414 -16.714  27.191  0.00  0.00     0.139 C 
ATOM     68  O   UNK d   0     -17.745 -15.954  26.398  0.00  0.00    -0.650 OA
BRANCH  67  69
ATOM     69  O   UNK d   0     -18.169 -16.471  28.542  0.00  0.00    -0.776 OA
ATOM     70  H   UNK d   0     -17.572 -15.657  28.750  0.00  0.00     0.167 HD
ENDBRANCH  67  69
ENDBRANCH  66  67
ENDBRANCH  65  66
ENDBRANCH  14  65
ENDBRANCH   6   7
ENDBRANCH   5   6
ENDBRANCH   2   5
TORSDOF 28
ENDMDL
MODEL 6
REMARK VINA RESULT:      -8.3      3.894      9.835
REMARK  28 active torsions:
REMARK  status: ('A' for Active; 'I' for Inactive)
REMARK    1  A    between atoms: C_2  and  O_3 
REMARK    2  A    between atoms: C_2  and  C_4 
REMARK    3  A    between atoms: C_4  and  C_5 
REMARK    4  A    between atoms: C_5  and  C_6 
REMARK    5  A    between atoms: C_7  and  C_8 
REMARK    6  A    between atoms: C_8  and  C_9 
REMARK    7  A    between atoms: C_9  and  O_11 
REMARK    8  A    between atoms: C_28  and  C_29 
REMARK    9  A    between atoms: C_29  and  C_30 
REMARK   10  A    between atoms: C_30  and  O_32 
REMARK   11  A    between atoms: C_33  and  C_34 
REMARK   12  A    between atoms: C_34  and  C_35 
REMARK   13  A    between atoms: C_35  and  C_36 
REMARK   14  A    between atoms: C_36  and  O_38 
REMARK   15  A    between atoms: C_39  and  C_40 
REMARK   16  A    between atoms: C_40  and  C_41 
REMARK   17  A    between atoms: C_41  and  C_42 
REMARK   18  A    between atoms: C_42  and  O_44 
REMARK   19  A    between atoms: C_45  and  C_46 
REMARK   20  A    between atoms: C_46  and  C_47 
REMARK   21  A    between atoms: C_47  and  O_49 
REMARK   22  A    between atoms: C_50  and  C_51 
REMARK   23  A    between atoms: C_51  and  C_52 
REMARK   24  A    between atoms: C_52  and  O_54 
REMARK   25  A    between atoms: C_55  and  C_56 
REMARK   26  A    between atoms: C_56  and  C_57 
REMARK   27  A    between atoms: C_57  and  C_58 
REMARK   28  A    between atoms: C_58  and  O_60 
ROOT
ATOM      1  O   UNK d   0     -18.993 -29.705  17.410  0.00  0.00    -0.650 OA
ATOM      2  C   UNK d   0     -19.944 -30.365  17.884  0.00  0.00     0.139 C 
ENDROOT
BRANCH   2   3
ATOM      3  O   UNK d   0     -20.015 -30.564  19.242  0.00  0.00    -0.776 OA
ATOM      4  H   UNK d   0     -20.246 -31.481  19.629  0.00  0.00     0.167 HD
ENDBRANCH   2   3
BRANCH   2   5
ATOM      5  C   UNK d   0     -20.988 -30.928  16.981  0.00  0.00     0.115 C 
BRANCH   5   6
ATOM      6  C   UNK d   0     -22.354 -30.487  17.431  0.00  0.00     0.052 C 
BRANCH   6   7
ATOM      7  C   UNK d   0     -22.564 -28.999  17.278  0.00  0.00    -0.020 A 
ATOM      8  C   UNK d   0     -22.634 -28.313  16.167  0.00  0.00    -0.011 A 
ATOM      9  C   UNK d   0     -22.835 -26.917  16.517  0.00  0.00     0.067 A 
ATOM     10  C   UNK d   0     -23.006 -25.712  15.818  0.00  0.00     0.062 C 
ATOM     11  N   UNK d   0     -22.868 -26.843  17.864  0.00  0.00    -0.248 NA
ATOM     12  C   UNK d   0     -23.467 -24.494  16.330  0.00  0.00     0.041 A 
ATOM     13  N   UNK d   0     -23.184 -23.851  17.479  0.00  0.00    -0.355 N 
ATOM     14  C   UNK d   0     -24.437 -23.776  15.607  0.00  0.00    -0.022 A 
ATOM     15  C   UNK d   0     -23.956 -22.748  17.508  0.00  0.00     0.042 A 
ATOM     16  H   UNK d   0     -22.440 -24.161  18.245  0.00  0.00     0.166 HD
ATOM     17  C   UNK d   0     -24.057 -21.729  18.476  0.00  0.00     0.062 C 
ATOM     18  C   UNK d   0     -24.755 -22.667  16.351  0.00  0.00    -0.013 A 
ATOM     19  C   UNK d   0     -24.134 -21.841  19.841  0.00  0.00     0.067 A 
ATOM     20  N   UNK d   0     -23.888 -23.045  20.364  0.00  0.00    -0.248 NA
ATOM     21  C   UNK d   0     -24.446 -20.950  20.946  0.00  0.00    -0.011 A 
ATOM     22  C   UNK d   0     -24.017 -23.006  21.730  0.00  0.00     0.066 A 
ATOM     23  C   UNK d   0     -23.751 -24.186  22.408  0.00  0.00     0.062 C 
ATOM     24  C   UNK d   0     -24.380 -21.639  22.048  0.00  0.00    -0.020 A 
ATOM     25  C   UNK d   0     -23.277 -25.396  21.877  0.00  0.00     0.041 A 
ATOM     26  N   UNK d   0     -23.569 -26.042  20.742  0.00  0.00    -0.355 N 
ATOM     27  C   UNK d   0     -22.300 -26.114  22.601  0.00  0.00    -0.022 A 
ATOM     28  C   UNK d   0     -22.807 -27.147  20.715  0.00  0.00     0.042 A 
ATOM     29  H   UNK d   0     -24.325 -25.735  19.978  0.00  0.00     0.166 HD
ATOM     30  C   UNK d   0     -22.704 -28.174  19.763  0.00  0.00     0.062 C 
ATOM     31  C   UNK d   0     -21.997 -27.223  21.873  0.00  0.00    -0.013 A 
ATOM     32  C   UNK d   0     -22.711 -28.062  18.382  0.00  0.00     0.066 A 
BRANCH   8  33
ATOM     33  C   UNK d   0     -22.527 -28.840  14.793  0.00  0.00     0.151 C 
BRANCH  33  34
ATOM     34  C   UNK d   0     -21.298 -28.400  14.108  0.00  0.00     0.143 C 
ATOM     35  O   UNK d   0     -21.334 -27.988  12.940  0.00  0.00    -0.650 OA
BRANCH  34  36
ATOM     36  O   UNK d   0     -20.097 -28.449  14.777  0.00  0.00    -0.776 OA
ATOM     37  H   UNK d   0     -20.059 -28.497  15.804  0.00  0.00     0.167 HD
ENDBRANCH  34  36
ENDBRANCH  33  34
ENDBRANCH   8  33
BRANCH  31  38
ATOM     38  C   UNK d   0     -20.989 -28.285  22.244  0.00  0.00     0.151 C 
BRANCH  38  39
ATOM     39  C   UNK d   0     -21.330 -28.979  23.468  0.00  0.00     0.143 C 
ATOM     40  O   UNK d   0     -20.467 -29.376  24.271  0.00  0.00    -0.650 OA
BRANCH  39  41
ATOM     41  O   UNK d   0     -22.670 -29.218  23.771  0.00  0.00    -0.776 OA
ATOM     42  H   UNK d   0     -22.985 -28.954  24.709  0.00  0.00     0.167 HD
ENDBRANCH  39  41
ENDBRANCH  38  39
ENDBRANCH  31  38
BRANCH  27  43
ATOM     43  C   UNK d   0     -21.661 -25.791  23.929  0.00  0.00     0.052 C 
BRANCH  43  44
ATOM     44  C   UNK d   0     -20.460 -24.910  23.809  0.00  0.00     0.115 C 
BRANCH  44  45
ATOM     45  C   UNK d   0     -20.569 -23.896  24.889  0.00  0.00     0.139 C 
ATOM     46  O   UNK d   0     -21.356 -22.932  24.719  0.00  0.00    -0.650 OA
BRANCH  45  47
ATOM     47  O   UNK d   0     -19.849 -23.973  26.062  0.00  0.00    -0.776 OA
ATOM     48  H   UNK d   0     -19.679 -24.863  26.557  0.00  0.00     0.167 HD
ENDBRANCH  45  47
ENDBRANCH  44  45
ENDBRANCH  43  44
ENDBRANCH  27  43
BRANCH  24  49
ATOM     49  C   UNK d   0     -24.586 -21.119  23.411  0.00  0.00     0.052 C 
BRANCH  49  50
ATOM     50  C   UNK d   0     -25.526 -22.014  24.177  0.00  0.00     0.115 C 
BRANCH  50  51
ATOM     51  C   UNK d   0     -26.843 -22.245  23.601  0.00  0.00     0.139 C 
ATOM     52  O   UNK d   0     -27.242 -23.383  23.259  0.00  0.00    -0.650 OA
BRANCH  51  53
ATOM     53  O   UNK d   0     -27.706 -21.176  23.411  0.00  0.00    -0.776 OA
ATOM     54  H   UNK d   0     -27.448 -20.469  22.745  0.00  0.00     0.167 HD
ENDBRANCH  51  53
ENDBRANCH  50  51
ENDBRANCH  49  50
ENDBRANCH  24  49
BRANCH  21  55
ATOM     55  C   UNK d   0     -24.773 -19.502  20.785  0.00  0.00     0.151 C 
BRANCH  55  56
ATOM     56  C   UNK d   0     -26.214 -19.281  20.592  0.00  0.00     0.143 C 
ATOM     57  O   UNK d   0     -27.026 -19.257  21.538  0.00  0.00    -0.650 OA
BRANCH  56  58
ATOM     58  O   UNK d   0     -26.673 -19.090  19.290  0.00  0.00    -0.776 OA
ATOM     59  H   UNK d   0     -27.038 -18.141  19.090  0.00  0.00     0.167 HD
ENDBRANCH  56  58
ENDBRANCH  55  56
ENDBRANCH  21  55
BRANCH  18  60
ATOM     60  C   UNK d   0     -25.765 -21.619  15.953  0.00  0.00     0.151 C 
BRANCH  60  61
ATOM     61  C   UNK d   0     -25.068 -20.720  15.020  0.00  0.00     0.143 C 
ATOM     62  O   UNK d   0     -23.968 -20.192  15.181  0.00  0.00    -0.650 OA
BRANCH  61  63
ATOM     63  O   UNK d   0     -25.759 -20.451  13.814  0.00  0.00    -0.776 OA
ATOM     64  H   UNK d   0     -25.261 -20.278  12.959  0.00  0.00     0.167 HD
ENDBRANCH  61  63
ENDBRANCH  60  61
ENDBRANCH  18  60
BRANCH  14  65
ATOM     65  C   UNK d   0     -25.008 -24.005  14.237  0.00  0.00     0.052 C 
BRANCH  65  66
ATOM     66  C   UNK d   0     -26.490 -24.135  14.238  0.00  0.00     0.115 C 
BRANCH  66  67
ATOM     67  C   UNK d   0     -27.130 -24.993  13.281  0.00  0.00     0.139 C 
ATOM     68  O   UNK d   0     -26.643 -25.057  12.093  0.00  0.00    -0.650 OA
BRANCH  67  69
ATOM     69  O   UNK d   0     -28.253 -25.798  13.473  0.00  0.00    -0.776 OA
ATOM     70  H   UNK d   0     -28.842 -25.558  14.283  0.00  0.00     0.167 HD
ENDBRANCH  67  69
ENDBRANCH  66  67
ENDBRANCH  65  66
ENDBRANCH  14  65
ENDBRANCH   6   7
ENDBRANCH   5   6
ENDBRANCH   2   5
TORSDOF 28
ENDMDL
MODEL 7
REMARK VINA RESULT:      -8.3      4.401     10.091
REMARK  28 active torsions:
REMARK  status: ('A' for Active; 'I' for Inactive)
REMARK    1  A    between atoms: C_2  and  O_3 
REMARK    2  A    between atoms: C_2  and  C_4 
REMARK    3  A    between atoms: C_4  and  C_5 
REMARK    4  A    between atoms: C_5  and  C_6 
REMARK    5  A    between atoms: C_7  and  C_8 
REMARK    6  A    between atoms: C_8  and  C_9 
REMARK    7  A    between atoms: C_9  and  O_11 
REMARK    8  A    between atoms: C_28  and  C_29 
REMARK    9  A    between atoms: C_29  and  C_30 
REMARK   10  A    between atoms: C_30  and  O_32 
REMARK   11  A    between atoms: C_33  and  C_34 
REMARK   12  A    between atoms: C_34  and  C_35 
REMARK   13  A    between atoms: C_35  and  C_36 
REMARK   14  A    between atoms: C_36  and  O_38 
REMARK   15  A    between atoms: C_39  and  C_40 
REMARK   16  A    between atoms: C_40  and  C_41 
REMARK   17  A    between atoms: C_41  and  C_42 
REMARK   18  A    between atoms: C_42  and  O_44 
REMARK   19  A    between atoms: C_45  and  C_46 
REMARK   20  A    between atoms: C_46  and  C_47 
REMARK   21  A    between atoms: C_47  and  O_49 
REMARK   22  A    between atoms: C_50  and  C_51 
REMARK   23  A    between atoms: C_51  and  C_52 
REMARK   24  A    between atoms: C_52  and  O_54 
REMARK   25  A    between atoms: C_55  and  C_56 
REMARK   26  A    between atoms: C_56  and  C_57 
REMARK   27  A    between atoms: C_57  and  C_58 
REMARK   28  A    between atoms: C_58  and  O_60 
ROOT
ATOM      1  O   UNK d   0     -20.298 -31.835  18.118  0.00  0.00    -0.650 OA
ATOM      2  C   UNK d   0     -19.946 -31.982  16.927  0.00  0.00     0.139 C 
ENDROOT
BRANCH   2   3
ATOM      3  O   UNK d   0     -19.031 -32.956  16.610  0.00  0.00    -0.776 OA
ATOM      4  H   UNK d   0     -19.118 -33.503  15.750  0.00  0.00     0.167 HD
ENDBRANCH   2   3
BRANCH   2   5
ATOM      5  C   UNK d   0     -20.516 -31.105  15.865  0.00  0.00     0.115 C 
BRANCH   5   6
ATOM      6  C   UNK d   0     -21.930 -30.724  16.212  0.00  0.00     0.052 C 
BRANCH   6   7
ATOM      7  C   UNK d   0     -22.113 -29.231  16.347  0.00  0.00    -0.020 A 
ATOM      8  C   UNK d   0     -22.148 -28.341  15.388  0.00  0.00    -0.011 A 
ATOM      9  C   UNK d   0     -22.333 -27.036  16.000  0.00  0.00     0.067 A 
ATOM     10  C   UNK d   0     -22.471 -25.715  15.545  0.00  0.00     0.062 C 
ATOM     11  N   UNK d   0     -22.395 -27.224  17.335  0.00  0.00    -0.248 NA
ATOM     12  C   UNK d   0     -22.923 -24.610  16.275  0.00  0.00     0.041 A 
ATOM     13  N   UNK d   0     -22.655 -24.208  17.532  0.00  0.00    -0.355 N 
ATOM     14  C   UNK d   0     -23.866 -23.747  15.688  0.00  0.00    -0.022 A 
ATOM     15  C   UNK d   0     -23.409 -23.116  17.760  0.00  0.00     0.042 A 
ATOM     16  H   UNK d   0     -21.933 -24.675  18.237  0.00  0.00     0.166 HD
ATOM     17  C   UNK d   0     -23.515 -22.303  18.906  0.00  0.00     0.062 C 
ATOM     18  C   UNK d   0     -24.182 -22.797  16.627  0.00  0.00    -0.013 A 
ATOM     19  C   UNK d   0     -23.624 -22.675  20.221  0.00  0.00     0.067 A 
ATOM     20  N   UNK d   0     -23.409 -23.962  20.505  0.00  0.00    -0.248 NA
ATOM     21  C   UNK d   0     -23.946 -22.009  21.472  0.00  0.00    -0.011 A 
ATOM     22  C   UNK d   0     -23.567 -24.187  21.850  0.00  0.00     0.066 A 
ATOM     23  C   UNK d   0     -23.335 -25.481  22.291  0.00  0.00     0.062 C 
ATOM     24  C   UNK d   0     -23.915 -22.900  22.421  0.00  0.00    -0.020 A 
ATOM     25  C   UNK d   0     -22.868 -26.574  21.544  0.00  0.00     0.041 A 
ATOM     26  N   UNK d   0     -23.146 -26.982  20.300  0.00  0.00    -0.355 N 
ATOM     27  C   UNK d   0     -21.919 -27.437  22.132  0.00  0.00    -0.022 A 
ATOM     28  C   UNK d   0     -22.402 -28.076  20.073  0.00  0.00     0.042 A 
ATOM     29  H   UNK d   0     -23.880 -26.517  19.597  0.00  0.00     0.166 HD
ATOM     30  C   UNK d   0     -22.293 -28.900  18.942  0.00  0.00     0.062 C 
ATOM     31  C   UNK d   0     -21.617 -28.390  21.208  0.00  0.00    -0.013 A 
ATOM     32  C   UNK d   0     -22.269 -28.523  17.609  0.00  0.00     0.066 A 
BRANCH   8  33
ATOM     33  C   UNK d   0     -22.019 -28.594  13.941  0.00  0.00     0.151 C 
BRANCH  33  34
ATOM     34  C   UNK d   0     -23.312 -28.541  13.235  0.00  0.00     0.143 C 
ATOM     35  O   UNK d   0     -23.641 -27.540  12.583  0.00  0.00    -0.650 OA
BRANCH  34  36
ATOM     36  O   UNK d   0     -24.164 -29.619  13.305  0.00  0.00    -0.776 OA
ATOM     37  H   UNK d   0     -24.578 -29.915  14.199  0.00  0.00     0.167 HD
ENDBRANCH  34  36
ENDBRANCH  33  34
ENDBRANCH   8  33
BRANCH  31  38
ATOM     38  C   UNK d   0     -20.635 -29.524  21.385  0.00  0.00     0.151 C 
BRANCH  38  39
ATOM     39  C   UNK d   0     -19.330 -29.228  20.834  0.00  0.00     0.143 C 
ATOM     40  O   UNK d   0     -18.524 -28.470  21.402  0.00  0.00    -0.650 OA
BRANCH  39  41
ATOM     41  O   UNK d   0     -18.949 -29.806  19.623  0.00  0.00    -0.776 OA
ATOM     42  H   UNK d   0     -18.400 -29.222  18.985  0.00  0.00     0.167 HD
ENDBRANCH  39  41
ENDBRANCH  38  39
ENDBRANCH  31  38
BRANCH  27  43
ATOM     43  C   UNK d   0     -21.304 -27.391  23.509  0.00  0.00     0.052 C 
BRANCH  43  44
ATOM     44  C   UNK d   0     -20.151 -26.447  23.610  0.00  0.00     0.115 C 
BRANCH  44  45
ATOM     45  C   UNK d   0     -19.176 -27.067  24.545  0.00  0.00     0.139 C 
ATOM     46  O   UNK d   0     -19.266 -28.300  24.762  0.00  0.00    -0.650 OA
BRANCH  45  47
ATOM     47  O   UNK d   0     -18.182 -26.348  25.173  0.00  0.00    -0.776 OA
ATOM     48  H   UNK d   0     -17.235 -26.235  24.775  0.00  0.00     0.167 HD
ENDBRANCH  45  47
ENDBRANCH  44  45
ENDBRANCH  43  44
ENDBRANCH  27  43
BRANCH  24  49
ATOM     49  C   UNK d   0     -24.143 -22.650  23.855  0.00  0.00     0.052 C 
BRANCH  49  50
ATOM     50  C   UNK d   0     -25.507 -23.143  24.263  0.00  0.00     0.115 C 
BRANCH  50  51
ATOM     51  C   UNK d   0     -26.610 -22.196  24.174  0.00  0.00     0.139 C 
ATOM     52  O   UNK d   0     -26.617 -21.105  24.791  0.00  0.00    -0.650 OA
BRANCH  51  53
ATOM     53  O   UNK d   0     -27.709 -22.495  23.382  0.00  0.00    -0.776 OA
ATOM     54  H   UNK d   0     -28.062 -23.435  23.394  0.00  0.00     0.167 HD
ENDBRANCH  51  53
ENDBRANCH  50  51
ENDBRANCH  49  50
ENDBRANCH  24  49
BRANCH  21  55
ATOM     55  C   UNK d   0     -24.246 -20.552  21.589  0.00  0.00     0.151 C 
BRANCH  55  56
ATOM     56  C   UNK d   0     -25.589 -20.223  21.088  0.00  0.00     0.143 C 
ATOM     57  O   UNK d   0     -25.868 -20.194  19.874  0.00  0.00    -0.650 OA
BRANCH  56  58
ATOM     58  O   UNK d   0     -26.580 -19.936  22.026  0.00  0.00    -0.776 OA
ATOM     59  H   UNK d   0     -26.455 -19.040  22.531  0.00  0.00     0.167 HD
ENDBRANCH  56  58
ENDBRANCH  55  56
ENDBRANCH  21  55
BRANCH  18  60
ATOM     60  C   UNK d   0     -25.166 -21.672  16.421  0.00  0.00     0.151 C 
BRANCH  60  61
ATOM     61  C   UNK d   0     -24.400 -20.570  15.819  0.00  0.00     0.143 C 
ATOM     62  O   UNK d   0     -23.516 -19.901  16.355  0.00  0.00    -0.650 OA
BRANCH  61  63
ATOM     63  O   UNK d   0     -24.735 -20.266  14.478  0.00  0.00    -0.776 OA
ATOM     64  H   UNK d   0     -25.688 -20.300  14.161  0.00  0.00     0.167 HD
ENDBRANCH  61  63
ENDBRANCH  60  61
ENDBRANCH  18  60
BRANCH  14  65
ATOM     65  C   UNK d   0     -24.410 -23.694  14.289  0.00  0.00     0.052 C 
BRANCH  65  66
ATOM     66  C   UNK d   0     -25.662 -24.480  14.122  0.00  0.00     0.115 C 
BRANCH  66  67
ATOM     67  C   UNK d   0     -26.928 -23.804  14.082  0.00  0.00     0.139 C 
ATOM     68  O   UNK d   0     -27.041 -22.758  13.342  0.00  0.00    -0.650 OA
BRANCH  67  69
ATOM     69  O   UNK d   0     -28.097 -24.140  14.763  0.00  0.00    -0.776 OA
ATOM     70  H   UNK d   0     -28.613 -24.951  14.394  0.00  0.00     0.167 HD
ENDBRANCH  67  69
ENDBRANCH  66  67
ENDBRANCH  65  66
ENDBRANCH  14  65
ENDBRANCH   6   7
ENDBRANCH   5   6
ENDBRANCH   2   5
TORSDOF 28
ENDMDL
MODEL 8
REMARK VINA RESULT:      -8.2      2.054      8.323
REMARK  28 active torsions:
REMARK  status: ('A' for Active; 'I' for Inactive)
REMARK    1  A    between atoms: C_2  and  O_3 
REMARK    2  A    between atoms: C_2  and  C_4 
REMARK    3  A    between atoms: C_4  and  C_5 
REMARK    4  A    between atoms: C_5  and  C_6 
REMARK    5  A    between atoms: C_7  and  C_8 
REMARK    6  A    between atoms: C_8  and  C_9 
REMARK    7  A    between atoms: C_9  and  O_11 
REMARK    8  A    between atoms: C_28  and  C_29 
REMARK    9  A    between atoms: C_29  and  C_30 
REMARK   10  A    between atoms: C_30  and  O_32 
REMARK   11  A    between atoms: C_33  and  C_34 
REMARK   12  A    between atoms: C_34  and  C_35 
REMARK   13  A    between atoms: C_35  and  C_36 
REMARK   14  A    between atoms: C_36  and  O_38 
REMARK   15  A    between atoms: C_39  and  C_40 
REMARK   16  A    between atoms: C_40  and  C_41 
REMARK   17  A    between atoms: C_41  and  C_42 
REMARK   18  A    between atoms: C_42  and  O_44 
REMARK   19  A    between atoms: C_45  and  C_46 
REMARK   20  A    between atoms: C_46  and  C_47 
REMARK   21  A    between atoms: C_47  and  O_49 
REMARK   22  A    between atoms: C_50  and  C_51 
REMARK   23  A    between atoms: C_51  and  C_52 
REMARK   24  A    between atoms: C_52  and  O_54 
REMARK   25  A    between atoms: C_55  and  C_56 
REMARK   26  A    between atoms: C_56  and  C_57 
REMARK   27  A    between atoms: C_57  and  C_58 
REMARK   28  A    between atoms: C_58  and  O_60 
ROOT
ATOM      1  O   UNK d   0     -16.778 -29.449  25.971  0.00  0.00    -0.650 OA
ATOM      2  C   UNK d   0     -17.982 -29.385  25.634  0.00  0.00     0.139 C 
ENDROOT
BRANCH   2   3
ATOM      3  O   UNK d   0     -18.922 -30.078  26.357  0.00  0.00    -0.776 OA
ATOM      4  H   UNK d   0     -18.919 -31.100  26.384  0.00  0.00     0.167 HD
ENDBRANCH   2   3
BRANCH   2   5
ATOM      5  C   UNK d   0     -18.386 -28.564  24.457  0.00  0.00     0.115 C 
BRANCH   5   6
ATOM      6  C   UNK d   0     -19.882 -28.409  24.424  0.00  0.00     0.052 C 
BRANCH   6   7
ATOM      7  C   UNK d   0     -20.316 -27.078  23.858  0.00  0.00    -0.020 A 
ATOM      8  C   UNK d   0     -20.988 -26.860  22.757  0.00  0.00    -0.011 A 
ATOM      9  C   UNK d   0     -21.164 -25.424  22.619  0.00  0.00     0.067 A 
ATOM     10  C   UNK d   0     -21.790 -24.563  21.705  0.00  0.00     0.062 C 
ATOM     11  N   UNK d   0     -20.561 -24.844  23.679  0.00  0.00    -0.248 NA
ATOM     12  C   UNK d   0     -22.095 -23.210  21.887  0.00  0.00     0.041 A 
ATOM     13  N   UNK d   0     -21.379 -22.205  22.426  0.00  0.00    -0.355 N 
ATOM     14  C   UNK d   0     -23.370 -22.744  21.518  0.00  0.00    -0.022 A 
ATOM     15  C   UNK d   0     -22.170 -21.115  22.417  0.00  0.00     0.042 A 
ATOM     16  H   UNK d   0     -20.329 -22.260  22.789  0.00  0.00     0.166 HD
ATOM     17  C   UNK d   0     -21.921 -19.801  22.861  0.00  0.00     0.062 C 
ATOM     18  C   UNK d   0     -23.427 -21.414  21.855  0.00  0.00    -0.013 A 
ATOM     19  C   UNK d   0     -21.326 -19.382  24.024  0.00  0.00     0.067 A 
ATOM     20  N   UNK d   0     -20.719 -20.314  24.762  0.00  0.00    -0.248 NA
ATOM     21  C   UNK d   0     -21.180 -18.118  24.725  0.00  0.00    -0.011 A 
ATOM     22  C   UNK d   0     -20.187 -19.751  25.897  0.00  0.00     0.066 A 
ATOM     23  C   UNK d   0     -19.491 -20.605  26.740  0.00  0.00     0.062 C 
ATOM     24  C   UNK d   0     -20.516 -18.341  25.822  0.00  0.00    -0.020 A 
ATOM     25  C   UNK d   0     -19.185 -21.959  26.533  0.00  0.00     0.041 A 
ATOM     26  N   UNK d   0     -19.901 -22.961  26.010  0.00  0.00    -0.355 N 
ATOM     27  C   UNK d   0     -17.903 -22.424  26.899  0.00  0.00    -0.022 A 
ATOM     28  C   UNK d   0     -19.118 -24.051  26.026  0.00  0.00     0.042 A 
ATOM     29  H   UNK d   0     -20.960 -22.907  25.656  0.00  0.00     0.166 HD
ATOM     30  C   UNK d   0     -19.356 -25.366  25.597  0.00  0.00     0.062 C 
ATOM     31  C   UNK d   0     -17.852 -23.747  26.581  0.00  0.00    -0.013 A 
ATOM     32  C   UNK d   0     -20.033 -25.785  24.462  0.00  0.00     0.066 A 
BRANCH   8  33
ATOM     33  C   UNK d   0     -21.484 -27.874  21.807  0.00  0.00     0.151 C 
BRANCH  33  34
ATOM     34  C   UNK d   0     -22.937 -27.777  21.577  0.00  0.00     0.143 C 
ATOM     35  O   UNK d   0     -23.737 -27.840  22.521  0.00  0.00    -0.650 OA
BRANCH  34  36
ATOM     36  O   UNK d   0     -23.408 -27.617  20.294  0.00  0.00    -0.776 OA
ATOM     37  H   UNK d   0     -24.019 -28.320  19.858  0.00  0.00     0.167 HD
ENDBRANCH  34  36
ENDBRANCH  33  34
ENDBRANCH   8  33
BRANCH  31  38
ATOM     38  C   UNK d   0     -16.669 -24.666  26.779  0.00  0.00     0.151 C 
BRANCH  38  39
ATOM     39  C   UNK d   0     -16.923 -25.705  27.754  0.00  0.00     0.143 C 
ATOM     40  O   UNK d   0     -17.654 -25.525  28.744  0.00  0.00    -0.650 OA
BRANCH  39  41
ATOM     41  O   UNK d   0     -16.333 -26.958  27.591  0.00  0.00    -0.776 OA
ATOM     42  H   UNK d   0     -16.556 -27.669  28.295  0.00  0.00     0.167 HD
ENDBRANCH  39  41
ENDBRANCH  38  39
ENDBRANCH  31  38
BRANCH  27  43
ATOM     43  C   UNK d   0     -16.754 -21.675  27.527  0.00  0.00     0.052 C 
BRANCH  43  44
ATOM     44  C   UNK d   0     -16.735 -21.766  29.018  0.00  0.00     0.115 C 
BRANCH  44  45
ATOM     45  C   UNK d   0     -16.952 -20.387  29.530  0.00  0.00     0.139 C 
ATOM     46  O   UNK d   0     -17.831 -20.214  30.410  0.00  0.00    -0.650 OA
BRANCH  45  47
ATOM     47  O   UNK d   0     -16.229 -19.302  29.084  0.00  0.00    -0.776 OA
ATOM     48  H   UNK d   0     -16.149 -18.423  29.620  0.00  0.00     0.167 HD
ENDBRANCH  45  47
ENDBRANCH  44  45
ENDBRANCH  43  44
ENDBRANCH  27  43
BRANCH  24  49
ATOM     49  C   UNK d   0     -20.111 -17.330  26.814  0.00  0.00     0.052 C 
BRANCH  49  50
ATOM     50  C   UNK d   0     -18.608 -17.218  26.865  0.00  0.00     0.115 C 
BRANCH  50  51
ATOM     51  C   UNK d   0     -18.038 -16.408  27.933  0.00  0.00     0.139 C 
ATOM     52  O   UNK d   0     -17.646 -16.899  29.018  0.00  0.00    -0.650 OA
BRANCH  51  53
ATOM     53  O   UNK d   0     -17.917 -15.037  27.765  0.00  0.00    -0.776 OA
ATOM     54  H   UNK d   0     -18.719 -14.525  27.442  0.00  0.00     0.167 HD
ENDBRANCH  51  53
ENDBRANCH  50  51
ENDBRANCH  49  50
ENDBRANCH  24  49
BRANCH  21  55
ATOM     55  C   UNK d   0     -21.715 -16.818  24.223  0.00  0.00     0.151 C 
BRANCH  55  56
ATOM     56  C   UNK d   0     -23.105 -16.592  24.649  0.00  0.00     0.143 C 
ATOM     57  O   UNK d   0     -23.404 -15.875  25.624  0.00  0.00    -0.650 OA
BRANCH  56  58
ATOM     58  O   UNK d   0     -24.116 -17.215  23.919  0.00  0.00    -0.776 OA
ATOM     59  H   UNK d   0     -24.958 -16.633  23.757  0.00  0.00     0.167 HD
ENDBRANCH  56  58
ENDBRANCH  55  56
ENDBRANCH  21  55
BRANCH  18  60
ATOM     60  C   UNK d   0     -24.622 -20.519  21.642  0.00  0.00     0.151 C 
BRANCH  60  61
ATOM     61  C   UNK d   0     -25.498 -20.732  22.804  0.00  0.00     0.143 C 
ATOM     62  O   UNK d   0     -25.172 -21.161  23.911  0.00  0.00    -0.650 OA
BRANCH  61  63
ATOM     63  O   UNK d   0     -26.860 -20.402  22.600  0.00  0.00    -0.776 OA
ATOM     64  H   UNK d   0     -27.201 -20.148  21.690  0.00  0.00     0.167 HD
ENDBRANCH  61  63
ENDBRANCH  60  61
ENDBRANCH  18  60
BRANCH  14  65
ATOM     65  C   UNK d   0     -24.492 -23.428  20.789  0.00  0.00     0.052 C 
BRANCH  65  66
ATOM     66  C   UNK d   0     -25.050 -24.587  21.537  0.00  0.00     0.115 C 
BRANCH  66  67
ATOM     67  C   UNK d   0     -25.602 -24.389  22.847  0.00  0.00     0.139 C 
ATOM     68  O   UNK d   0     -24.907 -24.751  23.867  0.00  0.00    -0.650 OA
BRANCH  67  69
ATOM     69  O   UNK d   0     -26.839 -23.837  23.178  0.00  0.00    -0.776 OA
ATOM     70  H   UNK d   0     -27.319 -24.263  23.983  0.00  0.00     0.167 HD
ENDBRANCH  67  69
ENDBRANCH  66  67
ENDBRANCH  65  66
ENDBRANCH  14  65
ENDBRANCH   6   7
ENDBRANCH   5   6
ENDBRANCH   2   5
TORSDOF 28
ENDMDL
MODEL 9
REMARK VINA RESULT:      -8.2      4.315     11.905
REMARK  28 active torsions:
REMARK  status: ('A' for Active; 'I' for Inactive)
REMARK    1  A    between atoms: C_2  and  O_3 
REMARK    2  A    between atoms: C_2  and  C_4 
REMARK    3  A    between atoms: C_4  and  C_5 
REMARK    4  A    between atoms: C_5  and  C_6 
REMARK    5  A    between atoms: C_7  and  C_8 
REMARK    6  A    between atoms: C_8  and  C_9 
REMARK    7  A    between atoms: C_9  and  O_11 
REMARK    8  A    between atoms: C_28  and  C_29 
REMARK    9  A    between atoms: C_29  and  C_30 
REMARK   10  A    between atoms: C_30  and  O_32 
REMARK   11  A    between atoms: C_33  and  C_34 
REMARK   12  A    between atoms: C_34  and  C_35 
REMARK   13  A    between atoms: C_35  and  C_36 
REMARK   14  A    between atoms: C_36  and  O_38 
REMARK   15  A    between atoms: C_39  and  C_40 
REMARK   16  A    between atoms: C_40  and  C_41 
REMARK   17  A    between atoms: C_41  and  C_42 
REMARK   18  A    between atoms: C_42  and  O_44 
REMARK   19  A    between atoms: C_45  and  C_46 
REMARK   20  A    between atoms: C_46  and  C_47 
REMARK   21  A    between atoms: C_47  and  O_49 
REMARK   22  A    between atoms: C_50  and  C_51 
REMARK   23  A    between atoms: C_51  and  C_52 
REMARK   24  A    between atoms: C_52  and  O_54 
REMARK   25  A    between atoms: C_55  and  C_56 
REMARK   26  A    between atoms: C_56  and  C_57 
REMARK   27  A    between atoms: C_57  and  C_58 
REMARK   28  A    between atoms: C_58  and  O_60 
ROOT
ATOM      1  O   UNK d   0     -18.015 -28.222  14.098  0.00  0.00    -0.650 OA
ATOM      2  C   UNK d   0     -19.154 -28.683  13.860  0.00  0.00     0.139 C 
ENDROOT
BRANCH   2   3
ATOM      3  O   UNK d   0     -19.311 -30.038  13.693  0.00  0.00    -0.776 OA
ATOM      4  H   UNK d   0     -18.555 -30.688  13.916  0.00  0.00     0.167 HD
ENDBRANCH   2   3
BRANCH   2   5
ATOM      5  C   UNK d   0     -20.325 -27.767  13.758  0.00  0.00     0.115 C 
BRANCH   5   6
ATOM      6  C   UNK d   0     -21.581 -28.484  14.173  0.00  0.00     0.052 C 
BRANCH   6   7
ATOM      7  C   UNK d   0     -21.893 -28.309  15.640  0.00  0.00    -0.020 A 
ATOM      8  C   UNK d   0     -21.830 -29.214  16.583  0.00  0.00    -0.011 A 
ATOM      9  C   UNK d   0     -22.230 -28.585  17.830  0.00  0.00     0.067 A 
ATOM     10  C   UNK d   0     -22.353 -28.983  19.171  0.00  0.00     0.062 C 
ATOM     11  N   UNK d   0     -22.524 -27.298  17.554  0.00  0.00    -0.248 NA
ATOM     12  C   UNK d   0     -22.488 -28.156  20.291  0.00  0.00     0.041 A 
ATOM     13  N   UNK d   0     -23.231 -27.051  20.493  0.00  0.00    -0.355 N 
ATOM     14  C   UNK d   0     -21.708 -28.422  21.431  0.00  0.00    -0.022 A 
ATOM     15  C   UNK d   0     -22.936 -26.604  21.729  0.00  0.00     0.042 A 
ATOM     16  H   UNK d   0     -23.963 -26.607  19.784  0.00  0.00     0.166 HD
ATOM     17  C   UNK d   0     -23.426 -25.490  22.438  0.00  0.00     0.062 C 
ATOM     18  C   UNK d   0     -21.984 -27.438  22.348  0.00  0.00    -0.013 A 
ATOM     19  C   UNK d   0     -23.618 -24.205  22.000  0.00  0.00     0.067 A 
ATOM     20  N   UNK d   0     -23.523 -23.994  20.684  0.00  0.00    -0.248 NA
ATOM     21  C   UNK d   0     -23.901 -22.921  22.619  0.00  0.00    -0.011 A 
ATOM     22  C   UNK d   0     -23.722 -22.665  20.399  0.00  0.00     0.066 A 
ATOM     23  C   UNK d   0     -23.689 -22.311  19.058  0.00  0.00     0.062 C 
ATOM     24  C   UNK d   0     -23.957 -22.024  21.678  0.00  0.00    -0.020 A 
ATOM     25  C   UNK d   0     -23.565 -23.159  17.947  0.00  0.00     0.041 A 
ATOM     26  N   UNK d   0     -22.816 -24.249  17.741  0.00  0.00    -0.355 N 
ATOM     27  C   UNK d   0     -24.352 -22.894  16.805  0.00  0.00    -0.022 A 
ATOM     28  C   UNK d   0     -23.101 -24.691  16.506  0.00  0.00     0.042 A 
ATOM     29  H   UNK d   0     -22.072 -24.688  18.451  0.00  0.00     0.166 HD
ATOM     30  C   UNK d   0     -22.615 -25.792  15.785  0.00  0.00     0.062 C 
ATOM     31  C   UNK d   0     -24.065 -23.859  15.889  0.00  0.00    -0.013 A 
ATOM     32  C   UNK d   0     -22.342 -27.068  16.253  0.00  0.00     0.066 A 
BRANCH   8  33
ATOM     33  C   UNK d   0     -21.433 -30.626  16.429  0.00  0.00     0.151 C 
BRANCH  33  34
ATOM     34  C   UNK d   0     -20.160 -30.938  17.104  0.00  0.00     0.143 C 
ATOM     35  O   UNK d   0     -19.091 -30.460  16.698  0.00  0.00    -0.650 OA
BRANCH  34  36
ATOM     36  O   UNK d   0     -20.162 -31.772  18.198  0.00  0.00    -0.776 OA
ATOM     37  H   UNK d   0     -19.580 -31.573  19.022  0.00  0.00     0.167 HD
ENDBRANCH  34  36
ENDBRANCH  33  34
ENDBRANCH   8  33
BRANCH  31  38
ATOM     38  C   UNK d   0     -24.678 -23.993  14.514  0.00  0.00     0.151 C 
BRANCH  38  39
ATOM     39  C   UNK d   0     -23.724 -23.767  13.450  0.00  0.00     0.143 C 
ATOM     40  O   UNK d   0     -23.585 -24.559  12.501  0.00  0.00    -0.650 OA
BRANCH  39  41
ATOM     41  O   UNK d   0     -22.926 -22.624  13.475  0.00  0.00    -0.776 OA
ATOM     42  H   UNK d   0     -22.699 -22.239  14.397  0.00  0.00     0.167 HD
ENDBRANCH  39  41
ENDBRANCH  38  39
ENDBRANCH  31  38
BRANCH  27  43
ATOM     43  C   UNK d   0     -25.341 -21.782  16.559  0.00  0.00     0.052 C 
BRANCH  43  44
ATOM     44  C   UNK d   0     -24.830 -20.734  15.625  0.00  0.00     0.115 C 
BRANCH  44  45
ATOM     45  C   UNK d   0     -23.536 -20.261  16.183  0.00  0.00     0.139 C 
ATOM     46  O   UNK d   0     -23.566 -19.422  17.117  0.00  0.00    -0.650 OA
BRANCH  45  47
ATOM     47  O   UNK d   0     -22.317 -20.709  15.723  0.00  0.00    -0.776 OA
ATOM     48  H   UNK d   0     -21.433 -20.201  15.893  0.00  0.00     0.167 HD
ENDBRANCH  45  47
ENDBRANCH  44  45
ENDBRANCH  43  44
ENDBRANCH  27  43
BRANCH  24  49
ATOM     49  C   UNK d   0     -24.259 -20.593  21.858  0.00  0.00     0.052 C 
BRANCH  49  50
ATOM     50  C   UNK d   0     -25.732 -20.340  21.662  0.00  0.00     0.115 C 
BRANCH  50  51
ATOM     51  C   UNK d   0     -26.445 -19.686  22.751  0.00  0.00     0.139 C 
ATOM     52  O   UNK d   0     -26.044 -18.622  23.280  0.00  0.00    -0.650 OA
BRANCH  51  53
ATOM     53  O   UNK d   0     -27.615 -20.247  23.240  0.00  0.00    -0.776 OA
ATOM     54  H   UNK d   0     -28.455 -20.139  22.699  0.00  0.00     0.167 HD
ENDBRANCH  51  53
ENDBRANCH  50  51
ENDBRANCH  49  50
ENDBRANCH  24  49
BRANCH  21  55
ATOM     55  C   UNK d   0     -24.091 -22.726  24.087  0.00  0.00     0.151 C 
BRANCH  55  56
ATOM     56  C   UNK d   0     -25.494 -22.909  24.491  0.00  0.00     0.143 C 
ATOM     57  O   UNK d   0     -26.158 -23.919  24.186  0.00  0.00    -0.650 OA
BRANCH  56  58
ATOM     58  O   UNK d   0     -26.089 -21.899  25.246  0.00  0.00    -0.776 OA
ATOM     59  H   UNK d   0     -25.593 -21.661  26.123  0.00  0.00     0.167 HD
ENDBRANCH  56  58
ENDBRANCH  55  56
ENDBRANCH  21  55
BRANCH  18  60
ATOM     60  C   UNK d   0     -21.359 -27.331  23.716  0.00  0.00     0.151 C 
BRANCH  60  61
ATOM     61  C   UNK d   0     -20.238 -26.388  23.575  0.00  0.00     0.143 C 
ATOM     62  O   UNK d   0     -19.155 -26.599  23.031  0.00  0.00    -0.650 OA
BRANCH  61  63
ATOM     63  O   UNK d   0     -20.456 -25.106  24.135  0.00  0.00    -0.776 OA
ATOM     64  H   UNK d   0     -21.373 -24.696  24.150  0.00  0.00     0.167 HD
ENDBRANCH  61  63
ENDBRANCH  60  61
ENDBRANCH  18  60
BRANCH  14  65
ATOM     65  C   UNK d   0     -20.804 -29.578  21.754  0.00  0.00     0.052 C 
BRANCH  65  66
ATOM     66  C   UNK d   0     -19.445 -29.436  21.165  0.00  0.00     0.115 C 
BRANCH  66  67
ATOM     67  C   UNK d   0     -18.510 -30.521  21.263  0.00  0.00     0.139 C 
ATOM     68  O   UNK d   0     -17.416 -30.332  21.913  0.00  0.00    -0.650 OA
BRANCH  67  69
ATOM     69  O   UNK d   0     -18.632 -31.803  20.728  0.00  0.00    -0.776 OA
ATOM     70  H   UNK d   0     -18.355 -31.905  19.741  0.00  0.00     0.167 HD
ENDBRANCH  67  69
ENDBRANCH  66  67
ENDBRANCH  65  66
ENDBRANCH  14  65
ENDBRANCH   6   7
ENDBRANCH   5   6
ENDBRANCH   2   5
TORSDOF 28
ENDMDL
MODEL 10
REMARK VINA RESULT:      -8.2      2.028      7.571
REMARK  28 active torsions:
REMARK  status: ('A' for Active; 'I' for Inactive)
REMARK    1  A    between atoms: C_2  and  O_3 
REMARK    2  A    between atoms: C_2  and  C_4 
REMARK    3  A    between atoms: C_4  and  C_5 
REMARK    4  A    between atoms: C_5  and  C_6 
REMARK    5  A    between atoms: C_7  and  C_8 
REMARK    6  A    between atoms: C_8  and  C_9 
REMARK    7  A    between atoms: C_9  and  O_11 
REMARK    8  A    between atoms: C_28  and  C_29 
REMARK    9  A    between atoms: C_29  and  C_30 
REMARK   10  A    between atoms: C_30  and  O_32 
REMARK   11  A    between atoms: C_33  and  C_34 
REMARK   12  A    between atoms: C_34  and  C_35 
REMARK   13  A    between atoms: C_35  and  C_36 
REMARK   14  A    between atoms: C_36  and  O_38 
REMARK   15  A    between atoms: C_39  and  C_40 
REMARK   16  A    between atoms: C_40  and  C_41 
REMARK   17  A    between atoms: C_41  and  C_42 
REMARK   18  A    between atoms: C_42  and  O_44 
REMARK   19  A    between atoms: C_45  and  C_46 
REMARK   20  A    between atoms: C_46  and  C_47 
REMARK   21  A    between atoms: C_47  and  O_49 
REMARK   22  A    between atoms: C_50  and  C_51 
REMARK   23  A    between atoms: C_51  and  C_52 
REMARK   24  A    between atoms: C_52  and  O_54 
REMARK   25  A    between atoms: C_55  and  C_56 
REMARK   26  A    between atoms: C_56  and  C_57 
REMARK   27  A    between atoms: C_57  and  C_58 
REMARK   28  A    between atoms: C_58  and  O_60 
ROOT
ATOM      1  O   UNK d   0     -27.450 -19.611  21.903  0.00  0.00    -0.650 OA
ATOM      2  C   UNK d   0     -27.073 -20.068  23.004  0.00  0.00     0.139 C 
ENDROOT
BRANCH   2   3
ATOM      3  O   UNK d   0     -27.593 -21.258  23.454  0.00  0.00    -0.776 OA
ATOM      4  H   UNK d   0     -27.274 -21.675  24.331  0.00  0.00     0.167 HD
ENDBRANCH   2   3
BRANCH   2   5
ATOM      5  C   UNK d   0     -26.068 -19.326  23.818  0.00  0.00     0.115 C 
BRANCH   5   6
ATOM      6  C   UNK d   0     -24.860 -19.005  22.981  0.00  0.00     0.052 C 
BRANCH   6   7
ATOM      7  C   UNK d   0     -23.647 -19.811  23.379  0.00  0.00    -0.020 A 
ATOM      8  C   UNK d   0     -22.639 -19.425  24.119  0.00  0.00    -0.011 A 
ATOM      9  C   UNK d   0     -21.710 -20.538  24.221  0.00  0.00     0.067 A 
ATOM     10  C   UNK d   0     -20.486 -20.779  24.864  0.00  0.00     0.062 C 
ATOM     11  N   UNK d   0     -22.228 -21.559  23.507  0.00  0.00    -0.248 NA
ATOM     12  C   UNK d   0     -19.869 -22.017  25.075  0.00  0.00     0.041 A 
ATOM     13  N   UNK d   0     -19.715 -23.081  24.264  0.00  0.00    -0.355 N 
ATOM     14  C   UNK d   0     -19.338 -22.305  26.346  0.00  0.00    -0.022 A 
ATOM     15  C   UNK d   0     -19.107 -24.039  24.989  0.00  0.00     0.042 A 
ATOM     16  H   UNK d   0     -20.013 -23.146  23.194  0.00  0.00     0.166 HD
ATOM     17  C   UNK d   0     -18.711 -25.343  24.630  0.00  0.00     0.062 C 
ATOM     18  C   UNK d   0     -18.855 -23.589  26.299  0.00  0.00    -0.013 A 
ATOM     19  C   UNK d   0     -19.407 -26.292  23.926  0.00  0.00     0.067 A 
ATOM     20  N   UNK d   0     -20.528 -25.894  23.319  0.00  0.00    -0.248 NA
ATOM     21  C   UNK d   0     -19.254 -27.711  23.653  0.00  0.00    -0.011 A 
ATOM     22  C   UNK d   0     -21.120 -26.950  22.671  0.00  0.00     0.066 A 
ATOM     23  C   UNK d   0     -22.279 -26.668  21.963  0.00  0.00     0.062 C 
ATOM     24  C   UNK d   0     -20.262 -28.091  22.922  0.00  0.00    -0.020 A 
ATOM     25  C   UNK d   0     -22.875 -25.415  21.753  0.00  0.00     0.041 A 
ATOM     26  N   UNK d   0     -23.041 -24.364  22.564  0.00  0.00    -0.355 N 
ATOM     27  C   UNK d   0     -23.404 -25.125  20.476  0.00  0.00    -0.022 A 
ATOM     28  C   UNK d   0     -23.655 -23.410  21.846  0.00  0.00     0.042 A 
ATOM     29  H   UNK d   0     -22.751 -24.303  23.641  0.00  0.00     0.166 HD
ATOM     30  C   UNK d   0     -24.063 -22.112  22.192  0.00  0.00     0.062 C 
ATOM     31  C   UNK d   0     -23.899 -23.859  20.526  0.00  0.00    -0.013 A 
ATOM     32  C   UNK d   0     -23.393 -21.187  22.976  0.00  0.00     0.066 A 
BRANCH   8  33
ATOM     33  C   UNK d   0     -22.456 -18.102  24.744  0.00  0.00     0.151 C 
BRANCH  33  34
ATOM     34  C   UNK d   0     -21.183 -17.463  24.363  0.00  0.00     0.143 C 
ATOM     35  O   UNK d   0     -20.961 -17.137  23.188  0.00  0.00    -0.650 OA
BRANCH  34  36
ATOM     36  O   UNK d   0     -20.230 -17.228  25.327  0.00  0.00    -0.776 OA
ATOM     37  H   UNK d   0     -19.228 -17.354  25.130  0.00  0.00     0.167 HD
ENDBRANCH  34  36
ENDBRANCH  33  34
ENDBRANCH   8  33
BRANCH  31  38
ATOM     38  C   UNK d   0     -24.553 -23.112  19.387  0.00  0.00     0.151 C 
BRANCH  38  39
ATOM     39  C   UNK d   0     -23.634 -22.241  18.685  0.00  0.00     0.143 C 
ATOM     40  O   UNK d   0     -24.019 -21.260  18.025  0.00  0.00    -0.650 OA
BRANCH  39  41
ATOM     41  O   UNK d   0     -22.265 -22.498  18.744  0.00  0.00    -0.776 OA
ATOM     42  H   UNK d   0     -21.688 -21.818  19.249  0.00  0.00     0.167 HD
ENDBRANCH  39  41
ENDBRANCH  38  39
ENDBRANCH  31  38
BRANCH  27  43
ATOM     43  C   UNK d   0     -23.456 -25.990  19.241  0.00  0.00     0.052 C 
BRANCH  43  44
ATOM     44  C   UNK d   0     -24.201 -27.270  19.447  0.00  0.00     0.115 C 
BRANCH  44  45
ATOM     45  C   UNK d   0     -23.591 -28.267  18.530  0.00  0.00     0.139 C 
ATOM     46  O   UNK d   0     -22.445 -28.030  18.075  0.00  0.00    -0.650 OA
BRANCH  45  47
ATOM     47  O   UNK d   0     -24.226 -29.435  18.168  0.00  0.00    -0.776 OA
ATOM     48  H   UNK d   0     -25.147 -29.451  17.701  0.00  0.00     0.167 HD
ENDBRANCH  45  47
ENDBRANCH  44  45
ENDBRANCH  43  44
ENDBRANCH  27  43
BRANCH  24  49
ATOM     49  C   UNK d   0     -20.483 -29.445  22.385  0.00  0.00     0.052 C 
BRANCH  49  50
ATOM     50  C   UNK d   0     -20.596 -30.443  23.508  0.00  0.00     0.115 C 
BRANCH  50  51
ATOM     51  C   UNK d   0     -19.838 -31.680  23.377  0.00  0.00     0.139 C 
ATOM     52  O   UNK d   0     -18.970 -32.032  24.210  0.00  0.00    -0.650 OA
BRANCH  51  53
ATOM     53  O   UNK d   0     -20.069 -32.515  22.295  0.00  0.00    -0.776 OA
ATOM     54  H   UNK d   0     -19.611 -33.410  22.278  0.00  0.00     0.167 HD
ENDBRANCH  51  53
ENDBRANCH  50  51
ENDBRANCH  49  50
ENDBRANCH  24  49
BRANCH  21  55
ATOM     55  C   UNK d   0     -18.114 -28.539  24.149  0.00  0.00     0.151 C 
BRANCH  55  56
ATOM     56  C   UNK d   0     -18.136 -28.688  25.612  0.00  0.00     0.143 C 
ATOM     57  O   UNK d   0     -17.575 -27.883  26.381  0.00  0.00    -0.650 OA
BRANCH  56  58
ATOM     58  O   UNK d   0     -18.819 -29.781  26.143  0.00  0.00    -0.776 OA
ATOM     59  H   UNK d   0     -18.822 -29.832  27.178  0.00  0.00     0.167 HD
ENDBRANCH  56  58
ENDBRANCH  55  56
ENDBRANCH  21  55
BRANCH  18  60
ATOM     60  C   UNK d   0     -18.203 -24.310  27.453  0.00  0.00     0.151 C 
BRANCH  60  61
ATOM     61  C   UNK d   0     -16.768 -24.370  27.133  0.00  0.00     0.143 C 
ATOM     62  O   UNK d   0     -16.030 -23.426  26.851  0.00  0.00    -0.650 OA
BRANCH  61  63
ATOM     63  O   UNK d   0     -16.199 -25.666  27.159  0.00  0.00    -0.776 OA
ATOM     64  H   UNK d   0     -15.421 -25.903  26.570  0.00  0.00     0.167 HD
ENDBRANCH  61  63
ENDBRANCH  60  61
ENDBRANCH  18  60
BRANCH  14  65
ATOM     65  C   UNK d   0     -19.165 -21.434  27.557  0.00  0.00     0.052 C 
BRANCH  65  66
ATOM     66  C   UNK d   0     -17.871 -20.700  27.566  0.00  0.00     0.115 C 
BRANCH  66  67
ATOM     67  C   UNK d   0     -17.820 -19.352  28.057  0.00  0.00     0.139 C 
ATOM     68  O   UNK d   0     -17.117 -19.106  29.105  0.00  0.00    -0.650 OA
BRANCH  67  69
ATOM     69  O   UNK d   0     -18.457 -18.228  27.531  0.00  0.00    -0.776 OA
ATOM     70  H   UNK d   0     -18.052 -17.319  27.797  0.00  0.00     0.167 HD
ENDBRANCH  67  69
ENDBRANCH  66  67
ENDBRANCH  65  66
ENDBRANCH  14  65
ENDBRANCH   6   7
ENDBRANCH   5   6
ENDBRANCH   2   5
TORSDOF 28
ENDMDL
MODEL 11
REMARK VINA RESULT:      -8.2      1.524      8.263
REMARK  28 active torsions:
REMARK  status: ('A' for Active; 'I' for Inactive)
REMARK    1  A    between atoms: C_2  and  O_3 
REMARK    2  A    between atoms: C_2  and  C_4 
REMARK    3  A    between atoms: C_4  and  C_5 
REMARK    4  A    between atoms: C_5  and  C_6 
REMARK    5  A    between atoms: C_7  and  C_8 
REMARK    6  A    between atoms: C_8  and  C_9 
REMARK    7  A    between atoms: C_9  and  O_11 
REMARK    8  A    between atoms: C_28  and  C_29 
REMARK    9  A    between atoms: C_29  and  C_30 
REMARK   10  A    between atoms: C_30  and  O_32 
REMARK   11  A    between atoms: C_33  and  C_34 
REMARK   12  A    between atoms: C_34  and  C_35 
REMARK   13  A    between atoms: C_35  and  C_36 
REMARK   14  A    between atoms: C_36  and  O_38 
REMARK   15  A    between atoms: C_39  and  C_40 
REMARK   16  A    between atoms: C_40  and  C_41 
REMARK   17  A    between atoms: C_41  and  C_42 
REMARK   18  A    between atoms: C_42  and  O_44 
REMARK   19  A    between atoms: C_45  and  C_46 
REMARK   20  A    between atoms: C_46  and  C_47 
REMARK   21  A    between atoms: C_47  and  O_49 
REMARK   22  A    between atoms: C_50  and  C_51 
REMARK   23  A    between atoms: C_51  and  C_52 
REMARK   24  A    between atoms: C_52  and  O_54 
REMARK   25  A    between atoms: C_55  and  C_56 
REMARK   26  A    between atoms: C_56  and  C_57 
REMARK   27  A    between atoms: C_57  and  C_58 
REMARK   28  A    between atoms: C_58  and  O_60 
ROOT
ATOM      1  O   UNK d   0     -19.990 -23.622  29.704  0.00  0.00    -0.650 OA
ATOM      2  C   UNK d   0     -19.653 -22.449  29.977  0.00  0.00     0.139 C 
ENDROOT
BRANCH   2   3
ATOM      3  O   UNK d   0     -20.179 -21.839  31.090  0.00  0.00    -0.776 OA
ATOM      4  H   UNK d   0     -19.579 -21.545  31.864  0.00  0.00     0.167 HD
ENDBRANCH   2   3
BRANCH   2   5
ATOM      5  C   UNK d   0     -18.691 -21.723  29.100  0.00  0.00     0.115 C 
BRANCH   5   6
ATOM      6  C   UNK d   0     -17.837 -22.705  28.345  0.00  0.00     0.052 C 
BRANCH   6   7
ATOM      7  C   UNK d   0     -18.519 -23.238  27.108  0.00  0.00    -0.020 A 
ATOM      8  C   UNK d   0     -18.503 -24.465  26.653  0.00  0.00    -0.011 A 
ATOM      9  C   UNK d   0     -19.293 -24.497  25.433  0.00  0.00     0.067 A 
ATOM     10  C   UNK d   0     -19.677 -25.474  24.502  0.00  0.00     0.062 C 
ATOM     11  N   UNK d   0     -19.747 -23.245  25.216  0.00  0.00    -0.248 NA
ATOM     12  C   UNK d   0     -20.679 -25.371  23.531  0.00  0.00     0.041 A 
ATOM     13  N   UNK d   0     -21.003 -24.367  22.694  0.00  0.00    -0.355 N 
ATOM     14  C   UNK d   0     -21.584 -26.437  23.371  0.00  0.00    -0.022 A 
ATOM     15  C   UNK d   0     -22.095 -24.765  22.014  0.00  0.00     0.042 A 
ATOM     16  H   UNK d   0     -20.459 -23.405  22.573  0.00  0.00     0.166 HD
ATOM     17  C   UNK d   0     -22.842 -24.103  21.018  0.00  0.00     0.062 C 
ATOM     18  C   UNK d   0     -22.489 -26.057  22.411  0.00  0.00    -0.013 A 
ATOM     19  C   UNK d   0     -23.273 -22.802  20.985  0.00  0.00     0.067 A 
ATOM     20  N   UNK d   0     -22.771 -21.975  21.906  0.00  0.00    -0.248 NA
ATOM     21  C   UNK d   0     -24.200 -22.028  20.176  0.00  0.00    -0.011 A 
ATOM     22  C   UNK d   0     -23.303 -20.718  21.759  0.00  0.00     0.066 A 
ATOM     23  C   UNK d   0     -22.838 -19.745  22.632  0.00  0.00     0.062 C 
ATOM     24  C   UNK d   0     -24.216 -20.811  20.636  0.00  0.00    -0.020 A 
ATOM     25  C   UNK d   0     -21.821 -19.866  23.591  0.00  0.00     0.041 A 
ATOM     26  N   UNK d   0     -21.509 -20.858  24.433  0.00  0.00    -0.355 N 
ATOM     27  C   UNK d   0     -20.911 -18.798  23.748  0.00  0.00    -0.022 A 
ATOM     28  C   UNK d   0     -20.425 -20.460  25.119  0.00  0.00     0.042 A 
ATOM     29  H   UNK d   0     -22.062 -21.820  24.562  0.00  0.00     0.166 HD
ATOM     30  C   UNK d   0     -19.678 -21.104  26.118  0.00  0.00     0.062 C 
ATOM     31  C   UNK d   0     -20.024 -19.166  24.712  0.00  0.00    -0.013 A 
ATOM     32  C   UNK d   0     -19.317 -22.440  26.189  0.00  0.00     0.066 A 
BRANCH   8  33
ATOM     33  C   UNK d   0     -17.811 -25.621  27.251  0.00  0.00     0.151 C 
BRANCH  33  34
ATOM     34  C   UNK d   0     -17.205 -26.508  26.241  0.00  0.00     0.143 C 
ATOM     35  O   UNK d   0     -16.252 -26.125  25.547  0.00  0.00    -0.650 OA
BRANCH  34  36
ATOM     36  O   UNK d   0     -17.707 -27.777  26.068  0.00  0.00    -0.776 OA
ATOM     37  H   UNK d   0     -18.215 -28.038  25.212  0.00  0.00     0.167 HD
ENDBRANCH  34  36
ENDBRANCH  33  34
ENDBRANCH   8  33
BRANCH  31  38
ATOM     38  C   UNK d   0     -18.856 -18.346  25.209  0.00  0.00     0.151 C 
BRANCH  38  39
ATOM     39  C   UNK d   0     -19.039 -17.872  26.565  0.00  0.00     0.143 C 
ATOM     40  O   UNK d   0     -18.211 -18.095  27.465  0.00  0.00    -0.650 OA
BRANCH  39  41
ATOM     41  O   UNK d   0     -20.180 -17.138  26.887  0.00  0.00    -0.776 OA
ATOM     42  H   UNK d   0     -20.619 -17.341  27.790  0.00  0.00     0.167 HD
ENDBRANCH  39  41
ENDBRANCH  38  39
ENDBRANCH  31  38
BRANCH  27  43
ATOM     43  C   UNK d   0     -20.857 -17.472  23.031  0.00  0.00     0.052 C 
BRANCH  43  44
ATOM     44  C   UNK d   0     -21.070 -16.302  23.937  0.00  0.00     0.115 C 
BRANCH  44  45
ATOM     45  C   UNK d   0     -22.485 -16.367  24.388  0.00  0.00     0.139 C 
ATOM     46  O   UNK d   0     -23.387 -16.333  23.514  0.00  0.00    -0.650 OA
BRANCH  45  47
ATOM     47  O   UNK d   0     -22.842 -16.467  25.715  0.00  0.00    -0.776 OA
ATOM     48  H   UNK d   0     -23.771 -16.799  26.022  0.00  0.00     0.167 HD
ENDBRANCH  45  47
ENDBRANCH  44  45
ENDBRANCH  43  44
ENDBRANCH  27  43
BRANCH  24  49
ATOM     49  C   UNK d   0     -24.991 -19.685  20.087  0.00  0.00     0.052 C 
BRANCH  49  50
ATOM     50  C   UNK d   0     -25.397 -18.740  21.189  0.00  0.00     0.115 C 
BRANCH  50  51
ATOM     51  C   UNK d   0     -25.728 -17.375  20.805  0.00  0.00     0.139 C 
ATOM     52  O   UNK d   0     -26.437 -17.105  19.807  0.00  0.00    -0.650 OA
BRANCH  51  53
ATOM     53  O   UNK d   0     -25.250 -16.315  21.560  0.00  0.00    -0.776 OA
ATOM     54  H   UNK d   0     -25.418 -15.381  21.229  0.00  0.00     0.167 HD
ENDBRANCH  51  53
ENDBRANCH  50  51
ENDBRANCH  49  50
ENDBRANCH  24  49
BRANCH  21  55
ATOM     55  C   UNK d   0     -24.968 -22.586  19.024  0.00  0.00     0.151 C 
BRANCH  55  56
ATOM     56  C   UNK d   0     -24.194 -22.548  17.774  0.00  0.00     0.143 C 
ATOM     57  O   UNK d   0     -23.437 -23.473  17.421  0.00  0.00    -0.650 OA
BRANCH  56  58
ATOM     58  O   UNK d   0     -24.326 -21.422  16.963  0.00  0.00    -0.776 OA
ATOM     59  H   UNK d   0     -23.560 -20.730  17.050  0.00  0.00     0.167 HD
ENDBRANCH  56  58
ENDBRANCH  55  56
ENDBRANCH  21  55
BRANCH  18  60
ATOM     60  C   UNK d   0     -23.645 -26.899  21.932  0.00  0.00     0.151 C 
BRANCH  60  61
ATOM     61  C   UNK d   0     -24.774 -26.578  22.818  0.00  0.00     0.143 C 
ATOM     62  O   UNK d   0     -25.410 -25.524  22.858  0.00  0.00    -0.650 OA
BRANCH  61  63
ATOM     63  O   UNK d   0     -25.151 -27.609  23.712  0.00  0.00    -0.776 OA
ATOM     64  H   UNK d   0     -24.489 -28.004  24.356  0.00  0.00     0.167 HD
ENDBRANCH  61  63
ENDBRANCH  60  61
ENDBRANCH  18  60
BRANCH  14  65
ATOM     65  C   UNK d   0     -21.600 -27.810  23.980  0.00  0.00     0.052 C 
BRANCH  65  66
ATOM     66  C   UNK d   0     -20.767 -28.788  23.231  0.00  0.00     0.115 C 
BRANCH  66  67
ATOM     67  C   UNK d   0     -20.262 -29.953  23.901  0.00  0.00     0.139 C 
ATOM     68  O   UNK d   0     -19.629 -29.798  25.009  0.00  0.00    -0.650 OA
BRANCH  67  69
ATOM     69  O   UNK d   0     -20.367 -31.283  23.495  0.00  0.00    -0.776 OA
ATOM     70  H   UNK d   0     -19.843 -31.967  24.061  0.00  0.00     0.167 HD
ENDBRANCH  67  69
ENDBRANCH  66  67
ENDBRANCH  65  66
ENDBRANCH  14  65
ENDBRANCH   6   7
ENDBRANCH   5   6
ENDBRANCH   2   5
TORSDOF 28
ENDMDL
MODEL 12
REMARK VINA RESULT:      -8.2      1.896      8.202
REMARK  28 active torsions:
REMARK  status: ('A' for Active; 'I' for Inactive)
REMARK    1  A    between atoms: C_2  and  O_3 
REMARK    2  A    between atoms: C_2  and  C_4 
REMARK    3  A    between atoms: C_4  and  C_5 
REMARK    4  A    between atoms: C_5  and  C_6 
REMARK    5  A    between atoms: C_7  and  C_8 
REMARK    6  A    between atoms: C_8  and  C_9 
REMARK    7  A    between atoms: C_9  and  O_11 
REMARK    8  A    between atoms: C_28  and  C_29 
REMARK    9  A    between atoms: C_29  and  C_30 
REMARK   10  A    between atoms: C_30  and  O_32 
REMARK   11  A    between atoms: C_33  and  C_34 
REMARK   12  A    between atoms: C_34  and  C_35 
REMARK   13  A    between atoms: C_35  and  C_36 
REMARK   14  A    between atoms: C_36  and  O_38 
REMARK   15  A    between atoms: C_39  and  C_40 
REMARK   16  A    between atoms: C_40  and  C_41 
REMARK   17  A    between atoms: C_41  and  C_42 
REMARK   18  A    between atoms: C_42  and  O_44 
REMARK   19  A    between atoms: C_45  and  C_46 
REMARK   20  A    between atoms: C_46  and  C_47 
REMARK   21  A    between atoms: C_47  and  O_49 
REMARK   22  A    between atoms: C_50  and  C_51 
REMARK   23  A    between atoms: C_51  and  C_52 
REMARK   24  A    between atoms: C_52  and  O_54 
REMARK   25  A    between atoms: C_55  and  C_56 
REMARK   26  A    between atoms: C_56  and  C_57 
REMARK   27  A    between atoms: C_57  and  C_58 
REMARK   28  A    between atoms: C_58  and  O_60 
ROOT
ATOM      1  O   UNK d   0     -23.836 -29.274  25.315  0.00  0.00    -0.650 OA
ATOM      2  C   UNK d   0     -23.766 -28.636  24.242  0.00  0.00     0.139 C 
ENDROOT
BRANCH   2   3
ATOM      3  O   UNK d   0     -24.872 -27.959  23.787  0.00  0.00    -0.776 OA
ATOM      4  H   UNK d   0     -25.244 -27.155  24.296  0.00  0.00     0.167 HD
ENDBRANCH   2   3
BRANCH   2   5
ATOM      5  C   UNK d   0     -22.494 -28.614  23.466  0.00  0.00     0.115 C 
BRANCH   5   6
ATOM      6  C   UNK d   0     -22.751 -28.140  22.062  0.00  0.00     0.052 C 
BRANCH   6   7
ATOM      7  C   UNK d   0     -22.661 -26.639  21.929  0.00  0.00    -0.020 A 
ATOM      8  C   UNK d   0     -23.229 -25.882  21.026  0.00  0.00    -0.011 A 
ATOM      9  C   UNK d   0     -22.848 -24.505  21.295  0.00  0.00     0.067 A 
ATOM     10  C   UNK d   0     -23.124 -23.249  20.733  0.00  0.00     0.062 C 
ATOM     11  N   UNK d   0     -22.042 -24.517  22.378  0.00  0.00    -0.248 NA
ATOM     12  C   UNK d   0     -22.885 -21.994  21.304  0.00  0.00     0.041 A 
ATOM     13  N   UNK d   0     -21.827 -21.518  21.986  0.00  0.00    -0.355 N 
ATOM     14  C   UNK d   0     -23.896 -21.018  21.247  0.00  0.00    -0.022 A 
ATOM     15  C   UNK d   0     -22.143 -20.267  22.370  0.00  0.00     0.042 A 
ATOM     16  H   UNK d   0     -20.867 -22.048  22.175  0.00  0.00     0.166 HD
ATOM     17  C   UNK d   0     -21.400 -19.322  23.105  0.00  0.00     0.062 C 
ATOM     18  C   UNK d   0     -23.433 -19.918  21.926  0.00  0.00    -0.013 A 
ATOM     19  C   UNK d   0     -20.660 -19.504  24.245  0.00  0.00     0.067 A 
ATOM     20  N   UNK d   0     -20.433 -20.765  24.623  0.00  0.00    -0.248 NA
ATOM     21  C   UNK d   0     -20.024 -18.642  25.227  0.00  0.00    -0.011 A 
ATOM     22  C   UNK d   0     -19.696 -20.790  25.782  0.00  0.00     0.066 A 
ATOM     23  C   UNK d   0     -19.355 -22.043  26.269  0.00  0.00     0.062 C 
ATOM     24  C   UNK d   0     -19.465 -19.400  26.126  0.00  0.00    -0.020 A 
ATOM     25  C   UNK d   0     -19.593 -23.291  25.674  0.00  0.00     0.041 A 
ATOM     26  N   UNK d   0     -20.651 -23.770  25.009  0.00  0.00    -0.355 N 
ATOM     27  C   UNK d   0     -18.576 -24.269  25.727  0.00  0.00    -0.022 A 
ATOM     28  C   UNK d   0     -20.342 -25.021  24.632  0.00  0.00     0.042 A 
ATOM     29  H   UNK d   0     -21.619 -23.240  24.829  0.00  0.00     0.166 HD
ATOM     30  C   UNK d   0     -21.075 -25.975  23.909  0.00  0.00     0.062 C 
ATOM     31  C   UNK d   0     -19.041 -25.366  25.069  0.00  0.00    -0.013 A 
ATOM     32  C   UNK d   0     -21.890 -25.771  22.807  0.00  0.00     0.066 A 
BRANCH   8  33
ATOM     33  C   UNK d   0     -24.099 -26.324  19.920  0.00  0.00     0.151 C 
BRANCH  33  34
ATOM     34  C   UNK d   0     -23.353 -26.583  18.676  0.00  0.00     0.143 C 
ATOM     35  O   UNK d   0     -23.066 -25.659  17.901  0.00  0.00    -0.650 OA
BRANCH  34  36
ATOM     36  O   UNK d   0     -22.972 -27.870  18.372  0.00  0.00    -0.776 OA
ATOM     37  H   UNK d   0     -23.074 -28.632  19.055  0.00  0.00     0.167 HD
ENDBRANCH  34  36
ENDBRANCH  33  34
ENDBRANCH   8  33
BRANCH  31  38
ATOM     38  C   UNK d   0     -18.293 -26.661  24.856  0.00  0.00     0.151 C 
BRANCH  38  39
ATOM     39  C   UNK d   0     -17.506 -26.662  23.641  0.00  0.00     0.143 C 
ATOM     40  O   UNK d   0     -17.801 -27.363  22.658  0.00  0.00    -0.650 OA
BRANCH  39  41
ATOM     41  O   UNK d   0     -16.374 -25.852  23.557  0.00  0.00    -0.776 OA
ATOM     42  H   UNK d   0     -16.530 -24.839  23.553  0.00  0.00     0.167 HD
ENDBRANCH  39  41
ENDBRANCH  38  39
ENDBRANCH  31  38
BRANCH  27  43
ATOM     43  C   UNK d   0     -17.212 -24.200  26.367  0.00  0.00     0.052 C 
BRANCH  43  44
ATOM     44  C   UNK d   0     -17.210 -24.622  27.801  0.00  0.00     0.115 C 
BRANCH  44  45
ATOM     45  C   UNK d   0     -16.371 -25.845  27.882  0.00  0.00     0.139 C 
ATOM     46  O   UNK d   0     -15.151 -25.746  27.601  0.00  0.00    -0.650 OA
BRANCH  45  47
ATOM     47  O   UNK d   0     -16.873 -27.073  28.255  0.00  0.00    -0.776 OA
ATOM     48  H   UNK d   0     -16.894 -27.395  29.237  0.00  0.00     0.167 HD
ENDBRANCH  45  47
ENDBRANCH  44  45
ENDBRANCH  43  44
ENDBRANCH  27  43
BRANCH  24  49
ATOM     49  C   UNK d   0     -18.679 -18.940  27.284  0.00  0.00     0.052 C 
BRANCH  49  50
ATOM     50  C   UNK d   0     -18.203 -17.527  27.066  0.00  0.00     0.115 C 
BRANCH  50  51
ATOM     51  C   UNK d   0     -17.705 -16.806  28.229  0.00  0.00     0.139 C 
ATOM     52  O   UNK d   0     -18.332 -15.857  28.757  0.00  0.00    -0.650 OA
BRANCH  51  53
ATOM     53  O   UNK d   0     -16.489 -17.165  28.791  0.00  0.00    -0.776 OA
ATOM     54  H   UNK d   0     -16.290 -18.143  28.907  0.00  0.00     0.167 HD
ENDBRANCH  51  53
ENDBRANCH  50  51
ENDBRANCH  49  50
ENDBRANCH  24  49
BRANCH  21  55
ATOM     55  C   UNK d   0     -20.037 -17.151  25.162  0.00  0.00     0.151 C 
BRANCH  55  56
ATOM     56  C   UNK d   0     -21.399 -16.606  25.269  0.00  0.00     0.143 C 
ATOM     57  O   UNK d   0     -22.112 -16.764  26.279  0.00  0.00    -0.650 OA
BRANCH  56  58
ATOM     58  O   UNK d   0     -21.896 -15.886  24.184  0.00  0.00    -0.776 OA
ATOM     59  H   UNK d   0     -22.742 -16.291  23.742  0.00  0.00     0.167 HD
ENDBRANCH  56  58
ENDBRANCH  55  56
ENDBRANCH  21  55
BRANCH  18  60
ATOM     60  C   UNK d   0     -24.203 -18.635  22.121  0.00  0.00     0.151 C 
BRANCH  60  61
ATOM     61  C   UNK d   0     -24.772 -18.707  23.475  0.00  0.00     0.143 C 
ATOM     62  O   UNK d   0     -25.507 -19.587  23.925  0.00  0.00    -0.650 OA
BRANCH  61  63
ATOM     63  O   UNK d   0     -24.422 -17.638  24.334  0.00  0.00    -0.776 OA
ATOM     64  H   UNK d   0     -24.634 -16.686  24.090  0.00  0.00     0.167 HD
ENDBRANCH  61  63
ENDBRANCH  60  61
ENDBRANCH  18  60
BRANCH  14  65
ATOM     65  C   UNK d   0     -25.213 -21.010  20.524  0.00  0.00     0.052 C 
BRANCH  65  66
ATOM     66  C   UNK d   0     -25.213 -20.128  19.326  0.00  0.00     0.115 C 
BRANCH  66  67
ATOM     67  C   UNK d   0     -24.393 -20.464  18.196  0.00  0.00     0.139 C 
ATOM     68  O   UNK d   0     -24.394 -21.679  17.776  0.00  0.00    -0.650 OA
BRANCH  67  69
ATOM     69  O   UNK d   0     -23.563 -19.616  17.463  0.00  0.00    -0.776 OA
ATOM     70  H   UNK d   0     -23.834 -19.461  16.482  0.00  0.00     0.167 HD
ENDBRANCH  67  69
ENDBRANCH  66  67
ENDBRANCH  65  66
ENDBRANCH  14  65
ENDBRANCH   6   7
ENDBRANCH   5   6
ENDBRANCH   2   5
TORSDOF 28
ENDMDL
MODEL 13
REMARK VINA RESULT:      -8.2      1.835      3.204
REMARK  28 active torsions:
REMARK  status: ('A' for Active; 'I' for Inactive)
REMARK    1  A    between atoms: C_2  and  O_3 
REMARK    2  A    between atoms: C_2  and  C_4 
REMARK    3  A    between atoms: C_4  and  C_5 
REMARK    4  A    between atoms: C_5  and  C_6 
REMARK    5  A    between atoms: C_7  and  C_8 
REMARK    6  A    between atoms: C_8  and  C_9 
REMARK    7  A    between atoms: C_9  and  O_11 
REMARK    8  A    between atoms: C_28  and  C_29 
REMARK    9  A    between atoms: C_29  and  C_30 
REMARK   10  A    between atoms: C_30  and  O_32 
REMARK   11  A    between atoms: C_33  and  C_34 
REMARK   12  A    between atoms: C_34  and  C_35 
REMARK   13  A    between atoms: C_35  and  C_36 
REMARK   14  A    between atoms: C_36  and  O_38 
REMARK   15  A    between atoms: C_39  and  C_40 
REMARK   16  A    between atoms: C_40  and  C_41 
REMARK   17  A    between atoms: C_41  and  C_42 
REMARK   18  A    between atoms: C_42  and  O_44 
REMARK   19  A    between atoms: C_45  and  C_46 
REMARK   20  A    between atoms: C_46  and  C_47 
REMARK   21  A    between atoms: C_47  and  O_49 
REMARK   22  A    between atoms: C_50  and  C_51 
REMARK   23  A    between atoms: C_51  and  C_52 
REMARK   24  A    between atoms: C_52  and  O_54 
REMARK   25  A    between atoms: C_55  and  C_56 
REMARK   26  A    between atoms: C_56  and  C_57 
REMARK   27  A    between atoms: C_57  and  C_58 
REMARK   28  A    between atoms: C_58  and  O_60 
ROOT
ATOM      1  O   UNK d   0     -18.291 -16.585  25.717  0.00  0.00    -0.650 OA
ATOM      2  C   UNK d   0     -19.510 -16.858  25.653  0.00  0.00     0.139 C 
ENDROOT
BRANCH   2   3
ATOM      3  O   UNK d   0     -20.215 -17.071  26.813  0.00  0.00    -0.776 OA
ATOM      4  H   UNK d   0     -20.734 -17.939  26.963  0.00  0.00     0.167 HD
ENDBRANCH   2   3
BRANCH   2   5
ATOM      5  C   UNK d   0     -20.186 -16.952  24.328  0.00  0.00     0.115 C 
BRANCH   5   6
ATOM      6  C   UNK d   0     -21.654 -17.225  24.514  0.00  0.00     0.052 C 
BRANCH   6   7
ATOM      7  C   UNK d   0     -22.055 -18.600  24.038  0.00  0.00    -0.020 A 
ATOM      8  C   UNK d   0     -23.065 -18.915  23.268  0.00  0.00    -0.011 A 
ATOM      9  C   UNK d   0     -23.056 -20.358  23.090  0.00  0.00     0.067 A 
ATOM     10  C   UNK d   0     -23.827 -21.296  22.387  0.00  0.00     0.062 C 
ATOM     11  N   UNK d   0     -22.008 -20.841  23.791  0.00  0.00    -0.248 NA
ATOM     12  C   UNK d   0     -23.496 -22.627  22.108  0.00  0.00     0.041 A 
ATOM     13  N   UNK d   0     -22.936 -23.580  22.877  0.00  0.00    -0.355 N 
ATOM     14  C   UNK d   0     -23.701 -23.121  20.808  0.00  0.00    -0.022 A 
ATOM     15  C   UNK d   0     -22.774 -24.665  22.095  0.00  0.00     0.042 A 
ATOM     16  H   UNK d   0     -22.679 -23.495  23.956  0.00  0.00     0.166 HD
ATOM     17  C   UNK d   0     -22.238 -25.933  22.393  0.00  0.00     0.062 C 
ATOM     18  C   UNK d   0     -23.242 -24.415  20.791  0.00  0.00    -0.013 A 
ATOM     19  C   UNK d   0     -21.102 -26.247  23.095  0.00  0.00     0.067 A 
ATOM     20  N   UNK d   0     -20.510 -25.253  23.762  0.00  0.00    -0.248 NA
ATOM     21  C   UNK d   0     -20.306 -27.443  23.313  0.00  0.00    -0.011 A 
ATOM     22  C   UNK d   0     -19.384 -25.712  24.400  0.00  0.00     0.066 A 
ATOM     23  C   UNK d   0     -18.689 -24.788  25.166  0.00  0.00     0.062 C 
ATOM     24  C   UNK d   0     -19.299 -27.123  24.074  0.00  0.00    -0.020 A 
ATOM     25  C   UNK d   0     -19.045 -23.459  25.443  0.00  0.00     0.041 A 
ATOM     26  N   UNK d   0     -19.588 -22.507  24.675  0.00  0.00    -0.355 N 
ATOM     27  C   UNK d   0     -18.843 -22.965  26.750  0.00  0.00    -0.022 A 
ATOM     28  C   UNK d   0     -19.743 -21.421  25.450  0.00  0.00     0.042 A 
ATOM     29  H   UNK d   0     -19.836 -22.590  23.589  0.00  0.00     0.166 HD
ATOM     30  C   UNK d   0     -20.265 -20.150  25.165  0.00  0.00     0.062 C 
ATOM     31  C   UNK d   0     -19.282 -21.677  26.764  0.00  0.00    -0.013 A 
ATOM     32  C   UNK d   0     -21.366 -19.834  24.384  0.00  0.00     0.066 A 
BRANCH   8  33
ATOM     33  C   UNK d   0     -24.053 -17.991  22.681  0.00  0.00     0.151 C 
BRANCH  33  34
ATOM     34  C   UNK d   0     -25.160 -17.678  23.602  0.00  0.00     0.143 C 
ATOM     35  O   UNK d   0     -25.171 -16.621  24.249  0.00  0.00    -0.650 OA
BRANCH  34  36
ATOM     36  O   UNK d   0     -26.194 -18.575  23.745  0.00  0.00    -0.776 OA
ATOM     37  H   UNK d   0     -26.697 -18.944  22.927  0.00  0.00     0.167 HD
ENDBRANCH  34  36
ENDBRANCH  33  34
ENDBRANCH   8  33
BRANCH  31  38
ATOM     38  C   UNK d   0     -19.278 -20.746  27.954  0.00  0.00     0.151 C 
BRANCH  38  39
ATOM     39  C   UNK d   0     -18.023 -20.043  28.113  0.00  0.00     0.143 C 
ATOM     40  O   UNK d   0     -17.046 -20.548  28.695  0.00  0.00    -0.650 OA
BRANCH  39  41
ATOM     41  O   UNK d   0     -17.889 -18.753  27.600  0.00  0.00    -0.776 OA
ATOM     42  H   UNK d   0     -16.942 -18.453  27.349  0.00  0.00     0.167 HD
ENDBRANCH  39  41
ENDBRANCH  38  39
ENDBRANCH  31  38
BRANCH  27  43
ATOM     43  C   UNK d   0     -18.259 -23.656  27.957  0.00  0.00     0.052 C 
BRANCH  43  44
ATOM     44  C   UNK d   0     -19.294 -24.242  28.861  0.00  0.00     0.115 C 
BRANCH  44  45
ATOM     45  C   UNK d   0     -18.666 -25.415  29.523  0.00  0.00     0.139 C 
ATOM     46  O   UNK d   0     -19.195 -25.856  30.573  0.00  0.00    -0.650 OA
BRANCH  45  47
ATOM     47  O   UNK d   0     -17.539 -26.036  29.030  0.00  0.00    -0.776 OA
ATOM     48  H   UNK d   0     -17.568 -26.719  28.256  0.00  0.00     0.167 HD
ENDBRANCH  45  47
ENDBRANCH  44  45
ENDBRANCH  43  44
ENDBRANCH  27  43
BRANCH  24  49
ATOM     49  C   UNK d   0     -18.262 -28.041  24.575  0.00  0.00     0.052 C 
BRANCH  49  50
ATOM     50  C   UNK d   0     -17.898 -27.695  25.996  0.00  0.00     0.115 C 
BRANCH  50  51
ATOM     51  C   UNK d   0     -16.630 -28.205  26.500  0.00  0.00     0.139 C 
ATOM     52  O   UNK d   0     -15.740 -27.459  26.972  0.00  0.00    -0.650 OA
BRANCH  51  53
ATOM     53  O   UNK d   0     -16.375 -29.568  26.464  0.00  0.00    -0.776 OA
ATOM     54  H   UNK d   0     -15.864 -29.976  27.227  0.00  0.00     0.167 HD
ENDBRANCH  51  53
ENDBRANCH  50  51
ENDBRANCH  49  50
ENDBRANCH  24  49
BRANCH  21  55
ATOM     55  C   UNK d   0     -20.636 -28.782  22.742  0.00  0.00     0.151 C 
BRANCH  55  56
ATOM     56  C   UNK d   0     -21.294 -29.655  23.726  0.00  0.00     0.143 C 
ATOM     57  O   UNK d   0     -22.283 -29.294  24.393  0.00  0.00    -0.650 OA
BRANCH  56  58
ATOM     58  O   UNK d   0     -20.775 -30.936  23.908  0.00  0.00    -0.776 OA
ATOM     59  H   UNK d   0     -21.115 -31.428  24.753  0.00  0.00     0.167 HD
ENDBRANCH  56  58
ENDBRANCH  55  56
ENDBRANCH  21  55
BRANCH  18  60
ATOM     60  C   UNK d   0     -23.261 -25.323  19.586  0.00  0.00     0.151 C 
BRANCH  60  61
ATOM     61  C   UNK d   0     -24.267 -26.356  19.876  0.00  0.00     0.143 C 
ATOM     62  O   UNK d   0     -25.265 -26.241  20.588  0.00  0.00    -0.650 OA
BRANCH  61  63
ATOM     63  O   UNK d   0     -24.040 -27.609  19.256  0.00  0.00    -0.776 OA
ATOM     64  H   UNK d   0     -23.192 -28.122  19.420  0.00  0.00     0.167 HD
ENDBRANCH  61  63
ENDBRANCH  60  61
ENDBRANCH  18  60
BRANCH  14  65
ATOM     65  C   UNK d   0     -24.382 -22.504  19.619  0.00  0.00     0.052 C 
BRANCH  65  66
ATOM     66  C   UNK d   0     -23.560 -21.455  18.958  0.00  0.00     0.115 C 
BRANCH  66  67
ATOM     67  C   UNK d   0     -23.034 -21.687  17.643  0.00  0.00     0.139 C 
ATOM     68  O   UNK d   0     -23.861 -21.847  16.671  0.00  0.00    -0.650 OA
BRANCH  67  69
ATOM     69  O   UNK d   0     -21.695 -21.767  17.260  0.00  0.00    -0.776 OA
ATOM     70  H   UNK d   0     -21.062 -22.218  17.937  0.00  0.00     0.167 HD
ENDBRANCH  67  69
ENDBRANCH  66  67
ENDBRANCH  65  66
ENDBRANCH  14  65
ENDBRANCH   6   7
ENDBRANCH   5   6
ENDBRANCH   2   5
TORSDOF 28
ENDMDL
MODEL 14
REMARK VINA RESULT:      -7.9      4.590     12.136
REMARK  28 active torsions:
REMARK  status: ('A' for Active; 'I' for Inactive)
REMARK    1  A    between atoms: C_2  and  O_3 
REMARK    2  A    between atoms: C_2  and  C_4 
REMARK    3  A    between atoms: C_4  and  C_5 
REMARK    4  A    between atoms: C_5  and  C_6 
REMARK    5  A    between atoms: C_7  and  C_8 
REMARK    6  A    between atoms: C_8  and  C_9 
REMARK    7  A    between atoms: C_9  and  O_11 
REMARK    8  A    between atoms: C_28  and  C_29 
REMARK    9  A    between atoms: C_29  and  C_30 
REMARK   10  A    between atoms: C_30  and  O_32 
REMARK   11  A    between atoms: C_33  and  C_34 
REMARK   12  A    between atoms: C_34  and  C_35 
REMARK   13  A    between atoms: C_35  and  C_36 
REMARK   14  A    between atoms: C_36  and  O_38 
REMARK   15  A    between atoms: C_39  and  C_40 
REMARK   16  A    between atoms: C_40  and  C_41 
REMARK   17  A    between atoms: C_41  and  C_42 
REMARK   18  A    between atoms: C_42  and  O_44 
REMARK   19  A    between atoms: C_45  and  C_46 
REMARK   20  A    between atoms: C_46  and  C_47 
REMARK   21  A    between atoms: C_47  and  O_49 
REMARK   22  A    between atoms: C_50  and  C_51 
REMARK   23  A    between atoms: C_51  and  C_52 
REMARK   24  A    between atoms: C_52  and  O_54 
REMARK   25  A    between atoms: C_55  and  C_56 
REMARK   26  A    between atoms: C_56  and  C_57 
REMARK   27  A    between atoms: C_57  and  C_58 
REMARK   28  A    between atoms: C_58  and  O_60 
ROOT
ATOM      1  O   UNK d   0     -23.244 -30.057  12.337  0.00  0.00    -0.650 OA
ATOM      2  C   UNK d   0     -23.777 -29.012  12.770  0.00  0.00     0.139 C 
ENDROOT
BRANCH   2   3
ATOM      3  O   UNK d   0     -25.050 -29.069  13.286  0.00  0.00    -0.776 OA
ATOM      4  H   UNK d   0     -25.329 -29.821  13.919  0.00  0.00     0.167 HD
ENDBRANCH   2   3
BRANCH   2   5
ATOM      5  C   UNK d   0     -23.036 -27.720  12.726  0.00  0.00     0.115 C 
BRANCH   5   6
ATOM      6  C   UNK d   0     -21.786 -27.811  13.560  0.00  0.00     0.052 C 
BRANCH   6   7
ATOM      7  C   UNK d   0     -22.074 -27.794  15.042  0.00  0.00    -0.020 A 
ATOM      8  C   UNK d   0     -22.030 -28.801  15.876  0.00  0.00    -0.011 A 
ATOM      9  C   UNK d   0     -22.393 -28.305  17.193  0.00  0.00     0.067 A 
ATOM     10  C   UNK d   0     -22.513 -28.848  18.481  0.00  0.00     0.062 C 
ATOM     11  N   UNK d   0     -22.648 -26.986  17.068  0.00  0.00    -0.248 NA
ATOM     12  C   UNK d   0     -22.606 -28.149  19.690  0.00  0.00     0.041 A 
ATOM     13  N   UNK d   0     -23.309 -27.051  20.027  0.00  0.00    -0.355 N 
ATOM     14  C   UNK d   0     -21.821 -28.568  20.780  0.00  0.00    -0.022 A 
ATOM     15  C   UNK d   0     -22.984 -26.757  21.300  0.00  0.00     0.042 A 
ATOM     16  H   UNK d   0     -24.035 -26.506  19.384  0.00  0.00     0.166 HD
ATOM     17  C   UNK d   0     -23.428 -25.715  22.139  0.00  0.00     0.062 C 
ATOM     18  C   UNK d   0     -22.054 -27.686  21.806  0.00  0.00    -0.013 A 
ATOM     19  C   UNK d   0     -23.581 -24.383  21.852  0.00  0.00     0.067 A 
ATOM     20  N   UNK d   0     -23.496 -24.028  20.567  0.00  0.00    -0.248 NA
ATOM     21  C   UNK d   0     -23.814 -23.169  22.617  0.00  0.00    -0.011 A 
ATOM     22  C   UNK d   0     -23.654 -22.670  20.437  0.00  0.00     0.066 A 
ATOM     23  C   UNK d   0     -23.625 -22.167  19.144  0.00  0.00     0.062 C 
ATOM     24  C   UNK d   0     -23.851 -22.170  21.783  0.00  0.00    -0.020 A 
ATOM     25  C   UNK d   0     -23.543 -22.887  17.943  0.00  0.00     0.041 A 
ATOM     26  N   UNK d   0     -22.834 -23.970  17.603  0.00  0.00    -0.355 N 
ATOM     27  C   UNK d   0     -24.335 -22.470  16.850  0.00  0.00    -0.022 A 
ATOM     28  C   UNK d   0     -23.149 -24.260  16.331  0.00  0.00     0.042 A 
ATOM     29  H   UNK d   0     -22.097 -24.510  18.246  0.00  0.00     0.166 HD
ATOM     30  C   UNK d   0     -22.709 -25.287  15.482  0.00  0.00     0.062 C 
ATOM     31  C   UNK d   0     -24.092 -23.333  15.827  0.00  0.00    -0.013 A 
ATOM     32  C   UNK d   0     -22.473 -26.616  15.798  0.00  0.00     0.066 A 
BRANCH   8  33
ATOM     33  C   UNK d   0     -21.683 -30.199  15.557  0.00  0.00     0.151 C 
BRANCH  33  34
ATOM     34  C   UNK d   0     -20.301 -30.544  15.936  0.00  0.00     0.143 C 
ATOM     35  O   UNK d   0     -19.983 -31.716  16.184  0.00  0.00    -0.650 OA
BRANCH  34  36
ATOM     36  O   UNK d   0     -19.354 -29.549  16.017  0.00  0.00    -0.776 OA
ATOM     37  H   UNK d   0     -19.440 -28.783  16.699  0.00  0.00     0.167 HD
ENDBRANCH  34  36
ENDBRANCH  33  34
ENDBRANCH   8  33
BRANCH  31  38
ATOM     38  C   UNK d   0     -24.726 -23.291  14.456  0.00  0.00     0.151 C 
BRANCH  38  39
ATOM     39  C   UNK d   0     -24.038 -22.399  13.546  0.00  0.00     0.143 C 
ATOM     40  O   UNK d   0     -22.954 -21.861  13.834  0.00  0.00    -0.650 OA
BRANCH  39  41
ATOM     41  O   UNK d   0     -24.597 -22.126  12.298  0.00  0.00    -0.776 OA
ATOM     42  H   UNK d   0     -25.203 -21.302  12.235  0.00  0.00     0.167 HD
ENDBRANCH  39  41
ENDBRANCH  38  39
ENDBRANCH  31  38
BRANCH  27  43
ATOM     43  C   UNK d   0     -25.289 -21.306  16.748  0.00  0.00     0.052 C 
BRANCH  43  44
ATOM     44  C   UNK d   0     -26.184 -21.169  17.936  0.00  0.00     0.115 C 
BRANCH  44  45
ATOM     45  C   UNK d   0     -25.991 -19.791  18.457  0.00  0.00     0.139 C 
ATOM     46  O   UNK d   0     -26.999 -19.171  18.878  0.00  0.00    -0.650 OA
BRANCH  45  47
ATOM     47  O   UNK d   0     -24.759 -19.175  18.502  0.00  0.00    -0.776 OA
ATOM     48  H   UNK d   0     -23.960 -19.560  19.031  0.00  0.00     0.167 HD
ENDBRANCH  45  47
ENDBRANCH  44  45
ENDBRANCH  43  44
ENDBRANCH  27  43
BRANCH  24  49
ATOM     49  C   UNK d   0     -24.103 -20.760  22.129  0.00  0.00     0.052 C 
BRANCH  49  50
ATOM     50  C   UNK d   0     -25.552 -20.415  21.902  0.00  0.00     0.115 C 
BRANCH  50  51
ATOM     51  C   UNK d   0     -26.180 -19.518  22.862  0.00  0.00     0.139 C 
ATOM     52  O   UNK d   0     -27.380 -19.631  23.209  0.00  0.00    -0.650 OA
BRANCH  51  53
ATOM     53  O   UNK d   0     -25.441 -18.489  23.425  0.00  0.00    -0.776 OA
ATOM     54  H   UNK d   0     -25.622 -17.550  23.117  0.00  0.00     0.167 HD
ENDBRANCH  51  53
ENDBRANCH  50  51
ENDBRANCH  49  50
ENDBRANCH  24  49
BRANCH  21  55
ATOM     55  C   UNK d   0     -23.979 -23.136  24.100  0.00  0.00     0.151 C 
BRANCH  55  56
ATOM     56  C   UNK d   0     -25.395 -23.137  24.497  0.00  0.00     0.143 C 
ATOM     57  O   UNK d   0     -26.183 -24.052  24.186  0.00  0.00    -0.650 OA
BRANCH  56  58
ATOM     58  O   UNK d   0     -25.858 -22.061  25.253  0.00  0.00    -0.776 OA
ATOM     59  H   UNK d   0     -25.132 -21.575  25.810  0.00  0.00     0.167 HD
ENDBRANCH  56  58
ENDBRANCH  55  56
ENDBRANCH  21  55
BRANCH  18  60
ATOM     60  C   UNK d   0     -21.408 -27.754  23.168  0.00  0.00     0.151 C 
BRANCH  60  61
ATOM     61  C   UNK d   0     -22.151 -28.779  23.916  0.00  0.00     0.143 C 
ATOM     62  O   UNK d   0     -21.737 -29.881  24.277  0.00  0.00    -0.650 OA
BRANCH  61  63
ATOM     63  O   UNK d   0     -23.485 -28.437  24.244  0.00  0.00    -0.776 OA
ATOM     64  H   UNK d   0     -24.155 -29.143  24.493  0.00  0.00     0.167 HD
ENDBRANCH  61  63
ENDBRANCH  60  61
ENDBRANCH  18  60
BRANCH  14  65
ATOM     65  C   UNK d   0     -20.954 -29.781  20.955  0.00  0.00     0.052 C 
BRANCH  65  66
ATOM     66  C   UNK d   0     -19.616 -29.637  20.320  0.00  0.00     0.115 C 
BRANCH  66  67
ATOM     67  C   UNK d   0     -19.119 -30.676  19.464  0.00  0.00     0.139 C 
ATOM     68  O   UNK d   0     -19.661 -31.840  19.533  0.00  0.00    -0.650 OA
BRANCH  67  69
ATOM     69  O   UNK d   0     -18.086 -30.592  18.531  0.00  0.00    -0.776 OA
ATOM     70  H   UNK d   0     -18.330 -30.862  17.567  0.00  0.00     0.167 HD
ENDBRANCH  67  69
ENDBRANCH  66  67
ENDBRANCH  65  66
ENDBRANCH  14  65
ENDBRANCH   6   7
ENDBRANCH   5   6
ENDBRANCH   2   5
TORSDOF 28
ENDMDL
MODEL 15
REMARK VINA RESULT:      -7.9      1.801      7.308
REMARK  28 active torsions:
REMARK  status: ('A' for Active; 'I' for Inactive)
REMARK    1  A    between atoms: C_2  and  O_3 
REMARK    2  A    between atoms: C_2  and  C_4 
REMARK    3  A    between atoms: C_4  and  C_5 
REMARK    4  A    between atoms: C_5  and  C_6 
REMARK    5  A    between atoms: C_7  and  C_8 
REMARK    6  A    between atoms: C_8  and  C_9 
REMARK    7  A    between atoms: C_9  and  O_11 
REMARK    8  A    between atoms: C_28  and  C_29 
REMARK    9  A    between atoms: C_29  and  C_30 
REMARK   10  A    between atoms: C_30  and  O_32 
REMARK   11  A    between atoms: C_33  and  C_34 
REMARK   12  A    between atoms: C_34  and  C_35 
REMARK   13  A    between atoms: C_35  and  C_36 
REMARK   14  A    between atoms: C_36  and  O_38 
REMARK   15  A    between atoms: C_39  and  C_40 
REMARK   16  A    between atoms: C_40  and  C_41 
REMARK   17  A    between atoms: C_41  and  C_42 
REMARK   18  A    between atoms: C_42  and  O_44 
REMARK   19  A    between atoms: C_45  and  C_46 
REMARK   20  A    between atoms: C_46  and  C_47 
REMARK   21  A    between atoms: C_47  and  O_49 
REMARK   22  A    between atoms: C_50  and  C_51 
REMARK   23  A    between atoms: C_51  and  C_52 
REMARK   24  A    between atoms: C_52  and  O_54 
REMARK   25  A    between atoms: C_55  and  C_56 
REMARK   26  A    between atoms: C_56  and  C_57 
REMARK   27  A    between atoms: C_57  and  C_58 
REMARK   28  A    between atoms: C_58  and  O_60 
ROOT
ATOM      1  O   UNK d   0     -23.761 -15.577  23.863  0.00  0.00    -0.650 OA
ATOM      2  C   UNK d   0     -24.363 -16.169  22.939  0.00  0.00     0.139 C 
ENDROOT
BRANCH   2   3
ATOM      3  O   UNK d   0     -25.409 -15.541  22.306  0.00  0.00    -0.776 OA
ATOM      4  H   UNK d   0     -26.236 -15.240  22.827  0.00  0.00     0.167 HD
ENDBRANCH   2   3
BRANCH   2   5
ATOM      5  C   UNK d   0     -23.946 -17.541  22.532  0.00  0.00     0.115 C 
BRANCH   5   6
ATOM      6  C   UNK d   0     -24.259 -18.523  23.628  0.00  0.00     0.052 C 
BRANCH   6   7
ATOM      7  C   UNK d   0     -23.104 -19.449  23.924  0.00  0.00    -0.020 A 
ATOM      8  C   UNK d   0     -22.027 -19.186  24.620  0.00  0.00    -0.011 A 
ATOM      9  C   UNK d   0     -21.198 -20.379  24.626  0.00  0.00     0.067 A 
ATOM     10  C   UNK d   0     -19.968 -20.755  25.189  0.00  0.00     0.062 C 
ATOM     11  N   UNK d   0     -21.844 -21.319  23.904  0.00  0.00    -0.248 NA
ATOM     12  C   UNK d   0     -19.455 -22.050  25.316  0.00  0.00     0.041 A 
ATOM     13  N   UNK d   0     -19.442 -23.087  24.457  0.00  0.00    -0.355 N 
ATOM     14  C   UNK d   0     -18.885 -22.439  26.542  0.00  0.00    -0.022 A 
ATOM     15  C   UNK d   0     -18.885 -24.125  25.109  0.00  0.00     0.042 A 
ATOM     16  H   UNK d   0     -19.801 -23.080  23.404  0.00  0.00     0.166 HD
ATOM     17  C   UNK d   0     -18.628 -25.442  24.678  0.00  0.00     0.062 C 
ATOM     18  C   UNK d   0     -18.523 -23.757  26.419  0.00  0.00    -0.013 A 
ATOM     19  C   UNK d   0     -19.443 -26.295  23.979  0.00  0.00     0.067 A 
ATOM     20  N   UNK d   0     -20.555 -25.774  23.453  0.00  0.00    -0.248 NA
ATOM     21  C   UNK d   0     -19.433 -27.710  23.644  0.00  0.00    -0.011 A 
ATOM     22  C   UNK d   0     -21.273 -26.745  22.799  0.00  0.00     0.066 A 
ATOM     23  C   UNK d   0     -22.438 -26.332  22.171  0.00  0.00     0.062 C 
ATOM     24  C   UNK d   0     -20.509 -27.967  22.957  0.00  0.00    -0.020 A 
ATOM     25  C   UNK d   0     -22.929 -25.023  22.043  0.00  0.00     0.041 A 
ATOM     26  N   UNK d   0     -22.956 -23.997  22.902  0.00  0.00    -0.355 N 
ATOM     27  C   UNK d   0     -23.497 -24.633  20.811  0.00  0.00    -0.022 A 
ATOM     28  C   UNK d   0     -23.519 -22.963  22.257  0.00  0.00     0.042 A 
ATOM     29  H   UNK d   0     -22.604 -24.010  23.963  0.00  0.00     0.166 HD
ATOM     30  C   UNK d   0     -23.789 -21.651  22.676  0.00  0.00     0.062 C 
ATOM     31  C   UNK d   0     -23.873 -23.331  20.937  0.00  0.00    -0.013 A 
ATOM     32  C   UNK d   0     -22.997 -20.823  23.455  0.00  0.00     0.066 A 
BRANCH   8  33
ATOM     33  C   UNK d   0     -21.692 -17.912  25.283  0.00  0.00     0.151 C 
BRANCH  33  34
ATOM     34  C   UNK d   0     -20.612 -17.179  24.598  0.00  0.00     0.143 C 
ATOM     35  O   UNK d   0     -19.423 -17.451  24.814  0.00  0.00    -0.650 OA
BRANCH  34  36
ATOM     36  O   UNK d   0     -20.933 -16.179  23.710  0.00  0.00    -0.776 OA
ATOM     37  H   UNK d   0     -20.245 -15.828  23.029  0.00  0.00     0.167 HD
ENDBRANCH  34  36
ENDBRANCH  33  34
ENDBRANCH   8  33
BRANCH  31  38
ATOM     38  C   UNK d   0     -24.517 -22.481  19.867  0.00  0.00     0.151 C 
BRANCH  38  39
ATOM     39  C   UNK d   0     -23.637 -21.445  19.368  0.00  0.00     0.143 C 
ATOM     40  O   UNK d   0     -22.399 -21.535  19.434  0.00  0.00    -0.650 OA
BRANCH  39  41
ATOM     41  O   UNK d   0     -24.184 -20.301  18.788  0.00  0.00    -0.776 OA
ATOM     42  H   UNK d   0     -24.513 -20.385  17.821  0.00  0.00     0.167 HD
ENDBRANCH  39  41
ENDBRANCH  38  39
ENDBRANCH  31  38
BRANCH  27  43
ATOM     43  C   UNK d   0     -23.693 -25.436  19.549  0.00  0.00     0.052 C 
BRANCH  43  44
ATOM     44  C   UNK d   0     -23.190 -24.743  18.324  0.00  0.00     0.115 C 
BRANCH  44  45
ATOM     45  C   UNK d   0     -22.833 -25.808  17.351  0.00  0.00     0.139 C 
ATOM     46  O   UNK d   0     -22.270 -25.468  16.281  0.00  0.00    -0.650 OA
BRANCH  45  47
ATOM     47  O   UNK d   0     -23.087 -27.144  17.577  0.00  0.00    -0.776 OA
ATOM     48  H   UNK d   0     -23.064 -27.567  18.519  0.00  0.00     0.167 HD
ENDBRANCH  45  47
ENDBRANCH  44  45
ENDBRANCH  43  44
ENDBRANCH  27  43
BRANCH  24  49
ATOM     49  C   UNK d   0     -20.880 -29.272  22.382  0.00  0.00     0.052 C 
BRANCH  49  50
ATOM     50  C   UNK d   0     -20.577 -29.299  20.906  0.00  0.00     0.115 C 
BRANCH  50  51
ATOM     51  C   UNK d   0     -19.320 -29.909  20.496  0.00  0.00     0.139 C 
ATOM     52  O   UNK d   0     -19.218 -31.127  20.216  0.00  0.00    -0.650 OA
BRANCH  51  53
ATOM     53  O   UNK d   0     -18.176 -29.131  20.409  0.00  0.00    -0.776 OA
ATOM     54  H   UNK d   0     -17.603 -29.033  21.229  0.00  0.00     0.167 HD
ENDBRANCH  51  53
ENDBRANCH  50  51
ENDBRANCH  49  50
ENDBRANCH  24  49
BRANCH  21  55
ATOM     55  C   UNK d   0     -18.348 -28.654  24.042  0.00  0.00     0.151 C 
BRANCH  55  56
ATOM     56  C   UNK d   0     -18.309 -28.869  25.496  0.00  0.00     0.143 C 
ATOM     57  O   UNK d   0     -17.616 -28.171  26.263  0.00  0.00    -0.650 OA
BRANCH  56  58
ATOM     58  O   UNK d   0     -19.086 -29.899  26.022  0.00  0.00    -0.776 OA
ATOM     59  H   UNK d   0     -19.255 -29.841  27.042  0.00  0.00     0.167 HD
ENDBRANCH  56  58
ENDBRANCH  55  56
ENDBRANCH  21  55
BRANCH  18  60
ATOM     60  C   UNK d   0     -17.878 -24.581  27.506  0.00  0.00     0.151 C 
BRANCH  60  61
ATOM     61  C   UNK d   0     -16.452 -24.665  27.156  0.00  0.00     0.143 C 
ATOM     62  O   UNK d   0     -15.694 -23.728  26.900  0.00  0.00    -0.650 OA
BRANCH  61  63
ATOM     63  O   UNK d   0     -15.917 -25.975  27.117  0.00  0.00    -0.776 OA
ATOM     64  H   UNK d   0     -15.614 -26.436  27.957  0.00  0.00     0.167 HD
ENDBRANCH  61  63
ENDBRANCH  60  61
ENDBRANCH  18  60
BRANCH  14  65
ATOM     65  C   UNK d   0     -18.570 -21.639  27.774  0.00  0.00     0.052 C 
BRANCH  65  66
ATOM     66  C   UNK d   0     -19.752 -21.434  28.653  0.00  0.00     0.115 C 
BRANCH  66  67
ATOM     67  C   UNK d   0     -20.241 -22.520  29.455  0.00  0.00     0.139 C 
ATOM     68  O   UNK d   0     -20.123 -22.441  30.733  0.00  0.00    -0.650 OA
BRANCH  67  69
ATOM     69  O   UNK d   0     -20.848 -23.697  29.018  0.00  0.00    -0.776 OA
ATOM     70  H   UNK d   0     -21.874 -23.731  29.109  0.00  0.00     0.167 HD
ENDBRANCH  67  69
ENDBRANCH  66  67
ENDBRANCH  65  66
ENDBRANCH  14  65
ENDBRANCH   6   7
ENDBRANCH   5   6
ENDBRANCH   2   5
TORSDOF 28
ENDMDL
MODEL 16
REMARK VINA RESULT:      -7.8      1.694      2.194
REMARK  28 active torsions:
REMARK  status: ('A' for Active; 'I' for Inactive)
REMARK    1  A    between atoms: C_2  and  O_3 
REMARK    2  A    between atoms: C_2  and  C_4 
REMARK    3  A    between atoms: C_4  and  C_5 
REMARK    4  A    between atoms: C_5  and  C_6 
REMARK    5  A    between atoms: C_7  and  C_8 
REMARK    6  A    between atoms: C_8  and  C_9 
REMARK    7  A    between atoms: C_9  and  O_11 
REMARK    8  A    between atoms: C_28  and  C_29 
REMARK    9  A    between atoms: C_29  and  C_30 
REMARK   10  A    between atoms: C_30  and  O_32 
REMARK   11  A    between atoms: C_33  and  C_34 
REMARK   12  A    between atoms: C_34  and  C_35 
REMARK   13  A    between atoms: C_35  and  C_36 
REMARK   14  A    between atoms: C_36  and  O_38 
REMARK   15  A    between atoms: C_39  and  C_40 
REMARK   16  A    between atoms: C_40  and  C_41 
REMARK   17  A    between atoms: C_41  and  C_42 
REMARK   18  A    between atoms: C_42  and  O_44 
REMARK   19  A    between atoms: C_45  and  C_46 
REMARK   20  A    between atoms: C_46  and  C_47 
REMARK   21  A    between atoms: C_47  and  O_49 
REMARK   22  A    between atoms: C_50  and  C_51 
REMARK   23  A    between atoms: C_51  and  C_52 
REMARK   24  A    between atoms: C_52  and  O_54 
REMARK   25  A    between atoms: C_55  and  C_56 
REMARK   26  A    between atoms: C_56  and  C_57 
REMARK   27  A    between atoms: C_57  and  C_58 
REMARK   28  A    between atoms: C_58  and  O_60 
ROOT
ATOM      1  O   UNK d   0     -20.241 -15.484  27.504  0.00  0.00    -0.650 OA
ATOM      2  C   UNK d   0     -21.053 -16.125  26.799  0.00  0.00     0.139 C 
ENDROOT
BRANCH   2   3
ATOM      3  O   UNK d   0     -22.377 -15.756  26.793  0.00  0.00    -0.776 OA
ATOM      4  H   UNK d   0     -23.119 -16.458  26.756  0.00  0.00     0.167 HD
ENDBRANCH   2   3
BRANCH   2   5
ATOM      5  C   UNK d   0     -20.583 -17.275  25.976  0.00  0.00     0.115 C 
BRANCH   5   6
ATOM      6  C   UNK d   0     -20.917 -17.045  24.527  0.00  0.00     0.052 C 
BRANCH   6   7
ATOM      7  C   UNK d   0     -21.658 -18.206  23.909  0.00  0.00    -0.020 A 
ATOM      8  C   UNK d   0     -22.739 -18.163  23.174  0.00  0.00    -0.011 A 
ATOM      9  C   UNK d   0     -23.088 -19.528  22.816  0.00  0.00     0.067 A 
ATOM     10  C   UNK d   0     -24.089 -20.150  22.053  0.00  0.00     0.062 C 
ATOM     11  N   UNK d   0     -22.169 -20.338  23.380  0.00  0.00    -0.248 NA
ATOM     12  C   UNK d   0     -24.103 -21.469  21.588  0.00  0.00     0.041 A 
ATOM     13  N   UNK d   0     -23.768 -22.625  22.192  0.00  0.00    -0.355 N 
ATOM     14  C   UNK d   0     -24.466 -21.717  20.252  0.00  0.00    -0.022 A 
ATOM     15  C   UNK d   0     -23.902 -23.598  21.272  0.00  0.00     0.042 A 
ATOM     16  H   UNK d   0     -23.462 -22.753  23.254  0.00  0.00     0.166 HD
ATOM     17  C   UNK d   0     -23.683 -24.987  21.372  0.00  0.00     0.062 C 
ATOM     18  C   UNK d   0     -24.338 -23.067  20.042  0.00  0.00    -0.013 A 
ATOM     19  C   UNK d   0     -22.636 -25.655  21.952  0.00  0.00     0.067 A 
ATOM     20  N   UNK d   0     -21.797 -24.933  22.699  0.00  0.00    -0.248 NA
ATOM     21  C   UNK d   0     -22.149 -27.025  21.966  0.00  0.00    -0.011 A 
ATOM     22  C   UNK d   0     -20.796 -25.730  23.199  0.00  0.00     0.066 A 
ATOM     23  C   UNK d   0     -19.871 -25.112  24.027  0.00  0.00     0.062 C 
ATOM     24  C   UNK d   0     -21.070 -27.061  22.694  0.00  0.00    -0.020 A 
ATOM     25  C   UNK d   0     -19.882 -23.788  24.492  0.00  0.00     0.041 A 
ATOM     26  N   UNK d   0     -20.201 -22.637  23.887  0.00  0.00    -0.355 N 
ATOM     27  C   UNK d   0     -19.522 -23.541  25.835  0.00  0.00    -0.022 A 
ATOM     28  C   UNK d   0     -20.060 -21.664  24.801  0.00  0.00     0.042 A 
ATOM     29  H   UNK d   0     -20.498 -22.509  22.817  0.00  0.00     0.166 HD
ATOM     30  C   UNK d   0     -20.265 -20.278  24.712  0.00  0.00     0.062 C 
ATOM     31  C   UNK d   0     -19.632 -22.200  26.039  0.00  0.00    -0.013 A 
ATOM     32  C   UNK d   0     -21.280 -19.604  24.051  0.00  0.00     0.066 A 
BRANCH   8  33
ATOM     33  C   UNK d   0     -23.489 -16.958  22.774  0.00  0.00     0.151 C 
BRANCH  33  34
ATOM     34  C   UNK d   0     -23.801 -16.075  23.912  0.00  0.00     0.143 C 
ATOM     35  O   UNK d   0     -24.570 -16.443  24.811  0.00  0.00    -0.650 OA
BRANCH  34  36
ATOM     36  O   UNK d   0     -23.229 -14.825  23.973  0.00  0.00    -0.776 OA
ATOM     37  H   UNK d   0     -23.720 -13.995  23.613  0.00  0.00     0.167 HD
ENDBRANCH  34  36
ENDBRANCH  33  34
ENDBRANCH   8  33
BRANCH  31  38
ATOM     38  C   UNK d   0     -19.361 -21.470  27.333  0.00  0.00     0.151 C 
BRANCH  38  39
ATOM     39  C   UNK d   0     -17.993 -21.009  27.443  0.00  0.00     0.143 C 
ATOM     40  O   UNK d   0     -17.173 -21.536  28.215  0.00  0.00    -0.650 OA
BRANCH  39  41
ATOM     41  O   UNK d   0     -17.565 -19.938  26.659  0.00  0.00    -0.776 OA
ATOM     42  H   UNK d   0     -16.560 -19.881  26.464  0.00  0.00     0.167 HD
ENDBRANCH  39  41
ENDBRANCH  38  39
ENDBRANCH  31  38
BRANCH  27  43
ATOM     43  C   UNK d   0     -19.084 -24.511  26.904  0.00  0.00     0.052 C 
BRANCH  43  44
ATOM     44  C   UNK d   0     -17.612 -24.766  26.904  0.00  0.00     0.115 C 
BRANCH  44  45
ATOM     45  C   UNK d   0     -17.430 -26.204  27.228  0.00  0.00     0.139 C 
ATOM     46  O   UNK d   0     -17.120 -26.511  28.406  0.00  0.00    -0.650 OA
BRANCH  45  47
ATOM     47  O   UNK d   0     -17.593 -27.207  26.296  0.00  0.00    -0.776 OA
ATOM     48  H   UNK d   0     -17.058 -27.243  25.413  0.00  0.00     0.167 HD
ENDBRANCH  45  47
ENDBRANCH  44  45
ENDBRANCH  43  44
ENDBRANCH  27  43
BRANCH  24  49
ATOM     49  C   UNK d   0     -20.273 -28.260  23.006  0.00  0.00     0.052 C 
BRANCH  49  50
ATOM     50  C   UNK d   0     -21.055 -29.192  23.895  0.00  0.00     0.115 C 
BRANCH  50  51
ATOM     51  C   UNK d   0     -20.455 -30.486  24.193  0.00  0.00     0.139 C 
ATOM     52  O   UNK d   0     -19.969 -30.763  25.315  0.00  0.00    -0.650 OA
BRANCH  51  53
ATOM     53  O   UNK d   0     -20.407 -31.463  23.211  0.00  0.00    -0.776 OA
ATOM     54  H   UNK d   0     -19.682 -32.156  23.264  0.00  0.00     0.167 HD
ENDBRANCH  51  53
ENDBRANCH  50  51
ENDBRANCH  49  50
ENDBRANCH  24  49
BRANCH  21  55
ATOM     55  C   UNK d   0     -22.816 -28.155  21.254  0.00  0.00     0.151 C 
BRANCH  55  56
ATOM     56  C   UNK d   0     -22.480 -28.179  19.822  0.00  0.00     0.143 C 
ATOM     57  O   UNK d   0     -23.106 -27.517  18.971  0.00  0.00    -0.650 OA
BRANCH  56  58
ATOM     58  O   UNK d   0     -21.415 -28.983  19.419  0.00  0.00    -0.776 OA
ATOM     59  H   UNK d   0     -21.305 -29.079  18.393  0.00  0.00     0.167 HD
ENDBRANCH  56  58
ENDBRANCH  55  56
ENDBRANCH  21  55
BRANCH  18  60
ATOM     60  C   UNK d   0     -24.619 -23.770  18.737  0.00  0.00     0.151 C 
BRANCH  60  61
ATOM     61  C   UNK d   0     -23.305 -24.084  18.156  0.00  0.00     0.143 C 
ATOM     62  O   UNK d   0     -22.258 -23.453  18.305  0.00  0.00    -0.650 OA
BRANCH  61  63
ATOM     63  O   UNK d   0     -23.266 -25.242  17.343  0.00  0.00    -0.776 OA
ATOM     64  H   UNK d   0     -23.512 -26.143  17.712  0.00  0.00     0.167 HD
ENDBRANCH  61  63
ENDBRANCH  60  61
ENDBRANCH  18  60
BRANCH  14  65
ATOM     65  C   UNK d   0     -25.014 -20.797  19.198  0.00  0.00     0.052 C 
BRANCH  65  66
ATOM     66  C   UNK d   0     -23.970 -19.943  18.571  0.00  0.00     0.115 C 
BRANCH  66  67
ATOM     67  C   UNK d   0     -23.424 -20.308  17.295  0.00  0.00     0.139 C 
ATOM     68  O   UNK d   0     -24.083 -20.001  16.234  0.00  0.00    -0.650 OA
BRANCH  67  69
ATOM     69  O   UNK d   0     -22.228 -20.978  17.039  0.00  0.00    -0.776 OA
ATOM     70  H   UNK d   0     -22.135 -21.909  17.469  0.00  0.00     0.167 HD
ENDBRANCH  67  69
ENDBRANCH  66  67
ENDBRANCH  65  66
ENDBRANCH  14  65
ENDBRANCH   6   7
ENDBRANCH   5   6
ENDBRANCH   2   5
TORSDOF 28
ENDMDL
MODEL 17
REMARK VINA RESULT:      -7.7      4.227     12.506
REMARK  28 active torsions:
REMARK  status: ('A' for Active; 'I' for Inactive)
REMARK    1  A    between atoms: C_2  and  O_3 
REMARK    2  A    between atoms: C_2  and  C_4 
REMARK    3  A    between atoms: C_4  and  C_5 
REMARK    4  A    between atoms: C_5  and  C_6 
REMARK    5  A    between atoms: C_7  and  C_8 
REMARK    6  A    between atoms: C_8  and  C_9 
REMARK    7  A    between atoms: C_9  and  O_11 
REMARK    8  A    between atoms: C_28  and  C_29 
REMARK    9  A    between atoms: C_29  and  C_30 
REMARK   10  A    between atoms: C_30  and  O_32 
REMARK   11  A    between atoms: C_33  and  C_34 
REMARK   12  A    between atoms: C_34  and  C_35 
REMARK   13  A    between atoms: C_35  and  C_36 
REMARK   14  A    between atoms: C_36  and  O_38 
REMARK   15  A    between atoms: C_39  and  C_40 
REMARK   16  A    between atoms: C_40  and  C_41 
REMARK   17  A    between atoms: C_41  and  C_42 
REMARK   18  A    between atoms: C_42  and  O_44 
REMARK   19  A    between atoms: C_45  and  C_46 
REMARK   20  A    between atoms: C_46  and  C_47 
REMARK   21  A    between atoms: C_47  and  O_49 
REMARK   22  A    between atoms: C_50  and  C_51 
REMARK   23  A    between atoms: C_51  and  C_52 
REMARK   24  A    between atoms: C_52  and  O_54 
REMARK   25  A    between atoms: C_55  and  C_56 
REMARK   26  A    between atoms: C_56  and  C_57 
REMARK   27  A    between atoms: C_57  and  C_58 
REMARK   28  A    between atoms: C_58  and  O_60 
ROOT
ATOM      1  O   UNK d   0     -18.039 -29.913  13.533  0.00  0.00    -0.650 OA
ATOM      2  C   UNK d   0     -19.193 -30.143  13.957  0.00  0.00     0.139 C 
ENDROOT
BRANCH   2   3
ATOM      3  O   UNK d   0     -19.588 -31.443  14.163  0.00  0.00    -0.776 OA
ATOM      4  H   UNK d   0     -19.091 -32.221  13.726  0.00  0.00     0.167 HD
ENDBRANCH   2   3
BRANCH   2   5
ATOM      5  C   UNK d   0     -20.127 -29.015  14.234  0.00  0.00     0.115 C 
BRANCH   5   6
ATOM      6  C   UNK d   0     -21.467 -29.547  14.664  0.00  0.00     0.052 C 
BRANCH   6   7
ATOM      7  C   UNK d   0     -21.934 -28.957  15.974  0.00  0.00    -0.020 A 
ATOM      8  C   UNK d   0     -21.995 -29.550  17.139  0.00  0.00    -0.011 A 
ATOM      9  C   UNK d   0     -22.513 -28.590  18.099  0.00  0.00     0.067 A 
ATOM     10  C   UNK d   0     -22.791 -28.584  19.475  0.00  0.00     0.062 C 
ATOM     11  N   UNK d   0     -22.746 -27.441  17.431  0.00  0.00    -0.248 NA
ATOM     12  C   UNK d   0     -23.028 -27.469  20.286  0.00  0.00     0.041 A 
ATOM     13  N   UNK d   0     -23.763 -26.360  20.076  0.00  0.00    -0.355 N 
ATOM     14  C   UNK d   0     -22.383 -27.385  21.534  0.00  0.00    -0.022 A 
ATOM     15  C   UNK d   0     -23.594 -25.572  21.155  0.00  0.00     0.042 A 
ATOM     16  H   UNK d   0     -24.403 -26.147  19.192  0.00  0.00     0.166 HD
ATOM     17  C   UNK d   0     -24.133 -24.304  21.453  0.00  0.00     0.062 C 
ATOM     18  C   UNK d   0     -22.735 -26.181  22.090  0.00  0.00    -0.013 A 
ATOM     19  C   UNK d   0     -24.246 -23.203  20.644  0.00  0.00     0.067 A 
ATOM     20  N   UNK d   0     -24.004 -23.381  19.343  0.00  0.00    -0.248 NA
ATOM     21  C   UNK d   0     -24.566 -21.798  20.831  0.00  0.00    -0.011 A 
ATOM     22  C   UNK d   0     -24.140 -22.195  18.665  0.00  0.00     0.066 A 
ATOM     23  C   UNK d   0     -23.953 -22.243  17.292  0.00  0.00     0.062 C 
ATOM     24  C   UNK d   0     -24.498 -21.212  19.670  0.00  0.00    -0.020 A 
ATOM     25  C   UNK d   0     -23.728 -23.376  16.494  0.00  0.00     0.041 A 
ATOM     26  N   UNK d   0     -22.986 -24.471  16.696  0.00  0.00    -0.355 N 
ATOM     27  C   UNK d   0     -24.379 -23.461  15.244  0.00  0.00    -0.022 A 
ATOM     28  C   UNK d   0     -23.145 -25.255  15.618  0.00  0.00     0.042 A 
ATOM     29  H   UNK d   0     -22.335 -24.679  17.580  0.00  0.00     0.166 HD
ATOM     30  C   UNK d   0     -22.608 -26.513  15.304  0.00  0.00     0.062 C 
ATOM     31  C   UNK d   0     -24.017 -24.647  14.683  0.00  0.00    -0.013 A 
ATOM     32  C   UNK d   0     -22.418 -27.596  16.148  0.00  0.00     0.066 A 
BRANCH   8  33
ATOM     33  C   UNK d   0     -21.616 -30.942  17.445  0.00  0.00     0.151 C 
BRANCH  33  34
ATOM     34  C   UNK d   0     -20.229 -31.063  17.928  0.00  0.00     0.143 C 
ATOM     35  O   UNK d   0     -19.947 -30.845  19.114  0.00  0.00    -0.650 OA
BRANCH  34  36
ATOM     36  O   UNK d   0     -19.235 -31.421  17.046  0.00  0.00    -0.776 OA
ATOM     37  H   UNK d   0     -18.263 -31.548  17.359  0.00  0.00     0.167 HD
ENDBRANCH  34  36
ENDBRANCH  33  34
ENDBRANCH   8  33
BRANCH  31  38
ATOM     38  C   UNK d   0     -24.479 -25.179  13.347  0.00  0.00     0.151 C 
BRANCH  38  39
ATOM     39  C   UNK d   0     -23.563 -24.867  12.271  0.00  0.00     0.143 C 
ATOM     40  O   UNK d   0     -22.330 -24.837  12.434  0.00  0.00    -0.650 OA
BRANCH  39  41
ATOM     41  O   UNK d   0     -24.066 -24.589  11.000  0.00  0.00    -0.776 OA
ATOM     42  H   UNK d   0     -25.071 -24.403  10.932  0.00  0.00     0.167 HD
ENDBRANCH  39  41
ENDBRANCH  38  39
ENDBRANCH  31  38
BRANCH  27  43
ATOM     43  C   UNK d   0     -25.310 -22.477  14.579  0.00  0.00     0.052 C 
BRANCH  43  44
ATOM     44  C   UNK d   0     -24.735 -21.861  13.345  0.00  0.00     0.115 C 
BRANCH  44  45
ATOM     45  C   UNK d   0     -25.859 -21.705  12.386  0.00  0.00     0.139 C 
ATOM     46  O   UNK d   0     -25.943 -22.520  11.435  0.00  0.00    -0.650 OA
BRANCH  45  47
ATOM     47  O   UNK d   0     -26.807 -20.711  12.502  0.00  0.00    -0.776 OA
ATOM     48  H   UNK d   0     -26.954 -19.990  11.777  0.00  0.00     0.167 HD
ENDBRANCH  45  47
ENDBRANCH  44  45
ENDBRANCH  43  44
ENDBRANCH  27  43
BRANCH  24  49
ATOM     49  C   UNK d   0     -24.785 -19.794  19.394  0.00  0.00     0.052 C 
BRANCH  49  50
ATOM     50  C   UNK d   0     -26.250 -19.605  19.091  0.00  0.00     0.115 C 
BRANCH  50  51
ATOM     51  C   UNK d   0     -26.871 -18.373  19.559  0.00  0.00     0.139 C 
ATOM     52  O   UNK d   0     -28.073 -18.095  19.336  0.00  0.00    -0.650 OA
BRANCH  51  53
ATOM     53  O   UNK d   0     -26.121 -17.455  20.278  0.00  0.00    -0.776 OA
ATOM     54  H   UNK d   0     -26.602 -16.697  20.728  0.00  0.00     0.167 HD
ENDBRANCH  51  53
ENDBRANCH  50  51
ENDBRANCH  49  50
ENDBRANCH  24  49
BRANCH  21  55
ATOM     55  C   UNK d   0     -24.910 -21.188  22.149  0.00  0.00     0.151 C 
BRANCH  55  56
ATOM     56  C   UNK d   0     -23.711 -20.875  22.941  0.00  0.00     0.143 C 
ATOM     57  O   UNK d   0     -23.103 -19.791  22.845  0.00  0.00    -0.650 OA
BRANCH  56  58
ATOM     58  O   UNK d   0     -23.252 -21.843  23.833  0.00  0.00    -0.776 OA
ATOM     59  H   UNK d   0     -22.504 -21.524  24.475  0.00  0.00     0.167 HD
ENDBRANCH  56  58
ENDBRANCH  55  56
ENDBRANCH  21  55
BRANCH  18  60
ATOM     60  C   UNK d   0     -22.260 -25.676  23.430  0.00  0.00     0.151 C 
BRANCH  60  61
ATOM     61  C   UNK d   0     -20.986 -24.988  23.173  0.00  0.00     0.143 C 
ATOM     62  O   UNK d   0     -19.853 -25.453  23.301  0.00  0.00    -0.650 OA
BRANCH  61  63
ATOM     63  O   UNK d   0     -21.103 -23.648  22.733  0.00  0.00    -0.776 OA
ATOM     64  H   UNK d   0     -20.399 -22.966  22.954  0.00  0.00     0.167 HD
ENDBRANCH  61  63
ENDBRANCH  60  61
ENDBRANCH  18  60
BRANCH  14  65
ATOM     65  C   UNK d   0     -21.547 -28.390  22.275  0.00  0.00     0.052 C 
BRANCH  65  66
ATOM     66  C   UNK d   0     -20.201 -28.584  21.672  0.00  0.00     0.115 C 
BRANCH  66  67
ATOM     67  C   UNK d   0     -19.056 -28.741  22.523  0.00  0.00     0.139 C 
ATOM     68  O   UNK d   0     -18.916 -29.844  23.168  0.00  0.00    -0.650 OA
BRANCH  67  69
ATOM     69  O   UNK d   0     -18.033 -27.821  22.755  0.00  0.00    -0.776 OA
ATOM     70  H   UNK d   0     -17.985 -27.437  23.709  0.00  0.00     0.167 HD
ENDBRANCH  67  69
ENDBRANCH  66  67
ENDBRANCH  65  66
ENDBRANCH  14  65
ENDBRANCH   6   7
ENDBRANCH   5   6
ENDBRANCH   2   5
TORSDOF 28
ENDMDL
MODEL 18
REMARK VINA RESULT:      -7.7      5.984     11.460
REMARK  28 active torsions:
REMARK  status: ('A' for Active; 'I' for Inactive)
REMARK    1  A    between atoms: C_2  and  O_3 
REMARK    2  A    between atoms: C_2  and  C_4 
REMARK    3  A    between atoms: C_4  and  C_5 
REMARK    4  A    between atoms: C_5  and  C_6 
REMARK    5  A    between atoms: C_7  and  C_8 
REMARK    6  A    between atoms: C_8  and  C_9 
REMARK    7  A    between atoms: C_9  and  O_11 
REMARK    8  A    between atoms: C_28  and  C_29 
REMARK    9  A    between atoms: C_29  and  C_30 
REMARK   10  A    between atoms: C_30  and  O_32 
REMARK   11  A    between atoms: C_33  and  C_34 
REMARK   12  A    between atoms: C_34  and  C_35 
REMARK   13  A    between atoms: C_35  and  C_36 
REMARK   14  A    between atoms: C_36  and  O_38 
REMARK   15  A    between atoms: C_39  and  C_40 
REMARK   16  A    between atoms: C_40  and  C_41 
REMARK   17  A    between atoms: C_41  and  C_42 
REMARK   18  A    between atoms: C_42  and  O_44 
REMARK   19  A    between atoms: C_45  and  C_46 
REMARK   20  A    between atoms: C_46  and  C_47 
REMARK   21  A    between atoms: C_47  and  O_49 
REMARK   22  A    between atoms: C_50  and  C_51 
REMARK   23  A    between atoms: C_51  and  C_52 
REMARK   24  A    between atoms: C_52  and  O_54 
REMARK   25  A    between atoms: C_55  and  C_56 
REMARK   26  A    between atoms: C_56  and  C_57 
REMARK   27  A    between atoms: C_57  and  C_58 
REMARK   28  A    between atoms: C_58  and  O_60 
ROOT
ATOM      1  O   UNK d   0     -20.046 -30.837  11.552  0.00  0.00    -0.650 OA
ATOM      2  C   UNK d   0     -21.194 -30.556  11.144  0.00  0.00     0.139 C 
ENDROOT
BRANCH   2   3
ATOM      3  O   UNK d   0     -22.217 -31.452  11.343  0.00  0.00    -0.776 OA
ATOM      4  H   UNK d   0     -23.189 -31.191  11.164  0.00  0.00     0.167 HD
ENDBRANCH   2   3
BRANCH   2   5
ATOM      5  C   UNK d   0     -21.446 -29.263  10.447  0.00  0.00     0.115 C 
BRANCH   5   6
ATOM      6  C   UNK d   0     -22.848 -28.791  10.723  0.00  0.00     0.052 C 
BRANCH   6   7
ATOM      7  C   UNK d   0     -22.902 -27.718  11.784  0.00  0.00    -0.020 A 
ATOM      8  C   UNK d   0     -23.025 -26.428  11.609  0.00  0.00    -0.011 A 
ATOM      9  C   UNK d   0     -23.021 -25.799  12.920  0.00  0.00     0.067 A 
ATOM     10  C   UNK d   0     -23.135 -24.490  13.415  0.00  0.00     0.062 C 
ATOM     11  N   UNK d   0     -22.885 -26.781  13.835  0.00  0.00    -0.248 NA
ATOM     12  C   UNK d   0     -23.389 -24.104  14.736  0.00  0.00     0.041 A 
ATOM     13  N   UNK d   0     -22.900 -24.563  15.903  0.00  0.00    -0.355 N 
ATOM     14  C   UNK d   0     -24.350 -23.105  14.980  0.00  0.00    -0.022 A 
ATOM     15  C   UNK d   0     -23.531 -23.886  16.882  0.00  0.00     0.042 A 
ATOM     16  H   UNK d   0     -22.110 -25.335  16.033  0.00  0.00     0.166 HD
ATOM     17  C   UNK d   0     -23.398 -23.971  18.282  0.00  0.00     0.062 C 
ATOM     18  C   UNK d   0     -24.447 -22.964  16.342  0.00  0.00    -0.013 A 
ATOM     19  C   UNK d   0     -23.325 -25.087  19.076  0.00  0.00     0.067 A 
ATOM     20  N   UNK d   0     -23.158 -26.259  18.458  0.00  0.00    -0.248 NA
ATOM     21  C   UNK d   0     -23.399 -25.362  20.501  0.00  0.00    -0.011 A 
ATOM     22  C   UNK d   0     -23.119 -27.280  19.375  0.00  0.00     0.066 A 
ATOM     23  C   UNK d   0     -22.911 -28.555  18.869  0.00  0.00     0.062 C 
ATOM     24  C   UNK d   0     -23.282 -26.648  20.669  0.00  0.00    -0.020 A 
ATOM     25  C   UNK d   0     -22.645 -28.921  17.540  0.00  0.00     0.041 A 
ATOM     26  N   UNK d   0     -23.143 -28.476  16.380  0.00  0.00    -0.355 N 
ATOM     27  C   UNK d   0     -21.678 -29.920  17.296  0.00  0.00    -0.022 A 
ATOM     28  C   UNK d   0     -22.522 -29.155  15.403  0.00  0.00     0.042 A 
ATOM     29  H   UNK d   0     -23.944 -27.707  16.252  0.00  0.00     0.166 HD
ATOM     30  C   UNK d   0     -22.650 -29.087  14.007  0.00  0.00     0.062 C 
ATOM     31  C   UNK d   0     -21.593 -30.074  15.946  0.00  0.00    -0.013 A 
ATOM     32  C   UNK d   0     -22.809 -27.960  13.216  0.00  0.00     0.066 A 
BRANCH   8  33
ATOM     33  C   UNK d   0     -23.143 -25.716  10.323  0.00  0.00     0.151 C 
BRANCH  33  34
ATOM     34  C   UNK d   0     -24.476 -25.120  10.121  0.00  0.00     0.143 C 
ATOM     35  O   UNK d   0     -25.429 -25.810   9.733  0.00  0.00    -0.650 OA
BRANCH  34  36
ATOM     36  O   UNK d   0     -24.660 -23.779  10.365  0.00  0.00    -0.776 OA
ATOM     37  H   UNK d   0     -24.599 -23.084   9.608  0.00  0.00     0.167 HD
ENDBRANCH  34  36
ENDBRANCH  33  34
ENDBRANCH   8  33
BRANCH  31  38
ATOM     38  C   UNK d   0     -20.677 -31.026  15.214  0.00  0.00     0.151 C 
BRANCH  38  39
ATOM     39  C   UNK d   0     -19.410 -30.423  14.856  0.00  0.00     0.143 C 
ATOM     40  O   UNK d   0     -19.089 -29.280  15.226  0.00  0.00    -0.650 OA
BRANCH  39  41
ATOM     41  O   UNK d   0     -18.508 -31.137  14.068  0.00  0.00    -0.776 OA
ATOM     42  H   UNK d   0     -18.843 -31.451  13.152  0.00  0.00     0.167 HD
ENDBRANCH  39  41
ENDBRANCH  38  39
ENDBRANCH  31  38
BRANCH  27  43
ATOM     43  C   UNK d   0     -20.854 -30.716  18.277  0.00  0.00     0.052 C 
BRANCH  43  44
ATOM     44  C   UNK d   0     -19.554 -30.065  18.622  0.00  0.00     0.115 C 
BRANCH  44  45
ATOM     45  C   UNK d   0     -19.425 -30.131  20.100  0.00  0.00     0.139 C 
ATOM     46  O   UNK d   0     -19.068 -29.093  20.711  0.00  0.00    -0.650 OA
BRANCH  45  47
ATOM     47  O   UNK d   0     -19.684 -31.276  20.822  0.00  0.00    -0.776 OA
ATOM     48  H   UNK d   0     -19.864 -32.191  20.377  0.00  0.00     0.167 HD
ENDBRANCH  45  47
ENDBRANCH  44  45
ENDBRANCH  43  44
ENDBRANCH  27  43
BRANCH  24  49
ATOM     49  C   UNK d   0     -23.264 -27.357  21.960  0.00  0.00     0.052 C 
BRANCH  49  50
ATOM     50  C   UNK d   0     -21.855 -27.752  22.322  0.00  0.00     0.115 C 
BRANCH  50  51
ATOM     51  C   UNK d   0     -21.693 -28.756  23.365  0.00  0.00     0.139 C 
ATOM     52  O   UNK d   0     -22.424 -28.797  24.383  0.00  0.00    -0.650 OA
BRANCH  51  53
ATOM     53  O   UNK d   0     -20.696 -29.711  23.249  0.00  0.00    -0.776 OA
ATOM     54  H   UNK d   0     -20.370 -29.949  22.329  0.00  0.00     0.167 HD
ENDBRANCH  51  53
ENDBRANCH  50  51
ENDBRANCH  49  50
ENDBRANCH  24  49
BRANCH  21  55
ATOM     55  C   UNK d   0     -23.575 -24.311  21.547  0.00  0.00     0.151 C 
BRANCH  55  56
ATOM     56  C   UNK d   0     -24.893 -23.665  21.463  0.00  0.00     0.143 C 
ATOM     57  O   UNK d   0     -25.044 -22.486  21.084  0.00  0.00    -0.650 OA
BRANCH  56  58
ATOM     58  O   UNK d   0     -26.009 -24.417  21.826  0.00  0.00    -0.776 OA
ATOM     59  H   UNK d   0     -26.674 -24.611  21.055  0.00  0.00     0.167 HD
ENDBRANCH  56  58
ENDBRANCH  55  56
ENDBRANCH  21  55
BRANCH  18  60
ATOM     60  C   UNK d   0     -25.371 -22.001  17.047  0.00  0.00     0.151 C 
BRANCH  60  61
ATOM     61  C   UNK d   0     -24.548 -20.831  17.390  0.00  0.00     0.143 C 
ATOM     62  O   UNK d   0     -24.023 -20.038  16.609  0.00  0.00    -0.650 OA
BRANCH  61  63
ATOM     63  O   UNK d   0     -24.356 -20.616  18.776  0.00  0.00    -0.776 OA
ATOM     64  H   UNK d   0     -23.809 -21.253  19.329  0.00  0.00     0.167 HD
ENDBRANCH  61  63
ENDBRANCH  60  61
ENDBRANCH  18  60
BRANCH  14  65
ATOM     65  C   UNK d   0     -25.102 -22.215  14.032  0.00  0.00     0.052 C 
BRANCH  65  66
ATOM     66  C   UNK d   0     -26.546 -22.559  13.933  0.00  0.00     0.115 C 
BRANCH  66  67
ATOM     67  C   UNK d   0     -26.938 -23.906  13.629  0.00  0.00     0.139 C 
ATOM     68  O   UNK d   0     -27.799 -24.482  14.390  0.00  0.00    -0.650 OA
BRANCH  67  69
ATOM     69  O   UNK d   0     -26.493 -24.707  12.577  0.00  0.00    -0.776 OA
ATOM     70  H   UNK d   0     -26.684 -25.715  12.671  0.00  0.00     0.167 HD
ENDBRANCH  67  69
ENDBRANCH  66  67
ENDBRANCH  65  66
ENDBRANCH  14  65
ENDBRANCH   6   7
ENDBRANCH   5   6
ENDBRANCH   2   5
TORSDOF 28
ENDMDL
MODEL 19
REMARK VINA RESULT:      -7.7      4.992     11.020
REMARK  28 active torsions:
REMARK  status: ('A' for Active; 'I' for Inactive)
REMARK    1  A    between atoms: C_2  and  O_3 
REMARK    2  A    between atoms: C_2  and  C_4 
REMARK    3  A    between atoms: C_4  and  C_5 
REMARK    4  A    between atoms: C_5  and  C_6 
REMARK    5  A    between atoms: C_7  and  C_8 
REMARK    6  A    between atoms: C_8  and  C_9 
REMARK    7  A    between atoms: C_9  and  O_11 
REMARK    8  A    between atoms: C_28  and  C_29 
REMARK    9  A    between atoms: C_29  and  C_30 
REMARK   10  A    between atoms: C_30  and  O_32 
REMARK   11  A    between atoms: C_33  and  C_34 
REMARK   12  A    between atoms: C_34  and  C_35 
REMARK   13  A    between atoms: C_35  and  C_36 
REMARK   14  A    between atoms: C_36  and  O_38 
REMARK   15  A    between atoms: C_39  and  C_40 
REMARK   16  A    between atoms: C_40  and  C_41 
REMARK   17  A    between atoms: C_41  and  C_42 
REMARK   18  A    between atoms: C_42  and  O_44 
REMARK   19  A    between atoms: C_45  and  C_46 
REMARK   20  A    between atoms: C_46  and  C_47 
REMARK   21  A    between atoms: C_47  and  O_49 
REMARK   22  A    between atoms: C_50  and  C_51 
REMARK   23  A    between atoms: C_51  and  C_52 
REMARK   24  A    between atoms: C_52  and  O_54 
REMARK   25  A    between atoms: C_55  and  C_56 
REMARK   26  A    between atoms: C_56  and  C_57 
REMARK   27  A    between atoms: C_57  and  C_58 
REMARK   28  A    between atoms: C_58  and  O_60 
ROOT
ATOM      1  O   UNK d   0     -18.971 -32.339  12.509  0.00  0.00    -0.650 OA
ATOM      2  C   UNK d   0     -20.004 -32.235  13.208  0.00  0.00     0.139 C 
ENDROOT
BRANCH   2   3
ATOM      3  O   UNK d   0     -20.924 -33.256  13.205  0.00  0.00    -0.776 OA
ATOM      4  H   UNK d   0     -20.714 -34.156  13.643  0.00  0.00     0.167 HD
ENDBRANCH   2   3
BRANCH   2   5
ATOM      5  C   UNK d   0     -20.230 -31.014  14.032  0.00  0.00     0.115 C 
BRANCH   5   6
ATOM      6  C   UNK d   0     -21.697 -30.682  14.073  0.00  0.00     0.052 C 
BRANCH   6   7
ATOM      7  C   UNK d   0     -21.959 -29.264  14.522  0.00  0.00    -0.020 A 
ATOM      8  C   UNK d   0     -22.077 -28.198  13.772  0.00  0.00    -0.011 A 
ATOM      9  C   UNK d   0     -22.315 -27.062  14.647  0.00  0.00     0.067 A 
ATOM     10  C   UNK d   0     -22.542 -25.687  14.481  0.00  0.00     0.062 C 
ATOM     11  N   UNK d   0     -22.321 -27.527  15.914  0.00  0.00    -0.248 NA
ATOM     12  C   UNK d   0     -23.032 -24.789  15.436  0.00  0.00     0.041 A 
ATOM     13  N   UNK d   0     -22.745 -24.641  16.743  0.00  0.00    -0.355 N 
ATOM     14  C   UNK d   0     -24.041 -23.882  15.062  0.00  0.00    -0.022 A 
ATOM     15  C   UNK d   0     -23.551 -23.669  17.211  0.00  0.00     0.042 A 
ATOM     16  H   UNK d   0     -21.974 -25.198  17.319  0.00  0.00     0.166 HD
ATOM     17  C   UNK d   0     -23.664 -23.119  18.503  0.00  0.00     0.062 C 
ATOM     18  C   UNK d   0     -24.378 -23.170  16.186  0.00  0.00    -0.013 A 
ATOM     19  C   UNK d   0     -23.708 -23.763  19.713  0.00  0.00     0.067 A 
ATOM     20  N   UNK d   0     -23.411 -25.065  19.717  0.00  0.00    -0.248 NA
ATOM     21  C   UNK d   0     -24.024 -23.393  21.083  0.00  0.00    -0.011 A 
ATOM     22  C   UNK d   0     -23.511 -25.573  20.989  0.00  0.00     0.066 A 
ATOM     23  C   UNK d   0     -23.191 -26.914  21.144  0.00  0.00     0.062 C 
ATOM     24  C   UNK d   0     -23.911 -24.457  21.823  0.00  0.00    -0.020 A 
ATOM     25  C   UNK d   0     -22.689 -27.796  20.175  0.00  0.00     0.041 A 
ATOM     26  N   UNK d   0     -22.984 -27.954  18.879  0.00  0.00    -0.355 N 
ATOM     27  C   UNK d   0     -21.673 -28.703  20.549  0.00  0.00    -0.022 A 
ATOM     28  C   UNK d   0     -22.188 -28.928  18.412  0.00  0.00     0.042 A 
ATOM     29  H   UNK d   0     -23.767 -27.400  18.304  0.00  0.00     0.166 HD
ATOM     30  C   UNK d   0     -22.071 -29.491  17.132  0.00  0.00     0.062 C 
ATOM     31  C   UNK d   0     -21.349 -29.422  19.440  0.00  0.00    -0.013 A 
ATOM     32  C   UNK d   0     -22.113 -28.844  15.907  0.00  0.00     0.066 A 
BRANCH   8  33
ATOM     33  C   UNK d   0     -21.982 -28.136  12.301  0.00  0.00     0.151 C 
BRANCH  33  34
ATOM     34  C   UNK d   0     -23.300 -28.030  11.649  0.00  0.00     0.143 C 
ATOM     35  O   UNK d   0     -24.285 -28.627  12.105  0.00  0.00    -0.650 OA
BRANCH  34  36
ATOM     36  O   UNK d   0     -23.433 -27.258  10.518  0.00  0.00    -0.776 OA
ATOM     37  H   UNK d   0     -24.176 -26.550  10.440  0.00  0.00     0.167 HD
ENDBRANCH  34  36
ENDBRANCH  33  34
ENDBRANCH   8  33
BRANCH  31  38
ATOM     38  C   UNK d   0     -20.299 -30.505  19.355  0.00  0.00     0.151 C 
BRANCH  38  39
ATOM     39  C   UNK d   0     -19.004 -30.000  18.951  0.00  0.00     0.143 C 
ATOM     40  O   UNK d   0     -18.614 -30.036  17.771  0.00  0.00    -0.650 OA
BRANCH  39  41
ATOM     41  O   UNK d   0     -18.152 -29.451  19.909  0.00  0.00    -0.776 OA
ATOM     42  H   UNK d   0     -17.792 -30.088  20.626  0.00  0.00     0.167 HD
ENDBRANCH  39  41
ENDBRANCH  38  39
ENDBRANCH  31  38
BRANCH  27  43
ATOM     43  C   UNK d   0     -21.016 -28.905  21.892  0.00  0.00     0.052 C 
BRANCH  43  44
ATOM     44  C   UNK d   0     -20.217 -27.726  22.343  0.00  0.00     0.115 C 
BRANCH  44  45
ATOM     45  C   UNK d   0     -20.581 -27.484  23.763  0.00  0.00     0.139 C 
ATOM     46  O   UNK d   0     -21.562 -28.109  24.237  0.00  0.00    -0.650 OA
BRANCH  45  47
ATOM     47  O   UNK d   0     -19.887 -26.613  24.574  0.00  0.00    -0.776 OA
ATOM     48  H   UNK d   0     -18.890 -26.385  24.429  0.00  0.00     0.167 HD
ENDBRANCH  45  47
ENDBRANCH  44  45
ENDBRANCH  43  44
ENDBRANCH  27  43
BRANCH  24  49
ATOM     49  C   UNK d   0     -24.105 -24.525  23.282  0.00  0.00     0.052 C 
BRANCH  49  50
ATOM     50  C   UNK d   0     -25.560 -24.741  23.609  0.00  0.00     0.115 C 
BRANCH  50  51
ATOM     51  C   UNK d   0     -26.362 -23.557  23.887  0.00  0.00     0.139 C 
ATOM     52  O   UNK d   0     -26.029 -22.701  24.741  0.00  0.00    -0.650 OA
BRANCH  51  53
ATOM     53  O   UNK d   0     -27.545 -23.350  23.194  0.00  0.00    -0.776 OA
ATOM     54  H   UNK d   0     -28.265 -24.048  23.264  0.00  0.00     0.167 HD
ENDBRANCH  51  53
ENDBRANCH  50  51
ENDBRANCH  49  50
ENDBRANCH  24  49
BRANCH  21  55
ATOM     55  C   UNK d   0     -24.402 -22.013  21.509  0.00  0.00     0.151 C 
BRANCH  55  56
ATOM     56  C   UNK d   0     -23.239 -21.239  21.967  0.00  0.00     0.143 C 
ATOM     57  O   UNK d   0     -22.118 -21.323  21.428  0.00  0.00    -0.650 OA
BRANCH  56  58
ATOM     58  O   UNK d   0     -23.416 -20.381  23.051  0.00  0.00    -0.776 OA
ATOM     59  H   UNK d   0     -23.241 -19.380  22.848  0.00  0.00     0.167 HD
ENDBRANCH  56  58
ENDBRANCH  55  56
ENDBRANCH  21  55
BRANCH  18  60
ATOM     60  C   UNK d   0     -25.431 -22.090  16.241  0.00  0.00     0.151 C 
BRANCH  60  61
ATOM     61  C   UNK d   0     -24.724 -20.824  15.996  0.00  0.00     0.143 C 
ATOM     62  O   UNK d   0     -24.467 -20.317  14.904  0.00  0.00    -0.650 OA
BRANCH  61  63
ATOM     63  O   UNK d   0     -24.304 -20.133  17.159  0.00  0.00    -0.776 OA
ATOM     64  H   UNK d   0     -24.133 -19.144  17.140  0.00  0.00     0.167 HD
ENDBRANCH  61  63
ENDBRANCH  60  61
ENDBRANCH  18  60
BRANCH  14  65
ATOM     65  C   UNK d   0     -24.634 -23.574  13.717  0.00  0.00     0.052 C 
BRANCH  65  66
ATOM     66  C   UNK d   0     -25.880 -24.339  13.442  0.00  0.00     0.115 C 
BRANCH  66  67
ATOM     67  C   UNK d   0     -25.873 -25.379  12.452  0.00  0.00     0.139 C 
ATOM     68  O   UNK d   0     -25.313 -25.144  11.319  0.00  0.00    -0.650 OA
BRANCH  67  69
ATOM     69  O   UNK d   0     -26.413 -26.660  12.558  0.00  0.00    -0.776 OA
ATOM     70  H   UNK d   0     -26.096 -27.340  11.852  0.00  0.00     0.167 HD
ENDBRANCH  67  69
ENDBRANCH  66  67
ENDBRANCH  65  66
ENDBRANCH  14  65
ENDBRANCH   6   7
ENDBRANCH   5   6
ENDBRANCH   2   5
TORSDOF 28
ENDMDL
MODEL 20
REMARK VINA RESULT:      -7.3      5.570      9.157
REMARK  28 active torsions:
REMARK  status: ('A' for Active; 'I' for Inactive)
REMARK    1  A    between atoms: C_2  and  O_3 
REMARK    2  A    between atoms: C_2  and  C_4 
REMARK    3  A    between atoms: C_4  and  C_5 
REMARK    4  A    between atoms: C_5  and  C_6 
REMARK    5  A    between atoms: C_7  and  C_8 
REMARK    6  A    between atoms: C_8  and  C_9 
REMARK    7  A    between atoms: C_9  and  O_11 
REMARK    8  A    between atoms: C_28  and  C_29 
REMARK    9  A    between atoms: C_29  and  C_30 
REMARK   10  A    between atoms: C_30  and  O_32 
REMARK   11  A    between atoms: C_33  and  C_34 
REMARK   12  A    between atoms: C_34  and  C_35 
REMARK   13  A    between atoms: C_35  and  C_36 
REMARK   14  A    between atoms: C_36  and  O_38 
REMARK   15  A    between atoms: C_39  and  C_40 
REMARK   16  A    between atoms: C_40  and  C_41 
REMARK   17  A    between atoms: C_41  and  C_42 
REMARK   18  A    between atoms: C_42  and  O_44 
REMARK   19  A    between atoms: C_45  and  C_46 
REMARK   20  A    between atoms: C_46  and  C_47 
REMARK   21  A    between atoms: C_47  and  O_49 
REMARK   22  A    between atoms: C_50  and  C_51 
REMARK   23  A    between atoms: C_51  and  C_52 
REMARK   24  A    between atoms: C_52  and  O_54 
REMARK   25  A    between atoms: C_55  and  C_56 
REMARK   26  A    between atoms: C_56  and  C_57 
REMARK   27  A    between atoms: C_57  and  C_58 
REMARK   28  A    between atoms: C_58  and  O_60 
ROOT
ATOM      1  O   UNK d   0     -19.400 -25.241  25.399  0.00  0.00    -0.650 OA
ATOM      2  C   UNK d   0     -19.759 -25.499  24.229  0.00  0.00     0.139 C 
ENDROOT
BRANCH   2   3
ATOM      3  O   UNK d   0     -18.877 -26.116  23.374  0.00  0.00    -0.776 OA
ATOM      4  H   UNK d   0     -18.967 -26.015  22.361  0.00  0.00     0.167 HD
ENDBRANCH   2   3
BRANCH   2   5
ATOM      5  C   UNK d   0     -21.130 -25.138  23.770  0.00  0.00     0.115 C 
BRANCH   5   6
ATOM      6  C   UNK d   0     -22.000 -26.365  23.720  0.00  0.00     0.052 C 
BRANCH   6   7
ATOM      7  C   UNK d   0     -22.209 -26.872  22.314  0.00  0.00    -0.020 A 
ATOM      8  C   UNK d   0     -23.039 -26.411  21.414  0.00  0.00    -0.011 A 
ATOM      9  C   UNK d   0     -22.894 -27.222  20.217  0.00  0.00     0.067 A 
ATOM     10  C   UNK d   0     -23.458 -27.240  18.931  0.00  0.00     0.062 C 
ATOM     11  N   UNK d   0     -21.958 -28.158  20.478  0.00  0.00    -0.248 NA
ATOM     12  C   UNK d   0     -22.988 -27.932  17.810  0.00  0.00     0.041 A 
ATOM     13  N   UNK d   0     -22.507 -29.183  17.677  0.00  0.00    -0.355 N 
ATOM     14  C   UNK d   0     -22.920 -27.261  16.575  0.00  0.00    -0.022 A 
ATOM     15  C   UNK d   0     -22.130 -29.320  16.392  0.00  0.00     0.042 A 
ATOM     16  H   UNK d   0     -22.454 -29.960  18.471  0.00  0.00     0.166 HD
ATOM     17  C   UNK d   0     -21.567 -30.422  15.718  0.00  0.00     0.062 C 
ATOM     18  C   UNK d   0     -22.373 -28.135  15.670  0.00  0.00    -0.013 A 
ATOM     19  C   UNK d   0     -20.556 -31.255  16.123  0.00  0.00     0.067 A 
ATOM     20  N   UNK d   0     -20.166 -31.159  17.396  0.00  0.00    -0.248 NA
ATOM     21  C   UNK d   0     -19.727 -32.273  15.498  0.00  0.00    -0.011 A 
ATOM     22  C   UNK d   0     -19.142 -32.038  17.649  0.00  0.00     0.066 A 
ATOM     23  C   UNK d   0     -18.664 -32.070  18.951  0.00  0.00     0.062 C 
ATOM     24  C   UNK d   0     -18.899 -32.725  16.395  0.00  0.00    -0.020 A 
ATOM     25  C   UNK d   0     -19.158 -31.376  20.066  0.00  0.00     0.041 A 
ATOM     26  N   UNK d   0     -19.622 -30.128  20.202  0.00  0.00    -0.355 N 
ATOM     27  C   UNK d   0     -19.230 -32.052  21.304  0.00  0.00    -0.022 A 
ATOM     28  C   UNK d   0     -19.990 -29.986  21.485  0.00  0.00     0.042 A 
ATOM     29  H   UNK d   0     -19.664 -29.345  19.405  0.00  0.00     0.166 HD
ATOM     30  C   UNK d   0     -20.543 -28.893  22.170  0.00  0.00     0.062 C 
ATOM     31  C   UNK d   0     -19.756 -31.180  22.207  0.00  0.00    -0.013 A 
ATOM     32  C   UNK d   0     -21.506 -28.001  21.723  0.00  0.00     0.066 A 
BRANCH   8  33
ATOM     33  C   UNK d   0     -23.969 -25.277  21.567  0.00  0.00     0.151 C 
BRANCH  33  34
ATOM     34  C   UNK d   0     -25.357 -25.706  21.814  0.00  0.00     0.143 C 
ATOM     35  O   UNK d   0     -26.286 -25.297  21.103  0.00  0.00    -0.650 OA
BRANCH  34  36
ATOM     36  O   UNK d   0     -25.623 -26.572  22.850  0.00  0.00    -0.776 OA
ATOM     37  H   UNK d   0     -24.961 -26.692  23.629  0.00  0.00     0.167 HD
ENDBRANCH  34  36
ENDBRANCH  33  34
ENDBRANCH   8  33
BRANCH  31  38
ATOM     38  C   UNK d   0     -20.032 -31.464  23.665  0.00  0.00     0.151 C 
BRANCH  38  39
ATOM     39  C   UNK d   0     -19.003 -30.949  24.542  0.00  0.00     0.143 C 
ATOM     40  O   UNK d   0     -17.858 -30.680  24.139  0.00  0.00    -0.650 OA
BRANCH  39  41
ATOM     41  O   UNK d   0     -19.292 -30.740  25.891  0.00  0.00    -0.776 OA
ATOM     42  H   UNK d   0     -18.511 -30.821  26.548  0.00  0.00     0.167 HD
ENDBRANCH  39  41
ENDBRANCH  38  39
ENDBRANCH  31  38
BRANCH  27  43
ATOM     43  C   UNK d   0     -18.823 -33.463  21.651  0.00  0.00     0.052 C 
BRANCH  43  44
ATOM     44  C   UNK d   0     -17.349 -33.625  21.832  0.00  0.00     0.115 C 
BRANCH  44  45
ATOM     45  C   UNK d   0     -17.136 -34.015  23.250  0.00  0.00     0.139 C 
ATOM     46  O   UNK d   0     -15.976 -33.920  23.723  0.00  0.00    -0.650 OA
BRANCH  45  47
ATOM     47  O   UNK d   0     -18.154 -34.467  24.062  0.00  0.00    -0.776 OA
ATOM     48  H   UNK d   0     -18.877 -35.130  23.738  0.00  0.00     0.167 HD
ENDBRANCH  45  47
ENDBRANCH  44  45
ENDBRANCH  43  44
ENDBRANCH  27  43
BRANCH  24  49
ATOM     49  C   UNK d   0     -17.906 -33.794  16.201  0.00  0.00     0.052 C 
BRANCH  49  50
ATOM     50  C   UNK d   0     -16.509 -33.243  16.329  0.00  0.00     0.115 C 
BRANCH  50  51
ATOM     51  C   UNK d   0     -15.927 -32.625  15.145  0.00  0.00     0.139 C 
ATOM     52  O   UNK d   0     -15.547 -31.431  15.123  0.00  0.00    -0.650 OA
BRANCH  51  53
ATOM     53  O   UNK d   0     -15.780 -33.369  13.985  0.00  0.00    -0.776 OA
ATOM     54  H   UNK d   0     -16.244 -34.259  13.929  0.00  0.00     0.167 HD
ENDBRANCH  51  53
ENDBRANCH  50  51
ENDBRANCH  49  50
ENDBRANCH  24  49
BRANCH  21  55
ATOM     55  C   UNK d   0     -19.853 -32.692  14.070  0.00  0.00     0.151 C 
BRANCH  55  56
ATOM     56  C   UNK d   0     -18.978 -31.906  13.187  0.00  0.00     0.143 C 
ATOM     57  O   UNK d   0     -18.970 -30.660  13.179  0.00  0.00    -0.650 OA
BRANCH  56  58
ATOM     58  O   UNK d   0     -18.128 -32.603  12.329  0.00  0.00    -0.776 OA
ATOM     59  H   UNK d   0     -17.138 -32.300  12.354  0.00  0.00     0.167 HD
ENDBRANCH  56  58
ENDBRANCH  55  56
ENDBRANCH  21  55
BRANCH  18  60
ATOM     60  C   UNK d   0     -22.111 -27.824  14.217  0.00  0.00     0.151 C 
BRANCH  60  61
ATOM     61  C   UNK d   0     -23.351 -28.164  13.501  0.00  0.00     0.143 C 
ATOM     62  O   UNK d   0     -24.261 -27.396  13.189  0.00  0.00    -0.650 OA
BRANCH  61  63
ATOM     63  O   UNK d   0     -23.486 -29.527  13.144  0.00  0.00    -0.776 OA
ATOM     64  H   UNK d   0     -24.224 -29.832  12.535  0.00  0.00     0.167 HD
ENDBRANCH  61  63
ENDBRANCH  60  61
ENDBRANCH  18  60
BRANCH  14  65
ATOM     65  C   UNK d   0     -23.420 -25.903  16.168  0.00  0.00     0.052 C 
BRANCH  65  66
ATOM     66  C   UNK d   0     -22.361 -24.859  16.204  0.00  0.00     0.115 C 
BRANCH  66  67
ATOM     67  C   UNK d   0     -22.305 -23.941  17.307  0.00  0.00     0.139 C 
ATOM     68  O   UNK d   0     -23.312 -23.875  18.103  0.00  0.00    -0.650 OA
BRANCH  67  69
ATOM     69  O   UNK d   0     -21.264 -23.076  17.645  0.00  0.00    -0.776 OA
ATOM     70  H   UNK d   0     -20.572 -23.446  18.312  0.00  0.00     0.167 HD
ENDBRANCH  67  69
ENDBRANCH  66  67
ENDBRANCH  65  66
ENDBRANCH  14  65
ENDBRANCH   6   7
ENDBRANCH   5   6
ENDBRANCH   2   5
TORSDOF 28
ENDMDL
