MODEL 1
REMARK VINA RESULT:      -8.8      0.000      0.000
REMARK  16 active torsions:
REMARK  status: ('A' for Active; 'I' for Inactive)
REMARK    1  A    between atoms: C_6  and  C_7 
REMARK    2  A    between atoms: C_7  and  C_8 
REMARK    3  A    between atoms: C_8  and  C_9 
REMARK    4  A    between atoms: C_9  and  O_11 
REMARK    5  A    between atoms: C_16  and  C_17 
REMARK    6  A    between atoms: C_17  and  C_18 
REMARK    7  A    between atoms: C_18  and  C_19 
REMARK    8  A    between atoms: C_19  and  O_21 
REMARK    9  A    between atoms: C_28  and  C_29 
REMARK   10  A    between atoms: C_29  and  C_30 
REMARK   11  A    between atoms: C_30  and  C_31 
REMARK   12  A    between atoms: C_31  and  O_33 
REMARK   13  A    between atoms: C_42  and  C_43 
REMARK   14  A    between atoms: C_43  and  C_44 
REMARK   15  A    between atoms: C_44  and  C_45 
REMARK   16  A    between atoms: C_45  and  O_47 
ROOT
HETATM    1  C   UNK     0     -34.156  -5.554  11.552  0.00  0.00     0.051 C 
HETATM    2  C   UNK     0     -34.143  -4.067  11.264  0.00  0.00    -0.031 A 
HETATM    3  C   UNK     0     -33.241  -3.322  10.520  0.00  0.00     0.021 A 
HETATM    4  N   UNK     0     -33.607  -2.019  10.559  0.00  0.00    -0.361 N 
HETATM    5  C   UNK     0     -34.727  -1.918  11.304  0.00  0.00     0.022 A 
HETATM    6  C   UNK     0     -35.089  -3.180  11.763  0.00  0.00    -0.027 A 
HETATM    7  C   UNK     0     -35.583  -0.721  11.580  0.00  0.00     0.115 C 
HETATM    8  C   UNK     0     -35.865   0.200  10.406  0.00  0.00     0.021 A 
HETATM    9  N   UNK     0     -36.053  -0.123   9.117  0.00  0.00    -0.361 N 
HETATM   10  C   UNK     0     -36.181   1.022   8.412  0.00  0.00     0.022 A 
HETATM   11  C   UNK     0     -36.082   2.111   9.273  0.00  0.00    -0.027 A 
HETATM   12  C   UNK     0     -35.883   1.601  10.530  0.00  0.00    -0.031 A 
HETATM   13  C   UNK     0     -35.723   2.420  11.791  0.00  0.00     0.051 C 
HETATM   14  C   UNK     0     -36.347   1.136   6.900  0.00  0.00     0.115 C 
HETATM   15  C   UNK     0     -35.185   0.559   6.107  0.00  0.00     0.021 A 
HETATM   16  N   UNK     0     -34.716  -0.703   6.139  0.00  0.00    -0.361 N 
HETATM   17  C   UNK     0     -33.641  -0.790   5.351  0.00  0.00     0.022 A 
HETATM   18  C   UNK     0     -33.405   0.472   4.772  0.00  0.00    -0.027 A 
HETATM   19  C   UNK     0     -34.379   1.308   5.253  0.00  0.00    -0.031 A 
HETATM   20  C   UNK     0     -34.515   2.765   4.850  0.00  0.00     0.051 C 
HETATM   21  C   UNK     0     -32.715  -1.958   5.098  0.00  0.00     0.115 C 
HETATM   22  C   UNK     0     -32.459  -2.907   6.246  0.00  0.00     0.022 A 
HETATM   23  N   UNK     0     -32.273  -2.614   7.539  0.00  0.00    -0.361 N 
HETATM   24  C   UNK     0     -32.226  -3.770   8.232  0.00  0.00     0.021 A 
HETATM   25  C   UNK     0     -32.376  -4.833   7.363  0.00  0.00    -0.031 A 
HETATM   26  C   UNK     0     -32.352  -6.318   7.659  0.00  0.00     0.051 C 
HETATM   27  C   UNK     0     -32.527  -4.306   6.085  0.00  0.00    -0.027 A 
HETATM   28  C   UNK     0     -32.122  -3.947   9.737  0.00  0.00     0.115 C 
HETATM   29  H   UNK     0     -33.049  -1.174  10.093  0.00  0.00     0.165 HD
HETATM   30  H   UNK     0     -36.147  -1.158   8.708  0.00  0.00     0.165 HD
HETATM   31  H   UNK     0     -35.180  -1.561   6.690  0.00  0.00     0.165 HD
HETATM   32  H   UNK     0     -32.128  -1.589   7.970  0.00  0.00     0.165 HD
ENDROOT
BRANCH   6  33
HETATM   33  C   UNK     0     -36.248  -3.602  12.630  0.00  0.00     0.051 C 
BRANCH  33  34
HETATM   34  C   UNK     0     -37.547  -3.517  11.865  0.00  0.00     0.114 C 
BRANCH  34  35
HETATM   35  C   UNK     0     -37.723  -4.808  11.140  0.00  0.00     0.139 C 
HETATM   36  O   UNK     0     -38.043  -5.856  11.773  0.00  0.00    -0.650 OA
BRANCH  35  37
HETATM   37  O   UNK     0     -37.553  -4.924   9.766  0.00  0.00    -0.776 OA
HETATM   38  H   UNK     0     -36.923  -5.597   9.360  0.00  0.00     0.167 HD
ENDBRANCH  35  37
ENDBRANCH  34  35
ENDBRANCH  33  34
ENDBRANCH   6  33
BRANCH  27  39
HETATM   39  C   UNK     0     -32.643  -5.153   4.867  0.00  0.00     0.051 C 
BRANCH  39  40
HETATM   40  C   UNK     0     -31.414  -5.585   4.202  0.00  0.00     0.114 C 
BRANCH  40  41
HETATM   41  C   UNK     0     -30.905  -6.932   4.323  0.00  0.00     0.139 C 
HETATM   42  O   UNK     0     -31.453  -7.919   3.812  0.00  0.00    -0.650 OA
BRANCH  41  43
HETATM   43  O   UNK     0     -29.711  -7.156   5.065  0.00  0.00    -0.776 OA
HETATM   44  H   UNK     0     -28.950  -7.550   4.525  0.00  0.00     0.167 HD
ENDBRANCH  41  43
ENDBRANCH  40  41
ENDBRANCH  39  40
ENDBRANCH  27  39
BRANCH  11  45
HETATM   45  C   UNK     0     -36.170   3.579   8.949  0.00  0.00     0.051 C 
BRANCH  45  46
HETATM   46  C   UNK     0     -37.503   4.012   8.457  0.00  0.00     0.114 C 
BRANCH  46  47
HETATM   47  C   UNK     0     -37.279   4.796   7.209  0.00  0.00     0.139 C 
HETATM   48  O   UNK     0     -37.687   4.330   6.136  0.00  0.00    -0.650 OA
BRANCH  47  49
HETATM   49  O   UNK     0     -36.635   6.007   7.245  0.00  0.00    -0.776 OA
HETATM   50  H   UNK     0     -35.620   6.080   7.386  0.00  0.00     0.167 HD
ENDBRANCH  47  49
ENDBRANCH  46  47
ENDBRANCH  45  46
ENDBRANCH  11  45
BRANCH  18  51
HETATM   51  C   UNK     0     -32.322   0.856   3.797  0.00  0.00     0.051 C 
BRANCH  51  52
HETATM   52  C   UNK     0     -31.327   1.702   4.577  0.00  0.00     0.114 C 
BRANCH  52  53
HETATM   53  C   UNK     0     -30.463   0.876   5.444  0.00  0.00     0.139 C 
HETATM   54  O   UNK     0     -30.448   1.069   6.670  0.00  0.00    -0.650 OA
BRANCH  53  55
HETATM   55  O   UNK     0     -29.677  -0.102   4.885  0.00  0.00    -0.776 OA
HETATM   56  H   UNK     0     -28.732  -0.296   5.120  0.00  0.00     0.167 HD
ENDBRANCH  53  55
ENDBRANCH  52  53
ENDBRANCH  51  52
ENDBRANCH  18  51
TORSDOF 16
ENDMDL
MODEL 2
REMARK VINA RESULT:      -8.3      3.325      6.552
REMARK  16 active torsions:
REMARK  status: ('A' for Active; 'I' for Inactive)
REMARK    1  A    between atoms: C_6  and  C_7 
REMARK    2  A    between atoms: C_7  and  C_8 
REMARK    3  A    between atoms: C_8  and  C_9 
REMARK    4  A    between atoms: C_9  and  O_11 
REMARK    5  A    between atoms: C_16  and  C_17 
REMARK    6  A    between atoms: C_17  and  C_18 
REMARK    7  A    between atoms: C_18  and  C_19 
REMARK    8  A    between atoms: C_19  and  O_21 
REMARK    9  A    between atoms: C_28  and  C_29 
REMARK   10  A    between atoms: C_29  and  C_30 
REMARK   11  A    between atoms: C_30  and  C_31 
REMARK   12  A    between atoms: C_31  and  O_33 
REMARK   13  A    between atoms: C_42  and  C_43 
REMARK   14  A    between atoms: C_43  and  C_44 
REMARK   15  A    between atoms: C_44  and  C_45 
REMARK   16  A    between atoms: C_45  and  O_47 
ROOT
HETATM    1  C   UNK     0     -34.764  -5.771  13.168  0.00  0.00     0.051 C 
HETATM    2  C   UNK     0     -33.959  -5.103  12.072  0.00  0.00    -0.031 A 
HETATM    3  C   UNK     0     -32.761  -5.497  11.496  0.00  0.00     0.021 A 
HETATM    4  N   UNK     0     -32.391  -4.577  10.574  0.00  0.00    -0.361 N 
HETATM    5  C   UNK     0     -33.331  -3.610  10.543  0.00  0.00     0.022 A 
HETATM    6  C   UNK     0     -34.325  -3.906  11.470  0.00  0.00    -0.027 A 
HETATM    7  C   UNK     0     -33.445  -2.422   9.639  0.00  0.00     0.115 C 
HETATM    8  C   UNK     0     -33.139  -2.652   8.170  0.00  0.00     0.021 A 
HETATM    9  N   UNK     0     -33.397  -3.735   7.421  0.00  0.00    -0.361 N 
HETATM   10  C   UNK     0     -32.867  -3.534   6.196  0.00  0.00     0.022 A 
HETATM   11  C   UNK     0     -32.259  -2.283   6.152  0.00  0.00    -0.027 A 
HETATM   12  C   UNK     0     -32.426  -1.722   7.392  0.00  0.00    -0.031 A 
HETATM   13  C   UNK     0     -31.930  -0.355   7.807  0.00  0.00     0.051 C 
HETATM   14  C   UNK     0     -32.866  -4.530   5.040  0.00  0.00     0.115 C 
HETATM   15  C   UNK     0     -32.138  -5.829   5.347  0.00  0.00     0.021 A 
HETATM   16  N   UNK     0     -32.402  -6.705   6.334  0.00  0.00    -0.361 N 
HETATM   17  C   UNK     0     -31.492  -7.682   6.309  0.00  0.00     0.022 A 
HETATM   18  C   UNK     0     -30.597  -7.435   5.249  0.00  0.00    -0.027 A 
HETATM   19  C   UNK     0     -31.014  -6.272   4.653  0.00  0.00    -0.031 A 
HETATM   20  C   UNK     0     -30.344  -5.661   3.436  0.00  0.00     0.051 C 
HETATM   21  C   UNK     0     -31.302  -8.858   7.240  0.00  0.00     0.115 C 
HETATM   22  C   UNK     0     -31.645  -8.656   8.697  0.00  0.00     0.022 A 
HETATM   23  N   UNK     0     -31.404  -7.587   9.467  0.00  0.00    -0.361 N 
HETATM   24  C   UNK     0     -32.008  -7.777  10.657  0.00  0.00     0.021 A 
HETATM   25  C   UNK     0     -32.645  -9.002  10.658  0.00  0.00    -0.031 A 
HETATM   26  C   UNK     0     -33.420  -9.674  11.773  0.00  0.00     0.051 C 
HETATM   27  C   UNK     0     -32.427  -9.585   9.414  0.00  0.00    -0.027 A 
HETATM   28  C   UNK     0     -32.095  -6.804  11.821  0.00  0.00     0.115 C 
HETATM   29  H   UNK     0     -31.448  -4.598   9.979  0.00  0.00     0.165 HD
HETATM   30  H   UNK     0     -33.997  -4.623   7.739  0.00  0.00     0.165 HD
HETATM   31  H   UNK     0     -33.277  -6.660   7.034  0.00  0.00     0.165 HD
HETATM   32  H   UNK     0     -30.768  -6.706   9.192  0.00  0.00     0.165 HD
ENDROOT
BRANCH   6  33
HETATM   33  C   UNK     0     -35.578  -3.147  11.824  0.00  0.00     0.051 C 
BRANCH  33  34
HETATM   34  C   UNK     0     -36.722  -4.096  12.089  0.00  0.00     0.114 C 
BRANCH  34  35
HETATM   35  C   UNK     0     -37.346  -4.422  10.775  0.00  0.00     0.139 C 
HETATM   36  O   UNK     0     -38.560  -4.773  10.715  0.00  0.00    -0.650 OA
BRANCH  35  37
HETATM   37  O   UNK     0     -36.646  -4.356   9.576  0.00  0.00    -0.776 OA
HETATM   38  H   UNK     0     -36.226  -3.501   9.249  0.00  0.00     0.167 HD
ENDBRANCH  35  37
ENDBRANCH  34  35
ENDBRANCH  33  34
ENDBRANCH   6  33
BRANCH  27  39
HETATM   39  C   UNK     0     -32.904 -10.950   9.064  0.00  0.00     0.051 C 
BRANCH  39  40
HETATM   40  C   UNK     0     -32.903 -11.975  10.107  0.00  0.00     0.114 C 
BRANCH  40  41
HETATM   41  C   UNK     0     -31.680 -12.550  10.621  0.00  0.00     0.139 C 
HETATM   42  O   UNK     0     -30.595 -11.953  10.631  0.00  0.00    -0.650 OA
BRANCH  41  43
HETATM   43  O   UNK     0     -31.707 -13.873  11.148  0.00  0.00    -0.776 OA
HETATM   44  H   UNK     0     -32.473 -14.443  10.811  0.00  0.00     0.167 HD
ENDBRANCH  41  43
ENDBRANCH  40  41
ENDBRANCH  39  40
ENDBRANCH  27  39
BRANCH  11  45
HETATM   45  C   UNK     0     -31.547  -1.623   5.002  0.00  0.00     0.051 C 
BRANCH  45  46
HETATM   46  C   UNK     0     -32.110  -0.303   4.618  0.00  0.00     0.114 C 
BRANCH  46  47
HETATM   47  C   UNK     0     -33.525  -0.529   4.209  0.00  0.00     0.139 C 
HETATM   48  O   UNK     0     -33.747  -1.107   3.136  0.00  0.00    -0.650 OA
BRANCH  47  49
HETATM   49  O   UNK     0     -34.562  -0.104   5.001  0.00  0.00    -0.776 OA
HETATM   50  H   UNK     0     -34.462   0.679   5.657  0.00  0.00     0.167 HD
ENDBRANCH  47  49
ENDBRANCH  46  47
ENDBRANCH  45  46
ENDBRANCH  11  45
BRANCH  18  51
HETATM   51  C   UNK     0     -29.423  -8.272   4.814  0.00  0.00     0.051 C 
BRANCH  51  52
HETATM   52  C   UNK     0     -29.721  -8.717   3.390  0.00  0.00     0.114 C 
BRANCH  52  53
HETATM   53  C   UNK     0     -28.520  -8.662   2.534  0.00  0.00     0.139 C 
HETATM   54  O   UNK     0     -28.434  -9.394   1.535  0.00  0.00    -0.650 OA
BRANCH  53  55
HETATM   55  O   UNK     0     -27.498  -7.800   2.851  0.00  0.00    -0.776 OA
HETATM   56  H   UNK     0     -27.245  -6.983   2.347  0.00  0.00     0.167 HD
ENDBRANCH  53  55
ENDBRANCH  52  53
ENDBRANCH  51  52
ENDBRANCH  18  51
TORSDOF 16
ENDMDL
MODEL 3
REMARK VINA RESULT:      -8.2      3.031      8.073
REMARK  16 active torsions:
REMARK  status: ('A' for Active; 'I' for Inactive)
REMARK    1  A    between atoms: C_6  and  C_7 
REMARK    2  A    between atoms: C_7  and  C_8 
REMARK    3  A    between atoms: C_8  and  C_9 
REMARK    4  A    between atoms: C_9  and  O_11 
REMARK    5  A    between atoms: C_16  and  C_17 
REMARK    6  A    between atoms: C_17  and  C_18 
REMARK    7  A    between atoms: C_18  and  C_19 
REMARK    8  A    between atoms: C_19  and  O_21 
REMARK    9  A    between atoms: C_28  and  C_29 
REMARK   10  A    between atoms: C_29  and  C_30 
REMARK   11  A    between atoms: C_30  and  C_31 
REMARK   12  A    between atoms: C_31  and  O_33 
REMARK   13  A    between atoms: C_42  and  C_43 
REMARK   14  A    between atoms: C_43  and  C_44 
REMARK   15  A    between atoms: C_44  and  C_45 
REMARK   16  A    between atoms: C_45  and  O_47 
ROOT
HETATM    1  C   UNK     0     -29.569  -8.661   4.987  0.00  0.00     0.051 C 
HETATM    2  C   UNK     0     -30.583  -7.544   5.128  0.00  0.00    -0.031 A 
HETATM    3  C   UNK     0     -31.747  -7.502   5.880  0.00  0.00     0.021 A 
HETATM    4  N   UNK     0     -32.360  -6.312   5.678  0.00  0.00    -0.361 N 
HETATM    5  C   UNK     0     -31.608  -5.591   4.820  0.00  0.00     0.022 A 
HETATM    6  C   UNK     0     -30.491  -6.334   4.453  0.00  0.00    -0.027 A 
HETATM    7  C   UNK     0     -31.791  -4.184   4.345  0.00  0.00     0.115 C 
HETATM    8  C   UNK     0     -32.198  -3.159   5.389  0.00  0.00     0.021 A 
HETATM    9  N   UNK     0     -31.833  -3.090   6.679  0.00  0.00    -0.361 N 
HETATM   10  C   UNK     0     -32.510  -2.071   7.251  0.00  0.00     0.022 A 
HETATM   11  C   UNK     0     -33.326  -1.463   6.302  0.00  0.00    -0.027 A 
HETATM   12  C   UNK     0     -33.134  -2.143   5.127  0.00  0.00    -0.031 A 
HETATM   13  C   UNK     0     -33.815  -1.828   3.814  0.00  0.00     0.051 C 
HETATM   14  C   UNK     0     -32.455  -1.666   8.722  0.00  0.00     0.115 C 
HETATM   15  C   UNK     0     -32.914  -2.756   9.678  0.00  0.00     0.021 A 
HETATM   16  N   UNK     0     -32.406  -3.994   9.817  0.00  0.00    -0.361 N 
HETATM   17  C   UNK     0     -33.132  -4.668  10.711  0.00  0.00     0.022 A 
HETATM   18  C   UNK     0     -34.157  -3.825  11.185  0.00  0.00    -0.027 A 
HETATM   19  C   UNK     0     -34.009  -2.630  10.530  0.00  0.00    -0.031 A 
HETATM   20  C   UNK     0     -34.892  -1.420  10.773  0.00  0.00     0.051 C 
HETATM   21  C   UNK     0     -33.022  -6.106  11.168  0.00  0.00     0.115 C 
HETATM   22  C   UNK     0     -32.575  -7.129  10.150  0.00  0.00     0.022 A 
HETATM   23  N   UNK     0     -32.919  -7.220   8.859  0.00  0.00    -0.361 N 
HETATM   24  C   UNK     0     -32.176  -8.190   8.290  0.00  0.00     0.021 A 
HETATM   25  C   UNK     0     -31.340  -8.744   9.241  0.00  0.00    -0.031 A 
HETATM   26  C   UNK     0     -30.354  -9.885   9.095  0.00  0.00     0.051 C 
HETATM   27  C   UNK     0     -31.578  -8.082  10.439  0.00  0.00    -0.027 A 
HETATM   28  C   UNK     0     -32.142  -8.599   6.827  0.00  0.00     0.115 C 
HETATM   29  H   UNK     0     -33.339  -6.004   6.112  0.00  0.00     0.165 HD
HETATM   30  H   UNK     0     -31.061  -3.726   7.176  0.00  0.00     0.165 HD
HETATM   31  H   UNK     0     -31.486  -4.387   9.309  0.00  0.00     0.165 HD
HETATM   32  H   UNK     0     -33.722  -6.629   8.346  0.00  0.00     0.165 HD
ENDROOT
BRANCH   6  33
HETATM   33  C   UNK     0     -29.358  -5.986   3.521  0.00  0.00     0.051 C 
BRANCH  33  34
HETATM   34  C   UNK     0     -29.386  -6.865   2.293  0.00  0.00     0.114 C 
BRANCH  34  35
HETATM   35  C   UNK     0     -28.056  -7.531   2.190  0.00  0.00     0.139 C 
HETATM   36  O   UNK     0     -27.889  -8.500   1.393  0.00  0.00    -0.650 OA
BRANCH  35  37
HETATM   37  O   UNK     0     -26.958  -7.133   2.942  0.00  0.00    -0.776 OA
HETATM   38  H   UNK     0     -26.041  -7.523   2.798  0.00  0.00     0.167 HD
ENDBRANCH  35  37
ENDBRANCH  34  35
ENDBRANCH  33  34
ENDBRANCH   6  33
BRANCH  27  39
HETATM   39  C   UNK     0     -30.911  -8.452  11.717  0.00  0.00     0.051 C 
BRANCH  39  40
HETATM   40  C   UNK     0     -31.505  -9.515  12.527  0.00  0.00     0.114 C 
BRANCH  40  41
HETATM   41  C   UNK     0     -32.051 -10.718  11.939  0.00  0.00     0.139 C 
HETATM   42  O   UNK     0     -33.182 -10.781  11.439  0.00  0.00    -0.650 OA
BRANCH  41  43
HETATM   43  O   UNK     0     -31.261 -11.902  11.927  0.00  0.00    -0.776 OA
HETATM   44  H   UNK     0     -30.419 -11.839  11.367  0.00  0.00     0.167 HD
ENDBRANCH  41  43
ENDBRANCH  40  41
ENDBRANCH  39  40
ENDBRANCH  27  39
BRANCH  11  45
HETATM   45  C   UNK     0     -34.252  -0.288   6.471  0.00  0.00     0.051 C 
BRANCH  45  46
HETATM   46  C   UNK     0     -33.643   0.867   7.179  0.00  0.00     0.114 C 
BRANCH  46  47
HETATM   47  C   UNK     0     -34.618   1.312   8.216  0.00  0.00     0.139 C 
HETATM   48  O   UNK     0     -34.237   2.114   9.080  0.00  0.00    -0.650 OA
BRANCH  47  49
HETATM   49  O   UNK     0     -35.907   0.842   8.217  0.00  0.00    -0.776 OA
HETATM   50  H   UNK     0     -36.374   0.531   7.357  0.00  0.00     0.167 HD
ENDBRANCH  47  49
ENDBRANCH  46  47
ENDBRANCH  45  46
ENDBRANCH  11  45
BRANCH  18  51
HETATM   51  C   UNK     0     -35.207  -4.135  12.219  0.00  0.00     0.051 C 
BRANCH  51  52
HETATM   52  C   UNK     0     -36.181  -5.103  11.562  0.00  0.00     0.114 C 
BRANCH  52  53
HETATM   53  C   UNK     0     -37.283  -4.396  10.882  0.00  0.00     0.139 C 
HETATM   54  O   UNK     0     -37.673  -3.297  11.307  0.00  0.00    -0.650 OA
BRANCH  53  55
HETATM   55  O   UNK     0     -37.876  -4.963   9.780  0.00  0.00    -0.776 OA
HETATM   56  H   UNK     0     -37.606  -4.823   8.835  0.00  0.00     0.167 HD
ENDBRANCH  53  55
ENDBRANCH  52  53
ENDBRANCH  51  52
ENDBRANCH  18  51
TORSDOF 16
ENDMDL
MODEL 4
REMARK VINA RESULT:      -8.1     21.842     25.007
REMARK  16 active torsions:
REMARK  status: ('A' for Active; 'I' for Inactive)
REMARK    1  A    between atoms: C_6  and  C_7 
REMARK    2  A    between atoms: C_7  and  C_8 
REMARK    3  A    between atoms: C_8  and  C_9 
REMARK    4  A    between atoms: C_9  and  O_11 
REMARK    5  A    between atoms: C_16  and  C_17 
REMARK    6  A    between atoms: C_17  and  C_18 
REMARK    7  A    between atoms: C_18  and  C_19 
REMARK    8  A    between atoms: C_19  and  O_21 
REMARK    9  A    between atoms: C_28  and  C_29 
REMARK   10  A    between atoms: C_29  and  C_30 
REMARK   11  A    between atoms: C_30  and  C_31 
REMARK   12  A    between atoms: C_31  and  O_33 
REMARK   13  A    between atoms: C_42  and  C_43 
REMARK   14  A    between atoms: C_43  and  C_44 
REMARK   15  A    between atoms: C_44  and  C_45 
REMARK   16  A    between atoms: C_45  and  O_47 
ROOT
HETATM    1  C   UNK     0      -9.570   0.430  18.287  0.00  0.00     0.051 C 
HETATM    2  C   UNK     0     -10.626   0.902  17.309  0.00  0.00    -0.031 A 
HETATM    3  C   UNK     0     -11.070   2.188  17.045  0.00  0.00     0.021 A 
HETATM    4  N   UNK     0     -12.052   2.135  16.114  0.00  0.00    -0.361 N 
HETATM    5  C   UNK     0     -12.238   0.843  15.773  0.00  0.00     0.022 A 
HETATM    6  C   UNK     0     -11.364   0.044  16.503  0.00  0.00    -0.027 A 
HETATM    7  C   UNK     0     -13.133   0.255  14.727  0.00  0.00     0.115 C 
HETATM    8  C   UNK     0     -13.187   0.976  13.392  0.00  0.00     0.021 A 
HETATM    9  N   UNK     0     -12.198   1.611  12.743  0.00  0.00    -0.361 N 
HETATM   10  C   UNK     0     -12.722   2.185  11.639  0.00  0.00     0.022 A 
HETATM   11  C   UNK     0     -14.083   1.904  11.570  0.00  0.00    -0.027 A 
HETATM   12  C   UNK     0     -14.383   1.143  12.670  0.00  0.00    -0.031 A 
HETATM   13  C   UNK     0     -15.752   0.598  13.010  0.00  0.00     0.051 C 
HETATM   14  C   UNK     0     -11.974   3.061  10.639  0.00  0.00     0.115 C 
HETATM   15  C   UNK     0     -11.387   4.326  11.245  0.00  0.00     0.021 A 
HETATM   16  N   UNK     0     -10.503   4.418  12.256  0.00  0.00    -0.361 N 
HETATM   17  C   UNK     0     -10.293   5.706  12.539  0.00  0.00     0.022 A 
HETATM   18  C   UNK     0     -11.071   6.490  11.664  0.00  0.00    -0.027 A 
HETATM   19  C   UNK     0     -11.751   5.614  10.858  0.00  0.00    -0.031 A 
HETATM   20  C   UNK     0     -12.684   6.045   9.741  0.00  0.00     0.051 C 
HETATM   21  C   UNK     0      -9.452   6.338  13.625  0.00  0.00     0.115 C 
HETATM   22  C   UNK     0      -9.354   5.608  14.944  0.00  0.00     0.022 A 
HETATM   23  N   UNK     0     -10.321   4.964  15.610  0.00  0.00    -0.361 N 
HETATM   24  C   UNK     0      -9.762   4.336  16.664  0.00  0.00     0.021 A 
HETATM   25  C   UNK     0      -8.404   4.589  16.683  0.00  0.00    -0.031 A 
HETATM   26  C   UNK     0      -7.364   4.139  17.687  0.00  0.00     0.051 C 
HETATM   27  C   UNK     0      -8.119   5.402  15.591  0.00  0.00    -0.027 A 
HETATM   28  C   UNK     0     -10.438   3.406  17.658  0.00  0.00     0.115 C 
HETATM   29  H   UNK     0     -12.634   3.006  15.735  0.00  0.00     0.165 HD
HETATM   30  H   UNK     0     -11.120   1.614  13.036  0.00  0.00     0.165 HD
HETATM   31  H   UNK     0      -9.978   3.558  12.749  0.00  0.00     0.165 HD
HETATM   32  H   UNK     0     -11.415   4.983  15.368  0.00  0.00     0.165 HD
ENDROOT
BRANCH   6  33
HETATM   33  C   UNK     0     -11.182  -1.452  16.495  0.00  0.00     0.051 C 
BRANCH  33  34
HETATM   34  C   UNK     0     -12.152  -2.115  17.444  0.00  0.00     0.114 C 
BRANCH  34  35
HETATM   35  C   UNK     0     -11.440  -3.259  18.083  0.00  0.00     0.139 C 
HETATM   36  O   UNK     0     -10.550  -3.048  18.957  0.00  0.00    -0.650 OA
BRANCH  35  37
HETATM   37  O   UNK     0     -11.712  -4.584  17.762  0.00  0.00    -0.776 OA
HETATM   38  H   UNK     0     -10.989  -5.284  17.724  0.00  0.00     0.167 HD
ENDBRANCH  35  37
ENDBRANCH  34  35
ENDBRANCH  33  34
ENDBRANCH   6  33
BRANCH  27  39
HETATM   39  C   UNK     0      -6.761   5.946  15.319  0.00  0.00     0.051 C 
BRANCH  39  40
HETATM   40  C   UNK     0      -6.440   7.288  15.805  0.00  0.00     0.114 C 
BRANCH  40  41
HETATM   41  C   UNK     0      -7.464   8.236  16.183  0.00  0.00     0.139 C 
HETATM   42  O   UNK     0      -8.028   8.989  15.379  0.00  0.00    -0.650 OA
BRANCH  41  43
HETATM   43  O   UNK     0      -7.856   8.321  17.549  0.00  0.00    -0.776 OA
HETATM   44  H   UNK     0      -8.466   7.573  17.857  0.00  0.00     0.167 HD
ENDBRANCH  41  43
ENDBRANCH  40  41
ENDBRANCH  39  40
ENDBRANCH  27  39
BRANCH  11  45
HETATM   45  C   UNK     0     -15.078   2.321  10.520  0.00  0.00     0.051 C 
BRANCH  45  46
HETATM   46  C   UNK     0     -14.510   3.190   9.458  0.00  0.00     0.114 C 
BRANCH  46  47
HETATM   47  C   UNK     0     -15.017   2.680   8.152  0.00  0.00     0.139 C 
HETATM   48  O   UNK     0     -16.242   2.593   7.985  0.00  0.00    -0.650 OA
BRANCH  47  49
HETATM   49  O   UNK     0     -14.148   2.313   7.156  0.00  0.00    -0.776 OA
HETATM   50  H   UNK     0     -13.685   1.396   7.147  0.00  0.00     0.167 HD
ENDBRANCH  47  49
ENDBRANCH  46  47
ENDBRANCH  45  46
ENDBRANCH  11  45
BRANCH  18  51
HETATM   51  C   UNK     0     -11.147   7.993  11.587  0.00  0.00     0.051 C 
BRANCH  51  52
HETATM   52  C   UNK     0     -12.078   8.431  12.707  0.00  0.00     0.114 C 
BRANCH  52  53
HETATM   53  C   UNK     0     -11.483   9.503  13.529  0.00  0.00     0.139 C 
HETATM   54  O   UNK     0     -11.350  10.644  13.060  0.00  0.00    -0.650 OA
BRANCH  53  55
HETATM   55  O   UNK     0     -11.075   9.228  14.812  0.00  0.00    -0.776 OA
HETATM   56  H   UNK     0     -10.241   9.553  15.241  0.00  0.00     0.167 HD
ENDBRANCH  53  55
ENDBRANCH  52  53
ENDBRANCH  51  52
ENDBRANCH  18  51
TORSDOF 16
ENDMDL
MODEL 5
REMARK VINA RESULT:      -8.0     22.029     26.064
REMARK  16 active torsions:
REMARK  status: ('A' for Active; 'I' for Inactive)
REMARK    1  A    between atoms: C_6  and  C_7 
REMARK    2  A    between atoms: C_7  and  C_8 
REMARK    3  A    between atoms: C_8  and  C_9 
REMARK    4  A    between atoms: C_9  and  O_11 
REMARK    5  A    between atoms: C_16  and  C_17 
REMARK    6  A    between atoms: C_17  and  C_18 
REMARK    7  A    between atoms: C_18  and  C_19 
REMARK    8  A    between atoms: C_19  and  O_21 
REMARK    9  A    between atoms: C_28  and  C_29 
REMARK   10  A    between atoms: C_29  and  C_30 
REMARK   11  A    between atoms: C_30  and  C_31 
REMARK   12  A    between atoms: C_31  and  O_33 
REMARK   13  A    between atoms: C_42  and  C_43 
REMARK   14  A    between atoms: C_43  and  C_44 
REMARK   15  A    between atoms: C_44  and  C_45 
REMARK   16  A    between atoms: C_45  and  O_47 
ROOT
HETATM    1  C   UNK     0     -14.848   6.393   9.468  0.00  0.00     0.051 C 
HETATM    2  C   UNK     0     -13.793   5.511  10.106  0.00  0.00    -0.031 A 
HETATM    3  C   UNK     0     -12.463   5.788  10.379  0.00  0.00     0.021 A 
HETATM    4  N   UNK     0     -11.887   4.692  10.927  0.00  0.00    -0.361 N 
HETATM    5  C   UNK     0     -12.824   3.726  11.018  0.00  0.00     0.022 A 
HETATM    6  C   UNK     0     -14.028   4.204  10.511  0.00  0.00    -0.027 A 
HETATM    7  C   UNK     0     -12.730   2.364  11.632  0.00  0.00     0.115 C 
HETATM    8  C   UNK     0     -12.002   2.264  12.960  0.00  0.00     0.021 A 
HETATM    9  N   UNK     0     -11.980   3.147  13.971  0.00  0.00    -0.361 N 
HETATM   10  C   UNK     0     -11.129   2.686  14.912  0.00  0.00     0.022 A 
HETATM   11  C   UNK     0     -10.595   1.468  14.501  0.00  0.00    -0.027 A 
HETATM   12  C   UNK     0     -11.141   1.196  13.272  0.00  0.00    -0.031 A 
HETATM   13  C   UNK     0     -10.852  -0.034  12.441  0.00  0.00     0.051 C 
HETATM   14  C   UNK     0     -10.746   3.398  16.207  0.00  0.00     0.115 C 
HETATM   15  C   UNK     0     -10.076   4.745  15.993  0.00  0.00     0.021 A 
HETATM   16  N   UNK     0     -10.571   5.815  15.344  0.00  0.00    -0.361 N 
HETATM   17  C   UNK     0      -9.646   6.778  15.315  0.00  0.00     0.022 A 
HETATM   18  C   UNK     0      -8.497   6.316  15.987  0.00  0.00    -0.027 A 
HETATM   19  C   UNK     0      -8.779   5.042  16.408  0.00  0.00    -0.031 A 
HETATM   20  C   UNK     0      -7.817   4.186  17.210  0.00  0.00     0.051 C 
HETATM   21  C   UNK     0      -9.677   8.136  14.652  0.00  0.00     0.115 C 
HETATM   22  C   UNK     0     -10.435   8.260  13.351  0.00  0.00     0.022 A 
HETATM   23  N   UNK     0     -10.478   7.395  12.330  0.00  0.00    -0.361 N 
HETATM   24  C   UNK     0     -11.390   7.835  11.440  0.00  0.00     0.021 A 
HETATM   25  C   UNK     0     -11.941   9.018  11.895  0.00  0.00    -0.031 A 
HETATM   26  C   UNK     0     -12.970   9.908  11.230  0.00  0.00     0.051 C 
HETATM   27  C   UNK     0     -11.345   9.311  13.116  0.00  0.00    -0.027 A 
HETATM   28  C   UNK     0     -11.856   7.147  10.169  0.00  0.00     0.115 C 
HETATM   29  H   UNK     0     -10.813   4.596  11.210  0.00  0.00     0.165 HD
HETATM   30  H   UNK     0     -12.602   4.072  14.045  0.00  0.00     0.165 HD
HETATM   31  H   UNK     0     -11.611   5.912  14.938  0.00  0.00     0.165 HD
HETATM   32  H   UNK     0      -9.833   6.486  12.207  0.00  0.00     0.165 HD
ENDROOT
BRANCH   6  33
HETATM   33  C   UNK     0     -15.365   3.520  10.380  0.00  0.00     0.051 C 
BRANCH  33  34
HETATM   34  C   UNK     0     -15.429   2.707   9.109  0.00  0.00     0.114 C 
BRANCH  34  35
HETATM   35  C   UNK     0     -16.369   3.402   8.182  0.00  0.00     0.139 C 
HETATM   36  O   UNK     0     -17.607   3.437   8.439  0.00  0.00    -0.650 OA
BRANCH  35  37
HETATM   37  O   UNK     0     -15.945   4.032   7.019  0.00  0.00    -0.776 OA
HETATM   38  H   UNK     0     -15.208   4.719   7.021  0.00  0.00     0.167 HD
ENDBRANCH  35  37
ENDBRANCH  34  35
ENDBRANCH  33  34
ENDBRANCH   6  33
BRANCH  27  39
HETATM   39  C   UNK     0     -11.633  10.554  13.882  0.00  0.00     0.051 C 
BRANCH  39  40
HETATM   40  C   UNK     0     -10.882  11.764  13.548  0.00  0.00     0.114 C 
BRANCH  40  41
HETATM   41  C   UNK     0     -11.493  12.889  12.877  0.00  0.00     0.139 C 
HETATM   42  O   UNK     0     -10.953  13.508  11.950  0.00  0.00    -0.650 OA
BRANCH  41  43
HETATM   43  O   UNK     0     -12.784  13.324  13.291  0.00  0.00    -0.776 OA
HETATM   44  H   UNK     0     -13.116  14.157  12.822  0.00  0.00     0.167 HD
ENDBRANCH  41  43
ENDBRANCH  40  41
ENDBRANCH  39  40
ENDBRANCH  27  39
BRANCH  11  45
HETATM   45  C   UNK     0      -9.615   0.580  15.218  0.00  0.00     0.051 C 
BRANCH  45  46
HETATM   46  C   UNK     0     -10.029   0.207  16.595  0.00  0.00     0.114 C 
BRANCH  46  47
HETATM   47  C   UNK     0     -10.754  -1.092  16.501  0.00  0.00     0.139 C 
HETATM   48  O   UNK     0     -11.990  -1.076  16.417  0.00  0.00    -0.650 OA
BRANCH  47  49
HETATM   49  O   UNK     0     -10.070  -2.281  16.509  0.00  0.00    -0.776 OA
HETATM   50  H   UNK     0      -9.208  -2.411  17.053  0.00  0.00     0.167 HD
ENDBRANCH  47  49
ENDBRANCH  46  47
ENDBRANCH  45  46
ENDBRANCH  11  45
BRANCH  18  51
HETATM   51  C   UNK     0      -7.207   7.056  16.233  0.00  0.00     0.051 C 
BRANCH  51  52
HETATM   52  C   UNK     0      -7.424   7.884  17.490  0.00  0.00     0.114 C 
BRANCH  52  53
HETATM   53  C   UNK     0      -6.698   9.168  17.435  0.00  0.00     0.139 C 
HETATM   54  O   UNK     0      -5.977   9.515  18.384  0.00  0.00    -0.650 OA
BRANCH  53  55
HETATM   55  O   UNK     0      -6.827   9.975  16.330  0.00  0.00    -0.776 OA
HETATM   56  H   UNK     0      -7.196  10.896  16.321  0.00  0.00     0.167 HD
ENDBRANCH  53  55
ENDBRANCH  52  53
ENDBRANCH  51  52
ENDBRANCH  18  51
TORSDOF 16
ENDMDL
MODEL 6
REMARK VINA RESULT:      -7.7      5.370     10.810
REMARK  16 active torsions:
REMARK  status: ('A' for Active; 'I' for Inactive)
REMARK    1  A    between atoms: C_6  and  C_7 
REMARK    2  A    between atoms: C_7  and  C_8 
REMARK    3  A    between atoms: C_8  and  C_9 
REMARK    4  A    between atoms: C_9  and  O_11 
REMARK    5  A    between atoms: C_16  and  C_17 
REMARK    6  A    between atoms: C_17  and  C_18 
REMARK    7  A    between atoms: C_18  and  C_19 
REMARK    8  A    between atoms: C_19  and  O_21 
REMARK    9  A    between atoms: C_28  and  C_29 
REMARK   10  A    between atoms: C_29  and  C_30 
REMARK   11  A    between atoms: C_30  and  C_31 
REMARK   12  A    between atoms: C_31  and  O_33 
REMARK   13  A    between atoms: C_42  and  C_43 
REMARK   14  A    between atoms: C_43  and  C_44 
REMARK   15  A    between atoms: C_44  and  C_45 
REMARK   16  A    between atoms: C_45  and  O_47 
ROOT
HETATM    1  C   UNK     0     -33.578   1.807  -0.150  0.00  0.00     0.051 C 
HETATM    2  C   UNK     0     -32.244   2.116   0.501  0.00  0.00    -0.031 A 
HETATM    3  C   UNK     0     -31.944   2.321   1.838  0.00  0.00     0.021 A 
HETATM    4  N   UNK     0     -30.625   2.599   1.957  0.00  0.00    -0.361 N 
HETATM    5  C   UNK     0     -30.075   2.568   0.725  0.00  0.00     0.022 A 
HETATM    6  C   UNK     0     -31.061   2.271  -0.210  0.00  0.00    -0.027 A 
HETATM    7  C   UNK     0     -28.642   2.714   0.318  0.00  0.00     0.115 C 
HETATM    8  C   UNK     0     -27.614   1.994   1.172  0.00  0.00     0.021 A 
HETATM    9  N   UNK     0     -27.723   0.807   1.789  0.00  0.00    -0.361 N 
HETATM   10  C   UNK     0     -26.601   0.605   2.511  0.00  0.00     0.022 A 
HETATM   11  C   UNK     0     -25.741   1.687   2.347  0.00  0.00    -0.027 A 
HETATM   12  C   UNK     0     -26.373   2.566   1.505  0.00  0.00    -0.031 A 
HETATM   13  C   UNK     0     -25.809   3.889   1.039  0.00  0.00     0.051 C 
HETATM   14  C   UNK     0     -26.317  -0.586   3.422  0.00  0.00     0.115 C 
HETATM   15  C   UNK     0     -27.304  -0.733   4.569  0.00  0.00     0.021 A 
HETATM   16  N   UNK     0     -28.639  -0.887   4.488  0.00  0.00    -0.361 N 
HETATM   17  C   UNK     0     -29.153  -0.908   5.720  0.00  0.00     0.022 A 
HETATM   18  C   UNK     0     -28.101  -0.772   6.648  0.00  0.00    -0.027 A 
HETATM   19  C   UNK     0     -26.949  -0.664   5.914  0.00  0.00    -0.031 A 
HETATM   20  C   UNK     0     -25.567  -0.536   6.528  0.00  0.00     0.051 C 
HETATM   21  C   UNK     0     -30.594  -0.987   6.171  0.00  0.00     0.115 C 
HETATM   22  C   UNK     0     -31.633  -0.312   5.307  0.00  0.00     0.022 A 
HETATM   23  N   UNK     0     -31.550   0.867   4.677  0.00  0.00    -0.361 N 
HETATM   24  C   UNK     0     -32.645   1.012   3.903  0.00  0.00     0.021 A 
HETATM   25  C   UNK     0     -33.457  -0.096   4.045  0.00  0.00    -0.031 A 
HETATM   26  C   UNK     0     -34.805  -0.378   3.415  0.00  0.00     0.051 C 
HETATM   27  C   UNK     0     -32.831  -0.958   4.939  0.00  0.00    -0.027 A 
HETATM   28  C   UNK     0     -32.956   2.140   2.935  0.00  0.00     0.115 C 
HETATM   29  H   UNK     0     -30.098   2.855   2.905  0.00  0.00     0.165 HD
HETATM   30  H   UNK     0     -28.570   0.086   1.677  0.00  0.00     0.165 HD
HETATM   31  H   UNK     0     -29.227  -1.031   3.545  0.00  0.00     0.165 HD
HETATM   32  H   UNK     0     -30.738   1.629   4.807  0.00  0.00     0.165 HD
ENDROOT
BRANCH   6  33
HETATM   33  C   UNK     0     -30.966   2.128  -1.708  0.00  0.00     0.051 C 
BRANCH  33  34
HETATM   34  C   UNK     0     -31.131   3.468  -2.385  0.00  0.00     0.114 C 
BRANCH  34  35
HETATM   35  C   UNK     0     -29.856   3.767  -3.099  0.00  0.00     0.139 C 
HETATM   36  O   UNK     0     -29.075   4.662  -2.662  0.00  0.00    -0.650 OA
BRANCH  35  37
HETATM   37  O   UNK     0     -29.467   3.094  -4.251  0.00  0.00    -0.776 OA
HETATM   38  H   UNK     0     -29.740   3.404  -5.169  0.00  0.00     0.167 HD
ENDBRANCH  35  37
ENDBRANCH  34  35
ENDBRANCH  33  34
ENDBRANCH   6  33
BRANCH  27  39
HETATM   39  C   UNK     0     -33.443  -2.234   5.399  0.00  0.00     0.051 C 
BRANCH  39  40
HETATM   40  C   UNK     0     -33.148  -3.455   4.649  0.00  0.00     0.114 C 
BRANCH  40  41
HETATM   41  C   UNK     0     -32.329  -4.515   5.194  0.00  0.00     0.139 C 
HETATM   42  O   UNK     0     -32.793  -5.527   5.736  0.00  0.00    -0.650 OA
BRANCH  41  43
HETATM   43  O   UNK     0     -30.912  -4.405   5.112  0.00  0.00    -0.776 OA
HETATM   44  H   UNK     0     -30.527  -4.617   4.199  0.00  0.00     0.167 HD
ENDBRANCH  41  43
ENDBRANCH  40  41
ENDBRANCH  39  40
ENDBRANCH  27  39
BRANCH  11  45
HETATM   45  C   UNK     0     -24.377   1.905   2.946  0.00  0.00     0.051 C 
BRANCH  45  46
HETATM   46  C   UNK     0     -24.399   2.539   4.289  0.00  0.00     0.114 C 
BRANCH  46  47
HETATM   47  C   UNK     0     -23.079   2.268   4.926  0.00  0.00     0.139 C 
HETATM   48  O   UNK     0     -23.044   2.041   6.144  0.00  0.00    -0.650 OA
BRANCH  47  49
HETATM   49  O   UNK     0     -21.925   2.273   4.183  0.00  0.00    -0.776 OA
HETATM   50  H   UNK     0     -21.187   2.972   4.326  0.00  0.00     0.167 HD
ENDBRANCH  47  49
ENDBRANCH  46  47
ENDBRANCH  45  46
ENDBRANCH  11  45
BRANCH  18  51
HETATM   51  C   UNK     0     -28.188  -0.765   8.152  0.00  0.00     0.051 C 
BRANCH  51  52
HETATM   52  C   UNK     0     -27.968   0.677   8.585  0.00  0.00     0.114 C 
BRANCH  52  53
HETATM   53  C   UNK     0     -27.687   0.779  10.031  0.00  0.00     0.139 C 
HETATM   54  O   UNK     0     -28.225   1.670  10.707  0.00  0.00    -0.650 OA
BRANCH  53  55
HETATM   55  O   UNK     0     -26.825  -0.113  10.620  0.00  0.00    -0.776 OA
HETATM   56  H   UNK     0     -25.886   0.070  10.885  0.00  0.00     0.167 HD
ENDBRANCH  53  55
ENDBRANCH  52  53
ENDBRANCH  51  52
ENDBRANCH  18  51
TORSDOF 16
ENDMDL
MODEL 7
REMARK VINA RESULT:      -7.6     22.051     25.948
REMARK  16 active torsions:
REMARK  status: ('A' for Active; 'I' for Inactive)
REMARK    1  A    between atoms: C_6  and  C_7 
REMARK    2  A    between atoms: C_7  and  C_8 
REMARK    3  A    between atoms: C_8  and  C_9 
REMARK    4  A    between atoms: C_9  and  O_11 
REMARK    5  A    between atoms: C_16  and  C_17 
REMARK    6  A    between atoms: C_17  and  C_18 
REMARK    7  A    between atoms: C_18  and  C_19 
REMARK    8  A    between atoms: C_19  and  O_21 
REMARK    9  A    between atoms: C_28  and  C_29 
REMARK   10  A    between atoms: C_29  and  C_30 
REMARK   11  A    between atoms: C_30  and  C_31 
REMARK   12  A    between atoms: C_31  and  O_33 
REMARK   13  A    between atoms: C_42  and  C_43 
REMARK   14  A    between atoms: C_43  and  C_44 
REMARK   15  A    between atoms: C_44  and  C_45 
REMARK   16  A    between atoms: C_45  and  O_47 
ROOT
HETATM    1  C   UNK     0     -13.967   5.434   9.048  0.00  0.00     0.051 C 
HETATM    2  C   UNK     0     -12.993   4.717   9.960  0.00  0.00    -0.031 A 
HETATM    3  C   UNK     0     -11.828   5.188  10.547  0.00  0.00     0.021 A 
HETATM    4  N   UNK     0     -11.258   4.187  11.260  0.00  0.00    -0.361 N 
HETATM    5  C   UNK     0     -12.038   3.092  11.147  0.00  0.00     0.022 A 
HETATM    6  C   UNK     0     -13.131   3.388  10.338  0.00  0.00    -0.027 A 
HETATM    7  C   UNK     0     -11.908   1.758  11.812  0.00  0.00     0.115 C 
HETATM    8  C   UNK     0     -11.532   1.764  13.284  0.00  0.00     0.021 A 
HETATM    9  N   UNK     0     -11.894   2.638  14.236  0.00  0.00    -0.361 N 
HETATM   10  C   UNK     0     -11.252   2.306  15.376  0.00  0.00     0.022 A 
HETATM   11  C   UNK     0     -10.461   1.182  15.154  0.00  0.00    -0.027 A 
HETATM   12  C   UNK     0     -10.634   0.835  13.839  0.00  0.00    -0.031 A 
HETATM   13  C   UNK     0      -9.970  -0.337  13.149  0.00  0.00     0.051 C 
HETATM   14  C   UNK     0     -11.315   3.063  16.699  0.00  0.00     0.115 C 
HETATM   15  C   UNK     0     -10.813   4.496  16.613  0.00  0.00     0.021 A 
HETATM   16  N   UNK     0     -11.277   5.482  15.824  0.00  0.00    -0.361 N 
HETATM   17  C   UNK     0     -10.524   6.571  15.994  0.00  0.00     0.022 A 
HETATM   18  C   UNK     0      -9.527   6.283  16.947  0.00  0.00    -0.027 A 
HETATM   19  C   UNK     0      -9.720   4.981  17.329  0.00  0.00    -0.031 A 
HETATM   20  C   UNK     0      -8.879   4.274  18.376  0.00  0.00     0.051 C 
HETATM   21  C   UNK     0     -10.581   7.911  15.297  0.00  0.00     0.115 C 
HETATM   22  C   UNK     0     -10.996   7.925  13.844  0.00  0.00     0.022 A 
HETATM   23  N   UNK     0     -10.654   7.065  12.875  0.00  0.00    -0.361 N 
HETATM   24  C   UNK     0     -11.365   7.368  11.770  0.00  0.00     0.021 A 
HETATM   25  C   UNK     0     -12.177   8.455  12.031  0.00  0.00    -0.031 A 
HETATM   26  C   UNK     0     -13.122   9.184  11.099  0.00  0.00     0.051 C 
HETATM   27  C   UNK     0     -11.958   8.830  13.352  0.00  0.00    -0.027 A 
HETATM   28  C   UNK     0     -11.390   6.622  10.448  0.00  0.00     0.115 C 
HETATM   29  H   UNK     0     -10.289   4.251  11.806  0.00  0.00     0.165 HD
HETATM   30  H   UNK     0     -12.641   3.460  14.119  0.00  0.00     0.165 HD
HETATM   31  H   UNK     0     -12.184   5.425  15.167  0.00  0.00     0.165 HD
HETATM   32  H   UNK     0      -9.875   6.263  12.949  0.00  0.00     0.165 HD
ENDROOT
BRANCH   6  33
HETATM   33  C   UNK     0     -14.279   2.514   9.901  0.00  0.00     0.051 C 
BRANCH  33  34
HETATM   34  C   UNK     0     -15.444   2.645  10.854  0.00  0.00     0.114 C 
BRANCH  34  35
HETATM   35  C   UNK     0     -15.404   1.471  11.772  0.00  0.00     0.139 C 
HETATM   36  O   UNK     0     -15.263   1.642  13.018  0.00  0.00    -0.650 OA
BRANCH  35  37
HETATM   37  O   UNK     0     -15.519   0.162  11.321  0.00  0.00    -0.776 OA
HETATM   38  H   UNK     0     -16.046  -0.533  11.825  0.00  0.00     0.167 HD
ENDBRANCH  35  37
ENDBRANCH  34  35
ENDBRANCH  33  34
ENDBRANCH   6  33
BRANCH  27  39
HETATM   39  C   UNK     0     -12.606  10.015  13.977  0.00  0.00     0.051 C 
BRANCH  39  40
HETATM   40  C   UNK     0     -12.176  11.346  13.551  0.00  0.00     0.114 C 
BRANCH  40  41
HETATM   41  C   UNK     0     -10.785  11.739  13.538  0.00  0.00     0.139 C 
HETATM   42  O   UNK     0      -9.883  11.078  14.071  0.00  0.00    -0.650 OA
BRANCH  41  43
HETATM   43  O   UNK     0     -10.414  12.948  12.883  0.00  0.00    -0.776 OA
HETATM   44  H   UNK     0     -10.378  12.883  11.873  0.00  0.00     0.167 HD
ENDBRANCH  41  43
ENDBRANCH  40  41
ENDBRANCH  39  40
ENDBRANCH  27  39
BRANCH  11  45
HETATM   45  C   UNK     0      -9.577   0.447  16.125  0.00  0.00     0.051 C 
BRANCH  45  46
HETATM   46  C   UNK     0     -10.297  -0.116  17.295  0.00  0.00     0.114 C 
BRANCH  46  47
HETATM   47  C   UNK     0     -10.840  -1.443  16.884  0.00  0.00     0.139 C 
HETATM   48  O   UNK     0     -12.068  -1.601  16.866  0.00  0.00    -0.650 OA
BRANCH  47  49
HETATM   49  O   UNK     0      -9.998  -2.468  16.533  0.00  0.00    -0.776 OA
HETATM   50  H   UNK     0      -9.713  -2.631  15.560  0.00  0.00     0.167 HD
ENDBRANCH  47  49
ENDBRANCH  46  47
ENDBRANCH  45  46
ENDBRANCH  11  45
BRANCH  18  51
HETATM   51  C   UNK     0      -8.462   7.205  17.482  0.00  0.00     0.051 C 
BRANCH  51  52
HETATM   52  C   UNK     0      -7.143   6.710  16.909  0.00  0.00     0.114 C 
BRANCH  52  53
HETATM   53  C   UNK     0      -6.674   7.557  15.795  0.00  0.00     0.139 C 
HETATM   54  O   UNK     0      -5.788   7.144  15.031  0.00  0.00    -0.650 OA
BRANCH  53  55
HETATM   55  O   UNK     0      -7.223   8.803  15.612  0.00  0.00    -0.776 OA
HETATM   56  H   UNK     0      -8.076   9.128  16.001  0.00  0.00     0.167 HD
ENDBRANCH  53  55
ENDBRANCH  52  53
ENDBRANCH  51  52
ENDBRANCH  18  51
TORSDOF 16
ENDMDL
MODEL 8
REMARK VINA RESULT:      -7.6     20.583     24.095
REMARK  16 active torsions:
REMARK  status: ('A' for Active; 'I' for Inactive)
REMARK    1  A    between atoms: C_6  and  C_7 
REMARK    2  A    between atoms: C_7  and  C_8 
REMARK    3  A    between atoms: C_8  and  C_9 
REMARK    4  A    between atoms: C_9  and  O_11 
REMARK    5  A    between atoms: C_16  and  C_17 
REMARK    6  A    between atoms: C_17  and  C_18 
REMARK    7  A    between atoms: C_18  and  C_19 
REMARK    8  A    between atoms: C_19  and  O_21 
REMARK    9  A    between atoms: C_28  and  C_29 
REMARK   10  A    between atoms: C_29  and  C_30 
REMARK   11  A    between atoms: C_30  and  C_31 
REMARK   12  A    between atoms: C_31  and  O_33 
REMARK   13  A    between atoms: C_42  and  C_43 
REMARK   14  A    between atoms: C_43  and  C_44 
REMARK   15  A    between atoms: C_44  and  C_45 
REMARK   16  A    between atoms: C_45  and  O_47 
ROOT
HETATM    1  C   UNK     0     -15.342  -0.074  11.825  0.00  0.00     0.051 C 
HETATM    2  C   UNK     0     -14.560   0.181  13.097  0.00  0.00    -0.031 A 
HETATM    3  C   UNK     0     -14.988   0.147  14.415  0.00  0.00     0.021 A 
HETATM    4  N   UNK     0     -13.952   0.472  15.224  0.00  0.00    -0.361 N 
HETATM    5  C   UNK     0     -12.871   0.704  14.451  0.00  0.00     0.022 A 
HETATM    6  C   UNK     0     -13.216   0.534  13.115  0.00  0.00    -0.027 A 
HETATM    7  C   UNK     0     -11.460   1.004  14.853  0.00  0.00     0.115 C 
HETATM    8  C   UNK     0     -10.893   0.194  16.005  0.00  0.00     0.021 A 
HETATM    9  N   UNK     0     -11.119  -1.092  16.315  0.00  0.00    -0.361 N 
HETATM   10  C   UNK     0     -10.480  -1.363  17.472  0.00  0.00     0.022 A 
HETATM   11  C   UNK     0      -9.816  -0.223  17.916  0.00  0.00    -0.027 A 
HETATM   12  C   UNK     0     -10.072   0.762  16.996  0.00  0.00    -0.031 A 
HETATM   13  C   UNK     0      -9.548   2.179  17.064  0.00  0.00     0.051 C 
HETATM   14  C   UNK     0     -10.512  -2.686  18.232  0.00  0.00     0.115 C 
HETATM   15  C   UNK     0     -11.902  -3.102  18.685  0.00  0.00     0.021 A 
HETATM   16  N   UNK     0     -12.988  -3.312  17.918  0.00  0.00    -0.361 N 
HETATM   17  C   UNK     0     -14.031  -3.594  18.701  0.00  0.00     0.022 A 
HETATM   18  C   UNK     0     -13.602  -3.576  20.044  0.00  0.00    -0.027 A 
HETATM   19  C   UNK     0     -12.267  -3.268  20.020  0.00  0.00    -0.031 A 
HETATM   20  C   UNK     0     -11.399  -3.180  21.261  0.00  0.00     0.051 C 
HETATM   21  C   UNK     0     -15.479  -3.837  18.342  0.00  0.00     0.115 C 
HETATM   22  C   UNK     0     -16.045  -3.071  17.169  0.00  0.00     0.022 A 
HETATM   23  N   UNK     0     -15.834  -1.791  16.834  0.00  0.00    -0.361 N 
HETATM   24  C   UNK     0     -16.415  -1.565  15.639  0.00  0.00     0.021 A 
HETATM   25  C   UNK     0     -17.024  -2.724  15.198  0.00  0.00    -0.031 A 
HETATM   26  C   UNK     0     -17.833  -2.956  13.939  0.00  0.00     0.051 C 
HETATM   27  C   UNK     0     -16.801  -3.702  16.161  0.00  0.00    -0.027 A 
HETATM   28  C   UNK     0     -16.369  -0.293  14.809  0.00  0.00     0.115 C 
HETATM   29  H   UNK     0     -14.002   0.574  16.333  0.00  0.00     0.165 HD
HETATM   30  H   UNK     0     -11.688  -1.825  15.692  0.00  0.00     0.165 HD
HETATM   31  H   UNK     0     -13.009  -3.309  16.797  0.00  0.00     0.165 HD
HETATM   32  H   UNK     0     -15.309  -1.023  17.460  0.00  0.00     0.165 HD
ENDROOT
BRANCH   6  33
HETATM   33  C   UNK     0     -12.379   0.681  11.870  0.00  0.00     0.051 C 
BRANCH  33  34
HETATM   34  C   UNK     0     -12.308   2.127  11.441  0.00  0.00     0.114 C 
BRANCH  34  35
HETATM   35  C   UNK     0     -11.938   2.147   9.996  0.00  0.00     0.139 C 
HETATM   36  O   UNK     0     -10.721   2.168   9.651  0.00  0.00    -0.650 OA
BRANCH  35  37
HETATM   37  O   UNK     0     -12.885   2.141   8.980  0.00  0.00    -0.776 OA
HETATM   38  H   UNK     0     -12.696   1.742   8.075  0.00  0.00     0.167 HD
ENDBRANCH  35  37
ENDBRANCH  34  35
ENDBRANCH  33  34
ENDBRANCH   6  33
BRANCH  27  39
HETATM   39  C   UNK     0     -17.370  -5.074  16.069  0.00  0.00     0.051 C 
BRANCH  39  40
HETATM   40  C   UNK     0     -16.739  -6.027  15.156  0.00  0.00     0.114 C 
BRANCH  40  41
HETATM   41  C   UNK     0     -16.248  -7.312  15.601  0.00  0.00     0.139 C 
HETATM   42  O   UNK     0     -16.782  -7.972  16.503  0.00  0.00    -0.650 OA
BRANCH  41  43
HETATM   43  O   UNK     0     -15.091  -7.863  14.981  0.00  0.00    -0.776 OA
HETATM   44  H   UNK     0     -14.262  -7.285  15.053  0.00  0.00     0.167 HD
ENDBRANCH  41  43
ENDBRANCH  40  41
ENDBRANCH  39  40
ENDBRANCH  27  39
BRANCH  11  45
HETATM   45  C   UNK     0      -8.969  -0.045  19.147  0.00  0.00     0.051 C 
BRANCH  45  46
HETATM   46  C   UNK     0      -9.739   0.314  20.366  0.00  0.00     0.114 C 
BRANCH  46  47
HETATM   47  C   UNK     0      -8.991   1.403  21.056  0.00  0.00     0.139 C 
HETATM   48  O   UNK     0      -8.083   1.981  20.441  0.00  0.00    -0.650 OA
BRANCH  47  49
HETATM   49  O   UNK     0      -9.298   1.759  22.345  0.00  0.00    -0.776 OA
HETATM   50  H   UNK     0     -10.070   2.399  22.565  0.00  0.00     0.167 HD
ENDBRANCH  47  49
ENDBRANCH  46  47
ENDBRANCH  45  46
ENDBRANCH  11  45
BRANCH  18  51
HETATM   51  C   UNK     0     -14.416  -3.858  21.280  0.00  0.00     0.051 C 
BRANCH  51  52
HETATM   52  C   UNK     0     -14.367  -5.365  21.488  0.00  0.00     0.114 C 
BRANCH  52  53
HETATM   53  C   UNK     0     -15.714  -5.966  21.465  0.00  0.00     0.139 C 
HETATM   54  O   UNK     0     -15.844  -7.201  21.492  0.00  0.00    -0.650 OA
BRANCH  53  55
HETATM   55  O   UNK     0     -16.821  -5.154  21.410  0.00  0.00    -0.776 OA
HETATM   56  H   UNK     0     -17.301  -4.768  22.188  0.00  0.00     0.167 HD
ENDBRANCH  53  55
ENDBRANCH  52  53
ENDBRANCH  51  52
ENDBRANCH  18  51
TORSDOF 16
ENDMDL
MODEL 9
REMARK VINA RESULT:      -7.6     20.341     23.568
REMARK  16 active torsions:
REMARK  status: ('A' for Active; 'I' for Inactive)
REMARK    1  A    between atoms: C_6  and  C_7 
REMARK    2  A    between atoms: C_7  and  C_8 
REMARK    3  A    between atoms: C_8  and  C_9 
REMARK    4  A    between atoms: C_9  and  O_11 
REMARK    5  A    between atoms: C_16  and  C_17 
REMARK    6  A    between atoms: C_17  and  C_18 
REMARK    7  A    between atoms: C_18  and  C_19 
REMARK    8  A    between atoms: C_19  and  O_21 
REMARK    9  A    between atoms: C_28  and  C_29 
REMARK   10  A    between atoms: C_29  and  C_30 
REMARK   11  A    between atoms: C_30  and  C_31 
REMARK   12  A    between atoms: C_31  and  O_33 
REMARK   13  A    between atoms: C_42  and  C_43 
REMARK   14  A    between atoms: C_43  and  C_44 
REMARK   15  A    between atoms: C_44  and  C_45 
REMARK   16  A    between atoms: C_45  and  O_47 
ROOT
HETATM    1  C   UNK     0      -9.536  -0.718  20.107  0.00  0.00     0.051 C 
HETATM    2  C   UNK     0     -10.179  -0.833  18.740  0.00  0.00    -0.031 A 
HETATM    3  C   UNK     0     -10.740  -1.939  18.122  0.00  0.00     0.021 A 
HETATM    4  N   UNK     0     -11.167  -1.585  16.886  0.00  0.00    -0.361 N 
HETATM    5  C   UNK     0     -10.897  -0.276  16.707  0.00  0.00     0.022 A 
HETATM    6  C   UNK     0     -10.277   0.226  17.846  0.00  0.00    -0.027 A 
HETATM    7  C   UNK     0     -11.247   0.620  15.560  0.00  0.00     0.115 C 
HETATM    8  C   UNK     0     -12.644   0.473  14.982  0.00  0.00     0.021 A 
HETATM    9  N   UNK     0     -13.790   0.200  15.625  0.00  0.00    -0.361 N 
HETATM   10  C   UNK     0     -14.768   0.071  14.702  0.00  0.00     0.022 A 
HETATM   11  C   UNK     0     -14.238   0.277  13.432  0.00  0.00    -0.027 A 
HETATM   12  C   UNK     0     -12.901   0.530  13.601  0.00  0.00    -0.031 A 
HETATM   13  C   UNK     0     -11.919   0.819  12.488  0.00  0.00     0.051 C 
HETATM   14  C   UNK     0     -16.222  -0.302  14.976  0.00  0.00     0.115 C 
HETATM   15  C   UNK     0     -16.397  -1.666  15.623  0.00  0.00     0.021 A 
HETATM   16  N   UNK     0     -15.883  -2.092  16.792  0.00  0.00    -0.361 N 
HETATM   17  C   UNK     0     -16.209  -3.374  16.973  0.00  0.00     0.022 A 
HETATM   18  C   UNK     0     -16.981  -3.800  15.874  0.00  0.00    -0.027 A 
HETATM   19  C   UNK     0     -17.092  -2.721  15.037  0.00  0.00    -0.031 A 
HETATM   20  C   UNK     0     -17.881  -2.737  13.740  0.00  0.00     0.051 C 
HETATM   21  C   UNK     0     -15.822  -4.328  18.080  0.00  0.00     0.115 C 
HETATM   22  C   UNK     0     -14.452  -4.165  18.694  0.00  0.00     0.022 A 
HETATM   23  N   UNK     0     -13.294  -3.889  18.079  0.00  0.00    -0.361 N 
HETATM   24  C   UNK     0     -12.351  -3.689  19.022  0.00  0.00     0.021 A 
HETATM   25  C   UNK     0     -12.913  -3.850  20.274  0.00  0.00    -0.031 A 
HETATM   26  C   UNK     0     -12.251  -3.766  21.634  0.00  0.00     0.051 C 
HETATM   27  C   UNK     0     -14.256  -4.156  20.090  0.00  0.00    -0.027 A 
HETATM   28  C   UNK     0     -10.908  -3.261  18.817  0.00  0.00     0.115 C 
HETATM   29  H   UNK     0     -11.619  -2.273  16.135  0.00  0.00     0.165 HD
HETATM   30  H   UNK     0     -13.923   0.146  16.733  0.00  0.00     0.165 HD
HETATM   31  H   UNK     0     -15.317  -1.463  17.528  0.00  0.00     0.165 HD
HETATM   32  H   UNK     0     -13.122  -3.876  16.972  0.00  0.00     0.165 HD
ENDROOT
BRANCH   6  33
HETATM   33  C   UNK     0      -9.774   1.615  18.145  0.00  0.00     0.051 C 
BRANCH  33  34
HETATM   34  C   UNK     0      -8.399   1.825  17.556  0.00  0.00     0.114 C 
BRANCH  34  35
HETATM   35  C   UNK     0      -7.443   1.963  18.692  0.00  0.00     0.139 C 
HETATM   36  O   UNK     0      -7.853   2.344  19.827  0.00  0.00    -0.650 OA
BRANCH  35  37
HETATM   37  O   UNK     0      -6.087   1.685  18.569  0.00  0.00    -0.776 OA
HETATM   38  H   UNK     0      -5.698   0.793  18.831  0.00  0.00     0.167 HD
ENDBRANCH  35  37
ENDBRANCH  34  35
ENDBRANCH  33  34
ENDBRANCH   6  33
BRANCH  27  39
HETATM   39  C   UNK     0     -15.178  -4.470  21.216  0.00  0.00     0.051 C 
BRANCH  39  40
HETATM   40  C   UNK     0     -16.094  -3.426  21.675  0.00  0.00     0.114 C 
BRANCH  40  41
HETATM   41  C   UNK     0     -15.975  -2.052  21.243  0.00  0.00     0.139 C 
HETATM   42  O   UNK     0     -15.308  -1.201  21.848  0.00  0.00    -0.650 OA
BRANCH  41  43
HETATM   43  O   UNK     0     -16.653  -1.638  20.062  0.00  0.00    -0.776 OA
HETATM   44  H   UNK     0     -16.147  -1.816  19.203  0.00  0.00     0.167 HD
ENDBRANCH  41  43
ENDBRANCH  40  41
ENDBRANCH  39  40
ENDBRANCH  27  39
BRANCH  11  45
HETATM   45  C   UNK     0     -14.942   0.243  12.102  0.00  0.00     0.051 C 
BRANCH  45  46
HETATM   46  C   UNK     0     -15.798   1.428  11.839  0.00  0.00     0.114 C 
BRANCH  46  47
HETATM   47  C   UNK     0     -15.118   2.240  10.790  0.00  0.00     0.139 C 
HETATM   48  O   UNK     0     -14.281   3.083  11.143  0.00  0.00    -0.650 OA
BRANCH  47  49
HETATM   49  O   UNK     0     -15.412   2.061   9.462  0.00  0.00    -0.776 OA
HETATM   50  H   UNK     0     -15.489   1.127   9.042  0.00  0.00     0.167 HD
ENDBRANCH  47  49
ENDBRANCH  46  47
ENDBRANCH  45  46
ENDBRANCH  11  45
BRANCH  18  51
HETATM   51  C   UNK     0     -17.597  -5.156  15.645  0.00  0.00     0.051 C 
BRANCH  51  52
HETATM   52  C   UNK     0     -16.605  -5.937  14.796  0.00  0.00     0.114 C 
BRANCH  52  53
HETATM   53  C   UNK     0     -16.126  -7.150  15.487  0.00  0.00     0.139 C 
HETATM   54  O   UNK     0     -16.674  -7.525  16.536  0.00  0.00    -0.650 OA
BRANCH  53  55
HETATM   55  O   UNK     0     -15.071  -7.858  14.964  0.00  0.00    -0.776 OA
HETATM   56  H   UNK     0     -14.835  -8.798  15.178  0.00  0.00     0.167 HD
ENDBRANCH  53  55
ENDBRANCH  52  53
ENDBRANCH  51  52
ENDBRANCH  18  51
TORSDOF 16
ENDMDL
MODEL 10
REMARK VINA RESULT:      -7.6     20.428     23.575
REMARK  16 active torsions:
REMARK  status: ('A' for Active; 'I' for Inactive)
REMARK    1  A    between atoms: C_6  and  C_7 
REMARK    2  A    between atoms: C_7  and  C_8 
REMARK    3  A    between atoms: C_8  and  C_9 
REMARK    4  A    between atoms: C_9  and  O_11 
REMARK    5  A    between atoms: C_16  and  C_17 
REMARK    6  A    between atoms: C_17  and  C_18 
REMARK    7  A    between atoms: C_18  and  C_19 
REMARK    8  A    between atoms: C_19  and  O_21 
REMARK    9  A    between atoms: C_28  and  C_29 
REMARK   10  A    between atoms: C_29  and  C_30 
REMARK   11  A    between atoms: C_30  and  C_31 
REMARK   12  A    between atoms: C_31  and  O_33 
REMARK   13  A    between atoms: C_42  and  C_43 
REMARK   14  A    between atoms: C_43  and  C_44 
REMARK   15  A    between atoms: C_44  and  C_45 
REMARK   16  A    between atoms: C_45  and  O_47 
ROOT
HETATM    1  C   UNK     0      -9.519  -0.692  20.035  0.00  0.00     0.051 C 
HETATM    2  C   UNK     0     -10.125  -0.769  18.648  0.00  0.00    -0.031 A 
HETATM    3  C   UNK     0     -10.689  -1.853  17.994  0.00  0.00     0.021 A 
HETATM    4  N   UNK     0     -11.074  -1.467  16.754  0.00  0.00    -0.361 N 
HETATM    5  C   UNK     0     -10.776  -0.160  16.607  0.00  0.00     0.022 A 
HETATM    6  C   UNK     0     -10.178   0.308  17.773  0.00  0.00    -0.027 A 
HETATM    7  C   UNK     0     -11.077   0.764  15.468  0.00  0.00     0.115 C 
HETATM    8  C   UNK     0     -12.459   0.654  14.850  0.00  0.00     0.021 A 
HETATM    9  N   UNK     0     -13.628   0.390  15.455  0.00  0.00    -0.361 N 
HETATM   10  C   UNK     0     -14.581   0.298  14.503  0.00  0.00     0.022 A 
HETATM   11  C   UNK     0     -14.013   0.517  13.252  0.00  0.00    -0.027 A 
HETATM   12  C   UNK     0     -12.676   0.743  13.463  0.00  0.00    -0.031 A 
HETATM   13  C   UNK     0     -11.658   1.034  12.383  0.00  0.00     0.051 C 
HETATM   14  C   UNK     0     -16.049  -0.052  14.729  0.00  0.00     0.115 C 
HETATM   15  C   UNK     0     -16.267  -1.425  15.345  0.00  0.00     0.021 A 
HETATM   16  N   UNK     0     -15.794  -1.883  16.519  0.00  0.00    -0.361 N 
HETATM   17  C   UNK     0     -16.149  -3.161  16.666  0.00  0.00     0.022 A 
HETATM   18  C   UNK     0     -16.898  -3.552  15.538  0.00  0.00    -0.027 A 
HETATM   19  C   UNK     0     -16.965  -2.455  14.719  0.00  0.00    -0.031 A 
HETATM   20  C   UNK     0     -17.718  -2.432  13.401  0.00  0.00     0.051 C 
HETATM   21  C   UNK     0     -15.811  -4.144  17.764  0.00  0.00     0.115 C 
HETATM   22  C   UNK     0     -14.455  -4.019  18.419  0.00  0.00     0.022 A 
HETATM   23  N   UNK     0     -13.276  -3.753  17.842  0.00  0.00    -0.361 N 
HETATM   24  C   UNK     0     -12.357  -3.588  18.815  0.00  0.00     0.021 A 
HETATM   25  C   UNK     0     -12.956  -3.762  20.047  0.00  0.00    -0.031 A 
HETATM   26  C   UNK     0     -12.331  -3.716  21.426  0.00  0.00     0.051 C 
HETATM   27  C   UNK     0     -14.299  -4.039  19.820  0.00  0.00    -0.027 A 
HETATM   28  C   UNK     0     -10.901  -3.183  18.658  0.00  0.00     0.115 C 
HETATM   29  H   UNK     0     -11.518  -2.132  15.976  0.00  0.00     0.165 HD
HETATM   30  H   UNK     0     -13.793   0.319  16.558  0.00  0.00     0.165 HD
HETATM   31  H   UNK     0     -15.238  -1.279  17.282  0.00  0.00     0.165 HD
HETATM   32  H   UNK     0     -13.073  -3.722  16.740  0.00  0.00     0.165 HD
ENDROOT
BRANCH   6  33
HETATM   33  C   UNK     0      -9.658   1.682  18.112  0.00  0.00     0.051 C 
BRANCH  33  34
HETATM   34  C   UNK     0      -8.272   1.884  17.549  0.00  0.00     0.114 C 
BRANCH  34  35
HETATM   35  C   UNK     0      -7.338   2.034  18.702  0.00  0.00     0.139 C 
HETATM   36  O   UNK     0      -7.746   2.532  19.791  0.00  0.00    -0.650 OA
BRANCH  35  37
HETATM   37  O   UNK     0      -6.007   1.642  18.643  0.00  0.00    -0.776 OA
HETATM   38  H   UNK     0      -5.611   1.212  17.823  0.00  0.00     0.167 HD
ENDBRANCH  35  37
ENDBRANCH  34  35
ENDBRANCH  33  34
ENDBRANCH   6  33
BRANCH  27  39
HETATM   39  C   UNK     0     -15.258  -4.357  20.913  0.00  0.00     0.051 C 
BRANCH  39  40
HETATM   40  C   UNK     0     -15.806  -5.711  20.983  0.00  0.00     0.114 C 
BRANCH  40  41
HETATM   41  C   UNK     0     -15.422  -6.646  22.016  0.00  0.00     0.139 C 
HETATM   42  O   UNK     0     -16.224  -7.157  22.809  0.00  0.00    -0.650 OA
BRANCH  41  43
HETATM   43  O   UNK     0     -14.051  -7.010  22.144  0.00  0.00    -0.776 OA
HETATM   44  H   UNK     0     -13.482  -6.333  22.639  0.00  0.00     0.167 HD
ENDBRANCH  41  43
ENDBRANCH  40  41
ENDBRANCH  39  40
ENDBRANCH  27  39
BRANCH  11  45
HETATM   45  C   UNK     0     -14.679   0.522  11.902  0.00  0.00     0.051 C 
BRANCH  45  46
HETATM   46  C   UNK     0     -15.493   1.735  11.633  0.00  0.00     0.114 C 
BRANCH  46  47
HETATM   47  C   UNK     0     -14.926   2.386  10.416  0.00  0.00     0.139 C 
HETATM   48  O   UNK     0     -13.905   3.077  10.535  0.00  0.00    -0.650 OA
BRANCH  47  49
HETATM   49  O   UNK     0     -15.523   2.224   9.191  0.00  0.00    -0.776 OA
HETATM   50  H   UNK     0     -16.154   1.440   8.992  0.00  0.00     0.167 HD
ENDBRANCH  47  49
ENDBRANCH  46  47
ENDBRANCH  45  46
ENDBRANCH  11  45
BRANCH  18  51
HETATM   51  C   UNK     0     -17.532  -4.892  15.266  0.00  0.00     0.051 C 
BRANCH  51  52
HETATM   52  C   UNK     0     -16.579  -5.634  14.340  0.00  0.00     0.114 C 
BRANCH  52  53
HETATM   53  C   UNK     0     -16.474  -7.063  14.691  0.00  0.00     0.139 C 
HETATM   54  O   UNK     0     -17.353  -7.859  14.325  0.00  0.00    -0.650 OA
BRANCH  53  55
HETATM   55  O   UNK     0     -15.401  -7.505  15.426  0.00  0.00    -0.776 OA
HETATM   56  H   UNK     0     -14.766  -8.221  15.161  0.00  0.00     0.167 HD
ENDBRANCH  53  55
ENDBRANCH  52  53
ENDBRANCH  51  52
ENDBRANCH  18  51
TORSDOF 16
ENDMDL
MODEL 11
REMARK VINA RESULT:      -7.5      3.463      7.053
REMARK  16 active torsions:
REMARK  status: ('A' for Active; 'I' for Inactive)
REMARK    1  A    between atoms: C_6  and  C_7 
REMARK    2  A    between atoms: C_7  and  C_8 
REMARK    3  A    between atoms: C_8  and  C_9 
REMARK    4  A    between atoms: C_9  and  O_11 
REMARK    5  A    between atoms: C_16  and  C_17 
REMARK    6  A    between atoms: C_17  and  C_18 
REMARK    7  A    between atoms: C_18  and  C_19 
REMARK    8  A    between atoms: C_19  and  O_21 
REMARK    9  A    between atoms: C_28  and  C_29 
REMARK   10  A    between atoms: C_29  and  C_30 
REMARK   11  A    between atoms: C_30  and  C_31 
REMARK   12  A    between atoms: C_31  and  O_33 
REMARK   13  A    between atoms: C_42  and  C_43 
REMARK   14  A    between atoms: C_43  and  C_44 
REMARK   15  A    between atoms: C_44  and  C_45 
REMARK   16  A    between atoms: C_45  and  O_47 
ROOT
HETATM    1  C   UNK     0     -35.242  -5.512  13.127  0.00  0.00     0.051 C 
HETATM    2  C   UNK     0     -34.328  -4.882  12.095  0.00  0.00    -0.031 A 
HETATM    3  C   UNK     0     -33.109  -5.329  11.610  0.00  0.00     0.021 A 
HETATM    4  N   UNK     0     -32.631  -4.428  10.719  0.00  0.00    -0.361 N 
HETATM    5  C   UNK     0     -33.524  -3.422  10.618  0.00  0.00     0.022 A 
HETATM    6  C   UNK     0     -34.596  -3.673  11.468  0.00  0.00    -0.027 A 
HETATM    7  C   UNK     0     -33.519  -2.233   9.709  0.00  0.00     0.115 C 
HETATM    8  C   UNK     0     -33.113  -2.479   8.267  0.00  0.00     0.021 A 
HETATM    9  N   UNK     0     -33.361  -3.553   7.500  0.00  0.00    -0.361 N 
HETATM   10  C   UNK     0     -32.732  -3.378   6.318  0.00  0.00     0.022 A 
HETATM   11  C   UNK     0     -32.069  -2.154   6.320  0.00  0.00    -0.027 A 
HETATM   12  C   UNK     0     -32.305  -1.583   7.545  0.00  0.00    -0.031 A 
HETATM   13  C   UNK     0     -31.783  -0.237   7.997  0.00  0.00     0.051 C 
HETATM   14  C   UNK     0     -32.687  -4.376   5.165  0.00  0.00     0.115 C 
HETATM   15  C   UNK     0     -32.041  -5.704   5.525  0.00  0.00     0.021 A 
HETATM   16  N   UNK     0     -32.415  -6.566   6.489  0.00  0.00    -0.361 N 
HETATM   17  C   UNK     0     -31.549  -7.580   6.532  0.00  0.00     0.022 A 
HETATM   18  C   UNK     0     -30.567  -7.374   5.542  0.00  0.00    -0.027 A 
HETATM   19  C   UNK     0     -30.888  -6.197   4.918  0.00  0.00    -0.031 A 
HETATM   20  C   UNK     0     -30.103  -5.618   3.755  0.00  0.00     0.051 C 
HETATM   21  C   UNK     0     -31.480  -8.761   7.474  0.00  0.00     0.115 C 
HETATM   22  C   UNK     0     -31.923  -8.541   8.902  0.00  0.00     0.022 A 
HETATM   23  N   UNK     0     -31.694  -7.480   9.688  0.00  0.00    -0.361 N 
HETATM   24  C   UNK     0     -32.393  -7.641  10.829  0.00  0.00     0.021 A 
HETATM   25  C   UNK     0     -33.081  -8.838  10.782  0.00  0.00    -0.031 A 
HETATM   26  C   UNK     0     -33.965  -9.473  11.835  0.00  0.00     0.051 C 
HETATM   27  C   UNK     0     -32.795  -9.433   9.558  0.00  0.00    -0.027 A 
HETATM   28  C   UNK     0     -32.525  -6.663  11.984  0.00  0.00     0.115 C 
HETATM   29  H   UNK     0     -31.648  -4.491  10.197  0.00  0.00     0.165 HD
HETATM   30  H   UNK     0     -34.020  -4.413   7.772  0.00  0.00     0.165 HD
HETATM   31  H   UNK     0     -33.337  -6.481   7.122  0.00  0.00     0.165 HD
HETATM   32  H   UNK     0     -31.002  -6.628   9.461  0.00  0.00     0.165 HD
ENDROOT
BRANCH   6  33
HETATM   33  C   UNK     0     -35.839  -2.859  11.727  0.00  0.00     0.051 C 
BRANCH  33  34
HETATM   34  C   UNK     0     -35.589  -1.828  12.802  0.00  0.00     0.114 C 
BRANCH  34  35
HETATM   35  C   UNK     0     -36.061  -0.514  12.279  0.00  0.00     0.139 C 
HETATM   36  O   UNK     0     -37.176  -0.428  11.686  0.00  0.00    -0.650 OA
BRANCH  35  37
HETATM   37  O   UNK     0     -35.323   0.656  12.413  0.00  0.00    -0.776 OA
HETATM   38  H   UNK     0     -34.659   0.952  11.716  0.00  0.00     0.167 HD
ENDBRANCH  35  37
ENDBRANCH  34  35
ENDBRANCH  33  34
ENDBRANCH   6  33
BRANCH  27  39
HETATM   39  C   UNK     0     -33.303 -10.777   9.171  0.00  0.00     0.051 C 
BRANCH  39  40
HETATM   40  C   UNK     0     -32.604 -11.956   9.683  0.00  0.00     0.114 C 
BRANCH  40  41
HETATM   41  C   UNK     0     -31.630 -11.873  10.749  0.00  0.00     0.139 C 
HETATM   42  O   UNK     0     -30.458 -11.513  10.577  0.00  0.00    -0.650 OA
BRANCH  41  43
HETATM   43  O   UNK     0     -32.024 -12.218  12.073  0.00  0.00    -0.776 OA
HETATM   44  H   UNK     0     -32.493 -11.476  12.578  0.00  0.00     0.167 HD
ENDBRANCH  41  43
ENDBRANCH  40  41
ENDBRANCH  39  40
ENDBRANCH  27  39
BRANCH  11  45
HETATM   45  C   UNK     0     -31.245  -1.528   5.228  0.00  0.00     0.051 C 
BRANCH  45  46
HETATM   46  C   UNK     0     -30.201  -0.592   5.717  0.00  0.00     0.114 C 
BRANCH  46  47
HETATM   47  C   UNK     0     -29.025  -1.415   6.122  0.00  0.00     0.139 C 
HETATM   48  O   UNK     0     -28.561  -2.226   5.308  0.00  0.00    -0.650 OA
BRANCH  47  49
HETATM   49  O   UNK     0     -28.469  -1.280   7.369  0.00  0.00    -0.776 OA
HETATM   50  H   UNK     0     -27.788  -1.954   7.738  0.00  0.00     0.167 HD
ENDBRANCH  47  49
ENDBRANCH  46  47
ENDBRANCH  45  46
ENDBRANCH  11  45
BRANCH  18  51
HETATM   51  C   UNK     0     -29.400  -8.263   5.196  0.00  0.00     0.051 C 
BRANCH  51  52
HETATM   52  C   UNK     0     -29.760  -8.948   3.886  0.00  0.00     0.114 C 
BRANCH  52  53
HETATM   53  C   UNK     0     -28.565  -9.458   3.187  0.00  0.00     0.139 C 
HETATM   54  O   UNK     0     -27.837  -8.679   2.551  0.00  0.00    -0.650 OA
BRANCH  53  55
HETATM   55  O   UNK     0     -28.267 -10.798   3.240  0.00  0.00    -0.776 OA
HETATM   56  H   UNK     0     -27.749 -11.308   2.564  0.00  0.00     0.167 HD
ENDBRANCH  53  55
ENDBRANCH  52  53
ENDBRANCH  51  52
ENDBRANCH  18  51
TORSDOF 16
ENDMDL
MODEL 12
REMARK VINA RESULT:      -7.1     22.191     25.728
REMARK  16 active torsions:
REMARK  status: ('A' for Active; 'I' for Inactive)
REMARK    1  A    between atoms: C_6  and  C_7 
REMARK    2  A    between atoms: C_7  and  C_8 
REMARK    3  A    between atoms: C_8  and  C_9 
REMARK    4  A    between atoms: C_9  and  O_11 
REMARK    5  A    between atoms: C_16  and  C_17 
REMARK    6  A    between atoms: C_17  and  C_18 
REMARK    7  A    between atoms: C_18  and  C_19 
REMARK    8  A    between atoms: C_19  and  O_21 
REMARK    9  A    between atoms: C_28  and  C_29 
REMARK   10  A    between atoms: C_29  and  C_30 
REMARK   11  A    between atoms: C_30  and  C_31 
REMARK   12  A    between atoms: C_31  and  O_33 
REMARK   13  A    between atoms: C_42  and  C_43 
REMARK   14  A    between atoms: C_43  and  C_44 
REMARK   15  A    between atoms: C_44  and  C_45 
REMARK   16  A    between atoms: C_45  and  O_47 
ROOT
HETATM    1  C   UNK     0     -14.668   2.406  10.387  0.00  0.00     0.051 C 
HETATM    2  C   UNK     0     -13.612   1.962  11.378  0.00  0.00    -0.031 A 
HETATM    3  C   UNK     0     -12.273   2.312  11.454  0.00  0.00     0.021 A 
HETATM    4  N   UNK     0     -11.701   1.648  12.486  0.00  0.00    -0.361 N 
HETATM    5  C   UNK     0     -12.647   0.888  13.074  0.00  0.00     0.022 A 
HETATM    6  C   UNK     0     -13.855   1.058  12.405  0.00  0.00    -0.027 A 
HETATM    7  C   UNK     0     -12.558   0.040  14.305  0.00  0.00     0.115 C 
HETATM    8  C   UNK     0     -11.805   0.629  15.485  0.00  0.00     0.021 A 
HETATM    9  N   UNK     0     -11.753   1.907  15.890  0.00  0.00    -0.361 N 
HETATM   10  C   UNK     0     -10.890   1.984  16.925  0.00  0.00     0.022 A 
HETATM   11  C   UNK     0     -10.379   0.719  17.200  0.00  0.00    -0.027 A 
HETATM   12  C   UNK     0     -10.952  -0.140  16.297  0.00  0.00    -0.031 A 
HETATM   13  C   UNK     0     -10.695  -1.628  16.221  0.00  0.00     0.051 C 
HETATM   14  C   UNK     0     -10.473   3.255  17.659  0.00  0.00     0.115 C 
HETATM   15  C   UNK     0      -9.790   4.283  16.770  0.00  0.00     0.021 A 
HETATM   16  N   UNK     0     -10.284   4.871  15.665  0.00  0.00    -0.361 N 
HETATM   17  C   UNK     0      -9.349   5.660  15.132  0.00  0.00     0.022 A 
HETATM   18  C   UNK     0      -8.192   5.589  15.934  0.00  0.00    -0.027 A 
HETATM   19  C   UNK     0      -8.482   4.725  16.957  0.00  0.00    -0.031 A 
HETATM   20  C   UNK     0      -7.515   4.389  18.078  0.00  0.00     0.051 C 
HETATM   21  C   UNK     0      -9.375   6.477  13.860  0.00  0.00     0.115 C 
HETATM   22  C   UNK     0     -10.157   5.924  12.692  0.00  0.00     0.022 A 
HETATM   23  N   UNK     0     -10.231   4.656  12.268  0.00  0.00    -0.361 N 
HETATM   24  C   UNK     0     -11.155   4.590  11.288  0.00  0.00     0.021 A 
HETATM   25  C   UNK     0     -11.681   5.848  11.069  0.00  0.00    -0.031 A 
HETATM   26  C   UNK     0     -12.713   6.285  10.049  0.00  0.00     0.051 C 
HETATM   27  C   UNK     0     -11.058   6.719  11.955  0.00  0.00    -0.027 A 
HETATM   28  C   UNK     0     -11.654   3.352  10.563  0.00  0.00     0.115 C 
HETATM   29  H   UNK     0     -10.623   1.690  12.766  0.00  0.00     0.165 HD
HETATM   30  H   UNK     0     -12.362   2.749  15.480  0.00  0.00     0.165 HD
HETATM   31  H   UNK     0     -11.331   4.765  15.278  0.00  0.00     0.165 HD
HETATM   32  H   UNK     0      -9.600   3.802  12.628  0.00  0.00     0.165 HD
ENDROOT
BRANCH   6  33
HETATM   33  C   UNK     0     -15.203   0.434  12.662  0.00  0.00     0.051 C 
BRANCH  33  34
HETATM   34  C   UNK     0     -16.001   1.267  13.636  0.00  0.00     0.114 C 
BRANCH  34  35
HETATM   35  C   UNK     0     -17.405   1.315  13.137  0.00  0.00     0.139 C 
HETATM   36  O   UNK     0     -17.771   2.237  12.352  0.00  0.00    -0.650 OA
BRANCH  35  37
HETATM   37  O   UNK     0     -18.361   0.372  13.496  0.00  0.00    -0.776 OA
HETATM   38  H   UNK     0     -18.789  -0.240  12.820  0.00  0.00     0.167 HD
ENDBRANCH  35  37
ENDBRANCH  34  35
ENDBRANCH  33  34
ENDBRANCH   6  33
BRANCH  27  39
HETATM   39  C   UNK     0     -11.316   8.185  11.967  0.00  0.00     0.051 C 
BRANCH  39  40
HETATM   40  C   UNK     0     -12.126   8.738  13.053  0.00  0.00     0.114 C 
BRANCH  40  41
HETATM   41  C   UNK     0     -11.647   9.804  13.904  0.00  0.00     0.139 C 
HETATM   42  O   UNK     0     -12.378  10.692  14.364  0.00  0.00    -0.650 OA
BRANCH  41  43
HETATM   43  O   UNK     0     -10.265   9.852  14.242  0.00  0.00    -0.776 OA
HETATM   44  H   UNK     0     -10.013   9.304  15.056  0.00  0.00     0.167 HD
ENDBRANCH  41  43
ENDBRANCH  40  41
ENDBRANCH  39  40
ENDBRANCH  27  39
BRANCH  11  45
HETATM   45  C   UNK     0      -9.396   0.311  18.264  0.00  0.00     0.051 C 
BRANCH  45  46
HETATM   46  C   UNK     0      -9.992   0.166  19.617  0.00  0.00     0.114 C 
BRANCH  46  47
HETATM   47  C   UNK     0     -10.191  -1.292  19.857  0.00  0.00     0.139 C 
HETATM   48  O   UNK     0     -11.326  -1.767  19.711  0.00  0.00    -0.650 OA
BRANCH  47  49
HETATM   49  O   UNK     0      -9.142  -2.092  20.234  0.00  0.00    -0.776 OA
HETATM   50  H   UNK     0      -8.198  -1.971  19.849  0.00  0.00     0.167 HD
ENDBRANCH  47  49
ENDBRANCH  46  47
ENDBRANCH  45  46
ENDBRANCH  11  45
BRANCH  18  51
HETATM   51  C   UNK     0      -6.889   6.322  15.747  0.00  0.00     0.051 C 
BRANCH  51  52
HETATM   52  C   UNK     0      -6.836   7.382  16.837  0.00  0.00     0.114 C 
BRANCH  52  53
HETATM   53  C   UNK     0      -6.899   8.747  16.280  0.00  0.00     0.139 C 
HETATM   54  O   UNK     0      -7.795   9.050  15.475  0.00  0.00    -0.650 OA
BRANCH  53  55
HETATM   55  O   UNK     0      -5.960   9.678  16.654  0.00  0.00    -0.776 OA
HETATM   56  H   UNK     0      -5.870  10.087  17.554  0.00  0.00     0.167 HD
ENDBRANCH  53  55
ENDBRANCH  52  53
ENDBRANCH  51  52
ENDBRANCH  18  51
TORSDOF 16
ENDMDL
MODEL 13
REMARK VINA RESULT:      -7.1      4.497      8.711
REMARK  16 active torsions:
REMARK  status: ('A' for Active; 'I' for Inactive)
REMARK    1  A    between atoms: C_6  and  C_7 
REMARK    2  A    between atoms: C_7  and  C_8 
REMARK    3  A    between atoms: C_8  and  C_9 
REMARK    4  A    between atoms: C_9  and  O_11 
REMARK    5  A    between atoms: C_16  and  C_17 
REMARK    6  A    between atoms: C_17  and  C_18 
REMARK    7  A    between atoms: C_18  and  C_19 
REMARK    8  A    between atoms: C_19  and  O_21 
REMARK    9  A    between atoms: C_28  and  C_29 
REMARK   10  A    between atoms: C_29  and  C_30 
REMARK   11  A    between atoms: C_30  and  C_31 
REMARK   12  A    between atoms: C_31  and  O_33 
REMARK   13  A    between atoms: C_42  and  C_43 
REMARK   14  A    between atoms: C_43  and  C_44 
REMARK   15  A    between atoms: C_44  and  C_45 
REMARK   16  A    between atoms: C_45  and  O_47 
ROOT
HETATM    1  C   UNK     0     -36.201   1.706   6.746  0.00  0.00     0.051 C 
HETATM    2  C   UNK     0     -34.912   0.973   6.437  0.00  0.00    -0.031 A 
HETATM    3  C   UNK     0     -34.467   0.443   5.236  0.00  0.00     0.021 A 
HETATM    4  N   UNK     0     -33.268  -0.154   5.435  0.00  0.00    -0.361 N 
HETATM    5  C   UNK     0     -32.934  -0.008   6.734  0.00  0.00     0.022 A 
HETATM    6  C   UNK     0     -33.942   0.690   7.391  0.00  0.00    -0.027 A 
HETATM    7  C   UNK     0     -31.676  -0.400   7.443  0.00  0.00     0.115 C 
HETATM    8  C   UNK     0     -30.370  -0.123   6.719  0.00  0.00     0.021 A 
HETATM    9  N   UNK     0     -30.059   0.910   5.921  0.00  0.00    -0.361 N 
HETATM   10  C   UNK     0     -28.823   0.697   5.422  0.00  0.00     0.022 A 
HETATM   11  C   UNK     0     -28.320  -0.501   5.920  0.00  0.00    -0.027 A 
HETATM   12  C   UNK     0     -29.289  -1.023   6.738  0.00  0.00    -0.031 A 
HETATM   13  C   UNK     0     -29.180  -2.322   7.505  0.00  0.00     0.051 C 
HETATM   14  C   UNK     0     -28.091   1.585   4.419  0.00  0.00     0.115 C 
HETATM   15  C   UNK     0     -28.807   1.727   3.086  0.00  0.00     0.021 A 
HETATM   16  N   UNK     0     -30.048   2.201   2.867  0.00  0.00    -0.361 N 
HETATM   17  C   UNK     0     -30.334   2.096   1.567  0.00  0.00     0.022 A 
HETATM   18  C   UNK     0     -29.222   1.537   0.906  0.00  0.00    -0.027 A 
HETATM   19  C   UNK     0     -28.272   1.312   1.868  0.00  0.00    -0.031 A 
HETATM   20  C   UNK     0     -26.894   0.746   1.578  0.00  0.00     0.051 C 
HETATM   21  C   UNK     0     -31.611   2.418   0.824  0.00  0.00     0.115 C 
HETATM   22  C   UNK     0     -32.916   2.189   1.548  0.00  0.00     0.022 A 
HETATM   23  N   UNK     0     -33.252   1.172   2.353  0.00  0.00    -0.361 N 
HETATM   24  C   UNK     0     -34.454   1.442   2.899  0.00  0.00     0.021 A 
HETATM   25  C   UNK     0     -34.909   2.659   2.427  0.00  0.00    -0.031 A 
HETATM   26  C   UNK     0     -36.217   3.365   2.717  0.00  0.00     0.051 C 
HETATM   27  C   UNK     0     -33.942   3.156   1.561  0.00  0.00    -0.027 A 
HETATM   28  C   UNK     0     -35.205   0.633   3.942  0.00  0.00     0.115 C 
HETATM   29  H   UNK     0     -32.683  -0.709   4.664  0.00  0.00     0.165 HD
HETATM   30  H   UNK     0     -30.691   1.816   5.747  0.00  0.00     0.165 HD
HETATM   31  H   UNK     0     -30.719   2.662   3.637  0.00  0.00     0.165 HD
HETATM   32  H   UNK     0     -32.661   0.231   2.509  0.00  0.00     0.165 HD
ENDROOT
BRANCH   6  33
HETATM   33  C   UNK     0     -34.053   1.101   8.837  0.00  0.00     0.051 C 
BRANCH  33  34
HETATM   34  C   UNK     0     -34.631  -0.020   9.669  0.00  0.00     0.114 C 
BRANCH  34  35
HETATM   35  C   UNK     0     -35.942   0.450  10.202  0.00  0.00     0.139 C 
HETATM   36  O   UNK     0     -35.981   1.273  11.163  0.00  0.00    -0.650 OA
BRANCH  35  37
HETATM   37  O   UNK     0     -37.158   0.023   9.683  0.00  0.00    -0.776 OA
HETATM   38  H   UNK     0     -37.482   0.310   8.774  0.00  0.00     0.167 HD
ENDBRANCH  35  37
ENDBRANCH  34  35
ENDBRANCH  33  34
ENDBRANCH   6  33
BRANCH  27  39
HETATM   39  C   UNK     0     -34.110   4.422   0.798  0.00  0.00     0.051 C 
BRANCH  39  40
HETATM   40  C   UNK     0     -34.965   4.409  -0.389  0.00  0.00     0.114 C 
BRANCH  40  41
HETATM   41  C   UNK     0     -35.304   3.186  -1.081  0.00  0.00     0.139 C 
HETATM   42  O   UNK     0     -34.491   2.529  -1.745  0.00  0.00    -0.650 OA
BRANCH  41  43
HETATM   43  O   UNK     0     -36.639   2.697  -1.007  0.00  0.00    -0.776 OA
HETATM   44  H   UNK     0     -37.104   2.881  -0.127  0.00  0.00     0.167 HD
ENDBRANCH  41  43
ENDBRANCH  40  41
ENDBRANCH  39  40
ENDBRANCH  27  39
BRANCH  11  45
HETATM   45  C   UNK     0     -26.986  -1.145   5.654  0.00  0.00     0.051 C 
BRANCH  45  46
HETATM   46  C   UNK     0     -25.845  -0.479   6.333  0.00  0.00     0.114 C 
BRANCH  46  47
HETATM   47  C   UNK     0     -25.567  -1.244   7.582  0.00  0.00     0.139 C 
HETATM   48  O   UNK     0     -26.230  -0.985   8.596  0.00  0.00    -0.650 OA
BRANCH  47  49
HETATM   49  O   UNK     0     -24.597  -2.214   7.611  0.00  0.00    -0.776 OA
HETATM   50  H   UNK     0     -24.826  -3.213   7.672  0.00  0.00     0.167 HD
ENDBRANCH  47  49
ENDBRANCH  46  47
ENDBRANCH  45  46
ENDBRANCH  11  45
BRANCH  18  51
HETATM   51  C   UNK     0     -29.065   1.253  -0.565  0.00  0.00     0.051 C 
BRANCH  51  52
HETATM   52  C   UNK     0     -28.363   2.464  -1.161  0.00  0.00     0.114 C 
BRANCH  52  53
HETATM   53  C   UNK     0     -27.734   2.152  -2.459  0.00  0.00     0.139 C 
HETATM   54  O   UNK     0     -26.616   2.614  -2.735  0.00  0.00    -0.650 OA
BRANCH  53  55
HETATM   55  O   UNK     0     -28.395   1.351  -3.358  0.00  0.00    -0.776 OA
HETATM   56  H   UNK     0     -28.247   1.330  -4.340  0.00  0.00     0.167 HD
ENDBRANCH  53  55
ENDBRANCH  52  53
ENDBRANCH  51  52
ENDBRANCH  18  51
TORSDOF 16
ENDMDL
MODEL 14
REMARK VINA RESULT:      -7.1      4.332      7.368
REMARK  16 active torsions:
REMARK  status: ('A' for Active; 'I' for Inactive)
REMARK    1  A    between atoms: C_6  and  C_7 
REMARK    2  A    between atoms: C_7  and  C_8 
REMARK    3  A    between atoms: C_8  and  C_9 
REMARK    4  A    between atoms: C_9  and  O_11 
REMARK    5  A    between atoms: C_16  and  C_17 
REMARK    6  A    between atoms: C_17  and  C_18 
REMARK    7  A    between atoms: C_18  and  C_19 
REMARK    8  A    between atoms: C_19  and  O_21 
REMARK    9  A    between atoms: C_28  and  C_29 
REMARK   10  A    between atoms: C_29  and  C_30 
REMARK   11  A    between atoms: C_30  and  C_31 
REMARK   12  A    between atoms: C_31  and  O_33 
REMARK   13  A    between atoms: C_42  and  C_43 
REMARK   14  A    between atoms: C_43  and  C_44 
REMARK   15  A    between atoms: C_44  and  C_45 
REMARK   16  A    between atoms: C_45  and  O_47 
ROOT
HETATM    1  C   UNK     0     -27.119  -1.053   4.979  0.00  0.00     0.051 C 
HETATM    2  C   UNK     0     -28.379  -0.316   5.384  0.00  0.00    -0.031 A 
HETATM    3  C   UNK     0     -28.853   0.916   4.960  0.00  0.00     0.021 A 
HETATM    4  N   UNK     0     -30.006   1.194   5.614  0.00  0.00    -0.361 N 
HETATM    5  C   UNK     0     -30.282   0.163   6.439  0.00  0.00     0.022 A 
HETATM    6  C   UNK     0     -29.283  -0.798   6.323  0.00  0.00    -0.027 A 
HETATM    7  C   UNK     0     -31.479  -0.067   7.307  0.00  0.00     0.115 C 
HETATM    8  C   UNK     0     -32.833   0.262   6.703  0.00  0.00     0.021 A 
HETATM    9  N   UNK     0     -33.240   0.114   5.433  0.00  0.00    -0.361 N 
HETATM   10  C   UNK     0     -34.486   0.623   5.331  0.00  0.00     0.022 A 
HETATM   11  C   UNK     0     -34.896   1.105   6.571  0.00  0.00    -0.027 A 
HETATM   12  C   UNK     0     -33.859   0.880   7.440  0.00  0.00    -0.031 A 
HETATM   13  C   UNK     0     -33.857   1.238   8.909  0.00  0.00     0.051 C 
HETATM   14  C   UNK     0     -35.316   0.725   4.054  0.00  0.00     0.115 C 
HETATM   15  C   UNK     0     -34.676   1.578   2.970  0.00  0.00     0.021 A 
HETATM   16  N   UNK     0     -33.476   1.401   2.386  0.00  0.00    -0.361 N 
HETATM   17  C   UNK     0     -33.250   2.403   1.535  0.00  0.00     0.022 A 
HETATM   18  C   UNK     0     -34.361   3.270   1.557  0.00  0.00    -0.027 A 
HETATM   19  C   UNK     0     -35.247   2.742   2.459  0.00  0.00    -0.031 A 
HETATM   20  C   UNK     0     -36.604   3.349   2.764  0.00  0.00     0.051 C 
HETATM   21  C   UNK     0     -32.032   2.707   0.692  0.00  0.00     0.115 C 
HETATM   22  C   UNK     0     -30.681   2.344   1.262  0.00  0.00     0.022 A 
HETATM   23  N   UNK     0     -30.250   2.477   2.523  0.00  0.00    -0.361 N 
HETATM   24  C   UNK     0     -29.038   1.893   2.620  0.00  0.00     0.021 A 
HETATM   25  C   UNK     0     -28.677   1.380   1.389  0.00  0.00    -0.031 A 
HETATM   26  C   UNK     0     -27.398   0.675   0.988  0.00  0.00     0.051 C 
HETATM   27  C   UNK     0     -29.712   1.657   0.504  0.00  0.00    -0.027 A 
HETATM   28  C   UNK     0     -28.192   1.708   3.868  0.00  0.00     0.115 C 
HETATM   29  H   UNK     0     -30.596   2.135   5.517  0.00  0.00     0.165 HD
HETATM   30  H   UNK     0     -32.670  -0.395   4.618  0.00  0.00     0.165 HD
HETATM   31  H   UNK     0     -32.794   0.525   2.543  0.00  0.00     0.165 HD
HETATM   32  H   UNK     0     -30.778   3.023   3.348  0.00  0.00     0.165 HD
ENDROOT
BRANCH   6  33
HETATM   33  C   UNK     0     -29.123  -2.121   7.028  0.00  0.00     0.051 C 
BRANCH  33  34
HETATM   34  C   UNK     0     -29.941  -3.192   6.347  0.00  0.00     0.114 C 
BRANCH  34  35
HETATM   35  C   UNK     0     -30.693  -3.922   7.409  0.00  0.00     0.139 C 
HETATM   36  O   UNK     0     -31.586  -3.327   8.079  0.00  0.00    -0.650 OA
BRANCH  35  37
HETATM   37  O   UNK     0     -30.461  -5.258   7.708  0.00  0.00    -0.776 OA
HETATM   38  H   UNK     0     -29.877  -5.540   8.479  0.00  0.00     0.167 HD
ENDBRANCH  35  37
ENDBRANCH  34  35
ENDBRANCH  33  34
ENDBRANCH   6  33
BRANCH  27  39
HETATM   39  C   UNK     0     -29.653   1.319  -0.944  0.00  0.00     0.051 C 
BRANCH  39  40
HETATM   40  C   UNK     0     -29.022   2.273  -1.855  0.00  0.00     0.114 C 
BRANCH  40  41
HETATM   41  C   UNK     0     -27.833   1.947  -2.611  0.00  0.00     0.139 C 
HETATM   42  O   UNK     0     -26.701   2.349  -2.311  0.00  0.00    -0.650 OA
BRANCH  41  43
HETATM   43  O   UNK     0     -27.953   1.122  -3.764  0.00  0.00    -0.776 OA
HETATM   44  H   UNK     0     -28.596   0.346  -3.660  0.00  0.00     0.167 HD
ENDBRANCH  41  43
ENDBRANCH  40  41
ENDBRANCH  39  40
ENDBRANCH  27  39
BRANCH  11  45
HETATM   45  C   UNK     0     -36.203   1.749   6.945  0.00  0.00     0.051 C 
BRANCH  45  46
HETATM   46  C   UNK     0     -36.252   3.212   6.693  0.00  0.00     0.114 C 
BRANCH  46  47
HETATM   47  C   UNK     0     -36.819   3.852   7.914  0.00  0.00     0.139 C 
HETATM   48  O   UNK     0     -36.963   3.161   8.933  0.00  0.00    -0.650 OA
BRANCH  47  49
HETATM   49  O   UNK     0     -37.175   5.177   7.913  0.00  0.00    -0.776 OA
HETATM   50  H   UNK     0     -37.183   5.738   7.053  0.00  0.00     0.167 HD
ENDBRANCH  47  49
ENDBRANCH  46  47
ENDBRANCH  45  46
ENDBRANCH  11  45
BRANCH  18  51
HETATM   51  C   UNK     0     -34.575   4.523   0.747  0.00  0.00     0.051 C 
BRANCH  51  52
HETATM   52  C   UNK     0     -35.432   4.120  -0.443  0.00  0.00     0.114 C 
BRANCH  52  53
HETATM   53  C   UNK     0     -34.610   3.750  -1.612  0.00  0.00     0.139 C 
HETATM   54  O   UNK     0     -34.632   2.587  -2.044  0.00  0.00    -0.650 OA
BRANCH  53  55
HETATM   55  O   UNK     0     -33.821   4.699  -2.215  0.00  0.00    -0.776 OA
HETATM   56  H   UNK     0     -33.079   4.523  -2.851  0.00  0.00     0.167 HD
ENDBRANCH  53  55
ENDBRANCH  52  53
ENDBRANCH  51  52
ENDBRANCH  18  51
TORSDOF 16
ENDMDL
MODEL 15
REMARK VINA RESULT:      -6.9     20.074     23.290
REMARK  16 active torsions:
REMARK  status: ('A' for Active; 'I' for Inactive)
REMARK    1  A    between atoms: C_6  and  C_7 
REMARK    2  A    between atoms: C_7  and  C_8 
REMARK    3  A    between atoms: C_8  and  C_9 
REMARK    4  A    between atoms: C_9  and  O_11 
REMARK    5  A    between atoms: C_16  and  C_17 
REMARK    6  A    between atoms: C_17  and  C_18 
REMARK    7  A    between atoms: C_18  and  C_19 
REMARK    8  A    between atoms: C_19  and  O_21 
REMARK    9  A    between atoms: C_28  and  C_29 
REMARK   10  A    between atoms: C_29  and  C_30 
REMARK   11  A    between atoms: C_30  and  C_31 
REMARK   12  A    between atoms: C_31  and  O_33 
REMARK   13  A    between atoms: C_42  and  C_43 
REMARK   14  A    between atoms: C_43  and  C_44 
REMARK   15  A    between atoms: C_44  and  C_45 
REMARK   16  A    between atoms: C_45  and  O_47 
ROOT
HETATM    1  C   UNK     0     -10.326  -2.158  20.776  0.00  0.00     0.051 C 
HETATM    2  C   UNK     0     -10.633  -2.013  19.299  0.00  0.00    -0.031 A 
HETATM    3  C   UNK     0     -11.357  -2.851  18.465  0.00  0.00     0.021 A 
HETATM    4  N   UNK     0     -11.347  -2.341  17.211  0.00  0.00    -0.361 N 
HETATM    5  C   UNK     0     -10.640  -1.192  17.229  0.00  0.00     0.022 A 
HETATM    6  C   UNK     0     -10.177  -0.958  18.520  0.00  0.00    -0.027 A 
HETATM    7  C   UNK     0     -10.409  -0.199  16.133  0.00  0.00     0.115 C 
HETATM    8  C   UNK     0     -11.604   0.145  15.261  0.00  0.00     0.021 A 
HETATM    9  N   UNK     0     -12.894   0.251  15.615  0.00  0.00    -0.361 N 
HETATM   10  C   UNK     0     -13.617   0.482  14.499  0.00  0.00     0.022 A 
HETATM   11  C   UNK     0     -12.768   0.535  13.397  0.00  0.00    -0.027 A 
HETATM   12  C   UNK     0     -11.498   0.323  13.870  0.00  0.00    -0.031 A 
HETATM   13  C   UNK     0     -10.244   0.299  13.027  0.00  0.00     0.051 C 
HETATM   14  C   UNK     0     -15.136   0.608  14.419  0.00  0.00     0.115 C 
HETATM   15  C   UNK     0     -15.882  -0.637  14.870  0.00  0.00     0.021 A 
HETATM   16  N   UNK     0     -15.819  -1.243  16.070  0.00  0.00    -0.361 N 
HETATM   17  C   UNK     0     -16.569  -2.347  16.044  0.00  0.00     0.022 A 
HETATM   18  C   UNK     0     -17.157  -2.460  14.768  0.00  0.00    -0.027 A 
HETATM   19  C   UNK     0     -16.720  -1.383  14.043  0.00  0.00    -0.031 A 
HETATM   20  C   UNK     0     -17.146  -1.098  12.614  0.00  0.00     0.051 C 
HETATM   21  C   UNK     0     -16.776  -3.406  17.102  0.00  0.00     0.115 C 
HETATM   22  C   UNK     0     -15.608  -3.727  18.006  0.00  0.00     0.022 A 
HETATM   23  N   UNK     0     -14.313  -3.836  17.682  0.00  0.00    -0.361 N 
HETATM   24  C   UNK     0     -13.604  -3.988  18.818  0.00  0.00     0.021 A 
HETATM   25  C   UNK     0     -14.464  -3.987  19.900  0.00  0.00    -0.031 A 
HETATM   26  C   UNK     0     -14.147  -4.167  21.370  0.00  0.00     0.051 C 
HETATM   27  C   UNK     0     -15.752  -3.822  19.405  0.00  0.00    -0.027 A 
HETATM   28  C   UNK     0     -12.094  -4.060  18.969  0.00  0.00     0.115 C 
HETATM   29  H   UNK     0     -11.806  -2.817  16.313  0.00  0.00     0.165 HD
HETATM   30  H   UNK     0     -13.292   0.214  16.659  0.00  0.00     0.165 HD
HETATM   31  H   UNK     0     -15.271  -0.859  16.970  0.00  0.00     0.165 HD
HETATM   32  H   UNK     0     -13.892  -3.850  16.643  0.00  0.00     0.165 HD
ENDROOT
BRANCH   6  33
HETATM   33  C   UNK     0      -9.343   0.175  19.061  0.00  0.00     0.051 C 
BRANCH  33  34
HETATM   34  C   UNK     0     -10.201   1.386  19.339  0.00  0.00     0.114 C 
BRANCH  34  35
HETATM   35  C   UNK     0      -9.601   2.537  18.605  0.00  0.00     0.139 C 
HETATM   36  O   UNK     0     -10.046   3.708  18.784  0.00  0.00    -0.650 OA
BRANCH  35  37
HETATM   37  O   UNK     0      -8.548   2.388  17.711  0.00  0.00    -0.776 OA
HETATM   38  H   UNK     0      -7.714   1.876  17.948  0.00  0.00     0.167 HD
ENDBRANCH  35  37
ENDBRANCH  34  35
ENDBRANCH  33  34
ENDBRANCH   6  33
BRANCH  27  39
HETATM   39  C   UNK     0     -16.962  -3.842  20.272  0.00  0.00     0.051 C 
BRANCH  39  40
HETATM   40  C   UNK     0     -17.594  -2.568  20.612  0.00  0.00     0.114 C 
BRANCH  40  41
HETATM   41  C   UNK     0     -16.954  -1.297  20.352  0.00  0.00     0.139 C 
HETATM   42  O   UNK     0     -17.200  -0.599  19.360  0.00  0.00    -0.650 OA
BRANCH  41  43
HETATM   43  O   UNK     0     -15.988  -0.808  21.277  0.00  0.00    -0.776 OA
HETATM   44  H   UNK     0     -16.274  -0.859  22.247  0.00  0.00     0.167 HD
ENDBRANCH  41  43
ENDBRANCH  40  41
ENDBRANCH  39  40
ENDBRANCH  27  39
BRANCH  11  45
HETATM   45  C   UNK     0     -13.114   0.775  11.952  0.00  0.00     0.051 C 
BRANCH  45  46
HETATM   46  C   UNK     0     -13.135   2.209  11.564  0.00  0.00     0.114 C 
BRANCH  46  47
HETATM   47  C   UNK     0     -11.903   2.468  10.765  0.00  0.00     0.139 C 
HETATM   48  O   UNK     0     -11.755   1.866   9.693  0.00  0.00    -0.650 OA
BRANCH  47  49
HETATM   49  O   UNK     0     -10.951   3.352  11.208  0.00  0.00    -0.776 OA
HETATM   50  H   UNK     0     -10.093   3.039  11.677  0.00  0.00     0.167 HD
ENDBRANCH  47  49
ENDBRANCH  46  47
ENDBRANCH  45  46
ENDBRANCH  11  45
BRANCH  18  51
HETATM   51  C   UNK     0     -18.101  -3.526  14.275  0.00  0.00     0.051 C 
BRANCH  51  52
HETATM   52  C   UNK     0     -17.242  -4.556  13.556  0.00  0.00     0.114 C 
BRANCH  52  53
HETATM   53  C   UNK     0     -17.285  -5.871  14.224  0.00  0.00     0.139 C 
HETATM   54  O   UNK     0     -18.205  -6.666  13.973  0.00  0.00    -0.650 OA
BRANCH  53  55
HETATM   55  O   UNK     0     -16.306  -6.207  15.127  0.00  0.00    -0.776 OA
HETATM   56  H   UNK     0     -15.534  -6.806  14.955  0.00  0.00     0.167 HD
ENDBRANCH  53  55
ENDBRANCH  52  53
ENDBRANCH  51  52
ENDBRANCH  18  51
TORSDOF 16
ENDMDL
MODEL 16
REMARK VINA RESULT:      -6.9     18.185     20.884
REMARK  16 active torsions:
REMARK  status: ('A' for Active; 'I' for Inactive)
REMARK    1  A    between atoms: C_6  and  C_7 
REMARK    2  A    between atoms: C_7  and  C_8 
REMARK    3  A    between atoms: C_8  and  C_9 
REMARK    4  A    between atoms: C_9  and  O_11 
REMARK    5  A    between atoms: C_16  and  C_17 
REMARK    6  A    between atoms: C_17  and  C_18 
REMARK    7  A    between atoms: C_18  and  C_19 
REMARK    8  A    between atoms: C_19  and  O_21 
REMARK    9  A    between atoms: C_28  and  C_29 
REMARK   10  A    between atoms: C_29  and  C_30 
REMARK   11  A    between atoms: C_30  and  C_31 
REMARK   12  A    between atoms: C_31  and  O_33 
REMARK   13  A    between atoms: C_42  and  C_43 
REMARK   14  A    between atoms: C_43  and  C_44 
REMARK   15  A    between atoms: C_44  and  C_45 
REMARK   16  A    between atoms: C_45  and  O_47 
ROOT
HETATM    1  C   UNK     0     -19.667  -4.270  16.450  0.00  0.00     0.051 C 
HETATM    2  C   UNK     0     -19.262  -2.868  16.040  0.00  0.00    -0.031 A 
HETATM    3  C   UNK     0     -18.504  -1.935  16.729  0.00  0.00     0.021 A 
HETATM    4  N   UNK     0     -18.422  -0.802  15.992  0.00  0.00    -0.361 N 
HETATM    5  C   UNK     0     -19.104  -0.996  14.844  0.00  0.00     0.022 A 
HETATM    6  C   UNK     0     -19.645  -2.277  14.843  0.00  0.00    -0.027 A 
HETATM    7  C   UNK     0     -19.243  -0.097  13.656  0.00  0.00     0.115 C 
HETATM    8  C   UNK     0     -17.988   0.621  13.193  0.00  0.00     0.021 A 
HETATM    9  N   UNK     0     -16.721   0.177  13.197  0.00  0.00    -0.361 N 
HETATM   10  C   UNK     0     -15.923   1.184  12.784  0.00  0.00     0.022 A 
HETATM   11  C   UNK     0     -16.697   2.305  12.498  0.00  0.00    -0.027 A 
HETATM   12  C   UNK     0     -17.999   1.957  12.753  0.00  0.00    -0.031 A 
HETATM   13  C   UNK     0     -19.197   2.863  12.577  0.00  0.00     0.051 C 
HETATM   14  C   UNK     0     -14.400   1.148  12.695  0.00  0.00     0.115 C 
HETATM   15  C   UNK     0     -13.711   0.899  14.026  0.00  0.00     0.021 A 
HETATM   16  N   UNK     0     -13.864  -0.159  14.845  0.00  0.00    -0.361 N 
HETATM   17  C   UNK     0     -13.136   0.031  15.948  0.00  0.00     0.022 A 
HETATM   18  C   UNK     0     -12.470   1.268  15.839  0.00  0.00    -0.027 A 
HETATM   19  C   UNK     0     -12.837   1.800  14.630  0.00  0.00    -0.031 A 
HETATM   20  C   UNK     0     -12.313   3.121  14.096  0.00  0.00     0.051 C 
HETATM   21  C   UNK     0     -13.020  -0.817  17.194  0.00  0.00     0.115 C 
HETATM   22  C   UNK     0     -14.250  -1.572  17.641  0.00  0.00     0.022 A 
HETATM   23  N   UNK     0     -15.524  -1.156  17.644  0.00  0.00    -0.361 N 
HETATM   24  C   UNK     0     -16.308  -2.199  17.984  0.00  0.00     0.021 A 
HETATM   25  C   UNK     0     -15.520  -3.310  18.215  0.00  0.00    -0.031 A 
HETATM   26  C   UNK     0     -15.935  -4.698  18.658  0.00  0.00     0.051 C 
HETATM   27  C   UNK     0     -14.199  -2.934  18.002  0.00  0.00    -0.027 A 
HETATM   28  C   UNK     0     -17.826  -2.242  18.034  0.00  0.00     0.115 C 
HETATM   29  H   UNK     0     -17.916   0.141  16.305  0.00  0.00     0.165 HD
HETATM   30  H   UNK     0     -16.393  -0.862  13.443  0.00  0.00     0.165 HD
HETATM   31  H   UNK     0     -14.460  -1.081  14.620  0.00  0.00     0.165 HD
HETATM   32  H   UNK     0     -15.877  -0.111  17.449  0.00  0.00     0.165 HD
ENDROOT
BRANCH   6  33
HETATM   33  C   UNK     0     -20.489  -2.973  13.805  0.00  0.00     0.051 C 
BRANCH  33  34
HETATM   34  C   UNK     0     -19.626  -3.521  12.693  0.00  0.00     0.114 C 
BRANCH  34  35
HETATM   35  C   UNK     0     -19.726  -5.008  12.742  0.00  0.00     0.139 C 
HETATM   36  O   UNK     0     -18.760  -5.698  13.181  0.00  0.00    -0.650 OA
BRANCH  35  37
HETATM   37  O   UNK     0     -20.858  -5.697  12.322  0.00  0.00    -0.776 OA
HETATM   38  H   UNK     0     -21.676  -5.221  11.977  0.00  0.00     0.167 HD
ENDBRANCH  35  37
ENDBRANCH  34  35
ENDBRANCH  33  34
ENDBRANCH   6  33
BRANCH  27  39
HETATM   39  C   UNK     0     -13.049  -3.851  18.225  0.00  0.00     0.051 C 
BRANCH  39  40
HETATM   40  C   UNK     0     -12.082  -3.512  19.269  0.00  0.00     0.114 C 
BRANCH  40  41
HETATM   41  C   UNK     0     -10.825  -2.863  18.974  0.00  0.00     0.139 C 
HETATM   42  O   UNK     0     -10.325  -1.984  19.689  0.00  0.00    -0.650 OA
BRANCH  41  43
HETATM   43  O   UNK     0     -10.110  -3.242  17.803  0.00  0.00    -0.776 OA
HETATM   44  H   UNK     0     -10.663  -3.239  16.955  0.00  0.00     0.167 HD
ENDBRANCH  41  43
ENDBRANCH  40  41
ENDBRANCH  39  40
ENDBRANCH  27  39
BRANCH  11  45
HETATM   45  C   UNK     0     -16.253   3.654  12.001  0.00  0.00     0.051 C 
BRANCH  45  46
HETATM   46  C   UNK     0     -16.450   3.858  10.543  0.00  0.00     0.114 C 
BRANCH  46  47
HETATM   47  C   UNK     0     -15.309   3.198   9.847  0.00  0.00     0.139 C 
HETATM   48  O   UNK     0     -14.157   3.564  10.120  0.00  0.00    -0.650 OA
BRANCH  47  49
HETATM   49  O   UNK     0     -15.527   2.208   8.922  0.00  0.00    -0.776 OA
HETATM   50  H   UNK     0     -14.913   1.389   8.845  0.00  0.00     0.167 HD
ENDBRANCH  47  49
ENDBRANCH  46  47
ENDBRANCH  45  46
ENDBRANCH  11  45
BRANCH  18  51
HETATM   51  C   UNK     0     -11.518   1.897  16.823  0.00  0.00     0.051 C 
BRANCH  51  52
HETATM   52  C   UNK     0     -10.117   1.597  16.312  0.00  0.00     0.114 C 
BRANCH  52  53
HETATM   53  C   UNK     0      -9.420   0.615  17.165  0.00  0.00     0.139 C 
HETATM   54  O   UNK     0      -8.716   1.002  18.111  0.00  0.00    -0.650 OA
BRANCH  53  55
HETATM   55  O   UNK     0      -9.553  -0.727  16.904  0.00  0.00    -0.776 OA
HETATM   56  H   UNK     0      -9.062  -1.462  17.357  0.00  0.00     0.167 HD
ENDBRANCH  53  55
ENDBRANCH  52  53
ENDBRANCH  51  52
ENDBRANCH  18  51
TORSDOF 16
ENDMDL
MODEL 17
REMARK VINA RESULT:      -6.9     22.704     25.500
REMARK  16 active torsions:
REMARK  status: ('A' for Active; 'I' for Inactive)
REMARK    1  A    between atoms: C_6  and  C_7 
REMARK    2  A    between atoms: C_7  and  C_8 
REMARK    3  A    between atoms: C_8  and  C_9 
REMARK    4  A    between atoms: C_9  and  O_11 
REMARK    5  A    between atoms: C_16  and  C_17 
REMARK    6  A    between atoms: C_17  and  C_18 
REMARK    7  A    between atoms: C_18  and  C_19 
REMARK    8  A    between atoms: C_19  and  O_21 
REMARK    9  A    between atoms: C_28  and  C_29 
REMARK   10  A    between atoms: C_29  and  C_30 
REMARK   11  A    between atoms: C_30  and  C_31 
REMARK   12  A    between atoms: C_31  and  O_33 
REMARK   13  A    between atoms: C_42  and  C_43 
REMARK   14  A    between atoms: C_43  and  C_44 
REMARK   15  A    between atoms: C_44  and  C_45 
REMARK   16  A    between atoms: C_45  and  O_47 
ROOT
HETATM    1  C   UNK     0      -9.225  -0.258  20.102  0.00  0.00     0.051 C 
HETATM    2  C   UNK     0      -9.049   0.688  18.932  0.00  0.00    -0.031 A 
HETATM    3  C   UNK     0      -9.335   0.491  17.590  0.00  0.00     0.021 A 
HETATM    4  N   UNK     0      -8.987   1.600  16.897  0.00  0.00    -0.361 N 
HETATM    5  C   UNK     0      -8.493   2.504  17.769  0.00  0.00     0.022 A 
HETATM    6  C   UNK     0      -8.515   1.964  19.051  0.00  0.00    -0.027 A 
HETATM    7  C   UNK     0      -8.056   3.916  17.531  0.00  0.00     0.115 C 
HETATM    8  C   UNK     0      -8.936   4.758  16.624  0.00  0.00     0.021 A 
HETATM    9  N   UNK     0     -10.272   4.739  16.503  0.00  0.00    -0.361 N 
HETATM   10  C   UNK     0     -10.615   5.589  15.511  0.00  0.00     0.022 A 
HETATM   11  C   UNK     0      -9.469   6.177  14.985  0.00  0.00    -0.027 A 
HETATM   12  C   UNK     0      -8.407   5.658  15.682  0.00  0.00    -0.031 A 
HETATM   13  C   UNK     0      -6.955   6.015  15.456  0.00  0.00     0.051 C 
HETATM   14  C   UNK     0     -12.026   5.838  14.986  0.00  0.00     0.115 C 
HETATM   15  C   UNK     0     -12.697   4.601  14.411  0.00  0.00     0.021 A 
HETATM   16  N   UNK     0     -12.946   3.436  15.037  0.00  0.00    -0.361 N 
HETATM   17  C   UNK     0     -13.485   2.578  14.169  0.00  0.00     0.022 A 
HETATM   18  C   UNK     0     -13.601   3.217  12.918  0.00  0.00    -0.027 A 
HETATM   19  C   UNK     0     -13.106   4.485  13.084  0.00  0.00    -0.031 A 
HETATM   20  C   UNK     0     -13.077   5.530  11.984  0.00  0.00     0.051 C 
HETATM   21  C   UNK     0     -13.877   1.129  14.350  0.00  0.00     0.115 C 
HETATM   22  C   UNK     0     -13.037   0.291  15.285  0.00  0.00     0.022 A 
HETATM   23  N   UNK     0     -11.705   0.291  15.430  0.00  0.00    -0.361 N 
HETATM   24  C   UNK     0     -11.392  -0.503  16.474  0.00  0.00     0.021 A 
HETATM   25  C   UNK     0     -12.550  -1.035  17.008  0.00  0.00    -0.031 A 
HETATM   26  C   UNK     0     -12.710  -2.008  18.158  0.00  0.00     0.051 C 
HETATM   27  C   UNK     0     -13.616  -0.542  16.264  0.00  0.00    -0.027 A 
HETATM   28  C   UNK     0     -10.020  -0.745  17.079  0.00  0.00     0.115 C 
HETATM   29  H   UNK     0      -9.056   1.723  15.791  0.00  0.00     0.165 HD
HETATM   30  H   UNK     0     -10.981   4.165  17.149  0.00  0.00     0.165 HD
HETATM   31  H   UNK     0     -12.783   3.230  16.127  0.00  0.00     0.165 HD
HETATM   32  H   UNK     0     -10.969   0.818  14.768  0.00  0.00     0.165 HD
ENDROOT
BRANCH   6  33
HETATM   33  C   UNK     0      -8.070   2.561  20.362  0.00  0.00     0.051 C 
BRANCH  33  34
HETATM   34  C   UNK     0      -6.576   2.423  20.533  0.00  0.00     0.114 C 
BRANCH  34  35
HETATM   35  C   UNK     0      -6.050   3.751  20.960  0.00  0.00     0.139 C 
HETATM   36  O   UNK     0      -6.042   4.723  20.150  0.00  0.00    -0.650 OA
BRANCH  35  37
HETATM   37  O   UNK     0      -5.557   3.986  22.238  0.00  0.00    -0.776 OA
HETATM   38  H   UNK     0      -6.053   4.553  22.907  0.00  0.00     0.167 HD
ENDBRANCH  35  37
ENDBRANCH  34  35
ENDBRANCH  33  34
ENDBRANCH   6  33
BRANCH  27  39
HETATM   39  C   UNK     0     -15.027  -0.952  16.499  0.00  0.00     0.051 C 
BRANCH  39  40
HETATM   40  C   UNK     0     -15.561  -2.074  15.728  0.00  0.00     0.114 C 
BRANCH  40  41
HETATM   41  C   UNK     0     -16.032  -3.287  16.359  0.00  0.00     0.139 C 
HETATM   42  O   UNK     0     -15.280  -4.135  16.857  0.00  0.00    -0.650 OA
BRANCH  41  43
HETATM   43  O   UNK     0     -17.433  -3.536  16.418  0.00  0.00    -0.776 OA
HETATM   44  H   UNK     0     -17.680  -4.506  16.569  0.00  0.00     0.167 HD
ENDBRANCH  41  43
ENDBRANCH  40  41
ENDBRANCH  39  40
ENDBRANCH  27  39
BRANCH  11  45
HETATM   45  C   UNK     0      -9.353   7.189  13.877  0.00  0.00     0.051 C 
BRANCH  45  46
HETATM   46  C   UNK     0      -9.960   8.507  14.194  0.00  0.00     0.114 C 
BRANCH  46  47
HETATM   47  C   UNK     0      -8.856   9.509  14.210  0.00  0.00     0.139 C 
HETATM   48  O   UNK     0      -8.920  10.473  13.433  0.00  0.00    -0.650 OA
BRANCH  47  49
HETATM   49  O   UNK     0      -7.792   9.369  15.064  0.00  0.00    -0.776 OA
HETATM   50  H   UNK     0      -7.811   9.735  16.023  0.00  0.00     0.167 HD
ENDBRANCH  47  49
ENDBRANCH  46  47
ENDBRANCH  45  46
ENDBRANCH  11  45
BRANCH  18  51
HETATM   51  C   UNK     0     -14.173   2.658  11.642  0.00  0.00     0.051 C 
BRANCH  51  52
HETATM   52  C   UNK     0     -13.082   1.792  11.029  0.00  0.00     0.114 C 
BRANCH  52  53
HETATM   53  C   UNK     0     -12.377   2.489   9.936  0.00  0.00     0.139 C 
HETATM   54  O   UNK     0     -12.970   3.342   9.258  0.00  0.00    -0.650 OA
BRANCH  53  55
HETATM   55  O   UNK     0     -11.063   2.185   9.673  0.00  0.00    -0.776 OA
HETATM   56  H   UNK     0     -10.460   2.682   9.061  0.00  0.00     0.167 HD
ENDBRANCH  53  55
ENDBRANCH  52  53
ENDBRANCH  51  52
ENDBRANCH  18  51
TORSDOF 16
ENDMDL
MODEL 18
REMARK VINA RESULT:      -6.9     20.162     23.111
REMARK  16 active torsions:
REMARK  status: ('A' for Active; 'I' for Inactive)
REMARK    1  A    between atoms: C_6  and  C_7 
REMARK    2  A    between atoms: C_7  and  C_8 
REMARK    3  A    between atoms: C_8  and  C_9 
REMARK    4  A    between atoms: C_9  and  O_11 
REMARK    5  A    between atoms: C_16  and  C_17 
REMARK    6  A    between atoms: C_17  and  C_18 
REMARK    7  A    between atoms: C_18  and  C_19 
REMARK    8  A    between atoms: C_19  and  O_21 
REMARK    9  A    between atoms: C_28  and  C_29 
REMARK   10  A    between atoms: C_29  and  C_30 
REMARK   11  A    between atoms: C_30  and  C_31 
REMARK   12  A    between atoms: C_31  and  O_33 
REMARK   13  A    between atoms: C_42  and  C_43 
REMARK   14  A    between atoms: C_43  and  C_44 
REMARK   15  A    between atoms: C_44  and  C_45 
REMARK   16  A    between atoms: C_45  and  O_47 
ROOT
HETATM    1  C   UNK     0     -15.661  -2.261  16.468  0.00  0.00     0.051 C 
HETATM    2  C   UNK     0     -15.623  -0.971  15.675  0.00  0.00    -0.031 A 
HETATM    3  C   UNK     0     -15.154   0.278  16.049  0.00  0.00     0.021 A 
HETATM    4  N   UNK     0     -15.348   1.147  15.028  0.00  0.00    -0.361 N 
HETATM    5  C   UNK     0     -15.924   0.476  14.009  0.00  0.00     0.022 A 
HETATM    6  C   UNK     0     -16.113  -0.851  14.380  0.00  0.00    -0.027 A 
HETATM    7  C   UNK     0     -16.259   0.948  12.628  0.00  0.00     0.115 C 
HETATM    8  C   UNK     0     -15.220   1.809  11.931  0.00  0.00     0.021 A 
HETATM    9  N   UNK     0     -13.883   1.726  11.999  0.00  0.00    -0.361 N 
HETATM   10  C   UNK     0     -13.362   2.751  11.292  0.00  0.00     0.022 A 
HETATM   11  C   UNK     0     -14.393   3.511  10.746  0.00  0.00    -0.027 A 
HETATM   12  C   UNK     0     -15.566   2.923  11.145  0.00  0.00    -0.031 A 
HETATM   13  C   UNK     0     -16.953   3.406  10.784  0.00  0.00     0.051 C 
HETATM   14  C   UNK     0     -11.880   3.085  11.147  0.00  0.00     0.115 C 
HETATM   15  C   UNK     0     -11.188   3.397  12.463  0.00  0.00     0.021 A 
HETATM   16  N   UNK     0     -11.084   2.602  13.545  0.00  0.00    -0.361 N 
HETATM   17  C   UNK     0     -10.462   3.269  14.521  0.00  0.00     0.022 A 
HETATM   18  C   UNK     0     -10.137   4.556  14.049  0.00  0.00    -0.027 A 
HETATM   19  C   UNK     0     -10.596   4.623  12.759  0.00  0.00    -0.031 A 
HETATM   20  C   UNK     0     -10.418   5.835  11.862  0.00  0.00     0.051 C 
HETATM   21  C   UNK     0     -10.165   2.854  15.944  0.00  0.00     0.115 C 
HETATM   22  C   UNK     0     -11.168   1.961  16.634  0.00  0.00     0.022 A 
HETATM   23  N   UNK     0     -12.505   2.018  16.582  0.00  0.00    -0.361 N 
HETATM   24  C   UNK     0     -13.001   0.944  17.228  0.00  0.00     0.021 A 
HETATM   25  C   UNK     0     -11.958   0.181  17.717  0.00  0.00    -0.031 A 
HETATM   26  C   UNK     0     -12.010  -1.090  18.538  0.00  0.00     0.051 C 
HETATM   27  C   UNK     0     -10.775   0.811  17.350  0.00  0.00    -0.027 A 
HETATM   28  C   UNK     0     -14.456   0.526  17.356  0.00  0.00     0.115 C 
HETATM   29  H   UNK     0     -15.114   2.236  15.049  0.00  0.00     0.165 HD
HETATM   30  H   UNK     0     -13.302   0.915  12.503  0.00  0.00     0.165 HD
HETATM   31  H   UNK     0     -11.413   1.532  13.606  0.00  0.00     0.165 HD
HETATM   32  H   UNK     0     -13.113   2.842  16.126  0.00  0.00     0.165 HD
ENDROOT
BRANCH   6  33
HETATM   33  C   UNK     0     -16.717  -1.997  13.610  0.00  0.00     0.051 C 
BRANCH  33  34
HETATM   34  C   UNK     0     -18.216  -2.034  13.793  0.00  0.00     0.114 C 
BRANCH  34  35
HETATM   35  C   UNK     0     -18.834  -1.855  12.448  0.00  0.00     0.139 C 
HETATM   36  O   UNK     0     -19.315  -0.733  12.112  0.00  0.00    -0.650 OA
BRANCH  35  37
HETATM   37  O   UNK     0     -18.911  -2.882  11.516  0.00  0.00    -0.776 OA
HETATM   38  H   UNK     0     -19.696  -3.512  11.477  0.00  0.00     0.167 HD
ENDBRANCH  35  37
ENDBRANCH  34  35
ENDBRANCH  33  34
ENDBRANCH   6  33
BRANCH  27  39
HETATM   39  C   UNK     0      -9.432   0.319  17.761  0.00  0.00     0.051 C 
BRANCH  39  40
HETATM   40  C   UNK     0      -8.771   0.970  18.891  0.00  0.00     0.114 C 
BRANCH  40  41
HETATM   41  C   UNK     0      -7.737   1.965  18.710  0.00  0.00     0.139 C 
HETATM   42  O   UNK     0      -6.550   1.685  18.496  0.00  0.00    -0.650 OA
BRANCH  41  43
HETATM   43  O   UNK     0      -8.085   3.344  18.779  0.00  0.00    -0.776 OA
HETATM   44  H   UNK     0      -7.346   3.946  19.122  0.00  0.00     0.167 HD
ENDBRANCH  41  43
ENDBRANCH  40  41
ENDBRANCH  39  40
ENDBRANCH  27  39
BRANCH  11  45
HETATM   45  C   UNK     0     -14.301   4.739   9.881  0.00  0.00     0.051 C 
BRANCH  45  46
HETATM   46  C   UNK     0     -14.506   4.478   8.434  0.00  0.00     0.114 C 
BRANCH  46  47
HETATM   47  C   UNK     0     -13.219   3.957   7.893  0.00  0.00     0.139 C 
HETATM   48  O   UNK     0     -12.194   4.637   8.043  0.00  0.00    -0.650 OA
BRANCH  47  49
HETATM   49  O   UNK     0     -13.167   2.751   7.240  0.00  0.00    -0.776 OA
HETATM   50  H   UNK     0     -12.848   1.892   7.705  0.00  0.00     0.167 HD
ENDBRANCH  47  49
ENDBRANCH  46  47
ENDBRANCH  45  46
ENDBRANCH  11  45
BRANCH  18  51
HETATM   51  C   UNK     0      -9.410   5.654  14.781  0.00  0.00     0.051 C 
BRANCH  51  52
HETATM   52  C   UNK     0     -10.474   6.446  15.527  0.00  0.00     0.114 C 
BRANCH  52  53
HETATM   53  C   UNK     0     -10.351   7.896  15.285  0.00  0.00     0.139 C 
HETATM   54  O   UNK     0      -9.244   8.390  15.016  0.00  0.00    -0.650 OA
BRANCH  53  55
HETATM   55  O   UNK     0     -11.466   8.695  15.362  0.00  0.00    -0.776 OA
HETATM   56  H   UNK     0     -11.580   9.482  15.957  0.00  0.00     0.167 HD
ENDBRANCH  53  55
ENDBRANCH  52  53
ENDBRANCH  51  52
ENDBRANCH  18  51
TORSDOF 16
ENDMDL
MODEL 19
REMARK VINA RESULT:      -6.9     20.760     24.509
REMARK  16 active torsions:
REMARK  status: ('A' for Active; 'I' for Inactive)
REMARK    1  A    between atoms: C_6  and  C_7 
REMARK    2  A    between atoms: C_7  and  C_8 
REMARK    3  A    between atoms: C_8  and  C_9 
REMARK    4  A    between atoms: C_9  and  O_11 
REMARK    5  A    between atoms: C_16  and  C_17 
REMARK    6  A    between atoms: C_17  and  C_18 
REMARK    7  A    between atoms: C_18  and  C_19 
REMARK    8  A    between atoms: C_19  and  O_21 
REMARK    9  A    between atoms: C_28  and  C_29 
REMARK   10  A    between atoms: C_29  and  C_30 
REMARK   11  A    between atoms: C_30  and  C_31 
REMARK   12  A    between atoms: C_31  and  O_33 
REMARK   13  A    between atoms: C_42  and  C_43 
REMARK   14  A    between atoms: C_43  and  C_44 
REMARK   15  A    between atoms: C_44  and  C_45 
REMARK   16  A    between atoms: C_45  and  O_47 
ROOT
HETATM    1  C   UNK     0      -9.878   8.119  12.965  0.00  0.00     0.051 C 
HETATM    2  C   UNK     0     -10.377   7.067  13.934  0.00  0.00    -0.031 A 
HETATM    3  C   UNK     0     -11.676   6.668  14.208  0.00  0.00     0.021 A 
HETATM    4  N   UNK     0     -11.652   5.715  15.170  0.00  0.00    -0.361 N 
HETATM    5  C   UNK     0     -10.365   5.493  15.510  0.00  0.00     0.022 A 
HETATM    6  C   UNK     0      -9.541   6.324  14.758  0.00  0.00    -0.027 A 
HETATM    7  C   UNK     0      -9.790   4.480  16.451  0.00  0.00     0.115 C 
HETATM    8  C   UNK     0     -10.377   3.081  16.388  0.00  0.00     0.021 A 
HETATM    9  N   UNK     0     -10.819   2.407  15.315  0.00  0.00    -0.361 N 
HETATM   10  C   UNK     0     -11.341   1.237  15.740  0.00  0.00     0.022 A 
HETATM   11  C   UNK     0     -11.224   1.151  17.125  0.00  0.00    -0.027 A 
HETATM   12  C   UNK     0     -10.618   2.310  17.539  0.00  0.00    -0.031 A 
HETATM   13  C   UNK     0     -10.281   2.656  18.972  0.00  0.00     0.051 C 
HETATM   14  C   UNK     0     -12.016   0.181  14.869  0.00  0.00     0.115 C 
HETATM   15  C   UNK     0     -13.252   0.683  14.141  0.00  0.00     0.021 A 
HETATM   16  N   UNK     0     -13.335   1.707  13.272  0.00  0.00    -0.361 N 
HETATM   17  C   UNK     0     -14.609   1.872  12.909  0.00  0.00     0.022 A 
HETATM   18  C   UNK     0     -15.392   0.902  13.565  0.00  0.00    -0.027 A 
HETATM   19  C   UNK     0     -14.531   0.163  14.333  0.00  0.00    -0.031 A 
HETATM   20  C   UNK     0     -14.960  -1.020  15.182  0.00  0.00     0.051 C 
HETATM   21  C   UNK     0     -15.237   2.919  12.017  0.00  0.00     0.115 C 
HETATM   22  C   UNK     0     -14.635   4.304  12.036  0.00  0.00     0.022 A 
HETATM   23  N   UNK     0     -14.184   4.998  13.089  0.00  0.00    -0.361 N 
HETATM   24  C   UNK     0     -13.598   6.125  12.635  0.00  0.00     0.021 A 
HETATM   25  C   UNK     0     -13.684   6.162  11.256  0.00  0.00    -0.031 A 
HETATM   26  C   UNK     0     -13.211   7.237  10.300  0.00  0.00     0.051 C 
HETATM   27  C   UNK     0     -14.344   5.008  10.850  0.00  0.00    -0.027 A 
HETATM   28  C   UNK     0     -12.862   7.180  13.441  0.00  0.00     0.115 C 
HETATM   29  H   UNK     0     -12.546   5.236  15.631  0.00  0.00     0.165 HD
HETATM   30  H   UNK     0     -10.718   2.732  14.250  0.00  0.00     0.165 HD
HETATM   31  H   UNK     0     -12.471   2.297  12.869  0.00  0.00     0.165 HD
HETATM   32  H   UNK     0     -14.312   4.720  14.168  0.00  0.00     0.165 HD
ENDROOT
BRANCH   6  33
HETATM   33  C   UNK     0      -8.040   6.465  14.764  0.00  0.00     0.051 C 
BRANCH  33  34
HETATM   34  C   UNK     0      -7.624   7.728  15.479  0.00  0.00     0.114 C 
BRANCH  34  35
HETATM   35  C   UNK     0      -7.423   7.382  16.916  0.00  0.00     0.139 C 
HETATM   36  O   UNK     0      -7.753   8.203  17.821  0.00  0.00    -0.650 OA
BRANCH  35  37
HETATM   37  O   UNK     0      -6.879   6.171  17.325  0.00  0.00    -0.776 OA
HETATM   38  H   UNK     0      -7.181   5.707  18.166  0.00  0.00     0.167 HD
ENDBRANCH  35  37
ENDBRANCH  34  35
ENDBRANCH  33  34
ENDBRANCH   6  33
BRANCH  27  39
HETATM   39  C   UNK     0     -14.688   4.728   9.429  0.00  0.00     0.051 C 
BRANCH  39  40
HETATM   40  C   UNK     0     -13.607   4.363   8.513  0.00  0.00     0.114 C 
BRANCH  40  41
HETATM   41  C   UNK     0     -13.156   2.999   8.357  0.00  0.00     0.139 C 
HETATM   42  O   UNK     0     -12.502   2.393   9.217  0.00  0.00    -0.650 OA
BRANCH  41  43
HETATM   43  O   UNK     0     -13.472   2.299   7.158  0.00  0.00    -0.776 OA
HETATM   44  H   UNK     0     -12.901   2.554   6.361  0.00  0.00     0.167 HD
ENDBRANCH  41  43
ENDBRANCH  40  41
ENDBRANCH  39  40
ENDBRANCH  27  39
BRANCH  11  45
HETATM   45  C   UNK     0     -11.654   0.035  18.039  0.00  0.00     0.051 C 
BRANCH  45  46
HETATM   46  C   UNK     0     -10.559  -0.892  18.420  0.00  0.00     0.114 C 
BRANCH  46  47
HETATM   47  C   UNK     0     -10.810  -2.184  17.720  0.00  0.00     0.139 C 
HETATM   48  O   UNK     0     -11.692  -2.935  18.160  0.00  0.00    -0.650 OA
BRANCH  47  49
HETATM   49  O   UNK     0     -10.080  -2.536  16.612  0.00  0.00    -0.776 OA
HETATM   50  H   UNK     0      -9.970  -1.906  15.809  0.00  0.00     0.167 HD
ENDBRANCH  47  49
ENDBRANCH  46  47
ENDBRANCH  45  46
ENDBRANCH  11  45
BRANCH  18  51
HETATM   51  C   UNK     0     -16.878   0.679  13.450  0.00  0.00     0.051 C 
BRANCH  51  52
HETATM   52  C   UNK     0     -17.062  -0.474  12.475  0.00  0.00     0.114 C 
BRANCH  52  53
HETATM   53  C   UNK     0     -18.279  -1.254  12.769  0.00  0.00     0.139 C 
HETATM   54  O   UNK     0     -19.213  -1.280  11.952  0.00  0.00    -0.650 OA
BRANCH  53  55
HETATM   55  O   UNK     0     -18.372  -1.947  13.952  0.00  0.00    -0.776 OA
HETATM   56  H   UNK     0     -18.724  -2.869  14.062  0.00  0.00     0.167 HD
ENDBRANCH  53  55
ENDBRANCH  52  53
ENDBRANCH  51  52
ENDBRANCH  18  51
TORSDOF 16
ENDMDL
MODEL 20
REMARK VINA RESULT:      -6.9     15.829     19.682
REMARK  16 active torsions:
REMARK  status: ('A' for Active; 'I' for Inactive)
REMARK    1  A    between atoms: C_6  and  C_7 
REMARK    2  A    between atoms: C_7  and  C_8 
REMARK    3  A    between atoms: C_8  and  C_9 
REMARK    4  A    between atoms: C_9  and  O_11 
REMARK    5  A    between atoms: C_16  and  C_17 
REMARK    6  A    between atoms: C_17  and  C_18 
REMARK    7  A    between atoms: C_18  and  C_19 
REMARK    8  A    between atoms: C_19  and  O_21 
REMARK    9  A    between atoms: C_28  and  C_29 
REMARK   10  A    between atoms: C_29  and  C_30 
REMARK   11  A    between atoms: C_30  and  C_31 
REMARK   12  A    between atoms: C_31  and  O_33 
REMARK   13  A    between atoms: C_42  and  C_43 
REMARK   14  A    between atoms: C_43  and  C_44 
REMARK   15  A    between atoms: C_44  and  C_45 
REMARK   16  A    between atoms: C_45  and  O_47 
ROOT
HETATM    1  C   UNK     0     -20.564   3.202  13.468  0.00  0.00     0.051 C 
HETATM    2  C   UNK     0     -19.986   1.805  13.374  0.00  0.00    -0.031 A 
HETATM    3  C   UNK     0     -18.757   1.331  13.805  0.00  0.00     0.021 A 
HETATM    4  N   UNK     0     -18.653   0.019  13.484  0.00  0.00    -0.361 N 
HETATM    5  C   UNK     0     -19.792  -0.355  12.866  0.00  0.00     0.022 A 
HETATM    6  C   UNK     0     -20.647   0.739  12.777  0.00  0.00    -0.027 A 
HETATM    7  C   UNK     0     -20.220  -1.710  12.397  0.00  0.00     0.115 C 
HETATM    8  C   UNK     0     -19.935  -2.875  13.329  0.00  0.00     0.021 A 
HETATM    9  N   UNK     0     -19.969  -2.900  14.671  0.00  0.00    -0.361 N 
HETATM   10  C   UNK     0     -19.557  -4.119  15.078  0.00  0.00     0.022 A 
HETATM   11  C   UNK     0     -19.258  -4.904  13.968  0.00  0.00    -0.027 A 
HETATM   12  C   UNK     0     -19.494  -4.126  12.863  0.00  0.00    -0.031 A 
HETATM   13  C   UNK     0     -19.310  -4.567  11.429  0.00  0.00     0.051 C 
HETATM   14  C   UNK     0     -19.377  -4.573  16.524  0.00  0.00     0.115 C 
HETATM   15  C   UNK     0     -18.355  -3.761  17.302  0.00  0.00     0.021 A 
HETATM   16  N   UNK     0     -18.363  -2.435  17.534  0.00  0.00    -0.361 N 
HETATM   17  C   UNK     0     -17.254  -2.098  18.195  0.00  0.00     0.022 A 
HETATM   18  C   UNK     0     -16.490  -3.262  18.413  0.00  0.00    -0.027 A 
HETATM   19  C   UNK     0     -17.191  -4.297  17.850  0.00  0.00    -0.031 A 
HETATM   20  C   UNK     0     -16.738  -5.744  17.891  0.00  0.00     0.051 C 
HETATM   21  C   UNK     0     -16.754  -0.738  18.627  0.00  0.00     0.115 C 
HETATM   22  C   UNK     0     -17.068   0.437  17.730  0.00  0.00     0.022 A 
HETATM   23  N   UNK     0     -17.046   0.489  16.392  0.00  0.00    -0.361 N 
HETATM   24  C   UNK     0     -17.535   1.685  16.007  0.00  0.00     0.021 A 
HETATM   25  C   UNK     0     -17.870   2.425  17.124  0.00  0.00    -0.031 A 
HETATM   26  C   UNK     0     -18.416   3.836  17.205  0.00  0.00     0.051 C 
HETATM   27  C   UNK     0     -17.580   1.648  18.240  0.00  0.00    -0.027 A 
HETATM   28  C   UNK     0     -17.792   2.172  14.591  0.00  0.00     0.115 C 
HETATM   29  H   UNK     0     -17.759  -0.623  13.662  0.00  0.00     0.165 HD
HETATM   30  H   UNK     0     -20.332  -2.075  15.332  0.00  0.00     0.165 HD
HETATM   31  H   UNK     0     -19.192  -1.728  17.267  0.00  0.00     0.165 HD
HETATM   32  H   UNK     0     -16.645  -0.302  15.707  0.00  0.00     0.165 HD
ENDROOT
BRANCH   6  33
HETATM   33  C   UNK     0     -22.024   0.847  12.175  0.00  0.00     0.051 C 
BRANCH  33  34
HETATM   34  C   UNK     0     -21.942   1.239  10.718  0.00  0.00     0.114 C 
BRANCH  34  35
HETATM   35  C   UNK     0     -22.383   0.063   9.914  0.00  0.00     0.139 C 
HETATM   36  O   UNK     0     -22.042  -0.042   8.700  0.00  0.00    -0.650 OA
BRANCH  35  37
HETATM   37  O   UNK     0     -23.168  -0.954  10.442  0.00  0.00    -0.776 OA
HETATM   38  H   UNK     0     -23.851  -1.446   9.888  0.00  0.00     0.167 HD
ENDBRANCH  35  37
ENDBRANCH  34  35
ENDBRANCH  33  34
ENDBRANCH   6  33
BRANCH  27  39
HETATM   39  C   UNK     0     -17.742   2.139  19.635  0.00  0.00     0.051 C 
BRANCH  39  40
HETATM   40  C   UNK     0     -18.938   1.739  20.377  0.00  0.00     0.114 C 
BRANCH  40  41
HETATM   41  C   UNK     0     -20.095   1.168  19.724  0.00  0.00     0.139 C 
HETATM   42  O   UNK     0     -20.322  -0.049  19.678  0.00  0.00    -0.650 OA
BRANCH  41  43
HETATM   43  O   UNK     0     -21.033   2.036  19.096  0.00  0.00    -0.776 OA
HETATM   44  H   UNK     0     -21.935   2.080  19.554  0.00  0.00     0.167 HD
ENDBRANCH  41  43
ENDBRANCH  40  41
ENDBRANCH  39  40
ENDBRANCH  27  39
BRANCH  11  45
HETATM   45  C   UNK     0     -18.772  -6.327  13.925  0.00  0.00     0.051 C 
BRANCH  45  46
HETATM   46  C   UNK     0     -17.295  -6.461  13.834  0.00  0.00     0.114 C 
BRANCH  46  47
HETATM   47  C   UNK     0     -16.899  -7.591  14.723  0.00  0.00     0.139 C 
HETATM   48  O   UNK     0     -17.770  -8.395  15.084  0.00  0.00    -0.650 OA
BRANCH  47  49
HETATM   49  O   UNK     0     -15.598  -7.739  15.133  0.00  0.00    -0.776 OA
HETATM   50  H   UNK     0     -14.808  -7.394  14.576  0.00  0.00     0.167 HD
ENDBRANCH  47  49
ENDBRANCH  46  47
ENDBRANCH  45  46
ENDBRANCH  11  45
BRANCH  18  51
HETATM   51  C   UNK     0     -15.174  -3.385  19.137  0.00  0.00     0.051 C 
BRANCH  51  52
HETATM   52  C   UNK     0     -14.092  -3.310  18.070  0.00  0.00     0.114 C 
BRANCH  52  53
HETATM   53  C   UNK     0     -12.791  -3.793  18.572  0.00  0.00     0.139 C 
HETATM   54  O   UNK     0     -12.434  -3.526  19.730  0.00  0.00    -0.650 OA
BRANCH  53  55
HETATM   55  O   UNK     0     -11.979  -4.536  17.750  0.00  0.00    -0.776 OA
HETATM   56  H   UNK     0     -11.823  -5.514  17.812  0.00  0.00     0.167 HD
ENDBRANCH  53  55
ENDBRANCH  52  53
ENDBRANCH  51  52
ENDBRANCH  18  51
TORSDOF 16
ENDMDL
