REMARK  28 active torsions:
REMARK  status: ('A' for Active; 'I' for Inactive)
REMARK    1  A    between atoms: C_2  and  O_3 
REMARK    2  A    between atoms: C_2  and  C_4 
REMARK    3  A    between atoms: C_4  and  C_5 
REMARK    4  A    between atoms: C_5  and  C_6 
REMARK    5  A    between atoms: C_7  and  C_8 
REMARK    6  A    between atoms: C_8  and  C_9 
REMARK    7  A    between atoms: C_9  and  O_11 
REMARK    8  A    between atoms: C_28  and  C_29 
REMARK    9  A    between atoms: C_29  and  C_30 
REMARK   10  A    between atoms: C_30  and  O_32 
REMARK   11  A    between atoms: C_33  and  C_34 
REMARK   12  A    between atoms: C_34  and  C_35 
REMARK   13  A    between atoms: C_35  and  C_36 
REMARK   14  A    between atoms: C_36  and  O_38 
REMARK   15  A    between atoms: C_39  and  C_40 
REMARK   16  A    between atoms: C_40  and  C_41 
REMARK   17  A    between atoms: C_41  and  C_42 
REMARK   18  A    between atoms: C_42  and  O_44 
REMARK   19  A    between atoms: C_45  and  C_46 
REMARK   20  A    between atoms: C_46  and  C_47 
REMARK   21  A    between atoms: C_47  and  O_49 
REMARK   22  A    between atoms: C_50  and  C_51 
REMARK   23  A    between atoms: C_51  and  C_52 
REMARK   24  A    between atoms: C_52  and  O_54 
REMARK   25  A    between atoms: C_55  and  C_56 
REMARK   26  A    between atoms: C_56  and  C_57 
REMARK   27  A    between atoms: C_57  and  C_58 
REMARK   28  A    between atoms: C_58  and  O_60 
ROOT
ATOM      1  O   UNK d   0      -3.894   7.069  -1.426  0.00  0.00    -0.650 OA
ATOM      2  C   UNK d   0      -3.493   6.298  -2.326  0.00  0.00     0.139 C 
ENDROOT
BRANCH   2   3
ATOM      3  O   UNK d   0      -3.370   6.769  -3.611  0.00  0.00    -0.776 OA
ATOM      4  H   UNK d   0      -3.523   7.756  -3.828  0.00  0.00     0.167 HD
ENDBRANCH   2   3
BRANCH   2   5
ATOM      5  C   UNK d   0      -3.154   4.883  -2.003  0.00  0.00     0.115 C 
BRANCH   5   6
ATOM      6  C   UNK d   0      -3.358   4.624  -0.535  0.00  0.00     0.052 C 
BRANCH   6   7
ATOM      7  C   UNK d   0      -3.022   3.205  -0.143  0.00  0.00    -0.020 A 
ATOM      8  C   UNK d   0      -3.838   2.287   0.308  0.00  0.00    -0.011 A 
ATOM      9  C   UNK d   0      -3.061   1.084   0.556  0.00  0.00     0.067 A 
ATOM     10  C   UNK d   0      -3.327  -0.218   1.008  0.00  0.00     0.062 C 
ATOM     11  N   UNK d   0      -1.780   1.361   0.234  0.00  0.00    -0.248 NA
ATOM     12  C   UNK d   0      -2.488  -1.334   0.918  0.00  0.00     0.041 A 
ATOM     13  N   UNK d   0      -1.166  -1.469   1.136  0.00  0.00    -0.355 N 
ATOM     14  C   UNK d   0      -3.027  -2.557   0.479  0.00  0.00    -0.022 A 
ATOM     15  C   UNK d   0      -0.851  -2.744   0.839  0.00  0.00     0.042 A 
ATOM     16  H   UNK d   0      -0.473  -0.684   1.511  0.00  0.00     0.166 HD
ATOM     17  C   UNK d   0       0.387  -3.415   0.892  0.00  0.00     0.062 C 
ATOM     18  C   UNK d   0      -1.992  -3.457   0.423  0.00  0.00    -0.013 A 
ATOM     19  C   UNK d   0       1.617  -2.991   0.458  0.00  0.00     0.067 A 
ATOM     20  N   UNK d   0       1.727  -1.705   0.115  0.00  0.00    -0.248 NA
ATOM     21  C   UNK d   0       2.917  -3.604   0.242  0.00  0.00    -0.011 A 
ATOM     22  C   UNK d   0       3.004  -1.433  -0.311  0.00  0.00     0.066 A 
ATOM     23  C   UNK d   0       3.269  -0.118  -0.664  0.00  0.00     0.062 C 
ATOM     24  C   UNK d   0       3.723  -2.688  -0.212  0.00  0.00    -0.020 A 
ATOM     25  C   UNK d   0       2.416   0.991  -0.554  0.00  0.00     0.041 A 
ATOM     26  N   UNK d   0       1.105   1.129  -0.785  0.00  0.00    -0.355 N 
ATOM     27  C   UNK d   0       2.957   2.217  -0.109  0.00  0.00    -0.022 A 
ATOM     28  C   UNK d   0       0.790   2.402  -0.498  0.00  0.00     0.042 A 
ATOM     29  H   UNK d   0       0.412   0.342  -1.172  0.00  0.00     0.166 HD
ATOM     30  C   UNK d   0      -0.435   3.085  -0.555  0.00  0.00     0.062 C 
ATOM     31  C   UNK d   0       1.935   3.115  -0.070  0.00  0.00    -0.013 A 
ATOM     32  C   UNK d   0      -1.690   2.621  -0.194  0.00  0.00     0.066 A 
BRANCH   8  33
ATOM     33  C   UNK d   0      -5.288   2.427   0.537  0.00  0.00     0.151 C 
BRANCH  33  34
ATOM     34  C   UNK d   0      -5.664   2.233   1.949  0.00  0.00     0.143 C 
ATOM     35  O   UNK d   0      -4.802   2.022   2.814  0.00  0.00    -0.650 OA
BRANCH  34  36
ATOM     36  O   UNK d   0      -6.991   2.286   2.308  0.00  0.00    -0.776 OA
ATOM     37  H   UNK d   0      -7.348   1.755   3.114  0.00  0.00     0.167 HD
ENDBRANCH  34  36
ENDBRANCH  33  34
ENDBRANCH   8  33
BRANCH  31  38
ATOM     38  C   UNK d   0       2.034   4.560   0.360  0.00  0.00     0.151 C 
BRANCH  38  39
ATOM     39  C   UNK d   0       1.990   5.482  -0.755  0.00  0.00     0.143 C 
ATOM     40  O   UNK d   0       1.938   5.096  -1.936  0.00  0.00    -0.650 OA
BRANCH  39  41
ATOM     41  O   UNK d   0       2.005   6.855  -0.511  0.00  0.00    -0.776 OA
ATOM     42  H   UNK d   0       1.291   7.416  -0.986  0.00  0.00     0.167 HD
ENDBRANCH  39  41
ENDBRANCH  38  39
ENDBRANCH  31  38
BRANCH  27  43
ATOM     43  C   UNK d   0       4.377   2.557   0.269  0.00  0.00     0.052 C 
BRANCH  43  44
ATOM     44  C   UNK d   0       4.727   2.162   1.667  0.00  0.00     0.115 C 
BRANCH  44  45
ATOM     45  C   UNK d   0       6.149   2.542   1.872  0.00  0.00     0.139 C 
ATOM     46  O   UNK d   0       6.964   2.306   0.946  0.00  0.00    -0.650 OA
BRANCH  45  47
ATOM     47  O   UNK d   0       6.603   3.143   3.026  0.00  0.00    -0.776 OA
ATOM     48  H   UNK d   0       6.557   4.163   3.182  0.00  0.00     0.167 HD
ENDBRANCH  45  47
ENDBRANCH  44  45
ENDBRANCH  43  44
ENDBRANCH  27  43
BRANCH  24  49
ATOM     49  C   UNK d   0       5.150  -2.867  -0.530  0.00  0.00     0.052 C 
BRANCH  49  50
ATOM     50  C   UNK d   0       5.335  -3.077  -2.011  0.00  0.00     0.115 C 
BRANCH  50  51
ATOM     51  C   UNK d   0       4.869  -2.018  -2.896  0.00  0.00     0.139 C 
ATOM     52  O   UNK d   0       3.680  -1.936  -3.285  0.00  0.00    -0.650 OA
BRANCH  51  53
ATOM     53  O   UNK d   0       5.760  -1.053  -3.340  0.00  0.00    -0.776 OA
ATOM     54  H   UNK d   0       5.603  -0.099  -3.066  0.00  0.00     0.167 HD
ENDBRANCH  51  53
ENDBRANCH  50  51
ENDBRANCH  49  50
ENDBRANCH  24  49
BRANCH  21  55
ATOM     55  C   UNK d   0       3.219  -5.040   0.516  0.00  0.00     0.151 C 
BRANCH  55  56
ATOM     56  C   UNK d   0       2.368  -5.943  -0.274  0.00  0.00     0.143 C 
ATOM     57  O   UNK d   0       1.543  -5.531  -1.113  0.00  0.00    -0.650 OA
BRANCH  56  58
ATOM     58  O   UNK d   0       2.504  -7.314  -0.062  0.00  0.00    -0.776 OA
ATOM     59  H   UNK d   0       1.638  -7.797   0.238  0.00  0.00     0.167 HD
ENDBRANCH  56  58
ENDBRANCH  55  56
ENDBRANCH  21  55
BRANCH  18  60
ATOM     60  C   UNK d   0      -2.121  -4.897  -0.008  0.00  0.00     0.151 C 
BRANCH  60  61
ATOM     61  C   UNK d   0      -1.602  -4.955  -1.383  0.00  0.00     0.143 C 
ATOM     62  O   UNK d   0      -1.169  -4.017  -2.053  0.00  0.00    -0.650 OA
BRANCH  61  63
ATOM     63  O   UNK d   0      -1.612  -6.240  -1.977  0.00  0.00    -0.776 OA
ATOM     64  H   UNK d   0      -0.777  -6.635  -2.372  0.00  0.00     0.167 HD
ENDBRANCH  61  63
ENDBRANCH  60  61
ENDBRANCH  18  60
BRANCH  14  65
ATOM     65  C   UNK d   0      -4.448  -2.961   0.206  0.00  0.00     0.052 C 
BRANCH  65  66
ATOM     66  C   UNK d   0      -5.154  -3.459   1.417  0.00  0.00     0.115 C 
BRANCH  66  67
ATOM     67  C   UNK d   0      -5.321  -2.593   2.550  0.00  0.00     0.139 C 
ATOM     68  O   UNK d   0      -6.499  -2.152   2.817  0.00  0.00    -0.650 OA
BRANCH  67  69
ATOM     69  O   UNK d   0      -4.340  -2.147   3.435  0.00  0.00    -0.776 OA
ATOM     70  H   UNK d   0      -4.360  -1.141   3.656  0.00  0.00     0.167 HD
ENDBRANCH  67  69
ENDBRANCH  66  67
ENDBRANCH  65  66
ENDBRANCH  14  65
ENDBRANCH   6   7
ENDBRANCH   5   6
ENDBRANCH   2   5
TORSDOF 28
