MODEL 1
REMARK VINA RESULT:      -6.0      0.000      0.000
REMARK  28 active torsions:
REMARK  status: ('A' for Active; 'I' for Inactive)
REMARK    1  A    between atoms: C_2  and  O_3 
REMARK    2  A    between atoms: C_2  and  C_4 
REMARK    3  A    between atoms: C_4  and  C_5 
REMARK    4  A    between atoms: C_5  and  C_6 
REMARK    5  A    between atoms: C_7  and  C_8 
REMARK    6  A    between atoms: C_8  and  C_9 
REMARK    7  A    between atoms: C_9  and  O_11 
REMARK    8  A    between atoms: C_28  and  C_29 
REMARK    9  A    between atoms: C_29  and  C_30 
REMARK   10  A    between atoms: C_30  and  O_32 
REMARK   11  A    between atoms: C_33  and  C_34 
REMARK   12  A    between atoms: C_34  and  C_35 
REMARK   13  A    between atoms: C_35  and  C_36 
REMARK   14  A    between atoms: C_36  and  O_38 
REMARK   15  A    between atoms: C_39  and  C_40 
REMARK   16  A    between atoms: C_40  and  C_41 
REMARK   17  A    between atoms: C_41  and  C_42 
REMARK   18  A    between atoms: C_42  and  O_44 
REMARK   19  A    between atoms: C_45  and  C_46 
REMARK   20  A    between atoms: C_46  and  C_47 
REMARK   21  A    between atoms: C_47  and  O_49 
REMARK   22  A    between atoms: C_50  and  C_51 
REMARK   23  A    between atoms: C_51  and  C_52 
REMARK   24  A    between atoms: C_52  and  O_54 
REMARK   25  A    between atoms: C_55  and  C_56 
REMARK   26  A    between atoms: C_56  and  C_57 
REMARK   27  A    between atoms: C_57  and  C_58 
REMARK   28  A    between atoms: C_58  and  O_60 
ROOT
ATOM      1  O   UNK d   0      15.194  -1.640 -17.957  0.00  0.00    -0.650 OA
ATOM      2  C   UNK d   0      14.733  -0.619 -18.514  0.00  0.00     0.139 C 
ENDROOT
BRANCH   2   3
ATOM      3  O   UNK d   0      13.408  -0.298 -18.341  0.00  0.00    -0.776 OA
ATOM      4  H   UNK d   0      13.053   0.627 -18.590  0.00  0.00     0.167 HD
ENDBRANCH   2   3
BRANCH   2   5
ATOM      5  C   UNK d   0      15.615   0.237 -19.356  0.00  0.00     0.115 C 
BRANCH   5   6
ATOM      6  C   UNK d   0      14.786   1.062 -20.302  0.00  0.00     0.052 C 
BRANCH   6   7
ATOM      7  C   UNK d   0      15.151   2.527 -20.270  0.00  0.00    -0.020 A 
ATOM      8  C   UNK d   0      14.658   3.455 -19.491  0.00  0.00    -0.011 A 
ATOM      9  C   UNK d   0      15.308   4.711 -19.829  0.00  0.00     0.067 A 
ATOM     10  C   UNK d   0      15.251   6.036 -19.370  0.00  0.00     0.062 C 
ATOM     11  N   UNK d   0      16.178   4.455 -20.828  0.00  0.00    -0.248 NA
ATOM     12  C   UNK d   0      16.163   7.064 -19.635  0.00  0.00     0.041 A 
ATOM     13  N   UNK d   0      16.785   7.426 -20.773  0.00  0.00    -0.355 N 
ATOM     14  C   UNK d   0      16.601   7.875 -18.572  0.00  0.00    -0.022 A 
ATOM     15  C   UNK d   0      17.612   8.441 -20.458  0.00  0.00     0.042 A 
ATOM     16  H   UNK d   0      16.628   6.987 -21.782  0.00  0.00     0.166 HD
ATOM     17  C   UNK d   0      18.491   9.188 -21.268  0.00  0.00     0.062 C 
ATOM     18  C   UNK d   0      17.525   8.750 -19.087  0.00  0.00    -0.013 A 
ATOM     19  C   UNK d   0      19.368   8.745 -22.224  0.00  0.00     0.067 A 
ATOM     20  N   UNK d   0      19.261   7.468 -22.599  0.00  0.00    -0.248 NA
ATOM     21  C   UNK d   0      20.466   9.322 -22.982  0.00  0.00    -0.011 A 
ATOM     22  C   UNK d   0      20.209   7.168 -23.546  0.00  0.00     0.066 A 
ATOM     23  C   UNK d   0      20.186   5.877 -24.053  0.00  0.00     0.062 C 
ATOM     24  C   UNK d   0      20.957   8.393 -23.750  0.00  0.00    -0.020 A 
ATOM     25  C   UNK d   0      19.254   4.863 -23.785  0.00  0.00     0.041 A 
ATOM     26  N   UNK d   0      18.647   4.493 -22.651  0.00  0.00    -0.355 N 
ATOM     27  C   UNK d   0      18.811   4.052 -24.853  0.00  0.00    -0.022 A 
ATOM     28  C   UNK d   0      17.828   3.476 -22.960  0.00  0.00     0.042 A 
ATOM     29  H   UNK d   0      18.814   4.929 -21.635  0.00  0.00     0.166 HD
ATOM     30  C   UNK d   0      16.955   2.718 -22.163  0.00  0.00     0.062 C 
ATOM     31  C   UNK d   0      17.908   3.172 -24.340  0.00  0.00    -0.013 A 
ATOM     32  C   UNK d   0      16.133   3.159 -21.139  0.00  0.00     0.066 A 
BRANCH   8  33
ATOM     33  C   UNK d   0      13.624   3.283 -18.454  0.00  0.00     0.151 C 
BRANCH  33  34
ATOM     34  C   UNK d   0      14.192   2.988 -17.126  0.00  0.00     0.143 C 
ATOM     35  O   UNK d   0      13.791   2.020 -16.464  0.00  0.00    -0.650 OA
BRANCH  34  36
ATOM     36  O   UNK d   0      15.178   3.801 -16.617  0.00  0.00    -0.776 OA
ATOM     37  H   UNK d   0      15.177   4.087 -15.629  0.00  0.00     0.167 HD
ENDBRANCH  34  36
ENDBRANCH  33  34
ENDBRANCH   8  33
BRANCH  31  38
ATOM     38  C   UNK d   0      17.156   2.115 -25.114  0.00  0.00     0.151 C 
BRANCH  38  39
ATOM     39  C   UNK d   0      15.900   2.598 -25.648  0.00  0.00     0.143 C 
ATOM     40  O   UNK d   0      15.050   3.165 -24.940  0.00  0.00    -0.650 OA
BRANCH  39  41
ATOM     41  O   UNK d   0      15.621   2.428 -27.004  0.00  0.00    -0.776 OA
ATOM     42  H   UNK d   0      15.887   3.195 -27.630  0.00  0.00     0.167 HD
ENDBRANCH  39  41
ENDBRANCH  38  39
ENDBRANCH  31  38
BRANCH  27  43
ATOM     43  C   UNK d   0      19.209   4.083 -26.307  0.00  0.00     0.052 C 
BRANCH  43  44
ATOM     44  C   UNK d   0      18.735   5.306 -27.024  0.00  0.00     0.115 C 
BRANCH  44  45
ATOM     45  C   UNK d   0      17.517   4.911 -27.777  0.00  0.00     0.139 C 
ATOM     46  O   UNK d   0      16.413   5.385 -27.408  0.00  0.00    -0.650 OA
BRANCH  45  47
ATOM     47  O   UNK d   0      17.550   4.058 -28.859  0.00  0.00    -0.776 OA
ATOM     48  H   UNK d   0      17.243   3.073 -28.805  0.00  0.00     0.167 HD
ENDBRANCH  45  47
ENDBRANCH  44  45
ENDBRANCH  43  44
ENDBRANCH  27  43
BRANCH  24  49
ATOM     49  C   UNK d   0      22.058   8.555 -24.714  0.00  0.00     0.052 C 
BRANCH  49  50
ATOM     50  C   UNK d   0      21.514   8.708 -26.112  0.00  0.00     0.115 C 
BRANCH  50  51
ATOM     51  C   UNK d   0      21.075  10.038 -26.511  0.00  0.00     0.139 C 
ATOM     52  O   UNK d   0      21.834  11.036 -26.494  0.00  0.00    -0.650 OA
BRANCH  51  53
ATOM     53  O   UNK d   0      19.767  10.232 -26.929  0.00  0.00    -0.776 OA
ATOM     54  H   UNK d   0      19.492  11.154 -27.220  0.00  0.00     0.167 HD
ENDBRANCH  51  53
ENDBRANCH  50  51
ENDBRANCH  49  50
ENDBRANCH  24  49
BRANCH  21  55
ATOM     55  C   UNK d   0      20.908  10.743 -22.862  0.00  0.00     0.151 C 
BRANCH  55  56
ATOM     56  C   UNK d   0      21.580  11.005 -21.580  0.00  0.00     0.143 C 
ATOM     57  O   UNK d   0      22.376  10.200 -21.058  0.00  0.00    -0.650 OA
BRANCH  56  58
ATOM     58  O   UNK d   0      21.304  12.211 -20.937  0.00  0.00    -0.776 OA
ATOM     59  H   UNK d   0      21.241  12.150 -19.904  0.00  0.00     0.167 HD
ENDBRANCH  56  58
ENDBRANCH  55  56
ENDBRANCH  21  55
BRANCH  18  60
ATOM     60  C   UNK d   0      18.259   9.799 -18.289  0.00  0.00     0.151 C 
BRANCH  60  61
ATOM     61  C   UNK d   0      19.641   9.313 -18.159  0.00  0.00     0.143 C 
ATOM     62  O   UNK d   0      20.003   8.186 -17.822  0.00  0.00    -0.650 OA
BRANCH  61  63
ATOM     63  O   UNK d   0      20.645  10.264 -18.462  0.00  0.00    -0.776 OA
ATOM     64  H   UNK d   0      21.361  10.065 -19.138  0.00  0.00     0.167 HD
ENDBRANCH  61  63
ENDBRANCH  60  61
ENDBRANCH  18  60
BRANCH  14  65
ATOM     65  C   UNK d   0      16.145   7.949 -17.142  0.00  0.00     0.052 C 
BRANCH  65  66
ATOM     66  C   UNK d   0      16.976   7.127 -16.223  0.00  0.00     0.115 C 
BRANCH  66  67
ATOM     67  C   UNK d   0      17.648   7.753 -15.119  0.00  0.00     0.139 C 
ATOM     68  O   UNK d   0      16.973   8.012 -14.056  0.00  0.00    -0.650 OA
BRANCH  67  69
ATOM     69  O   UNK d   0      18.987   8.134 -15.041  0.00  0.00    -0.776 OA
ATOM     70  H   UNK d   0      19.632   7.640 -15.675  0.00  0.00     0.167 HD
ENDBRANCH  67  69
ENDBRANCH  66  67
ENDBRANCH  65  66
ENDBRANCH  14  65
ENDBRANCH   6   7
ENDBRANCH   5   6
ENDBRANCH   2   5
TORSDOF 28
ENDMDL
MODEL 2
REMARK VINA RESULT:      -5.9     28.816     34.762
REMARK  28 active torsions:
REMARK  status: ('A' for Active; 'I' for Inactive)
REMARK    1  A    between atoms: C_2  and  O_3 
REMARK    2  A    between atoms: C_2  and  C_4 
REMARK    3  A    between atoms: C_4  and  C_5 
REMARK    4  A    between atoms: C_5  and  C_6 
REMARK    5  A    between atoms: C_7  and  C_8 
REMARK    6  A    between atoms: C_8  and  C_9 
REMARK    7  A    between atoms: C_9  and  O_11 
REMARK    8  A    between atoms: C_28  and  C_29 
REMARK    9  A    between atoms: C_29  and  C_30 
REMARK   10  A    between atoms: C_30  and  O_32 
REMARK   11  A    between atoms: C_33  and  C_34 
REMARK   12  A    between atoms: C_34  and  C_35 
REMARK   13  A    between atoms: C_35  and  C_36 
REMARK   14  A    between atoms: C_36  and  O_38 
REMARK   15  A    between atoms: C_39  and  C_40 
REMARK   16  A    between atoms: C_40  and  C_41 
REMARK   17  A    between atoms: C_41  and  C_42 
REMARK   18  A    between atoms: C_42  and  O_44 
REMARK   19  A    between atoms: C_45  and  C_46 
REMARK   20  A    between atoms: C_46  and  C_47 
REMARK   21  A    between atoms: C_47  and  O_49 
REMARK   22  A    between atoms: C_50  and  C_51 
REMARK   23  A    between atoms: C_51  and  C_52 
REMARK   24  A    between atoms: C_52  and  O_54 
REMARK   25  A    between atoms: C_55  and  C_56 
REMARK   26  A    between atoms: C_56  and  C_57 
REMARK   27  A    between atoms: C_57  and  C_58 
REMARK   28  A    between atoms: C_58  and  O_60 
ROOT
ATOM      1  O   UNK d   0      14.216 -18.841  -3.000  0.00  0.00    -0.650 OA
ATOM      2  C   UNK d   0      14.747 -19.128  -1.904  0.00  0.00     0.139 C 
ENDROOT
BRANCH   2   3
ATOM      3  O   UNK d   0      16.106 -19.323  -1.845  0.00  0.00    -0.776 OA
ATOM      4  H   UNK d   0      16.498 -20.197  -1.486  0.00  0.00     0.167 HD
ENDBRANCH   2   3
BRANCH   2   5
ATOM      5  C   UNK d   0      13.910 -19.256  -0.677  0.00  0.00     0.115 C 
BRANCH   5   6
ATOM      6  C   UNK d   0      12.853 -18.185  -0.658  0.00  0.00     0.052 C 
BRANCH   6   7
ATOM      7  C   UNK d   0      13.146 -17.097   0.346  0.00  0.00    -0.020 A 
ATOM      8  C   UNK d   0      13.862 -16.017   0.167  0.00  0.00    -0.011 A 
ATOM      9  C   UNK d   0      13.869 -15.274   1.416  0.00  0.00     0.067 A 
ATOM     10  C   UNK d   0      14.414 -14.064   1.872  0.00  0.00     0.062 C 
ATOM     11  N   UNK d   0      13.137 -15.979   2.305  0.00  0.00    -0.248 NA
ATOM     12  C   UNK d   0      14.080 -13.371   3.040  0.00  0.00     0.041 A 
ATOM     13  N   UNK d   0      13.854 -13.805   4.295  0.00  0.00    -0.355 N 
ATOM     14  C   UNK d   0      13.872 -11.981   2.971  0.00  0.00    -0.022 A 
ATOM     15  C   UNK d   0      13.500 -12.728   5.021  0.00  0.00     0.042 A 
ATOM     16  H   UNK d   0      13.961 -14.849   4.664  0.00  0.00     0.166 HD
ATOM     17  C   UNK d   0      13.158 -12.617   6.384  0.00  0.00     0.062 C 
ATOM     18  C   UNK d   0      13.500 -11.566   4.225  0.00  0.00    -0.013 A 
ATOM     19  C   UNK d   0      12.334 -13.417   7.134  0.00  0.00     0.067 A 
ATOM     20  N   UNK d   0      11.943 -14.569   6.582  0.00  0.00    -0.248 NA
ATOM     21  C   UNK d   0      11.717 -13.340   8.447  0.00  0.00    -0.011 A 
ATOM     22  C   UNK d   0      11.114 -15.250   7.440  0.00  0.00     0.066 A 
ATOM     23  C   UNK d   0      10.663 -16.488   7.006  0.00  0.00     0.062 C 
ATOM     24  C   UNK d   0      11.001 -14.414   8.618  0.00  0.00    -0.020 A 
ATOM     25  C   UNK d   0      11.021 -17.173   5.834  0.00  0.00     0.041 A 
ATOM     26  N   UNK d   0      11.231 -16.743   4.584  0.00  0.00    -0.355 N 
ATOM     27  C   UNK d   0      11.234 -18.567   5.906  0.00  0.00    -0.022 A 
ATOM     28  C   UNK d   0      11.575 -17.817   3.856  0.00  0.00     0.042 A 
ATOM     29  H   UNK d   0      11.113 -15.696   4.213  0.00  0.00     0.166 HD
ATOM     30  C   UNK d   0      11.909 -17.943   2.498  0.00  0.00     0.062 C 
ATOM     31  C   UNK d   0      11.586 -18.982   4.658  0.00  0.00    -0.013 A 
ATOM     32  C   UNK d   0      12.673 -17.086   1.723  0.00  0.00     0.066 A 
BRANCH   8  33
ATOM     33  C   UNK d   0      14.552 -15.608  -1.071  0.00  0.00     0.151 C 
BRANCH  33  34
ATOM     34  C   UNK d   0      16.015 -15.523  -0.907  0.00  0.00     0.143 C 
ATOM     35  O   UNK d   0      16.706 -16.548  -0.821  0.00  0.00    -0.650 OA
BRANCH  34  36
ATOM     36  O   UNK d   0      16.617 -14.288  -0.848  0.00  0.00    -0.776 OA
ATOM     37  H   UNK d   0      17.232 -13.957  -1.604  0.00  0.00     0.167 HD
ENDBRANCH  34  36
ENDBRANCH  33  34
ENDBRANCH   8  33
BRANCH  31  38
ATOM     38  C   UNK d   0      11.924 -20.398   4.253  0.00  0.00     0.151 C 
BRANCH  38  39
ATOM     39  C   UNK d   0      10.867 -21.034   3.497  0.00  0.00     0.143 C 
ATOM     40  O   UNK d   0      11.084 -21.967   2.704  0.00  0.00    -0.650 OA
BRANCH  39  41
ATOM     41  O   UNK d   0       9.552 -20.595   3.653  0.00  0.00    -0.776 OA
ATOM     42  H   UNK d   0       9.286 -20.256   4.582  0.00  0.00     0.167 HD
ENDBRANCH  39  41
ENDBRANCH  38  39
ENDBRANCH  31  38
BRANCH  27  43
ATOM     43  C   UNK d   0      11.115 -19.495   7.088  0.00  0.00     0.052 C 
BRANCH  43  44
ATOM     44  C   UNK d   0       9.742 -19.530   7.676  0.00  0.00     0.115 C 
BRANCH  44  45
ATOM     45  C   UNK d   0       8.862 -20.169   6.663  0.00  0.00     0.139 C 
ATOM     46  O   UNK d   0       8.067 -19.437   6.024  0.00  0.00    -0.650 OA
BRANCH  45  47
ATOM     47  O   UNK d   0       8.890 -21.521   6.395  0.00  0.00    -0.776 OA
ATOM     48  H   UNK d   0       8.262 -21.969   5.708  0.00  0.00     0.167 HD
ENDBRANCH  45  47
ENDBRANCH  44  45
ENDBRANCH  43  44
ENDBRANCH  27  43
BRANCH  24  49
ATOM     49  C   UNK d   0      10.235 -14.764   9.827  0.00  0.00     0.052 C 
BRANCH  49  50
ATOM     50  C   UNK d   0       9.312 -13.636  10.208  0.00  0.00     0.115 C 
BRANCH  50  51
ATOM     51  C   UNK d   0       8.107 -13.464   9.408  0.00  0.00     0.139 C 
ATOM     52  O   UNK d   0       7.994 -13.924   8.247  0.00  0.00    -0.650 OA
BRANCH  51  53
ATOM     53  O   UNK d   0       7.030 -12.764   9.931  0.00  0.00    -0.776 OA
ATOM     54  H   UNK d   0       6.775 -12.930  10.889  0.00  0.00     0.167 HD
ENDBRANCH  51  53
ENDBRANCH  50  51
ENDBRANCH  49  50
ENDBRANCH  24  49
BRANCH  21  55
ATOM     55  C   UNK d   0      11.910 -12.204   9.396  0.00  0.00     0.151 C 
BRANCH  55  56
ATOM     56  C   UNK d   0      13.089 -12.397  10.255  0.00  0.00     0.143 C 
ATOM     57  O   UNK d   0      14.246 -12.115   9.886  0.00  0.00    -0.650 OA
BRANCH  56  58
ATOM     58  O   UNK d   0      12.884 -12.918  11.531  0.00  0.00    -0.776 OA
ATOM     59  H   UNK d   0      13.029 -12.245  12.305  0.00  0.00     0.167 HD
ENDBRANCH  56  58
ENDBRANCH  55  56
ENDBRANCH  21  55
BRANCH  18  60
ATOM     60  C   UNK d   0      13.170 -10.143   4.603  0.00  0.00     0.151 C 
BRANCH  60  61
ATOM     61  C   UNK d   0      14.441  -9.529   5.015  0.00  0.00     0.143 C 
ATOM     62  O   UNK d   0      15.064  -9.742   6.056  0.00  0.00    -0.650 OA
BRANCH  61  63
ATOM     63  O   UNK d   0      14.986  -8.597   4.099  0.00  0.00    -0.776 OA
ATOM     64  H   UNK d   0      14.392  -7.989   3.564  0.00  0.00     0.167 HD
ENDBRANCH  61  63
ENDBRANCH  60  61
ENDBRANCH  18  60
BRANCH  14  65
ATOM     65  C   UNK d   0      14.092 -11.011   1.845  0.00  0.00     0.052 C 
BRANCH  65  66
ATOM     66  C   UNK d   0      12.935 -10.930   0.913  0.00  0.00     0.115 C 
BRANCH  66  67
ATOM     67  C   UNK d   0      11.979  -9.868   1.057  0.00  0.00     0.139 C 
ATOM     68  O   UNK d   0      12.399  -8.654   1.017  0.00  0.00    -0.650 OA
BRANCH  67  69
ATOM     69  O   UNK d   0      10.601  -9.980   1.243  0.00  0.00    -0.776 OA
ATOM     70  H   UNK d   0      10.078 -10.408   0.465  0.00  0.00     0.167 HD
ENDBRANCH  67  69
ENDBRANCH  66  67
ENDBRANCH  65  66
ENDBRANCH  14  65
ENDBRANCH   6   7
ENDBRANCH   5   6
ENDBRANCH   2   5
TORSDOF 28
ENDMDL
MODEL 3
REMARK VINA RESULT:      -5.9     29.166     35.165
REMARK  28 active torsions:
REMARK  status: ('A' for Active; 'I' for Inactive)
REMARK    1  A    between atoms: C_2  and  O_3 
REMARK    2  A    between atoms: C_2  and  C_4 
REMARK    3  A    between atoms: C_4  and  C_5 
REMARK    4  A    between atoms: C_5  and  C_6 
REMARK    5  A    between atoms: C_7  and  C_8 
REMARK    6  A    between atoms: C_8  and  C_9 
REMARK    7  A    between atoms: C_9  and  O_11 
REMARK    8  A    between atoms: C_28  and  C_29 
REMARK    9  A    between atoms: C_29  and  C_30 
REMARK   10  A    between atoms: C_30  and  O_32 
REMARK   11  A    between atoms: C_33  and  C_34 
REMARK   12  A    between atoms: C_34  and  C_35 
REMARK   13  A    between atoms: C_35  and  C_36 
REMARK   14  A    between atoms: C_36  and  O_38 
REMARK   15  A    between atoms: C_39  and  C_40 
REMARK   16  A    between atoms: C_40  and  C_41 
REMARK   17  A    between atoms: C_41  and  C_42 
REMARK   18  A    between atoms: C_42  and  O_44 
REMARK   19  A    between atoms: C_45  and  C_46 
REMARK   20  A    between atoms: C_46  and  C_47 
REMARK   21  A    between atoms: C_47  and  O_49 
REMARK   22  A    between atoms: C_50  and  C_51 
REMARK   23  A    between atoms: C_51  and  C_52 
REMARK   24  A    between atoms: C_52  and  O_54 
REMARK   25  A    between atoms: C_55  and  C_56 
REMARK   26  A    between atoms: C_56  and  C_57 
REMARK   27  A    between atoms: C_57  and  C_58 
REMARK   28  A    between atoms: C_58  and  O_60 
ROOT
ATOM      1  O   UNK d   0      16.925 -17.658  -1.887  0.00  0.00    -0.650 OA
ATOM      2  C   UNK d   0      16.536 -17.133  -0.821  0.00  0.00     0.139 C 
ENDROOT
BRANCH   2   3
ATOM      3  O   UNK d   0      16.638 -17.838   0.354  0.00  0.00    -0.776 OA
ATOM      4  H   UNK d   0      17.463 -18.406   0.558  0.00  0.00     0.167 HD
ENDBRANCH   2   3
BRANCH   2   5
ATOM      5  C   UNK d   0      15.966 -15.756  -0.829  0.00  0.00     0.115 C 
BRANCH   5   6
ATOM      6  C   UNK d   0      14.505 -15.802  -1.185  0.00  0.00     0.052 C 
BRANCH   6   7
ATOM      7  C   UNK d   0      13.626 -16.103   0.005  0.00  0.00    -0.020 A 
ATOM      8  C   UNK d   0      12.791 -17.101   0.149  0.00  0.00    -0.011 A 
ATOM      9  C   UNK d   0      12.164 -16.971   1.454  0.00  0.00     0.067 A 
ATOM     10  C   UNK d   0      11.225 -17.698   2.203  0.00  0.00     0.062 C 
ATOM     11  N   UNK d   0      12.671 -15.863   2.034  0.00  0.00    -0.248 NA
ATOM     12  C   UNK d   0      10.947 -17.568   3.568  0.00  0.00     0.041 A 
ATOM     13  N   UNK d   0      10.803 -16.477   4.344  0.00  0.00    -0.355 N 
ATOM     14  C   UNK d   0      10.836 -18.730   4.353  0.00  0.00    -0.022 A 
ATOM     15  C   UNK d   0      10.611 -16.917   5.602  0.00  0.00     0.042 A 
ATOM     16  H   UNK d   0      10.817 -15.418   4.005  0.00  0.00     0.166 HD
ATOM     17  C   UNK d   0      10.406 -16.201   6.798  0.00  0.00     0.062 C 
ATOM     18  C   UNK d   0      10.626 -18.324   5.647  0.00  0.00    -0.013 A 
ATOM     19  C   UNK d   0      11.068 -15.095   7.266  0.00  0.00     0.067 A 
ATOM     20  N   UNK d   0      11.888 -14.475   6.413  0.00  0.00    -0.248 NA
ATOM     21  C   UNK d   0      11.138 -14.374   8.526  0.00  0.00    -0.011 A 
ATOM     22  C   UNK d   0      12.489 -13.402   7.024  0.00  0.00     0.066 A 
ATOM     23  C   UNK d   0      13.341 -12.642   6.236  0.00  0.00     0.062 C 
ATOM     24  C   UNK d   0      11.973 -13.387   8.379  0.00  0.00    -0.020 A 
ATOM     25  C   UNK d   0      13.597 -12.781   4.864  0.00  0.00     0.041 A 
ATOM     26  N   UNK d   0      13.755 -13.865   4.095  0.00  0.00    -0.355 N 
ATOM     27  C   UNK d   0      13.704 -11.614   4.075  0.00  0.00    -0.022 A 
ATOM     28  C   UNK d   0      13.955 -13.429   2.842  0.00  0.00     0.042 A 
ATOM     29  H   UNK d   0      13.751 -14.929   4.439  0.00  0.00     0.166 HD
ATOM     30  C   UNK d   0      14.170 -14.130   1.644  0.00  0.00     0.062 C 
ATOM     31  C   UNK d   0      13.930 -12.015   2.795  0.00  0.00    -0.013 A 
ATOM     32  C   UNK d   0      13.557 -15.296   1.214  0.00  0.00     0.066 A 
BRANCH   8  33
ATOM     33  C   UNK d   0      12.516 -18.172  -0.826  0.00  0.00     0.151 C 
BRANCH  33  34
ATOM     34  C   UNK d   0      13.140 -19.455  -0.456  0.00  0.00     0.143 C 
ATOM     35  O   UNK d   0      12.663 -20.530  -0.845  0.00  0.00    -0.650 OA
BRANCH  34  36
ATOM     36  O   UNK d   0      14.266 -19.455   0.335  0.00  0.00    -0.776 OA
ATOM     37  H   UNK d   0      14.284 -18.964   1.239  0.00  0.00     0.167 HD
ENDBRANCH  34  36
ENDBRANCH  33  34
ENDBRANCH   8  33
BRANCH  31  38
ATOM     38  C   UNK d   0      14.099 -11.113   1.595  0.00  0.00     0.151 C 
BRANCH  38  39
ATOM     39  C   UNK d   0      12.838 -10.743   0.988  0.00  0.00     0.143 C 
ATOM     40  O   UNK d   0      12.284  -9.653   1.215  0.00  0.00    -0.650 OA
BRANCH  39  41
ATOM     41  O   UNK d   0      12.209 -11.631   0.115  0.00  0.00    -0.776 OA
ATOM     42  H   UNK d   0      11.189 -11.702   0.184  0.00  0.00     0.167 HD
ENDBRANCH  39  41
ENDBRANCH  38  39
ENDBRANCH  31  38
BRANCH  27  43
ATOM     43  C   UNK d   0      13.603 -10.167   4.488  0.00  0.00     0.052 C 
BRANCH  43  44
ATOM     44  C   UNK d   0      12.245  -9.785   4.979  0.00  0.00     0.115 C 
BRANCH  44  45
ATOM     45  C   UNK d   0      12.419  -8.558   5.799  0.00  0.00     0.139 C 
ATOM     46  O   UNK d   0      11.389  -7.944   6.172  0.00  0.00    -0.650 OA
BRANCH  45  47
ATOM     47  O   UNK d   0      13.656  -8.075   6.167  0.00  0.00    -0.776 OA
ATOM     48  H   UNK d   0      14.355  -7.744   5.483  0.00  0.00     0.167 HD
ENDBRANCH  45  47
ENDBRANCH  44  45
ENDBRANCH  43  44
ENDBRANCH  27  43
BRANCH  24  49
ATOM     49  C   UNK d   0      12.314 -12.378   9.397  0.00  0.00     0.052 C 
BRANCH  49  50
ATOM     50  C   UNK d   0      13.788 -12.424   9.709  0.00  0.00     0.115 C 
BRANCH  50  51
ATOM     51  C   UNK d   0      14.181 -13.033  10.973  0.00  0.00     0.139 C 
ATOM     52  O   UNK d   0      15.027 -12.515  11.739  0.00  0.00    -0.650 OA
BRANCH  51  53
ATOM     53  O   UNK d   0      13.610 -14.235  11.362  0.00  0.00    -0.776 OA
ATOM     54  H   UNK d   0      12.799 -14.560  10.865  0.00  0.00     0.167 HD
ENDBRANCH  51  53
ENDBRANCH  50  51
ENDBRANCH  49  50
ENDBRANCH  24  49
BRANCH  21  55
ATOM     55  C   UNK d   0      10.358 -14.744   9.744  0.00  0.00     0.151 C 
BRANCH  55  56
ATOM     56  C   UNK d   0       9.143 -13.928   9.890  0.00  0.00     0.143 C 
ATOM     57  O   UNK d   0       8.720 -13.539  10.996  0.00  0.00    -0.650 OA
BRANCH  56  58
ATOM     58  O   UNK d   0       8.448 -13.585   8.731  0.00  0.00    -0.776 OA
ATOM     59  H   UNK d   0       7.473 -13.271   8.884  0.00  0.00     0.167 HD
ENDBRANCH  56  58
ENDBRANCH  55  56
ENDBRANCH  21  55
BRANCH  18  60
ATOM     60  C   UNK d   0      10.457 -19.249   6.827  0.00  0.00     0.151 C 
BRANCH  60  61
ATOM     61  C   UNK d   0       9.124 -19.851   6.681  0.00  0.00     0.143 C 
ATOM     62  O   UNK d   0       8.040 -19.268   6.697  0.00  0.00    -0.650 OA
BRANCH  61  63
ATOM     63  O   UNK d   0       9.113 -21.256   6.503  0.00  0.00    -0.776 OA
ATOM     64  H   UNK d   0       8.919 -21.663   5.605  0.00  0.00     0.167 HD
ENDBRANCH  61  63
ENDBRANCH  60  61
ENDBRANCH  18  60
BRANCH  14  65
ATOM     65  C   UNK d   0      10.815 -20.181   3.961  0.00  0.00     0.052 C 
BRANCH  65  66
ATOM     66  C   UNK d   0      12.096 -20.880   4.251  0.00  0.00     0.115 C 
BRANCH  66  67
ATOM     67  C   UNK d   0      12.100 -22.300   4.461  0.00  0.00     0.139 C 
ATOM     68  O   UNK d   0      12.903 -23.022   3.762  0.00  0.00    -0.650 OA
BRANCH  67  69
ATOM     69  O   UNK d   0      11.320 -23.033   5.355  0.00  0.00    -0.776 OA
ATOM     70  H   UNK d   0      11.605 -24.012   5.500  0.00  0.00     0.167 HD
ENDBRANCH  67  69
ENDBRANCH  66  67
ENDBRANCH  65  66
ENDBRANCH  14  65
ENDBRANCH   6   7
ENDBRANCH   5   6
ENDBRANCH   2   5
TORSDOF 28
ENDMDL
MODEL 4
REMARK VINA RESULT:      -5.8     27.419     33.758
REMARK  28 active torsions:
REMARK  status: ('A' for Active; 'I' for Inactive)
REMARK    1  A    between atoms: C_2  and  O_3 
REMARK    2  A    between atoms: C_2  and  C_4 
REMARK    3  A    between atoms: C_4  and  C_5 
REMARK    4  A    between atoms: C_5  and  C_6 
REMARK    5  A    between atoms: C_7  and  C_8 
REMARK    6  A    between atoms: C_8  and  C_9 
REMARK    7  A    between atoms: C_9  and  O_11 
REMARK    8  A    between atoms: C_28  and  C_29 
REMARK    9  A    between atoms: C_29  and  C_30 
REMARK   10  A    between atoms: C_30  and  O_32 
REMARK   11  A    between atoms: C_33  and  C_34 
REMARK   12  A    between atoms: C_34  and  C_35 
REMARK   13  A    between atoms: C_35  and  C_36 
REMARK   14  A    between atoms: C_36  and  O_38 
REMARK   15  A    between atoms: C_39  and  C_40 
REMARK   16  A    between atoms: C_40  and  C_41 
REMARK   17  A    between atoms: C_41  and  C_42 
REMARK   18  A    between atoms: C_42  and  O_44 
REMARK   19  A    between atoms: C_45  and  C_46 
REMARK   20  A    between atoms: C_46  and  C_47 
REMARK   21  A    between atoms: C_47  and  O_49 
REMARK   22  A    between atoms: C_50  and  C_51 
REMARK   23  A    between atoms: C_51  and  C_52 
REMARK   24  A    between atoms: C_52  and  O_54 
REMARK   25  A    between atoms: C_55  and  C_56 
REMARK   26  A    between atoms: C_56  and  C_57 
REMARK   27  A    between atoms: C_57  and  C_58 
REMARK   28  A    between atoms: C_58  and  O_60 
ROOT
ATOM      1  O   UNK d   0       8.029 -19.769   5.368  0.00  0.00    -0.650 OA
ATOM      2  C   UNK d   0       8.915 -20.124   6.177  0.00  0.00     0.139 C 
ENDROOT
BRANCH   2   3
ATOM      3  O   UNK d   0       9.219 -21.458   6.301  0.00  0.00    -0.776 OA
ATOM      4  H   UNK d   0      10.184 -21.788   6.236  0.00  0.00     0.167 HD
ENDBRANCH   2   3
BRANCH   2   5
ATOM      5  C   UNK d   0       9.631 -19.106   6.997  0.00  0.00     0.115 C 
BRANCH   5   6
ATOM      6  C   UNK d   0      11.118 -19.242   6.809  0.00  0.00     0.052 C 
BRANCH   6   7
ATOM      7  C   UNK d   0      11.629 -18.456   5.625  0.00  0.00    -0.020 A 
ATOM      8  C   UNK d   0      11.805 -18.882   4.401  0.00  0.00    -0.011 A 
ATOM      9  C   UNK d   0      12.321 -17.774   3.614  0.00  0.00     0.067 A 
ATOM     10  C   UNK d   0      12.688 -17.566   2.275  0.00  0.00     0.062 C 
ATOM     11  N   UNK d   0      12.432 -16.713   4.442  0.00  0.00    -0.248 NA
ATOM     12  C   UNK d   0      12.902 -16.341   1.636  0.00  0.00     0.041 A 
ATOM     13  N   UNK d   0      13.546 -15.230   2.042  0.00  0.00    -0.355 N 
ATOM     14  C   UNK d   0      12.337 -16.127   0.366  0.00  0.00    -0.022 A 
ATOM     15  C   UNK d   0      13.396 -14.314   1.066  0.00  0.00     0.042 A 
ATOM     16  H   UNK d   0      14.111 -15.101   2.991  0.00  0.00     0.166 HD
ATOM     17  C   UNK d   0      13.868 -12.990   0.976  0.00  0.00     0.062 C 
ATOM     18  C   UNK d   0      12.643 -14.841  -0.002  0.00  0.00    -0.013 A 
ATOM     19  C   UNK d   0      13.854 -12.003   1.928  0.00  0.00     0.067 A 
ATOM     20  N   UNK d   0      13.539 -12.368   3.173  0.00  0.00    -0.248 NA
ATOM     21  C   UNK d   0      14.091 -10.569   1.950  0.00  0.00    -0.011 A 
ATOM     22  C   UNK d   0      13.551 -11.277   4.007  0.00  0.00     0.066 A 
ATOM     23  C   UNK d   0      13.277 -11.521   5.345  0.00  0.00     0.062 C 
ATOM     24  C   UNK d   0      13.908 -10.150   3.169  0.00  0.00    -0.020 A 
ATOM     25  C   UNK d   0      13.077 -12.762   5.970  0.00  0.00     0.041 A 
ATOM     26  N   UNK d   0      12.424 -13.861   5.573  0.00  0.00    -0.355 N 
ATOM     27  C   UNK d   0      13.649 -12.976   7.243  0.00  0.00    -0.022 A 
ATOM     28  C   UNK d   0      12.565 -14.772   6.548  0.00  0.00     0.042 A 
ATOM     29  H   UNK d   0      11.848 -13.985   4.623  0.00  0.00     0.166 HD
ATOM     30  C   UNK d   0      12.093 -16.090   6.655  0.00  0.00     0.062 C 
ATOM     31  C   UNK d   0      13.330 -14.246   7.616  0.00  0.00    -0.013 A 
ATOM     32  C   UNK d   0      12.031 -17.058   5.666  0.00  0.00     0.066 A 
BRANCH   8  33
ATOM     33  C   UNK d   0      11.542 -20.240   3.889  0.00  0.00     0.151 C 
BRANCH  33  34
ATOM     34  C   UNK d   0      12.452 -21.250   4.457  0.00  0.00     0.143 C 
ATOM     35  O   UNK d   0      12.014 -22.192   5.134  0.00  0.00    -0.650 OA
BRANCH  34  36
ATOM     36  O   UNK d   0      13.805 -21.143   4.233  0.00  0.00    -0.776 OA
ATOM     37  H   UNK d   0      14.463 -20.976   5.006  0.00  0.00     0.167 HD
ENDBRANCH  34  36
ENDBRANCH  33  34
ENDBRANCH   8  33
BRANCH  31  38
ATOM     38  C   UNK d   0      13.738 -14.926   8.902  0.00  0.00     0.151 C 
BRANCH  38  39
ATOM     39  C   UNK d   0      13.101 -14.351  10.068  0.00  0.00     0.143 C 
ATOM     40  O   UNK d   0      11.901 -14.025  10.077  0.00  0.00    -0.650 OA
BRANCH  39  41
ATOM     41  O   UNK d   0      13.847 -14.150  11.229  0.00  0.00    -0.776 OA
ATOM     42  H   UNK d   0      14.833 -14.427  11.197  0.00  0.00     0.167 HD
ENDBRANCH  39  41
ENDBRANCH  38  39
ENDBRANCH  31  38
BRANCH  27  43
ATOM     43  C   UNK d   0      14.466 -12.039   8.097  0.00  0.00     0.052 C 
BRANCH  43  44
ATOM     44  C   UNK d   0      13.700 -10.842   8.558  0.00  0.00     0.115 C 
BRANCH  44  45
ATOM     45  C   UNK d   0      14.352  -9.657   7.941  0.00  0.00     0.139 C 
ATOM     46  O   UNK d   0      13.679  -8.603   7.827  0.00  0.00    -0.650 OA
BRANCH  45  47
ATOM     47  O   UNK d   0      15.657  -9.669   7.497  0.00  0.00    -0.776 OA
ATOM     48  H   UNK d   0      16.208 -10.538   7.400  0.00  0.00     0.167 HD
ENDBRANCH  45  47
ENDBRANCH  44  45
ENDBRANCH  43  44
ENDBRANCH  27  43
BRANCH  24  49
ATOM     49  C   UNK d   0      14.081  -8.767   3.647  0.00  0.00     0.052 C 
BRANCH  49  50
ATOM     50  C   UNK d   0      15.462  -8.580   4.219  0.00  0.00     0.115 C 
BRANCH  50  51
ATOM     51  C   UNK d   0      15.779  -7.271   4.776  0.00  0.00     0.139 C 
ATOM     52  O   UNK d   0      16.407  -6.397   4.133  0.00  0.00    -0.650 OA
BRANCH  51  53
ATOM     53  O   UNK d   0      15.382  -6.960   6.067  0.00  0.00    -0.776 OA
ATOM     54  H   UNK d   0      14.481  -6.536   6.199  0.00  0.00     0.167 HD
ENDBRANCH  51  53
ENDBRANCH  50  51
ENDBRANCH  49  50
ENDBRANCH  24  49
BRANCH  21  55
ATOM     55  C   UNK d   0      14.479  -9.768   0.751  0.00  0.00     0.151 C 
BRANCH  55  56
ATOM     56  C   UNK d   0      13.333  -9.507  -0.133  0.00  0.00     0.143 C 
ATOM     57  O   UNK d   0      13.341  -9.784  -1.348  0.00  0.00    -0.650 OA
BRANCH  56  58
ATOM     58  O   UNK d   0      12.199  -8.924   0.430  0.00  0.00    -0.776 OA
ATOM     59  H   UNK d   0      11.331  -9.034  -0.125  0.00  0.00     0.167 HD
ENDBRANCH  56  58
ENDBRANCH  55  56
ENDBRANCH  21  55
BRANCH  18  60
ATOM     60  C   UNK d   0      12.225 -14.188  -1.296  0.00  0.00     0.151 C 
BRANCH  60  61
ATOM     61  C   UNK d   0      13.399 -14.253  -2.179  0.00  0.00     0.143 C 
ATOM     62  O   UNK d   0      13.989 -15.266  -2.556  0.00  0.00    -0.650 OA
BRANCH  61  63
ATOM     63  O   UNK d   0      13.882 -13.002  -2.631  0.00  0.00    -0.776 OA
ATOM     64  H   UNK d   0      13.903 -12.203  -2.022  0.00  0.00     0.167 HD
ENDBRANCH  61  63
ENDBRANCH  60  61
ENDBRANCH  18  60
BRANCH  14  65
ATOM     65  C   UNK d   0      11.620 -17.069  -0.560  0.00  0.00     0.052 C 
BRANCH  65  66
ATOM     66  C   UNK d   0      10.139 -16.961  -0.468  0.00  0.00     0.115 C 
BRANCH  66  67
ATOM     67  C   UNK d   0       9.459 -17.464   0.693  0.00  0.00     0.139 C 
ATOM     68  O   UNK d   0       8.667 -16.677   1.329  0.00  0.00    -0.650 OA
BRANCH  67  69
ATOM     69  O   UNK d   0       9.546 -18.741   1.245  0.00  0.00    -0.776 OA
ATOM     70  H   UNK d   0       9.277 -19.518   0.624  0.00  0.00     0.167 HD
ENDBRANCH  67  69
ENDBRANCH  66  67
ENDBRANCH  65  66
ENDBRANCH  14  65
ENDBRANCH   6   7
ENDBRANCH   5   6
ENDBRANCH   2   5
TORSDOF 28
ENDMDL
MODEL 5
REMARK VINA RESULT:      -5.8     25.984     32.639
REMARK  28 active torsions:
REMARK  status: ('A' for Active; 'I' for Inactive)
REMARK    1  A    between atoms: C_2  and  O_3 
REMARK    2  A    between atoms: C_2  and  C_4 
REMARK    3  A    between atoms: C_4  and  C_5 
REMARK    4  A    between atoms: C_5  and  C_6 
REMARK    5  A    between atoms: C_7  and  C_8 
REMARK    6  A    between atoms: C_8  and  C_9 
REMARK    7  A    between atoms: C_9  and  O_11 
REMARK    8  A    between atoms: C_28  and  C_29 
REMARK    9  A    between atoms: C_29  and  C_30 
REMARK   10  A    between atoms: C_30  and  O_32 
REMARK   11  A    between atoms: C_33  and  C_34 
REMARK   12  A    between atoms: C_34  and  C_35 
REMARK   13  A    between atoms: C_35  and  C_36 
REMARK   14  A    between atoms: C_36  and  O_38 
REMARK   15  A    between atoms: C_39  and  C_40 
REMARK   16  A    between atoms: C_40  and  C_41 
REMARK   17  A    between atoms: C_41  and  C_42 
REMARK   18  A    between atoms: C_42  and  O_44 
REMARK   19  A    between atoms: C_45  and  C_46 
REMARK   20  A    between atoms: C_46  and  C_47 
REMARK   21  A    between atoms: C_47  and  O_49 
REMARK   22  A    between atoms: C_50  and  C_51 
REMARK   23  A    between atoms: C_51  and  C_52 
REMARK   24  A    between atoms: C_52  and  O_54 
REMARK   25  A    between atoms: C_55  and  C_56 
REMARK   26  A    between atoms: C_56  and  C_57 
REMARK   27  A    between atoms: C_57  and  C_58 
REMARK   28  A    between atoms: C_58  and  O_60 
ROOT
ATOM      1  O   UNK d   0       9.257 -19.876   7.130  0.00  0.00    -0.650 OA
ATOM      2  C   UNK d   0      10.393 -19.401   6.907  0.00  0.00     0.139 C 
ENDROOT
BRANCH   2   3
ATOM      3  O   UNK d   0      11.482 -20.240   6.887  0.00  0.00    -0.776 OA
ATOM      4  H   UNK d   0      12.136 -20.236   6.101  0.00  0.00     0.167 HD
ENDBRANCH   2   3
BRANCH   2   5
ATOM      5  C   UNK d   0      10.559 -17.940   6.665  0.00  0.00     0.115 C 
BRANCH   5   6
ATOM      6  C   UNK d   0      12.015 -17.568   6.724  0.00  0.00     0.052 C 
BRANCH   6   7
ATOM      7  C   UNK d   0      12.490 -16.880   5.466  0.00  0.00    -0.020 A 
ATOM      8  C   UNK d   0      12.699 -17.418   4.292  0.00  0.00    -0.011 A 
ATOM      9  C   UNK d   0      13.157 -16.369   3.397  0.00  0.00     0.067 A 
ATOM     10  C   UNK d   0      13.522 -16.280   2.044  0.00  0.00     0.062 C 
ATOM     11  N   UNK d   0      13.204 -15.225   4.111  0.00  0.00    -0.248 NA
ATOM     12  C   UNK d   0      13.672 -15.116   1.282  0.00  0.00     0.041 A 
ATOM     13  N   UNK d   0      14.250 -13.935   1.573  0.00  0.00    -0.355 N 
ATOM     14  C   UNK d   0      13.105 -15.066  -0.004  0.00  0.00    -0.022 A 
ATOM     15  C   UNK d   0      14.057 -13.134   0.508  0.00  0.00     0.042 A 
ATOM     16  H   UNK d   0      14.801 -13.678   2.505  0.00  0.00     0.166 HD
ATOM     17  C   UNK d   0      14.455 -11.801   0.283  0.00  0.00     0.062 C 
ATOM     18  C   UNK d   0      13.342 -13.809  -0.501  0.00  0.00    -0.013 A 
ATOM     19  C   UNK d   0      14.379 -10.724   1.128  0.00  0.00     0.067 A 
ATOM     20  N   UNK d   0      14.076 -10.977   2.404  0.00  0.00    -0.248 NA
ATOM     21  C   UNK d   0      14.535  -9.285   1.003  0.00  0.00    -0.011 A 
ATOM     22  C   UNK d   0      14.021  -9.808   3.122  0.00  0.00     0.066 A 
ATOM     23  C   UNK d   0      13.752  -9.928   4.477  0.00  0.00     0.062 C 
ATOM     24  C   UNK d   0      14.321  -8.754   2.172  0.00  0.00    -0.020 A 
ATOM     25  C   UNK d   0      13.616 -11.108   5.226  0.00  0.00     0.041 A 
ATOM     26  N   UNK d   0      13.029 -12.276   4.943  0.00  0.00    -0.355 N 
ATOM     27  C   UNK d   0      14.190 -11.158   6.515  0.00  0.00    -0.022 A 
ATOM     28  C   UNK d   0      13.213 -13.074   6.007  0.00  0.00     0.042 A 
ATOM     29  H   UNK d   0      12.467 -12.529   4.010  0.00  0.00     0.166 HD
ATOM     30  C   UNK d   0      12.815 -14.398   6.248  0.00  0.00     0.062 C 
ATOM     31  C   UNK d   0      13.940 -12.399   7.016  0.00  0.00    -0.013 A 
ATOM     32  C   UNK d   0      12.814 -15.465   5.363  0.00  0.00     0.066 A 
BRANCH   8  33
ATOM     33  C   UNK d   0      12.515 -18.834   3.922  0.00  0.00     0.151 C 
BRANCH  33  34
ATOM     34  C   UNK d   0      13.766 -19.475   3.479  0.00  0.00     0.143 C 
ATOM     35  O   UNK d   0      13.889 -19.898   2.321  0.00  0.00    -0.650 OA
BRANCH  34  36
ATOM     36  O   UNK d   0      14.809 -19.606   4.367  0.00  0.00    -0.776 OA
ATOM     37  H   UNK d   0      15.657 -20.135   4.121  0.00  0.00     0.167 HD
ENDBRANCH  34  36
ENDBRANCH  33  34
ENDBRANCH   8  33
BRANCH  31  38
ATOM     38  C   UNK d   0      14.376 -12.919   8.366  0.00  0.00     0.151 C 
BRANCH  38  39
ATOM     39  C   UNK d   0      13.516 -12.478   9.443  0.00  0.00     0.143 C 
ATOM     40  O   UNK d   0      12.278 -12.439   9.332  0.00  0.00    -0.650 OA
BRANCH  39  41
ATOM     41  O   UNK d   0      14.081 -12.079  10.654  0.00  0.00    -0.776 OA
ATOM     42  H   UNK d   0      15.061 -12.334  10.811  0.00  0.00     0.167 HD
ENDBRANCH  39  41
ENDBRANCH  38  39
ENDBRANCH  31  38
BRANCH  27  43
ATOM     43  C   UNK d   0      14.948 -10.094   7.269  0.00  0.00     0.052 C 
BRANCH  43  44
ATOM     44  C   UNK d   0      14.060  -9.165   8.031  0.00  0.00     0.115 C 
BRANCH  44  45
ATOM     45  C   UNK d   0      14.407  -7.789   7.591  0.00  0.00     0.139 C 
ATOM     46  O   UNK d   0      13.483  -6.942   7.511  0.00  0.00    -0.650 OA
BRANCH  45  47
ATOM     47  O   UNK d   0      15.693  -7.408   7.275  0.00  0.00    -0.776 OA
ATOM     48  H   UNK d   0      16.068  -6.469   7.488  0.00  0.00     0.167 HD
ENDBRANCH  45  47
ENDBRANCH  44  45
ENDBRANCH  43  44
ENDBRANCH  27  43
BRANCH  24  49
ATOM     49  C   UNK d   0      14.413  -7.322   2.506  0.00  0.00     0.052 C 
BRANCH  49  50
ATOM     50  C   UNK d   0      13.044  -6.762   2.796  0.00  0.00     0.115 C 
BRANCH  50  51
ATOM     51  C   UNK d   0      12.790  -6.298   4.154  0.00  0.00     0.139 C 
ATOM     52  O   UNK d   0      13.154  -5.170   4.562  0.00  0.00    -0.650 OA
BRANCH  51  53
ATOM     53  O   UNK d   0      12.122  -7.122   5.047  0.00  0.00    -0.776 OA
ATOM     54  H   UNK d   0      11.292  -7.592   4.730  0.00  0.00     0.167 HD
ENDBRANCH  51  53
ENDBRANCH  50  51
ENDBRANCH  49  50
ENDBRANCH  24  49
BRANCH  21  55
ATOM     55  C   UNK d   0      14.887  -8.591  -0.271  0.00  0.00     0.151 C 
BRANCH  55  56
ATOM     56  C   UNK d   0      13.700  -8.313  -1.094  0.00  0.00     0.143 C 
ATOM     57  O   UNK d   0      13.772  -7.823  -2.238  0.00  0.00    -0.650 OA
BRANCH  56  58
ATOM     58  O   UNK d   0      12.451  -8.618  -0.555  0.00  0.00    -0.776 OA
ATOM     59  H   UNK d   0      11.843  -7.800  -0.373  0.00  0.00     0.167 HD
ENDBRANCH  56  58
ENDBRANCH  55  56
ENDBRANCH  21  55
BRANCH  18  60
ATOM     60  C   UNK d   0      12.897 -13.317  -1.856  0.00  0.00     0.151 C 
BRANCH  60  61
ATOM     61  C   UNK d   0      11.559 -12.739  -1.656  0.00  0.00     0.143 C 
ATOM     62  O   UNK d   0      10.479 -13.326  -1.729  0.00  0.00    -0.650 OA
BRANCH  61  63
ATOM     63  O   UNK d   0      11.540 -11.357  -1.348  0.00  0.00    -0.776 OA
ATOM     64  H   UNK d   0      11.803 -11.026  -0.437  0.00  0.00     0.167 HD
ENDBRANCH  61  63
ENDBRANCH  60  61
ENDBRANCH  18  60
BRANCH  14  65
ATOM     65  C   UNK d   0      12.448 -16.137  -0.829  0.00  0.00     0.052 C 
BRANCH  65  66
ATOM     66  C   UNK d   0      11.090 -16.497  -0.339  0.00  0.00     0.115 C 
BRANCH  66  67
ATOM     67  C   UNK d   0      10.802 -17.856   0.022  0.00  0.00     0.139 C 
ATOM     68  O   UNK d   0       9.591 -18.275  -0.084  0.00  0.00    -0.650 OA
BRANCH  67  69
ATOM     69  O   UNK d   0      11.691 -18.822   0.491  0.00  0.00    -0.776 OA
ATOM     70  H   UNK d   0      11.871 -19.612  -0.144  0.00  0.00     0.167 HD
ENDBRANCH  67  69
ENDBRANCH  66  67
ENDBRANCH  65  66
ENDBRANCH  14  65
ENDBRANCH   6   7
ENDBRANCH   5   6
ENDBRANCH   2   5
TORSDOF 28
ENDMDL
MODEL 6
REMARK VINA RESULT:      -5.8     39.103     43.436
REMARK  28 active torsions:
REMARK  status: ('A' for Active; 'I' for Inactive)
REMARK    1  A    between atoms: C_2  and  O_3 
REMARK    2  A    between atoms: C_2  and  C_4 
REMARK    3  A    between atoms: C_4  and  C_5 
REMARK    4  A    between atoms: C_5  and  C_6 
REMARK    5  A    between atoms: C_7  and  C_8 
REMARK    6  A    between atoms: C_8  and  C_9 
REMARK    7  A    between atoms: C_9  and  O_11 
REMARK    8  A    between atoms: C_28  and  C_29 
REMARK    9  A    between atoms: C_29  and  C_30 
REMARK   10  A    between atoms: C_30  and  O_32 
REMARK   11  A    between atoms: C_33  and  C_34 
REMARK   12  A    between atoms: C_34  and  C_35 
REMARK   13  A    between atoms: C_35  and  C_36 
REMARK   14  A    between atoms: C_36  and  O_38 
REMARK   15  A    between atoms: C_39  and  C_40 
REMARK   16  A    between atoms: C_40  and  C_41 
REMARK   17  A    between atoms: C_41  and  C_42 
REMARK   18  A    between atoms: C_42  and  O_44 
REMARK   19  A    between atoms: C_45  and  C_46 
REMARK   20  A    between atoms: C_46  and  C_47 
REMARK   21  A    between atoms: C_47  and  O_49 
REMARK   22  A    between atoms: C_50  and  C_51 
REMARK   23  A    between atoms: C_51  and  C_52 
REMARK   24  A    between atoms: C_52  and  O_54 
REMARK   25  A    between atoms: C_55  and  C_56 
REMARK   26  A    between atoms: C_56  and  C_57 
REMARK   27  A    between atoms: C_57  and  C_58 
REMARK   28  A    between atoms: C_58  and  O_60 
ROOT
ATOM      1  O   UNK d   0     -18.457   1.567  -3.549  0.00  0.00    -0.650 OA
ATOM      2  C   UNK d   0     -17.383   0.981  -3.286  0.00  0.00     0.139 C 
ENDROOT
BRANCH   2   3
ATOM      3  O   UNK d   0     -16.381   0.960  -4.226  0.00  0.00    -0.776 OA
ATOM      4  H   UNK d   0     -16.132   1.800  -4.752  0.00  0.00     0.167 HD
ENDBRANCH   2   3
BRANCH   2   5
ATOM      5  C   UNK d   0     -17.198   0.314  -1.967  0.00  0.00     0.115 C 
BRANCH   5   6
ATOM      6  C   UNK d   0     -18.438  -0.453  -1.595  0.00  0.00     0.052 C 
BRANCH   6   7
ATOM      7  C   UNK d   0     -18.162  -1.915  -1.336  0.00  0.00    -0.020 A 
ATOM      8  C   UNK d   0     -18.384  -2.923  -2.140  0.00  0.00    -0.011 A 
ATOM      9  C   UNK d   0     -17.968  -4.136  -1.456  0.00  0.00     0.067 A 
ATOM     10  C   UNK d   0     -17.923  -5.506  -1.761  0.00  0.00     0.062 C 
ATOM     11  N   UNK d   0     -17.511  -3.774  -0.239  0.00  0.00    -0.248 NA
ATOM     12  C   UNK d   0     -17.225  -6.504  -1.073  0.00  0.00     0.041 A 
ATOM     13  N   UNK d   0     -17.081  -6.737   0.246  0.00  0.00    -0.355 N 
ATOM     14  C   UNK d   0     -16.471  -7.438  -1.808  0.00  0.00    -0.022 A 
ATOM     15  C   UNK d   0     -16.249  -7.789   0.367  0.00  0.00     0.042 A 
ATOM     16  H   UNK d   0     -17.572  -6.181   1.074  0.00  0.00     0.166 HD
ATOM     17  C   UNK d   0     -15.766  -8.444   1.517  0.00  0.00     0.062 C 
ATOM     18  C   UNK d   0     -15.846  -8.255  -0.899  0.00  0.00    -0.013 A 
ATOM     19  C   UNK d   0     -15.277  -7.901   2.677  0.00  0.00     0.067 A 
ATOM     20  N   UNK d   0     -15.448  -6.588   2.850  0.00  0.00    -0.248 NA
ATOM     21  C   UNK d   0     -14.563  -8.396   3.843  0.00  0.00    -0.011 A 
ATOM     22  C   UNK d   0     -14.896  -6.188   4.042  0.00  0.00     0.066 A 
ATOM     23  C   UNK d   0     -15.036  -4.846   4.367  0.00  0.00     0.062 C 
ATOM     24  C   UNK d   0     -14.340  -7.387   4.635  0.00  0.00    -0.020 A 
ATOM     25  C   UNK d   0     -15.752  -3.862   3.668  0.00  0.00     0.041 A 
ATOM     26  N   UNK d   0     -15.883  -3.622   2.358  0.00  0.00    -0.355 N 
ATOM     27  C   UNK d   0     -16.512  -2.928   4.406  0.00  0.00    -0.022 A 
ATOM     28  C   UNK d   0     -16.705  -2.567   2.235  0.00  0.00     0.042 A 
ATOM     29  H   UNK d   0     -15.380  -4.175   1.527  0.00  0.00     0.166 HD
ATOM     30  C   UNK d   0     -17.186  -1.900   1.098  0.00  0.00     0.062 C 
ATOM     31  C   UNK d   0     -17.119  -2.106   3.507  0.00  0.00    -0.013 A 
ATOM     32  C   UNK d   0     -17.600  -2.450  -0.105  0.00  0.00     0.066 A 
BRANCH   8  33
ATOM     33  C   UNK d   0     -18.958  -2.864  -3.497  0.00  0.00     0.151 C 
BRANCH  33  34
ATOM     34  C   UNK d   0     -17.940  -3.007  -4.553  0.00  0.00     0.143 C 
ATOM     35  O   UNK d   0     -17.578  -4.127  -4.941  0.00  0.00    -0.650 OA
BRANCH  34  36
ATOM     36  O   UNK d   0     -17.385  -1.879  -5.113  0.00  0.00    -0.776 OA
ATOM     37  H   UNK d   0     -17.376  -0.982  -4.609  0.00  0.00     0.167 HD
ENDBRANCH  34  36
ENDBRANCH  33  34
ENDBRANCH   8  33
BRANCH  31  38
ATOM     38  C   UNK d   0     -18.046  -0.958   3.833  0.00  0.00     0.151 C 
BRANCH  38  39
ATOM     39  C   UNK d   0     -17.339   0.277   4.096  0.00  0.00     0.143 C 
ATOM     40  O   UNK d   0     -17.014   1.064   3.189  0.00  0.00    -0.650 OA
BRANCH  39  41
ATOM     41  O   UNK d   0     -17.005   0.611   5.408  0.00  0.00    -0.776 OA
ATOM     42  H   UNK d   0     -16.771  -0.164   6.036  0.00  0.00     0.167 HD
ENDBRANCH  39  41
ENDBRANCH  38  39
ENDBRANCH  31  38
BRANCH  27  43
ATOM     43  C   UNK d   0     -16.675  -2.792   5.899  0.00  0.00     0.052 C 
BRANCH  43  44
ATOM     44  C   UNK d   0     -17.901  -3.467   6.423  0.00  0.00     0.115 C 
BRANCH  44  45
ATOM     45  C   UNK d   0     -17.480  -4.241   7.620  0.00  0.00     0.139 C 
ATOM     46  O   UNK d   0     -17.963  -5.389   7.783  0.00  0.00    -0.650 OA
BRANCH  45  47
ATOM     47  O   UNK d   0     -16.584  -3.754   8.548  0.00  0.00    -0.776 OA
ATOM     48  H   UNK d   0     -16.876  -3.373   9.462  0.00  0.00     0.167 HD
ENDBRANCH  45  47
ENDBRANCH  44  45
ENDBRANCH  43  44
ENDBRANCH  27  43
BRANCH  24  49
ATOM     49  C   UNK d   0     -13.676  -7.446   5.949  0.00  0.00     0.052 C 
BRANCH  49  50
ATOM     50  C   UNK d   0     -14.699  -7.577   7.048  0.00  0.00     0.115 C 
BRANCH  50  51
ATOM     51  C   UNK d   0     -14.736  -6.522   8.052  0.00  0.00     0.139 C 
ATOM     52  O   UNK d   0     -14.101  -5.449   7.928  0.00  0.00    -0.650 OA
BRANCH  51  53
ATOM     53  O   UNK d   0     -15.495  -6.693   9.199  0.00  0.00    -0.776 OA
ATOM     54  H   UNK d   0     -16.171  -5.986   9.431  0.00  0.00     0.167 HD
ENDBRANCH  51  53
ENDBRANCH  50  51
ENDBRANCH  49  50
ENDBRANCH  24  49
BRANCH  21  55
ATOM     55  C   UNK d   0     -14.182  -9.825   4.044  0.00  0.00     0.151 C 
BRANCH  55  56
ATOM     56  C   UNK d   0     -12.820 -10.106   3.565  0.00  0.00     0.143 C 
ATOM     57  O   UNK d   0     -11.851 -10.252   4.334  0.00  0.00    -0.650 OA
BRANCH  56  58
ATOM     58  O   UNK d   0     -12.625 -10.210   2.188  0.00  0.00    -0.776 OA
ATOM     59  H   UNK d   0     -12.830 -11.143   1.788  0.00  0.00     0.167 HD
ENDBRANCH  56  58
ENDBRANCH  55  56
ENDBRANCH  21  55
BRANCH  18  60
ATOM     60  C   UNK d   0     -14.926  -9.397  -1.255  0.00  0.00     0.151 C 
BRANCH  60  61
ATOM     61  C   UNK d   0     -13.580  -8.814  -1.358  0.00  0.00     0.143 C 
ATOM     62  O   UNK d   0     -13.021  -8.413  -2.380  0.00  0.00    -0.650 OA
BRANCH  61  63
ATOM     63  O   UNK d   0     -12.871  -8.714  -0.137  0.00  0.00    -0.776 OA
ATOM     64  H   UNK d   0     -12.707  -9.524   0.435  0.00  0.00     0.167 HD
ENDBRANCH  61  63
ENDBRANCH  60  61
ENDBRANCH  18  60
BRANCH  14  65
ATOM     65  C   UNK d   0     -16.377  -7.675  -3.288  0.00  0.00     0.052 C 
BRANCH  65  66
ATOM     66  C   UNK d   0     -15.475  -6.712  -3.975  0.00  0.00     0.115 C 
BRANCH  66  67
ATOM     67  C   UNK d   0     -15.007  -6.997  -5.302  0.00  0.00     0.139 C 
ATOM     68  O   UNK d   0     -15.874  -7.270  -6.213  0.00  0.00    -0.650 OA
BRANCH  67  69
ATOM     69  O   UNK d   0     -13.689  -7.021  -5.756  0.00  0.00    -0.776 OA
ATOM     70  H   UNK d   0     -13.566  -6.966  -6.777  0.00  0.00     0.167 HD
ENDBRANCH  67  69
ENDBRANCH  66  67
ENDBRANCH  65  66
ENDBRANCH  14  65
ENDBRANCH   6   7
ENDBRANCH   5   6
ENDBRANCH   2   5
TORSDOF 28
ENDMDL
MODEL 7
REMARK VINA RESULT:      -5.7     28.850     34.370
REMARK  28 active torsions:
REMARK  status: ('A' for Active; 'I' for Inactive)
REMARK    1  A    between atoms: C_2  and  O_3 
REMARK    2  A    between atoms: C_2  and  C_4 
REMARK    3  A    between atoms: C_4  and  C_5 
REMARK    4  A    between atoms: C_5  and  C_6 
REMARK    5  A    between atoms: C_7  and  C_8 
REMARK    6  A    between atoms: C_8  and  C_9 
REMARK    7  A    between atoms: C_9  and  O_11 
REMARK    8  A    between atoms: C_28  and  C_29 
REMARK    9  A    between atoms: C_29  and  C_30 
REMARK   10  A    between atoms: C_30  and  O_32 
REMARK   11  A    between atoms: C_33  and  C_34 
REMARK   12  A    between atoms: C_34  and  C_35 
REMARK   13  A    between atoms: C_35  and  C_36 
REMARK   14  A    between atoms: C_36  and  O_38 
REMARK   15  A    between atoms: C_39  and  C_40 
REMARK   16  A    between atoms: C_40  and  C_41 
REMARK   17  A    between atoms: C_41  and  C_42 
REMARK   18  A    between atoms: C_42  and  O_44 
REMARK   19  A    between atoms: C_45  and  C_46 
REMARK   20  A    between atoms: C_46  and  C_47 
REMARK   21  A    between atoms: C_47  and  O_49 
REMARK   22  A    between atoms: C_50  and  C_51 
REMARK   23  A    between atoms: C_51  and  C_52 
REMARK   24  A    between atoms: C_52  and  O_54 
REMARK   25  A    between atoms: C_55  and  C_56 
REMARK   26  A    between atoms: C_56  and  C_57 
REMARK   27  A    between atoms: C_57  and  C_58 
REMARK   28  A    between atoms: C_58  and  O_60 
ROOT
ATOM      1  O   UNK d   0      -0.152 -20.624   1.807  0.00  0.00    -0.650 OA
ATOM      2  C   UNK d   0      -0.895 -19.932   2.539  0.00  0.00     0.139 C 
ENDROOT
BRANCH   2   3
ATOM      3  O   UNK d   0      -0.514 -19.675   3.834  0.00  0.00    -0.776 OA
ATOM      4  H   UNK d   0      -0.174 -18.751   4.110  0.00  0.00     0.167 HD
ENDBRANCH   2   3
BRANCH   2   5
ATOM      5  C   UNK d   0      -2.181 -19.397   2.008  0.00  0.00     0.115 C 
BRANCH   5   6
ATOM      6  C   UNK d   0      -2.093 -19.228   0.515  0.00  0.00     0.052 C 
BRANCH   6   7
ATOM      7  C   UNK d   0      -2.197 -17.783   0.087  0.00  0.00    -0.020 A 
ATOM      8  C   UNK d   0      -3.283 -17.110  -0.194  0.00  0.00    -0.011 A 
ATOM      9  C   UNK d   0      -2.888 -15.762  -0.565  0.00  0.00     0.067 A 
ATOM     10  C   UNK d   0      -3.546 -14.581  -0.943  0.00  0.00     0.062 C 
ATOM     11  N   UNK d   0      -1.542 -15.704  -0.488  0.00  0.00    -0.248 NA
ATOM     12  C   UNK d   0      -3.009 -13.291  -0.995  0.00  0.00     0.041 A 
ATOM     13  N   UNK d   0      -1.824 -12.841  -1.450  0.00  0.00    -0.355 N 
ATOM     14  C   UNK d   0      -3.746 -12.224  -0.448  0.00  0.00    -0.022 A 
ATOM     15  C   UNK d   0      -1.787 -11.519  -1.200  0.00  0.00     0.042 A 
ATOM     16  H   UNK d   0      -1.037 -13.443  -1.957  0.00  0.00     0.166 HD
ATOM     17  C   UNK d   0      -0.785 -10.565  -1.471  0.00  0.00     0.062 C 
ATOM     18  C   UNK d   0      -2.974 -11.096  -0.571  0.00  0.00    -0.013 A 
ATOM     19  C   UNK d   0       0.569 -10.659  -1.276  0.00  0.00     0.067 A 
ATOM     20  N   UNK d   0       1.056 -11.866  -0.976  0.00  0.00    -0.248 NA
ATOM     21  C   UNK d   0       1.693  -9.737  -1.295  0.00  0.00    -0.011 A 
ATOM     22  C   UNK d   0       2.416 -11.800  -0.796  0.00  0.00     0.066 A 
ATOM     23  C   UNK d   0       3.058 -12.997  -0.515  0.00  0.00     0.062 C 
ATOM     24  C   UNK d   0       2.770 -10.411  -1.009  0.00  0.00    -0.020 A 
ATOM     25  C   UNK d   0       2.502 -14.285  -0.481  0.00  0.00     0.041 A 
ATOM     26  N   UNK d   0       1.331 -14.734  -0.014  0.00  0.00    -0.355 N 
ATOM     27  C   UNK d   0       3.241 -15.354  -1.034  0.00  0.00    -0.022 A 
ATOM     28  C   UNK d   0       1.295 -16.054  -0.255  0.00  0.00     0.042 A 
ATOM     29  H   UNK d   0       0.546 -14.130   0.504  0.00  0.00     0.166 HD
ATOM     30  C   UNK d   0       0.309 -17.016   0.017  0.00  0.00     0.062 C 
ATOM     31  C   UNK d   0       2.484 -16.477  -0.896  0.00  0.00    -0.013 A 
ATOM     32  C   UNK d   0      -1.065 -16.888  -0.101  0.00  0.00     0.066 A 
BRANCH   8  33
ATOM     33  C   UNK d   0      -4.670 -17.611  -0.154  0.00  0.00     0.151 C 
BRANCH  33  34
ATOM     34  C   UNK d   0      -5.285 -17.480   1.178  0.00  0.00     0.143 C 
ATOM     35  O   UNK d   0      -5.652 -18.481   1.811  0.00  0.00    -0.650 OA
BRANCH  34  36
ATOM     36  O   UNK d   0      -5.456 -16.229   1.724  0.00  0.00    -0.776 OA
ATOM     37  H   UNK d   0      -5.617 -15.404   1.130  0.00  0.00     0.167 HD
ENDBRANCH  34  36
ENDBRANCH  33  34
ENDBRANCH   8  33
BRANCH  31  38
ATOM     38  C   UNK d   0       2.859 -17.866  -1.356  0.00  0.00     0.151 C 
BRANCH  38  39
ATOM     39  C   UNK d   0       3.332 -18.707  -0.276  0.00  0.00     0.143 C 
ATOM     40  O   UNK d   0       2.839 -19.823  -0.036  0.00  0.00    -0.650 OA
BRANCH  39  41
ATOM     41  O   UNK d   0       4.378 -18.262   0.531  0.00  0.00    -0.776 OA
ATOM     42  H   UNK d   0       5.221 -17.929   0.053  0.00  0.00     0.167 HD
ENDBRANCH  39  41
ENDBRANCH  38  39
ENDBRANCH  31  38
BRANCH  27  43
ATOM     43  C   UNK d   0       4.608 -15.346  -1.671  0.00  0.00     0.052 C 
BRANCH  43  44
ATOM     44  C   UNK d   0       5.722 -15.287  -0.678  0.00  0.00     0.115 C 
BRANCH  44  45
ATOM     45  C   UNK d   0       6.636 -14.206  -1.129  0.00  0.00     0.139 C 
ATOM     46  O   UNK d   0       7.638 -14.526  -1.815  0.00  0.00    -0.650 OA
BRANCH  45  47
ATOM     47  O   UNK d   0       6.427 -12.877  -0.830  0.00  0.00    -0.776 OA
ATOM     48  H   UNK d   0       6.974 -12.370  -0.115  0.00  0.00     0.167 HD
ENDBRANCH  45  47
ENDBRANCH  44  45
ENDBRANCH  43  44
ENDBRANCH  27  43
BRANCH  24  49
ATOM     49  C   UNK d   0       4.141  -9.875  -0.956  0.00  0.00     0.052 C 
BRANCH  49  50
ATOM     50  C   UNK d   0       4.589  -9.720   0.474  0.00  0.00     0.115 C 
BRANCH  50  51
ATOM     51  C   UNK d   0       5.997  -9.420   0.701  0.00  0.00     0.139 C 
ATOM     52  O   UNK d   0       6.922 -10.042   0.128  0.00  0.00    -0.650 OA
BRANCH  51  53
ATOM     53  O   UNK d   0       6.349  -8.411   1.585  0.00  0.00    -0.776 OA
ATOM     54  H   UNK d   0       5.904  -8.392   2.486  0.00  0.00     0.167 HD
ENDBRANCH  51  53
ENDBRANCH  50  51
ENDBRANCH  49  50
ENDBRANCH  24  49
BRANCH  21  55
ATOM     55  C   UNK d   0       1.574  -8.281  -1.601  0.00  0.00     0.151 C 
BRANCH  55  56
ATOM     56  C   UNK d   0       1.501  -8.026  -3.047  0.00  0.00     0.143 C 
ATOM     57  O   UNK d   0       2.466  -8.211  -3.815  0.00  0.00    -0.650 OA
BRANCH  56  58
ATOM     58  O   UNK d   0       0.294  -7.557  -3.563  0.00  0.00    -0.776 OA
ATOM     59  H   UNK d   0      -0.014  -6.641  -3.190  0.00  0.00     0.167 HD
ENDBRANCH  56  58
ENDBRANCH  55  56
ENDBRANCH  21  55
BRANCH  18  60
ATOM     60  C   UNK d   0      -3.376  -9.718  -0.105  0.00  0.00     0.151 C 
BRANCH  60  61
ATOM     61  C   UNK d   0      -2.928  -9.618   1.292  0.00  0.00     0.143 C 
ATOM     62  O   UNK d   0      -1.868 -10.032   1.763  0.00  0.00    -0.650 OA
BRANCH  61  63
ATOM     63  O   UNK d   0      -3.831  -8.971   2.170  0.00  0.00    -0.776 OA
ATOM     64  H   UNK d   0      -4.126  -8.025   2.004  0.00  0.00     0.167 HD
ENDBRANCH  61  63
ENDBRANCH  60  61
ENDBRANCH  18  60
BRANCH  14  65
ATOM     65  C   UNK d   0      -5.148 -12.174   0.087  0.00  0.00     0.052 C 
BRANCH  65  66
ATOM     66  C   UNK d   0      -5.308 -12.908   1.372  0.00  0.00     0.115 C 
BRANCH  66  67
ATOM     67  C   UNK d   0      -4.243 -12.895   2.335  0.00  0.00     0.139 C 
ATOM     68  O   UNK d   0      -3.544 -13.963   2.491  0.00  0.00    -0.650 OA
BRANCH  67  69
ATOM     69  O   UNK d   0      -3.849 -11.840   3.158  0.00  0.00    -0.776 OA
ATOM     70  H   UNK d   0      -2.909 -11.460   2.978  0.00  0.00     0.167 HD
ENDBRANCH  67  69
ENDBRANCH  66  67
ENDBRANCH  65  66
ENDBRANCH  14  65
ENDBRANCH   6   7
ENDBRANCH   5   6
ENDBRANCH   2   5
TORSDOF 28
ENDMDL
MODEL 8
REMARK VINA RESULT:      -5.7      4.374     10.559
REMARK  28 active torsions:
REMARK  status: ('A' for Active; 'I' for Inactive)
REMARK    1  A    between atoms: C_2  and  O_3 
REMARK    2  A    between atoms: C_2  and  C_4 
REMARK    3  A    between atoms: C_4  and  C_5 
REMARK    4  A    between atoms: C_5  and  C_6 
REMARK    5  A    between atoms: C_7  and  C_8 
REMARK    6  A    between atoms: C_8  and  C_9 
REMARK    7  A    between atoms: C_9  and  O_11 
REMARK    8  A    between atoms: C_28  and  C_29 
REMARK    9  A    between atoms: C_29  and  C_30 
REMARK   10  A    between atoms: C_30  and  O_32 
REMARK   11  A    between atoms: C_33  and  C_34 
REMARK   12  A    between atoms: C_34  and  C_35 
REMARK   13  A    between atoms: C_35  and  C_36 
REMARK   14  A    between atoms: C_36  and  O_38 
REMARK   15  A    between atoms: C_39  and  C_40 
REMARK   16  A    between atoms: C_40  and  C_41 
REMARK   17  A    between atoms: C_41  and  C_42 
REMARK   18  A    between atoms: C_42  and  O_44 
REMARK   19  A    between atoms: C_45  and  C_46 
REMARK   20  A    between atoms: C_46  and  C_47 
REMARK   21  A    between atoms: C_47  and  O_49 
REMARK   22  A    between atoms: C_50  and  C_51 
REMARK   23  A    between atoms: C_51  and  C_52 
REMARK   24  A    between atoms: C_52  and  O_54 
REMARK   25  A    between atoms: C_55  and  C_56 
REMARK   26  A    between atoms: C_56  and  C_57 
REMARK   27  A    between atoms: C_57  and  C_58 
REMARK   28  A    between atoms: C_58  and  O_60 
ROOT
ATOM      1  O   UNK d   0      18.919   7.358 -18.803  0.00  0.00    -0.650 OA
ATOM      2  C   UNK d   0      18.401   8.423 -18.399  0.00  0.00     0.139 C 
ENDROOT
BRANCH   2   3
ATOM      3  O   UNK d   0      19.211   9.487 -18.082  0.00  0.00    -0.776 OA
ATOM      4  H   UNK d   0      19.199  10.343 -18.639  0.00  0.00     0.167 HD
ENDBRANCH   2   3
BRANCH   2   5
ATOM      5  C   UNK d   0      16.921   8.531 -18.265  0.00  0.00     0.115 C 
BRANCH   5   6
ATOM      6  C   UNK d   0      16.531   8.526 -16.811  0.00  0.00     0.052 C 
BRANCH   6   7
ATOM      7  C   UNK d   0      16.727   7.177 -16.162  0.00  0.00    -0.020 A 
ATOM      8  C   UNK d   0      17.411   6.902 -15.081  0.00  0.00    -0.011 A 
ATOM      9  C   UNK d   0      17.320   5.471 -14.848  0.00  0.00     0.067 A 
ATOM     10  C   UNK d   0      17.794   4.570 -13.881  0.00  0.00     0.062 C 
ATOM     11  N   UNK d   0      16.566   4.951 -15.839  0.00  0.00    -0.248 NA
ATOM     12  C   UNK d   0      17.369   3.254 -13.669  0.00  0.00     0.041 A 
ATOM     13  N   UNK d   0      17.089   2.262 -14.535  0.00  0.00    -0.355 N 
ATOM     14  C   UNK d   0      17.113   2.826 -12.353  0.00  0.00    -0.022 A 
ATOM     15  C   UNK d   0      16.655   1.218 -13.804  0.00  0.00     0.042 A 
ATOM     16  H   UNK d   0      17.214   2.293 -15.640  0.00  0.00     0.166 HD
ATOM     17  C   UNK d   0      16.233  -0.065 -14.206  0.00  0.00     0.062 C 
ATOM     18  C   UNK d   0      16.656   1.534 -12.432  0.00  0.00    -0.013 A 
ATOM     19  C   UNK d   0      15.398  -0.416 -15.235  0.00  0.00     0.067 A 
ATOM     20  N   UNK d   0      15.082   0.542 -16.111  0.00  0.00    -0.248 NA
ATOM     21  C   UNK d   0      14.706  -1.623 -15.654  0.00  0.00    -0.011 A 
ATOM     22  C   UNK d   0      14.233   0.049 -17.071  0.00  0.00     0.066 A 
ATOM     23  C   UNK d   0      13.852   0.932 -18.070  0.00  0.00     0.062 C 
ATOM     24  C   UNK d   0      14.022  -1.344 -16.726  0.00  0.00    -0.020 A 
ATOM     25  C   UNK d   0      14.301   2.247 -18.273  0.00  0.00     0.041 A 
ATOM     26  N   UNK d   0      14.565   3.237 -17.413  0.00  0.00    -0.355 N 
ATOM     27  C   UNK d   0      14.561   2.675 -19.593  0.00  0.00    -0.022 A 
ATOM     28  C   UNK d   0      14.989   4.283 -18.140  0.00  0.00     0.042 A 
ATOM     29  H   UNK d   0      14.429   3.208 -16.304  0.00  0.00     0.166 HD
ATOM     30  C   UNK d   0      15.403   5.568 -17.755  0.00  0.00     0.062 C 
ATOM     31  C   UNK d   0      14.998   3.961 -19.518  0.00  0.00    -0.013 A 
ATOM     32  C   UNK d   0      16.178   5.925 -16.663  0.00  0.00     0.066 A 
BRANCH   8  33
ATOM     33  C   UNK d   0      18.154   7.857 -14.238  0.00  0.00     0.151 C 
BRANCH  33  34
ATOM     34  C   UNK d   0      17.925   7.645 -12.798  0.00  0.00     0.143 C 
ATOM     35  O   UNK d   0      16.812   7.849 -12.293  0.00  0.00    -0.650 OA
BRANCH  34  36
ATOM     36  O   UNK d   0      18.964   7.215 -12.005  0.00  0.00    -0.776 OA
ATOM     37  H   UNK d   0      19.327   6.255 -12.074  0.00  0.00     0.167 HD
ENDBRANCH  34  36
ENDBRANCH  33  34
ENDBRANCH   8  33
BRANCH  31  38
ATOM     38  C   UNK d   0      15.412   4.832 -20.682  0.00  0.00     0.151 C 
BRANCH  38  39
ATOM     39  C   UNK d   0      16.806   4.671 -21.035  0.00  0.00     0.143 C 
ATOM     40  O   UNK d   0      17.166   4.154 -22.107  0.00  0.00    -0.650 OA
BRANCH  39  41
ATOM     41  O   UNK d   0      17.792   5.109 -20.151  0.00  0.00    -0.776 OA
ATOM     42  H   UNK d   0      17.550   5.896 -19.542  0.00  0.00     0.167 HD
ENDBRANCH  39  41
ENDBRANCH  38  39
ENDBRANCH  31  38
BRANCH  27  43
ATOM     43  C   UNK d   0      14.411   1.922 -20.892  0.00  0.00     0.052 C 
BRANCH  43  44
ATOM     44  C   UNK d   0      15.609   1.100 -21.240  0.00  0.00     0.115 C 
BRANCH  44  45
ATOM     45  C   UNK d   0      15.650   1.017 -22.723  0.00  0.00     0.139 C 
ATOM     46  O   UNK d   0      14.791   0.305 -23.300  0.00  0.00    -0.650 OA
BRANCH  45  47
ATOM     47  O   UNK d   0      16.582   1.689 -23.484  0.00  0.00    -0.776 OA
ATOM     48  H   UNK d   0      17.532   1.325 -23.657  0.00  0.00     0.167 HD
ENDBRANCH  45  47
ENDBRANCH  44  45
ENDBRANCH  43  44
ENDBRANCH  27  43
BRANCH  24  49
ATOM     49  C   UNK d   0      13.204  -2.288 -17.505  0.00  0.00     0.052 C 
BRANCH  49  50
ATOM     50  C   UNK d   0      11.766  -1.838 -17.532  0.00  0.00     0.115 C 
BRANCH  50  51
ATOM     51  C   UNK d   0      10.783  -2.710 -16.903  0.00  0.00     0.139 C 
ATOM     52  O   UNK d   0       9.800  -3.179 -17.523  0.00  0.00    -0.650 OA
BRANCH  51  53
ATOM     53  O   UNK d   0      10.921  -3.047 -15.565  0.00  0.00    -0.776 OA
ATOM     54  H   UNK d   0      11.121  -2.313 -14.908  0.00  0.00     0.167 HD
ENDBRANCH  51  53
ENDBRANCH  50  51
ENDBRANCH  49  50
ENDBRANCH  24  49
BRANCH  21  55
ATOM     55  C   UNK d   0      14.803  -2.932 -14.941  0.00  0.00     0.151 C 
BRANCH  55  56
ATOM     56  C   UNK d   0      14.143  -2.894 -13.628  0.00  0.00     0.143 C 
ATOM     57  O   UNK d   0      14.762  -2.681 -12.567  0.00  0.00    -0.650 OA
BRANCH  56  58
ATOM     58  O   UNK d   0      12.766  -3.109 -13.587  0.00  0.00    -0.776 OA
ATOM     59  H   UNK d   0      12.364  -3.185 -12.635  0.00  0.00     0.167 HD
ENDBRANCH  56  58
ENDBRANCH  55  56
ENDBRANCH  21  55
BRANCH  18  60
ATOM     60  C   UNK d   0      16.252   0.686 -11.251  0.00  0.00     0.151 C 
BRANCH  60  61
ATOM     61  C   UNK d   0      14.823   0.954 -11.031  0.00  0.00     0.143 C 
ATOM     62  O   UNK d   0      14.330   1.728 -10.211  0.00  0.00    -0.650 OA
BRANCH  61  63
ATOM     63  O   UNK d   0      13.939   0.230 -11.868  0.00  0.00    -0.776 OA
ATOM     64  H   UNK d   0      13.515   0.660 -12.670  0.00  0.00     0.167 HD
ENDBRANCH  61  63
ENDBRANCH  60  61
ENDBRANCH  18  60
BRANCH  14  65
ATOM     65  C   UNK d   0      17.359   3.504 -11.036  0.00  0.00     0.052 C 
BRANCH  65  66
ATOM     66  C   UNK d   0      18.656   3.118 -10.417  0.00  0.00     0.115 C 
BRANCH  66  67
ATOM     67  C   UNK d   0      19.888   3.514 -11.040  0.00  0.00     0.139 C 
ATOM     68  O   UNK d   0      20.122   4.769 -11.195  0.00  0.00    -0.650 OA
BRANCH  67  69
ATOM     69  O   UNK d   0      20.905   2.689 -11.520  0.00  0.00    -0.776 OA
ATOM     70  H   UNK d   0      21.463   3.072 -12.296  0.00  0.00     0.167 HD
ENDBRANCH  67  69
ENDBRANCH  66  67
ENDBRANCH  65  66
ENDBRANCH  14  65
ENDBRANCH   6   7
ENDBRANCH   5   6
ENDBRANCH   2   5
TORSDOF 28
ENDMDL
MODEL 9
REMARK VINA RESULT:      -5.7      4.308     12.427
REMARK  28 active torsions:
REMARK  status: ('A' for Active; 'I' for Inactive)
REMARK    1  A    between atoms: C_2  and  O_3 
REMARK    2  A    between atoms: C_2  and  C_4 
REMARK    3  A    between atoms: C_4  and  C_5 
REMARK    4  A    between atoms: C_5  and  C_6 
REMARK    5  A    between atoms: C_7  and  C_8 
REMARK    6  A    between atoms: C_8  and  C_9 
REMARK    7  A    between atoms: C_9  and  O_11 
REMARK    8  A    between atoms: C_28  and  C_29 
REMARK    9  A    between atoms: C_29  and  C_30 
REMARK   10  A    between atoms: C_30  and  O_32 
REMARK   11  A    between atoms: C_33  and  C_34 
REMARK   12  A    between atoms: C_34  and  C_35 
REMARK   13  A    between atoms: C_35  and  C_36 
REMARK   14  A    between atoms: C_36  and  O_38 
REMARK   15  A    between atoms: C_39  and  C_40 
REMARK   16  A    between atoms: C_40  and  C_41 
REMARK   17  A    between atoms: C_41  and  C_42 
REMARK   18  A    between atoms: C_42  and  O_44 
REMARK   19  A    between atoms: C_45  and  C_46 
REMARK   20  A    between atoms: C_46  and  C_47 
REMARK   21  A    between atoms: C_47  and  O_49 
REMARK   22  A    between atoms: C_50  and  C_51 
REMARK   23  A    between atoms: C_51  and  C_52 
REMARK   24  A    between atoms: C_52  and  O_54 
REMARK   25  A    between atoms: C_55  and  C_56 
REMARK   26  A    between atoms: C_56  and  C_57 
REMARK   27  A    between atoms: C_57  and  C_58 
REMARK   28  A    between atoms: C_58  and  O_60 
ROOT
ATOM      1  O   UNK d   0      18.951   6.718 -10.401  0.00  0.00    -0.650 OA
ATOM      2  C   UNK d   0      19.084   6.736 -11.645  0.00  0.00     0.139 C 
ENDROOT
BRANCH   2   3
ATOM      3  O   UNK d   0      20.265   6.309 -12.203  0.00  0.00    -0.776 OA
ATOM      4  H   UNK d   0      20.591   6.682 -13.097  0.00  0.00     0.167 HD
ENDBRANCH   2   3
BRANCH   2   5
ATOM      5  C   UNK d   0      17.969   7.218 -12.510  0.00  0.00     0.115 C 
BRANCH   5   6
ATOM      6  C   UNK d   0      18.398   7.225 -13.952  0.00  0.00     0.052 C 
BRANCH   6   7
ATOM      7  C   UNK d   0      17.498   6.388 -14.830  0.00  0.00    -0.020 A 
ATOM      8  C   UNK d   0      16.872   6.761 -15.916  0.00  0.00    -0.011 A 
ATOM      9  C   UNK d   0      16.121   5.619 -16.411  0.00  0.00     0.067 A 
ATOM     10  C   UNK d   0      15.288   5.355 -17.509  0.00  0.00     0.062 C 
ATOM     11  N   UNK d   0      16.344   4.595 -15.561  0.00  0.00    -0.248 NA
ATOM     12  C   UNK d   0      14.872   4.103 -17.975  0.00  0.00     0.041 A 
ATOM     13  N   UNK d   0      14.445   3.009 -17.316  0.00  0.00    -0.355 N 
ATOM     14  C   UNK d   0      14.930   3.837 -19.355  0.00  0.00    -0.022 A 
ATOM     15  C   UNK d   0      14.238   2.053 -18.242  0.00  0.00     0.042 A 
ATOM     16  H   UNK d   0      14.275   2.920 -16.221  0.00  0.00     0.166 HD
ATOM     17  C   UNK d   0      13.790   0.725 -18.099  0.00  0.00     0.062 C 
ATOM     18  C   UNK d   0      14.531   2.535 -19.532  0.00  0.00    -0.013 A 
ATOM     19  C   UNK d   0      14.174  -0.221 -17.183  0.00  0.00     0.067 A 
ATOM     20  N   UNK d   0      14.922   0.198 -16.159  0.00  0.00    -0.248 NA
ATOM     21  C   UNK d   0      13.987  -1.653 -17.019  0.00  0.00    -0.011 A 
ATOM     22  C   UNK d   0      15.239  -0.857 -15.338  0.00  0.00     0.066 A 
ATOM     23  C   UNK d   0      15.986  -0.556 -14.209  0.00  0.00     0.062 C 
ATOM     24  C   UNK d   0      14.617  -2.020 -15.940  0.00  0.00    -0.020 A 
ATOM     25  C   UNK d   0      16.382   0.711 -13.752  0.00  0.00     0.041 A 
ATOM     26  N   UNK d   0      16.821   1.793 -14.405  0.00  0.00    -0.355 N 
ATOM     27  C   UNK d   0      16.320   0.978 -12.367  0.00  0.00    -0.022 A 
ATOM     28  C   UNK d   0      17.037   2.745 -13.483  0.00  0.00     0.042 A 
ATOM     29  H   UNK d   0      17.002   1.878 -15.505  0.00  0.00     0.166 HD
ATOM     30  C   UNK d   0      17.491   4.067 -13.610  0.00  0.00     0.062 C 
ATOM     31  C   UNK d   0      16.731   2.263 -12.188  0.00  0.00    -0.013 A 
ATOM     32  C   UNK d   0      17.164   4.992 -14.588  0.00  0.00     0.066 A 
BRANCH   8  33
ATOM     33  C   UNK d   0      16.903   8.096 -16.541  0.00  0.00     0.151 C 
BRANCH  33  34
ATOM     34  C   UNK d   0      17.865   8.183 -17.655  0.00  0.00     0.143 C 
ATOM     35  O   UNK d   0      17.520   7.919 -18.816  0.00  0.00    -0.650 OA
BRANCH  34  36
ATOM     36  O   UNK d   0      19.163   8.559 -17.399  0.00  0.00    -0.776 OA
ATOM     37  H   UNK d   0      19.794   8.851 -18.158  0.00  0.00     0.167 HD
ENDBRANCH  34  36
ENDBRANCH  33  34
ENDBRANCH   8  33
BRANCH  31  38
ATOM     38  C   UNK d   0      16.818   2.996 -10.870  0.00  0.00     0.151 C 
BRANCH  38  39
ATOM     39  C   UNK d   0      18.132   2.916 -10.268  0.00  0.00     0.143 C 
ATOM     40  O   UNK d   0      18.859   1.914 -10.389  0.00  0.00    -0.650 OA
BRANCH  39  41
ATOM     41  O   UNK d   0      18.613   3.992  -9.523  0.00  0.00    -0.776 OA
ATOM     42  H   UNK d   0      19.517   3.865  -9.058  0.00  0.00     0.167 HD
ENDBRANCH  39  41
ENDBRANCH  38  39
ENDBRANCH  31  38
BRANCH  27  43
ATOM     43  C   UNK d   0      15.895   0.076 -11.235  0.00  0.00     0.052 C 
BRANCH  43  44
ATOM     44  C   UNK d   0      14.446   0.202 -10.891  0.00  0.00     0.115 C 
BRANCH  44  45
ATOM     45  C   UNK d   0      13.851  -1.149 -11.058  0.00  0.00     0.139 C 
ATOM     46  O   UNK d   0      14.591  -2.148 -10.879  0.00  0.00    -0.650 OA
BRANCH  45  47
ATOM     47  O   UNK d   0      12.529  -1.347 -11.392  0.00  0.00    -0.776 OA
ATOM     48  H   UNK d   0      12.236  -1.853 -12.244  0.00  0.00     0.167 HD
ENDBRANCH  45  47
ENDBRANCH  44  45
ENDBRANCH  43  44
ENDBRANCH  27  43
BRANCH  24  49
ATOM     49  C   UNK d   0      14.658  -3.381 -15.379  0.00  0.00     0.052 C 
BRANCH  49  50
ATOM     50  C   UNK d   0      13.901  -3.434 -14.077  0.00  0.00     0.115 C 
BRANCH  50  51
ATOM     51  C   UNK d   0      12.510  -3.863 -14.133  0.00  0.00     0.139 C 
ATOM     52  O   UNK d   0      12.128  -4.828 -14.835  0.00  0.00    -0.650 OA
BRANCH  51  53
ATOM     53  O   UNK d   0      11.553  -3.188 -13.390  0.00  0.00    -0.776 OA
ATOM     54  H   UNK d   0      11.499  -3.374 -12.404  0.00  0.00     0.167 HD
ENDBRANCH  51  53
ENDBRANCH  50  51
ENDBRANCH  49  50
ENDBRANCH  24  49
BRANCH  21  55
ATOM     55  C   UNK d   0      13.196  -2.505 -17.956  0.00  0.00     0.151 C 
BRANCH  55  56
ATOM     56  C   UNK d   0      11.778  -2.578 -17.570  0.00  0.00     0.143 C 
ATOM     57  O   UNK d   0      11.075  -1.565 -17.389  0.00  0.00    -0.650 OA
BRANCH  56  58
ATOM     58  O   UNK d   0      11.215  -3.842 -17.405  0.00  0.00    -0.776 OA
ATOM     59  H   UNK d   0      10.611  -4.156 -18.185  0.00  0.00     0.167 HD
ENDBRANCH  56  58
ENDBRANCH  55  56
ENDBRANCH  21  55
BRANCH  18  60
ATOM     60  C   UNK d   0      14.451   1.829 -20.863  0.00  0.00     0.151 C 
BRANCH  60  61
ATOM     61  C   UNK d   0      15.681   1.029 -20.970  0.00  0.00     0.143 C 
ATOM     62  O   UNK d   0      16.800   1.327 -20.552  0.00  0.00    -0.650 OA
BRANCH  61  63
ATOM     63  O   UNK d   0      15.534  -0.216 -21.629  0.00  0.00    -0.776 OA
ATOM     64  H   UNK d   0      16.318  -0.666 -22.068  0.00  0.00     0.167 HD
ENDBRANCH  61  63
ENDBRANCH  60  61
ENDBRANCH  18  60
BRANCH  14  65
ATOM     65  C   UNK d   0      15.235   4.740 -20.516  0.00  0.00     0.052 C 
BRANCH  65  66
ATOM     66  C   UNK d   0      16.694   4.940 -20.730  0.00  0.00     0.115 C 
BRANCH  66  67
ATOM     67  C   UNK d   0      17.307   4.469 -21.940  0.00  0.00     0.139 C 
ATOM     68  O   UNK d   0      18.473   4.913 -22.250  0.00  0.00    -0.650 OA
BRANCH  67  69
ATOM     69  O   UNK d   0      16.789   3.559 -22.861  0.00  0.00    -0.776 OA
ATOM     70  H   UNK d   0      15.993   3.895 -23.422  0.00  0.00     0.167 HD
ENDBRANCH  67  69
ENDBRANCH  66  67
ENDBRANCH  65  66
ENDBRANCH  14  65
ENDBRANCH   6   7
ENDBRANCH   5   6
ENDBRANCH   2   5
TORSDOF 28
ENDMDL
MODEL 10
REMARK VINA RESULT:      -5.7      3.336      9.405
REMARK  28 active torsions:
REMARK  status: ('A' for Active; 'I' for Inactive)
REMARK    1  A    between atoms: C_2  and  O_3 
REMARK    2  A    between atoms: C_2  and  C_4 
REMARK    3  A    between atoms: C_4  and  C_5 
REMARK    4  A    between atoms: C_5  and  C_6 
REMARK    5  A    between atoms: C_7  and  C_8 
REMARK    6  A    between atoms: C_8  and  C_9 
REMARK    7  A    between atoms: C_9  and  O_11 
REMARK    8  A    between atoms: C_28  and  C_29 
REMARK    9  A    between atoms: C_29  and  C_30 
REMARK   10  A    between atoms: C_30  and  O_32 
REMARK   11  A    between atoms: C_33  and  C_34 
REMARK   12  A    between atoms: C_34  and  C_35 
REMARK   13  A    between atoms: C_35  and  C_36 
REMARK   14  A    between atoms: C_36  and  O_38 
REMARK   15  A    between atoms: C_39  and  C_40 
REMARK   16  A    between atoms: C_40  and  C_41 
REMARK   17  A    between atoms: C_41  and  C_42 
REMARK   18  A    between atoms: C_42  and  O_44 
REMARK   19  A    between atoms: C_45  and  C_46 
REMARK   20  A    between atoms: C_46  and  C_47 
REMARK   21  A    between atoms: C_47  and  O_49 
REMARK   22  A    between atoms: C_50  and  C_51 
REMARK   23  A    between atoms: C_51  and  C_52 
REMARK   24  A    between atoms: C_52  and  O_54 
REMARK   25  A    between atoms: C_55  and  C_56 
REMARK   26  A    between atoms: C_56  and  C_57 
REMARK   27  A    between atoms: C_57  and  C_58 
REMARK   28  A    between atoms: C_58  and  O_60 
ROOT
ATOM      1  O   UNK d   0      19.045   6.436 -10.210  0.00  0.00    -0.650 OA
ATOM      2  C   UNK d   0      19.203   7.350 -11.050  0.00  0.00     0.139 C 
ENDROOT
BRANCH   2   3
ATOM      3  O   UNK d   0      19.711   8.560 -10.642  0.00  0.00    -0.776 OA
ATOM      4  H   UNK d   0      20.327   9.105 -11.248  0.00  0.00     0.167 HD
ENDBRANCH   2   3
BRANCH   2   5
ATOM      5  C   UNK d   0      18.843   7.123 -12.478  0.00  0.00     0.115 C 
BRANCH   5   6
ATOM      6  C   UNK d   0      17.490   6.472 -12.573  0.00  0.00     0.052 C 
BRANCH   6   7
ATOM      7  C   UNK d   0      17.483   5.278 -13.497  0.00  0.00    -0.020 A 
ATOM      8  C   UNK d   0      17.808   4.044 -13.209  0.00  0.00    -0.011 A 
ATOM      9  C   UNK d   0      17.655   3.249 -14.416  0.00  0.00     0.067 A 
ATOM     10  C   UNK d   0      17.815   1.900 -14.768  0.00  0.00     0.062 C 
ATOM     11  N   UNK d   0      17.240   4.082 -15.394  0.00  0.00    -0.248 NA
ATOM     12  C   UNK d   0      17.350   1.265 -15.924  0.00  0.00     0.041 A 
ATOM     13  N   UNK d   0      17.350   1.657 -17.212  0.00  0.00    -0.355 N 
ATOM     14  C   UNK d   0      16.709   0.018 -15.805  0.00  0.00    -0.022 A 
ATOM     15  C   UNK d   0      16.718   0.696 -17.912  0.00  0.00     0.042 A 
ATOM     16  H   UNK d   0      17.805   2.586 -17.622  0.00  0.00     0.166 HD
ATOM     17  C   UNK d   0      16.443   0.601 -19.291  0.00  0.00     0.062 C 
ATOM     18  C   UNK d   0      16.301  -0.348 -17.064  0.00  0.00    -0.013 A 
ATOM     19  C   UNK d   0      15.962   1.563 -20.142  0.00  0.00     0.067 A 
ATOM     20  N   UNK d   0      15.924   2.815 -19.681  0.00  0.00    -0.248 NA
ATOM     21  C   UNK d   0      15.433   1.590 -21.496  0.00  0.00    -0.011 A 
ATOM     22  C   UNK d   0      15.407   3.659 -20.633  0.00  0.00     0.066 A 
ATOM     23  C   UNK d   0      15.346   5.004 -20.298  0.00  0.00     0.062 C 
ATOM     24  C   UNK d   0      15.107   2.819 -21.776  0.00  0.00    -0.020 A 
ATOM     25  C   UNK d   0      15.830   5.623 -19.136  0.00  0.00     0.041 A 
ATOM     26  N   UNK d   0      15.817   5.240 -17.854  0.00  0.00    -0.355 N 
ATOM     27  C   UNK d   0      16.478   6.872 -19.257  0.00  0.00    -0.022 A 
ATOM     28  C   UNK d   0      16.439   6.201 -17.152  0.00  0.00     0.042 A 
ATOM     29  H   UNK d   0      15.350   4.311 -17.442  0.00  0.00     0.166 HD
ATOM     30  C   UNK d   0      16.711   6.313 -15.780  0.00  0.00     0.062 C 
ATOM     31  C   UNK d   0      16.867   7.245 -18.007  0.00  0.00    -0.013 A 
ATOM     32  C   UNK d   0      17.116   5.317 -14.905  0.00  0.00     0.066 A 
BRANCH   8  33
ATOM     33  C   UNK d   0      18.256   3.529 -11.902  0.00  0.00     0.151 C 
BRANCH  33  34
ATOM     34  C   UNK d   0      17.145   3.022 -11.077  0.00  0.00     0.143 C 
ATOM     35  O   UNK d   0      16.515   2.009 -11.411  0.00  0.00    -0.650 OA
BRANCH  34  36
ATOM     36  O   UNK d   0      16.805   3.685  -9.921  0.00  0.00    -0.776 OA
ATOM     37  H   UNK d   0      16.452   3.178  -9.098  0.00  0.00     0.167 HD
ENDBRANCH  34  36
ENDBRANCH  33  34
ENDBRANCH   8  33
BRANCH  31  38
ATOM     38  C   UNK d   0      17.611   8.508 -17.645  0.00  0.00     0.151 C 
BRANCH  38  39
ATOM     39  C   UNK d   0      19.044   8.382 -17.806  0.00  0.00     0.143 C 
ATOM     40  O   UNK d   0      19.642   7.307 -17.622  0.00  0.00    -0.650 OA
BRANCH  39  41
ATOM     41  O   UNK d   0      19.794   9.496 -18.181  0.00  0.00    -0.776 OA
ATOM     42  H   UNK d   0      19.681   9.825 -19.145  0.00  0.00     0.167 HD
ENDBRANCH  39  41
ENDBRANCH  38  39
ENDBRANCH  31  38
BRANCH  27  43
ATOM     43  C   UNK d   0      16.732   7.705 -20.489  0.00  0.00     0.052 C 
BRANCH  43  44
ATOM     44  C   UNK d   0      18.042   7.408 -21.143  0.00  0.00     0.115 C 
BRANCH  44  45
ATOM     45  C   UNK d   0      18.619   8.715 -21.551  0.00  0.00     0.139 C 
ATOM     46  O   UNK d   0      19.363   8.744 -22.562  0.00  0.00    -0.650 OA
BRANCH  45  47
ATOM     47  O   UNK d   0      18.366   9.888 -20.873  0.00  0.00    -0.776 OA
ATOM     48  H   UNK d   0      18.232   9.926 -19.849  0.00  0.00     0.167 HD
ENDBRANCH  45  47
ENDBRANCH  44  45
ENDBRANCH  43  44
ENDBRANCH  27  43
BRANCH  24  49
ATOM     49  C   UNK d   0      14.567   3.303 -23.057  0.00  0.00     0.052 C 
BRANCH  49  50
ATOM     50  C   UNK d   0      13.082   3.053 -23.129  0.00  0.00     0.115 C 
BRANCH  50  51
ATOM     51  C   UNK d   0      12.491   2.935 -24.456  0.00  0.00     0.139 C 
ATOM     52  O   UNK d   0      13.136   3.163 -25.506  0.00  0.00    -0.650 OA
BRANCH  51  53
ATOM     53  O   UNK d   0      11.163   2.559 -24.584  0.00  0.00    -0.776 OA
ATOM     54  H   UNK d   0      10.489   3.266 -24.819  0.00  0.00     0.167 HD
ENDBRANCH  51  53
ENDBRANCH  50  51
ENDBRANCH  49  50
ENDBRANCH  24  49
BRANCH  21  55
ATOM     55  C   UNK d   0      15.314   0.386 -22.370  0.00  0.00     0.151 C 
BRANCH  55  56
ATOM     56  C   UNK d   0      14.026  -0.301 -22.190  0.00  0.00     0.143 C 
ATOM     57  O   UNK d   0      13.195  -0.430 -23.110  0.00  0.00    -0.650 OA
BRANCH  56  58
ATOM     58  O   UNK d   0      13.740  -0.824 -20.929  0.00  0.00    -0.776 OA
ATOM     59  H   UNK d   0      13.290  -0.160 -20.274  0.00  0.00     0.167 HD
ENDBRANCH  56  58
ENDBRANCH  55  56
ENDBRANCH  21  55
BRANCH  18  60
ATOM     60  C   UNK d   0      15.561  -1.619 -17.397  0.00  0.00     0.151 C 
BRANCH  60  61
ATOM     61  C   UNK d   0      14.131  -1.301 -17.263  0.00  0.00     0.143 C 
ATOM     62  O   UNK d   0      13.461  -0.574 -17.997  0.00  0.00    -0.650 OA
BRANCH  61  63
ATOM     63  O   UNK d   0      13.479  -1.909 -16.163  0.00  0.00    -0.776 OA
ATOM     64  H   UNK d   0      13.966  -2.548 -15.560  0.00  0.00     0.167 HD
ENDBRANCH  61  63
ENDBRANCH  60  61
ENDBRANCH  18  60
BRANCH  14  65
ATOM     65  C   UNK d   0      16.541  -0.889 -14.619  0.00  0.00     0.052 C 
BRANCH  65  66
ATOM     66  C   UNK d   0      15.448  -0.457 -13.707  0.00  0.00     0.115 C 
BRANCH  66  67
ATOM     67  C   UNK d   0      14.803  -1.423 -12.862  0.00  0.00     0.139 C 
ATOM     68  O   UNK d   0      15.172  -1.507 -11.634  0.00  0.00    -0.650 OA
BRANCH  67  69
ATOM     69  O   UNK d   0      13.790  -2.317 -13.207  0.00  0.00    -0.776 OA
ATOM     70  H   UNK d   0      14.025  -3.316 -13.116  0.00  0.00     0.167 HD
ENDBRANCH  67  69
ENDBRANCH  66  67
ENDBRANCH  65  66
ENDBRANCH  14  65
ENDBRANCH   6   7
ENDBRANCH   5   6
ENDBRANCH   2   5
TORSDOF 28
ENDMDL
MODEL 11
REMARK VINA RESULT:      -5.7     39.816     44.016
REMARK  28 active torsions:
REMARK  status: ('A' for Active; 'I' for Inactive)
REMARK    1  A    between atoms: C_2  and  O_3 
REMARK    2  A    between atoms: C_2  and  C_4 
REMARK    3  A    between atoms: C_4  and  C_5 
REMARK    4  A    between atoms: C_5  and  C_6 
REMARK    5  A    between atoms: C_7  and  C_8 
REMARK    6  A    between atoms: C_8  and  C_9 
REMARK    7  A    between atoms: C_9  and  O_11 
REMARK    8  A    between atoms: C_28  and  C_29 
REMARK    9  A    between atoms: C_29  and  C_30 
REMARK   10  A    between atoms: C_30  and  O_32 
REMARK   11  A    between atoms: C_33  and  C_34 
REMARK   12  A    between atoms: C_34  and  C_35 
REMARK   13  A    between atoms: C_35  and  C_36 
REMARK   14  A    between atoms: C_36  and  O_38 
REMARK   15  A    between atoms: C_39  and  C_40 
REMARK   16  A    between atoms: C_40  and  C_41 
REMARK   17  A    between atoms: C_41  and  C_42 
REMARK   18  A    between atoms: C_42  and  O_44 
REMARK   19  A    between atoms: C_45  and  C_46 
REMARK   20  A    between atoms: C_46  and  C_47 
REMARK   21  A    between atoms: C_47  and  O_49 
REMARK   22  A    between atoms: C_50  and  C_51 
REMARK   23  A    between atoms: C_51  and  C_52 
REMARK   24  A    between atoms: C_52  and  O_54 
REMARK   25  A    between atoms: C_55  and  C_56 
REMARK   26  A    between atoms: C_56  and  C_57 
REMARK   27  A    between atoms: C_57  and  C_58 
REMARK   28  A    between atoms: C_58  and  O_60 
ROOT
ATOM      1  O   UNK d   0     -20.996   1.078  -2.802  0.00  0.00    -0.650 OA
ATOM      2  C   UNK d   0     -19.858   0.568  -2.704  0.00  0.00     0.139 C 
ENDROOT
BRANCH   2   3
ATOM      3  O   UNK d   0     -18.831   1.060  -3.474  0.00  0.00    -0.776 OA
ATOM      4  H   UNK d   0     -18.952   1.904  -4.038  0.00  0.00     0.167 HD
ENDBRANCH   2   3
BRANCH   2   5
ATOM      5  C   UNK d   0     -19.622  -0.562  -1.762  0.00  0.00     0.115 C 
BRANCH   5   6
ATOM      6  C   UNK d   0     -18.181  -0.990  -1.816  0.00  0.00     0.052 C 
BRANCH   6   7
ATOM      7  C   UNK d   0     -17.969  -2.387  -1.284  0.00  0.00    -0.020 A 
ATOM      8  C   UNK d   0     -18.081  -3.515  -1.937  0.00  0.00    -0.011 A 
ATOM      9  C   UNK d   0     -17.791  -4.597  -1.010  0.00  0.00     0.067 A 
ATOM     10  C   UNK d   0     -17.719  -5.997  -1.079  0.00  0.00     0.062 C 
ATOM     11  N   UNK d   0     -17.518  -4.036   0.187  0.00  0.00    -0.248 NA
ATOM     12  C   UNK d   0     -17.148  -6.863  -0.139  0.00  0.00     0.041 A 
ATOM     13  N   UNK d   0     -17.209  -6.876   1.206  0.00  0.00    -0.355 N 
ATOM     14  C   UNK d   0     -16.306  -7.895  -0.590  0.00  0.00    -0.022 A 
ATOM     15  C   UNK d   0     -16.421  -7.886   1.621  0.00  0.00     0.042 A 
ATOM     16  H   UNK d   0     -17.813  -6.198   1.848  0.00  0.00     0.166 HD
ATOM     17  C   UNK d   0     -16.128  -8.340   2.922  0.00  0.00     0.062 C 
ATOM     18  C   UNK d   0     -15.837  -8.548   0.524  0.00  0.00    -0.013 A 
ATOM     19  C   UNK d   0     -15.812  -7.610   4.040  0.00  0.00     0.067 A 
ATOM     20  N   UNK d   0     -15.989  -6.288   3.968  0.00  0.00    -0.248 NA
ATOM     21  C   UNK d   0     -15.291  -7.901   5.365  0.00  0.00    -0.011 A 
ATOM     22  C   UNK d   0     -15.619  -5.694   5.150  0.00  0.00     0.066 A 
ATOM     23  C   UNK d   0     -15.787  -4.319   5.227  0.00  0.00     0.062 C 
ATOM     24  C   UNK d   0     -15.176  -6.775   6.008  0.00  0.00    -0.020 A 
ATOM     25  C   UNK d   0     -16.374  -3.469   4.277  0.00  0.00     0.041 A 
ATOM     26  N   UNK d   0     -16.302  -3.447   2.941  0.00  0.00    -0.355 N 
ATOM     27  C   UNK d   0     -17.223  -2.436   4.730  0.00  0.00    -0.022 A 
ATOM     28  C   UNK d   0     -17.080  -2.435   2.525  0.00  0.00     0.042 A 
ATOM     29  H   UNK d   0     -15.686  -4.122   2.298  0.00  0.00     0.166 HD
ATOM     30  C   UNK d   0     -17.373  -1.967   1.235  0.00  0.00     0.062 C 
ATOM     31  C   UNK d   0     -17.675  -1.777   3.628  0.00  0.00    -0.013 A 
ATOM     32  C   UNK d   0     -17.608  -2.709   0.089  0.00  0.00     0.066 A 
BRANCH   8  33
ATOM     33  C   UNK d   0     -18.441  -3.684  -3.357  0.00  0.00     0.151 C 
BRANCH  33  34
ATOM     34  C   UNK d   0     -17.298  -3.475  -4.264  0.00  0.00     0.143 C 
ATOM     35  O   UNK d   0     -17.262  -2.498  -5.027  0.00  0.00    -0.650 OA
BRANCH  34  36
ATOM     36  O   UNK d   0     -16.261  -4.378  -4.263  0.00  0.00    -0.776 OA
ATOM     37  H   UNK d   0     -15.392  -4.194  -4.783  0.00  0.00     0.167 HD
ENDBRANCH  34  36
ENDBRANCH  33  34
ENDBRANCH   8  33
BRANCH  31  38
ATOM     38  C   UNK d   0     -18.624  -0.602   3.618  0.00  0.00     0.151 C 
BRANCH  38  39
ATOM     39  C   UNK d   0     -17.961   0.653   3.333  0.00  0.00     0.143 C 
ATOM     40  O   UNK d   0     -18.533   1.589   2.746  0.00  0.00    -0.650 OA
BRANCH  39  41
ATOM     41  O   UNK d   0     -16.635   0.833   3.726  0.00  0.00    -0.776 OA
ATOM     42  H   UNK d   0     -15.919   0.698   3.006  0.00  0.00     0.167 HD
ENDBRANCH  39  41
ENDBRANCH  38  39
ENDBRANCH  31  38
BRANCH  27  43
ATOM     43  C   UNK d   0     -17.609  -2.061   6.139  0.00  0.00     0.052 C 
BRANCH  43  44
ATOM     44  C   UNK d   0     -16.623  -1.154   6.800  0.00  0.00     0.115 C 
BRANCH  44  45
ATOM     45  C   UNK d   0     -17.304   0.154   6.983  0.00  0.00     0.139 C 
ATOM     46  O   UNK d   0     -16.636   1.200   6.794  0.00  0.00    -0.650 OA
BRANCH  45  47
ATOM     47  O   UNK d   0     -18.630   0.262   7.342  0.00  0.00    -0.776 OA
ATOM     48  H   UNK d   0     -19.051   1.146   7.671  0.00  0.00     0.167 HD
ENDBRANCH  45  47
ENDBRANCH  44  45
ENDBRANCH  43  44
ENDBRANCH  27  43
BRANCH  24  49
ATOM     49  C   UNK d   0     -14.720  -6.612   7.399  0.00  0.00     0.052 C 
BRANCH  49  50
ATOM     50  C   UNK d   0     -15.901  -6.458   8.323  0.00  0.00     0.115 C 
BRANCH  50  51
ATOM     51  C   UNK d   0     -15.888  -5.321   9.233  0.00  0.00     0.139 C 
ATOM     52  O   UNK d   0     -15.229  -5.316  10.300  0.00  0.00    -0.650 OA
BRANCH  51  53
ATOM     53  O   UNK d   0     -16.631  -4.190   8.929  0.00  0.00    -0.776 OA
ATOM     54  H   UNK d   0     -17.595  -4.165   9.208  0.00  0.00     0.167 HD
ENDBRANCH  51  53
ENDBRANCH  50  51
ENDBRANCH  49  50
ENDBRANCH  24  49
BRANCH  21  55
ATOM     55  C   UNK d   0     -14.966  -9.275   5.851  0.00  0.00     0.151 C 
BRANCH  55  56
ATOM     56  C   UNK d   0     -13.747  -9.808   5.223  0.00  0.00     0.143 C 
ATOM     57  O   UNK d   0     -13.522 -11.030   5.116  0.00  0.00    -0.650 OA
BRANCH  56  58
ATOM     58  O   UNK d   0     -12.816  -8.894   4.733  0.00  0.00    -0.776 OA
ATOM     59  H   UNK d   0     -13.160  -7.920   4.656  0.00  0.00     0.167 HD
ENDBRANCH  56  58
ENDBRANCH  55  56
ENDBRANCH  21  55
BRANCH  18  60
ATOM     60  C   UNK d   0     -14.890  -9.723   0.503  0.00  0.00     0.151 C 
BRANCH  60  61
ATOM     61  C   UNK d   0     -13.536  -9.150   0.527  0.00  0.00     0.143 C 
ATOM     62  O   UNK d   0     -12.749  -9.065  -0.417  0.00  0.00    -0.650 OA
BRANCH  61  63
ATOM     63  O   UNK d   0     -13.116  -8.649   1.782  0.00  0.00    -0.776 OA
ATOM     64  H   UNK d   0     -13.536  -8.971   2.636  0.00  0.00     0.167 HD
ENDBRANCH  61  63
ENDBRANCH  60  61
ENDBRANCH  18  60
BRANCH  14  65
ATOM     65  C   UNK d   0     -15.991  -8.369  -1.980  0.00  0.00     0.052 C 
BRANCH  65  66
ATOM     66  C   UNK d   0     -15.318  -7.333  -2.809  0.00  0.00     0.115 C 
BRANCH  66  67
ATOM     67  C   UNK d   0     -14.275  -6.531  -2.236  0.00  0.00     0.139 C 
ATOM     68  O   UNK d   0     -14.556  -5.332  -1.865  0.00  0.00    -0.650 OA
BRANCH  67  69
ATOM     69  O   UNK d   0     -12.945  -6.888  -2.018  0.00  0.00    -0.776 OA
ATOM     70  H   UNK d   0     -12.249  -6.145  -2.176  0.00  0.00     0.167 HD
ENDBRANCH  67  69
ENDBRANCH  66  67
ENDBRANCH  65  66
ENDBRANCH  14  65
ENDBRANCH   6   7
ENDBRANCH   5   6
ENDBRANCH   2   5
TORSDOF 28
ENDMDL
MODEL 12
REMARK VINA RESULT:      -5.7     26.099     32.385
REMARK  28 active torsions:
REMARK  status: ('A' for Active; 'I' for Inactive)
REMARK    1  A    between atoms: C_2  and  O_3 
REMARK    2  A    between atoms: C_2  and  C_4 
REMARK    3  A    between atoms: C_4  and  C_5 
REMARK    4  A    between atoms: C_5  and  C_6 
REMARK    5  A    between atoms: C_7  and  C_8 
REMARK    6  A    between atoms: C_8  and  C_9 
REMARK    7  A    between atoms: C_9  and  O_11 
REMARK    8  A    between atoms: C_28  and  C_29 
REMARK    9  A    between atoms: C_29  and  C_30 
REMARK   10  A    between atoms: C_30  and  O_32 
REMARK   11  A    between atoms: C_33  and  C_34 
REMARK   12  A    between atoms: C_34  and  C_35 
REMARK   13  A    between atoms: C_35  and  C_36 
REMARK   14  A    between atoms: C_36  and  O_38 
REMARK   15  A    between atoms: C_39  and  C_40 
REMARK   16  A    between atoms: C_40  and  C_41 
REMARK   17  A    between atoms: C_41  and  C_42 
REMARK   18  A    between atoms: C_42  and  O_44 
REMARK   19  A    between atoms: C_45  and  C_46 
REMARK   20  A    between atoms: C_46  and  C_47 
REMARK   21  A    between atoms: C_47  and  O_49 
REMARK   22  A    between atoms: C_50  and  C_51 
REMARK   23  A    between atoms: C_51  and  C_52 
REMARK   24  A    between atoms: C_52  and  O_54 
REMARK   25  A    between atoms: C_55  and  C_56 
REMARK   26  A    between atoms: C_56  and  C_57 
REMARK   27  A    between atoms: C_57  and  C_58 
REMARK   28  A    between atoms: C_58  and  O_60 
ROOT
ATOM      1  O   UNK d   0      12.777 -12.867  11.327  0.00  0.00    -0.650 OA
ATOM      2  C   UNK d   0      13.836 -12.279  11.014  0.00  0.00     0.139 C 
ENDROOT
BRANCH   2   3
ATOM      3  O   UNK d   0      14.842 -12.165  11.943  0.00  0.00    -0.776 OA
ATOM      4  H   UNK d   0      14.788 -12.649  12.841  0.00  0.00     0.167 HD
ENDBRANCH   2   3
BRANCH   2   5
ATOM      5  C   UNK d   0      13.999 -11.709   9.647  0.00  0.00     0.115 C 
BRANCH   5   6
ATOM      6  C   UNK d   0      12.658 -11.572   8.979  0.00  0.00     0.052 C 
BRANCH   6   7
ATOM      7  C   UNK d   0      12.771 -11.300   7.498  0.00  0.00    -0.020 A 
ATOM      8  C   UNK d   0      12.784 -10.137   6.899  0.00  0.00    -0.011 A 
ATOM      9  C   UNK d   0      12.899 -10.374   5.470  0.00  0.00     0.067 A 
ATOM     10  C   UNK d   0      12.986  -9.580   4.316  0.00  0.00     0.062 C 
ATOM     11  N   UNK d   0      12.946 -11.710   5.288  0.00  0.00    -0.248 NA
ATOM     12  C   UNK d   0      13.375  -9.986   3.035  0.00  0.00     0.041 A 
ATOM     13  N   UNK d   0      13.067 -11.086   2.322  0.00  0.00    -0.355 N 
ATOM     14  C   UNK d   0      14.288  -9.193   2.317  0.00  0.00    -0.022 A 
ATOM     15  C   UNK d   0      13.767 -11.015   1.174  0.00  0.00     0.042 A 
ATOM     16  H   UNK d   0      12.353 -11.888   2.616  0.00  0.00     0.166 HD
ATOM     17  C   UNK d   0      13.816 -11.899   0.078  0.00  0.00     0.062 C 
ATOM     18  C   UNK d   0      14.545  -9.842   1.135  0.00  0.00    -0.013 A 
ATOM     19  C   UNK d   0      13.918 -13.266   0.076  0.00  0.00     0.067 A 
ATOM     20  N   UNK d   0      13.755 -13.886   1.248  0.00  0.00    -0.248 NA
ATOM     21  C   UNK d   0      14.187 -14.293  -0.917  0.00  0.00    -0.011 A 
ATOM     22  C   UNK d   0      13.900 -15.243   1.093  0.00  0.00     0.066 A 
ATOM     23  C   UNK d   0      13.717 -16.016   2.230  0.00  0.00     0.062 C 
ATOM     24  C   UNK d   0      14.179 -15.447  -0.315  0.00  0.00    -0.020 A 
ATOM     25  C   UNK d   0      13.314 -15.590   3.505  0.00  0.00     0.041 A 
ATOM     26  N   UNK d   0      13.632 -14.504   4.220  0.00  0.00    -0.355 N 
ATOM     27  C   UNK d   0      12.394 -16.385   4.222  0.00  0.00    -0.022 A 
ATOM     28  C   UNK d   0      12.941 -14.577   5.369  0.00  0.00     0.042 A 
ATOM     29  H   UNK d   0      14.357 -13.705   3.927  0.00  0.00     0.166 HD
ATOM     30  C   UNK d   0      12.891 -13.710   6.471  0.00  0.00     0.062 C 
ATOM     31  C   UNK d   0      12.152 -15.751   5.403  0.00  0.00    -0.013 A 
ATOM     32  C   UNK d   0      12.873 -12.324   6.470  0.00  0.00     0.066 A 
BRANCH   8  33
ATOM     33  C   UNK d   0      12.692  -8.811   7.539  0.00  0.00     0.151 C 
BRANCH  33  34
ATOM     34  C   UNK d   0      13.967  -8.073   7.507  0.00  0.00     0.143 C 
ATOM     35  O   UNK d   0      13.995  -6.862   7.246  0.00  0.00    -0.650 OA
BRANCH  34  36
ATOM     36  O   UNK d   0      15.141  -8.741   7.769  0.00  0.00    -0.776 OA
ATOM     37  H   UNK d   0      15.547  -9.396   7.086  0.00  0.00     0.167 HD
ENDBRANCH  34  36
ENDBRANCH  33  34
ENDBRANCH   8  33
BRANCH  31  38
ATOM     38  C   UNK d   0      11.218 -16.222   6.493  0.00  0.00     0.151 C 
BRANCH  38  39
ATOM     39  C   UNK d   0       9.849 -15.804   6.279  0.00  0.00     0.143 C 
ATOM     40  O   UNK d   0       8.968 -16.587   5.882  0.00  0.00    -0.650 OA
BRANCH  39  41
ATOM     41  O   UNK d   0       9.490 -14.479   6.525  0.00  0.00    -0.776 OA
ATOM     42  H   UNK d   0       9.956 -14.013   7.310  0.00  0.00     0.167 HD
ENDBRANCH  39  41
ENDBRANCH  38  39
ENDBRANCH  31  38
BRANCH  27  43
ATOM     43  C   UNK d   0      11.753 -17.694   3.836  0.00  0.00     0.052 C 
BRANCH  43  44
ATOM     44  C   UNK d   0      12.493 -18.887   4.349  0.00  0.00     0.115 C 
BRANCH  44  45
ATOM     45  C   UNK d   0      11.495 -19.737   5.050  0.00  0.00     0.139 C 
ATOM     46  O   UNK d   0      10.278 -19.471   4.893  0.00  0.00    -0.650 OA
BRANCH  45  47
ATOM     47  O   UNK d   0      11.850 -20.799   5.853  0.00  0.00    -0.776 OA
ATOM     48  H   UNK d   0      12.315 -20.678   6.768  0.00  0.00     0.167 HD
ENDBRANCH  45  47
ENDBRANCH  44  45
ENDBRANCH  43  44
ENDBRANCH  27  43
BRANCH  24  49
ATOM     49  C   UNK d   0      14.370 -16.761  -0.953  0.00  0.00     0.052 C 
BRANCH  49  50
ATOM     50  C   UNK d   0      15.589 -17.445  -0.390  0.00  0.00     0.115 C 
BRANCH  50  51
ATOM     51  C   UNK d   0      16.876 -16.799  -0.611  0.00  0.00     0.139 C 
ATOM     52  O   UNK d   0      17.551 -16.977  -1.652  0.00  0.00    -0.650 OA
BRANCH  51  53
ATOM     53  O   UNK d   0      17.393 -15.952   0.356  0.00  0.00    -0.776 OA
ATOM     54  H   UNK d   0      17.915 -16.358   1.113  0.00  0.00     0.167 HD
ENDBRANCH  51  53
ENDBRANCH  50  51
ENDBRANCH  49  50
ENDBRANCH  24  49
BRANCH  21  55
ATOM     55  C   UNK d   0      14.419 -14.013  -2.365  0.00  0.00     0.151 C 
BRANCH  55  56
ATOM     56  C   UNK d   0      15.852 -13.948  -2.691  0.00  0.00     0.143 C 
ATOM     57  O   UNK d   0      16.352 -14.549  -3.662  0.00  0.00    -0.650 OA
BRANCH  56  58
ATOM     58  O   UNK d   0      16.670 -13.175  -1.869  0.00  0.00    -0.776 OA
ATOM     59  H   UNK d   0      16.307 -13.023  -0.910  0.00  0.00     0.167 HD
ENDBRANCH  56  58
ENDBRANCH  55  56
ENDBRANCH  21  55
BRANCH  18  60
ATOM     60  C   UNK d   0      15.481  -9.345   0.062  0.00  0.00     0.151 C 
BRANCH  60  61
ATOM     61  C   UNK d   0      14.691  -8.422  -0.768  0.00  0.00     0.143 C 
ATOM     62  O   UNK d   0      13.662  -8.682  -1.393  0.00  0.00    -0.650 OA
BRANCH  61  63
ATOM     63  O   UNK d   0      15.189  -7.099  -0.839  0.00  0.00    -0.776 OA
ATOM     64  H   UNK d   0      16.153  -6.896  -0.642  0.00  0.00     0.167 HD
ENDBRANCH  61  63
ENDBRANCH  60  61
ENDBRANCH  18  60
BRANCH  14  65
ATOM     65  C   UNK d   0      14.855  -7.834   2.618  0.00  0.00     0.052 C 
BRANCH  65  66
ATOM     66  C   UNK d   0      16.166  -7.892   3.318  0.00  0.00     0.115 C 
BRANCH  66  67
ATOM     67  C   UNK d   0      16.290  -7.352   4.642  0.00  0.00     0.139 C 
ATOM     68  O   UNK d   0      16.950  -8.022   5.519  0.00  0.00    -0.650 OA
BRANCH  67  69
ATOM     69  O   UNK d   0      15.772  -6.151   5.126  0.00  0.00    -0.776 OA
ATOM     70  H   UNK d   0      14.775  -6.165   5.384  0.00  0.00     0.167 HD
ENDBRANCH  67  69
ENDBRANCH  66  67
ENDBRANCH  65  66
ENDBRANCH  14  65
ENDBRANCH   6   7
ENDBRANCH   5   6
ENDBRANCH   2   5
TORSDOF 28
ENDMDL
MODEL 13
REMARK VINA RESULT:      -5.7     10.825     17.284
REMARK  28 active torsions:
REMARK  status: ('A' for Active; 'I' for Inactive)
REMARK    1  A    between atoms: C_2  and  O_3 
REMARK    2  A    between atoms: C_2  and  C_4 
REMARK    3  A    between atoms: C_4  and  C_5 
REMARK    4  A    between atoms: C_5  and  C_6 
REMARK    5  A    between atoms: C_7  and  C_8 
REMARK    6  A    between atoms: C_8  and  C_9 
REMARK    7  A    between atoms: C_9  and  O_11 
REMARK    8  A    between atoms: C_28  and  C_29 
REMARK    9  A    between atoms: C_29  and  C_30 
REMARK   10  A    between atoms: C_30  and  O_32 
REMARK   11  A    between atoms: C_33  and  C_34 
REMARK   12  A    between atoms: C_34  and  C_35 
REMARK   13  A    between atoms: C_35  and  C_36 
REMARK   14  A    between atoms: C_36  and  O_38 
REMARK   15  A    between atoms: C_39  and  C_40 
REMARK   16  A    between atoms: C_40  and  C_41 
REMARK   17  A    between atoms: C_41  and  C_42 
REMARK   18  A    between atoms: C_42  and  O_44 
REMARK   19  A    between atoms: C_45  and  C_46 
REMARK   20  A    between atoms: C_46  and  C_47 
REMARK   21  A    between atoms: C_47  and  O_49 
REMARK   22  A    between atoms: C_50  and  C_51 
REMARK   23  A    between atoms: C_51  and  C_52 
REMARK   24  A    between atoms: C_52  and  O_54 
REMARK   25  A    between atoms: C_55  and  C_56 
REMARK   26  A    between atoms: C_56  and  C_57 
REMARK   27  A    between atoms: C_57  and  C_58 
REMARK   28  A    between atoms: C_58  and  O_60 
ROOT
ATOM      1  O   UNK d   0      14.396   0.205 -12.012  0.00  0.00    -0.650 OA
ATOM      2  C   UNK d   0      15.100   0.698 -12.921  0.00  0.00     0.139 C 
ENDROOT
BRANCH   2   3
ATOM      3  O   UNK d   0      14.530   0.970 -14.142  0.00  0.00    -0.776 OA
ATOM      4  H   UNK d   0      14.099   1.877 -14.332  0.00  0.00     0.167 HD
ENDBRANCH   2   3
BRANCH   2   5
ATOM      5  C   UNK d   0      16.542   0.985 -12.678  0.00  0.00     0.115 C 
BRANCH   5   6
ATOM      6  C   UNK d   0      16.728   2.432 -12.310  0.00  0.00     0.052 C 
BRANCH   6   7
ATOM      7  C   UNK d   0      17.241   2.612 -10.901  0.00  0.00    -0.020 A 
ATOM      8  C   UNK d   0      18.481   2.775 -10.518  0.00  0.00    -0.011 A 
ATOM      9  C   UNK d   0      18.487   2.897  -9.070  0.00  0.00     0.067 A 
ATOM     10  C   UNK d   0      19.456   3.103  -8.075  0.00  0.00     0.062 C 
ATOM     11  N   UNK d   0      17.208   2.790  -8.654  0.00  0.00    -0.248 NA
ATOM     12  C   UNK d   0      19.237   3.473  -6.744  0.00  0.00     0.041 A 
ATOM     13  N   UNK d   0      18.325   3.055  -5.846  0.00  0.00    -0.355 N 
ATOM     14  C   UNK d   0      20.030   4.490  -6.181  0.00  0.00    -0.022 A 
ATOM     15  C   UNK d   0      18.513   3.786  -4.731  0.00  0.00     0.042 A 
ATOM     16  H   UNK d   0      17.576   2.246  -5.991  0.00  0.00     0.166 HD
ATOM     17  C   UNK d   0      17.836   3.757  -3.495  0.00  0.00     0.062 C 
ATOM     18  C   UNK d   0      19.573   4.697  -4.903  0.00  0.00    -0.013 A 
ATOM     19  C   UNK d   0      16.488   3.698  -3.251  0.00  0.00     0.067 A 
ATOM     20  N   UNK d   0      15.696   3.436  -4.294  0.00  0.00    -0.248 NA
ATOM     21  C   UNK d   0      15.628   3.869  -2.092  0.00  0.00    -0.011 A 
ATOM     22  C   UNK d   0      14.380   3.424  -3.901  0.00  0.00     0.066 A 
ATOM     23  C   UNK d   0      13.446   3.125  -4.882  0.00  0.00     0.062 C 
ATOM     24  C   UNK d   0      14.395   3.711  -2.480  0.00  0.00    -0.020 A 
ATOM     25  C   UNK d   0      13.687   2.743  -6.211  0.00  0.00     0.041 A 
ATOM     26  N   UNK d   0      14.584   3.169  -7.108  0.00  0.00    -0.355 N 
ATOM     27  C   UNK d   0      12.894   1.719  -6.774  0.00  0.00    -0.022 A 
ATOM     28  C   UNK d   0      14.393   2.448  -8.224  0.00  0.00     0.042 A 
ATOM     29  H   UNK d   0      15.329   3.990  -6.965  0.00  0.00     0.166 HD
ATOM     30  C   UNK d   0      15.052   2.472  -9.463  0.00  0.00     0.062 C 
ATOM     31  C   UNK d   0      13.335   1.525  -8.047  0.00  0.00    -0.013 A 
ATOM     32  C   UNK d   0      16.409   2.618  -9.707  0.00  0.00     0.066 A 
BRANCH   8  33
ATOM     33  C   UNK d   0      19.675   2.825 -11.383  0.00  0.00     0.151 C 
BRANCH  33  34
ATOM     34  C   UNK d   0      19.747   4.058 -12.186  0.00  0.00     0.143 C 
ATOM     35  O   UNK d   0      19.516   4.039 -13.404  0.00  0.00    -0.650 OA
BRANCH  34  36
ATOM     36  O   UNK d   0      20.077   5.245 -11.573  0.00  0.00    -0.776 OA
ATOM     37  H   UNK d   0      19.354   5.859 -11.174  0.00  0.00     0.167 HD
ENDBRANCH  34  36
ENDBRANCH  33  34
ENDBRANCH   8  33
BRANCH  31  38
ATOM     38  C   UNK d   0      12.794   0.517  -9.033  0.00  0.00     0.151 C 
BRANCH  38  39
ATOM     39  C   UNK d   0      11.724   1.048  -9.850  0.00  0.00     0.143 C 
ATOM     40  O   UNK d   0      10.526   0.932  -9.536  0.00  0.00    -0.650 OA
BRANCH  39  41
ATOM     41  O   UNK d   0      12.032   1.718 -11.034  0.00  0.00    -0.776 OA
ATOM     42  H   UNK d   0      11.662   1.316 -11.901  0.00  0.00     0.167 HD
ENDBRANCH  39  41
ENDBRANCH  38  39
ENDBRANCH  31  38
BRANCH  27  43
ATOM     43  C   UNK d   0      11.759   0.939  -6.159  0.00  0.00     0.052 C 
BRANCH  43  44
ATOM     44  C   UNK d   0      10.485   1.716  -6.075  0.00  0.00     0.115 C 
BRANCH  44  45
ATOM     45  C   UNK d   0       9.380   0.741  -6.263  0.00  0.00     0.139 C 
ATOM     46  O   UNK d   0       9.107  -0.035  -5.314  0.00  0.00    -0.650 OA
BRANCH  45  47
ATOM     47  O   UNK d   0       8.645   0.659  -7.426  0.00  0.00    -0.776 OA
ATOM     48  H   UNK d   0       8.421  -0.238  -7.886  0.00  0.00     0.167 HD
ENDBRANCH  45  47
ENDBRANCH  44  45
ENDBRANCH  43  44
ENDBRANCH  27  43
BRANCH  24  49
ATOM     49  C   UNK d   0      13.201   3.762  -1.619  0.00  0.00     0.052 C 
BRANCH  49  50
ATOM     50  C   UNK d   0      12.758   2.368  -1.254  0.00  0.00     0.115 C 
BRANCH  50  51
ATOM     51  C   UNK d   0      13.168   1.859   0.048  0.00  0.00     0.139 C 
ATOM     52  O   UNK d   0      12.725   2.324   1.125  0.00  0.00    -0.650 OA
BRANCH  51  53
ATOM     53  O   UNK d   0      14.084   0.822   0.122  0.00  0.00    -0.776 OA
ATOM     54  H   UNK d   0      14.307   0.323  -0.721  0.00  0.00     0.167 HD
ENDBRANCH  51  53
ENDBRANCH  50  51
ENDBRANCH  49  50
ENDBRANCH  24  49
BRANCH  21  55
ATOM     55  C   UNK d   0      16.128   4.167  -0.718  0.00  0.00     0.151 C 
BRANCH  55  56
ATOM     56  C   UNK d   0      15.950   5.583  -0.361  0.00  0.00     0.143 C 
ATOM     57  O   UNK d   0      14.916   6.017   0.185  0.00  0.00    -0.650 OA
BRANCH  56  58
ATOM     58  O   UNK d   0      16.991   6.462  -0.654  0.00  0.00    -0.776 OA
ATOM     59  H   UNK d   0      17.348   7.001   0.156  0.00  0.00     0.167 HD
ENDBRANCH  56  58
ENDBRANCH  55  56
ENDBRANCH  21  55
BRANCH  18  60
ATOM     60  C   UNK d   0      20.135   5.711  -3.938  0.00  0.00     0.151 C 
BRANCH  60  61
ATOM     61  C   UNK d   0      19.237   6.874  -4.005  0.00  0.00     0.143 C 
ATOM     62  O   UNK d   0      19.172   7.710  -4.907  0.00  0.00    -0.650 OA
BRANCH  61  63
ATOM     63  O   UNK d   0      18.363   7.025  -2.902  0.00  0.00    -0.776 OA
ATOM     64  H   UNK d   0      18.171   6.256  -2.284  0.00  0.00     0.167 HD
ENDBRANCH  61  63
ENDBRANCH  60  61
ENDBRANCH  18  60
BRANCH  14  65
ATOM     65  C   UNK d   0      21.236   5.205  -6.720  0.00  0.00     0.052 C 
BRANCH  65  66
ATOM     66  C   UNK d   0      20.942   6.597  -7.154  0.00  0.00     0.115 C 
BRANCH  66  67
ATOM     67  C   UNK d   0      20.769   6.886  -8.549  0.00  0.00     0.139 C 
ATOM     68  O   UNK d   0      19.734   6.414  -9.149  0.00  0.00    -0.650 OA
BRANCH  67  69
ATOM     69  O   UNK d   0      21.603   7.639  -9.375  0.00  0.00    -0.776 OA
ATOM     70  H   UNK d   0      22.595   7.360  -9.384  0.00  0.00     0.167 HD
ENDBRANCH  67  69
ENDBRANCH  66  67
ENDBRANCH  65  66
ENDBRANCH  14  65
ENDBRANCH   6   7
ENDBRANCH   5   6
ENDBRANCH   2   5
TORSDOF 28
ENDMDL
MODEL 14
REMARK VINA RESULT:      -5.6     39.718     43.513
REMARK  28 active torsions:
REMARK  status: ('A' for Active; 'I' for Inactive)
REMARK    1  A    between atoms: C_2  and  O_3 
REMARK    2  A    between atoms: C_2  and  C_4 
REMARK    3  A    between atoms: C_4  and  C_5 
REMARK    4  A    between atoms: C_5  and  C_6 
REMARK    5  A    between atoms: C_7  and  C_8 
REMARK    6  A    between atoms: C_8  and  C_9 
REMARK    7  A    between atoms: C_9  and  O_11 
REMARK    8  A    between atoms: C_28  and  C_29 
REMARK    9  A    between atoms: C_29  and  C_30 
REMARK   10  A    between atoms: C_30  and  O_32 
REMARK   11  A    between atoms: C_33  and  C_34 
REMARK   12  A    between atoms: C_34  and  C_35 
REMARK   13  A    between atoms: C_35  and  C_36 
REMARK   14  A    between atoms: C_36  and  O_38 
REMARK   15  A    between atoms: C_39  and  C_40 
REMARK   16  A    between atoms: C_40  and  C_41 
REMARK   17  A    between atoms: C_41  and  C_42 
REMARK   18  A    between atoms: C_42  and  O_44 
REMARK   19  A    between atoms: C_45  and  C_46 
REMARK   20  A    between atoms: C_46  and  C_47 
REMARK   21  A    between atoms: C_47  and  O_49 
REMARK   22  A    between atoms: C_50  and  C_51 
REMARK   23  A    between atoms: C_51  and  C_52 
REMARK   24  A    between atoms: C_52  and  O_54 
REMARK   25  A    between atoms: C_55  and  C_56 
REMARK   26  A    between atoms: C_56  and  C_57 
REMARK   27  A    between atoms: C_57  and  C_58 
REMARK   28  A    between atoms: C_58  and  O_60 
ROOT
ATOM      1  O   UNK d   0     -19.132  -1.669  -5.031  0.00  0.00    -0.650 OA
ATOM      2  C   UNK d   0     -17.970  -2.132  -5.018  0.00  0.00     0.139 C 
ENDROOT
BRANCH   2   3
ATOM      3  O   UNK d   0     -17.010  -1.564  -5.821  0.00  0.00    -0.776 OA
ATOM      4  H   UNK d   0     -16.820  -0.561  -5.788  0.00  0.00     0.167 HD
ENDBRANCH   2   3
BRANCH   2   5
ATOM      5  C   UNK d   0     -17.634  -3.287  -4.138  0.00  0.00     0.115 C 
BRANCH   5   6
ATOM      6  C   UNK d   0     -18.718  -3.491  -3.115  0.00  0.00     0.052 C 
BRANCH   6   7
ATOM      7  C   UNK d   0     -18.263  -3.162  -1.713  0.00  0.00    -0.020 A 
ATOM      8  C   UNK d   0     -18.324  -2.006  -1.104  0.00  0.00    -0.011 A 
ATOM      9  C   UNK d   0     -17.760  -2.172   0.225  0.00  0.00     0.067 A 
ATOM     10  C   UNK d   0     -17.556  -1.355   1.348  0.00  0.00     0.062 C 
ATOM     11  N   UNK d   0     -17.375  -3.461   0.339  0.00  0.00    -0.248 NA
ATOM     12  C   UNK d   0     -17.248  -1.765   2.650  0.00  0.00     0.041 A 
ATOM     13  N   UNK d   0     -16.393  -2.700   3.106  0.00  0.00    -0.355 N 
ATOM     14  C   UNK d   0     -17.945  -1.190   3.728  0.00  0.00    -0.022 A 
ATOM     15  C   UNK d   0     -16.535  -2.739   4.444  0.00  0.00     0.042 A 
ATOM     16  H   UNK d   0     -15.688  -3.307   2.495  0.00  0.00     0.166 HD
ATOM     17  C   UNK d   0     -15.885  -3.533   5.409  0.00  0.00     0.062 C 
ATOM     18  C   UNK d   0     -17.500  -1.806   4.871  0.00  0.00    -0.013 A 
ATOM     19  C   UNK d   0     -15.616  -4.877   5.381  0.00  0.00     0.067 A 
ATOM     20  N   UNK d   0     -15.808  -5.508   4.220  0.00  0.00    -0.248 NA
ATOM     21  C   UNK d   0     -15.164  -5.872   6.339  0.00  0.00    -0.011 A 
ATOM     22  C   UNK d   0     -15.514  -6.844   4.349  0.00  0.00     0.066 A 
ATOM     23  C   UNK d   0     -15.634  -7.615   3.202  0.00  0.00     0.062 C 
ATOM     24  C   UNK d   0     -15.110  -7.022   5.730  0.00  0.00    -0.020 A 
ATOM     25  C   UNK d   0     -15.932  -7.181   1.901  0.00  0.00     0.041 A 
ATOM     26  N   UNK d   0     -16.792  -6.262   1.447  0.00  0.00    -0.355 N 
ATOM     27  C   UNK d   0     -15.228  -7.756   0.820  0.00  0.00    -0.022 A 
ATOM     28  C   UNK d   0     -16.658  -6.228   0.112  0.00  0.00     0.042 A 
ATOM     29  H   UNK d   0     -17.507  -5.660   2.060  0.00  0.00     0.166 HD
ATOM     30  C   UNK d   0     -17.305  -5.450  -0.861  0.00  0.00     0.062 C 
ATOM     31  C   UNK d   0     -15.681  -7.158  -0.316  0.00  0.00    -0.013 A 
ATOM     32  C   UNK d   0     -17.651  -4.110  -0.793  0.00  0.00     0.066 A 
BRANCH   8  33
ATOM     33  C   UNK d   0     -18.860  -0.745  -1.650  0.00  0.00     0.151 C 
BRANCH  33  34
ATOM     34  C   UNK d   0     -17.802   0.221  -1.998  0.00  0.00     0.143 C 
ATOM     35  O   UNK d   0     -17.372   1.024  -1.157  0.00  0.00    -0.650 OA
BRANCH  34  36
ATOM     36  O   UNK d   0     -17.289   0.230  -3.274  0.00  0.00    -0.776 OA
ATOM     37  H   UNK d   0     -17.412   1.042  -3.894  0.00  0.00     0.167 HD
ENDBRANCH  34  36
ENDBRANCH  33  34
ENDBRANCH   8  33
BRANCH  31  38
ATOM     38  C   UNK d   0     -15.207  -7.442  -1.722  0.00  0.00     0.151 C 
BRANCH  38  39
ATOM     39  C   UNK d   0     -14.008  -6.708  -2.069  0.00  0.00     0.143 C 
ATOM     40  O   UNK d   0     -12.964  -7.276  -2.437  0.00  0.00    -0.650 OA
BRANCH  39  41
ATOM     41  O   UNK d   0     -14.010  -5.316  -1.994  0.00  0.00    -0.776 OA
ATOM     42  H   UNK d   0     -14.737  -4.826  -2.524  0.00  0.00     0.167 HD
ENDBRANCH  39  41
ENDBRANCH  38  39
ENDBRANCH  31  38
BRANCH  27  43
ATOM     43  C   UNK d   0     -14.168  -8.828   0.829  0.00  0.00     0.052 C 
BRANCH  43  44
ATOM     44  C   UNK d   0     -14.709 -10.196   0.568  0.00  0.00     0.115 C 
BRANCH  44  45
ATOM     45  C   UNK d   0     -14.527 -10.972   1.823  0.00  0.00     0.139 C 
ATOM     46  O   UNK d   0     -15.502 -11.060   2.610  0.00  0.00    -0.650 OA
BRANCH  45  47
ATOM     47  O   UNK d   0     -13.344 -11.596   2.150  0.00  0.00    -0.776 OA
ATOM     48  H   UNK d   0     -13.149 -11.969   3.094  0.00  0.00     0.167 HD
ENDBRANCH  45  47
ENDBRANCH  44  45
ENDBRANCH  43  44
ENDBRANCH  27  43
BRANCH  24  49
ATOM     49  C   UNK d   0     -14.664  -8.296   6.318  0.00  0.00     0.052 C 
BRANCH  49  50
ATOM     50  C   UNK d   0     -13.264  -8.621   5.865  0.00  0.00     0.115 C 
BRANCH  50  51
ATOM     51  C   UNK d   0     -13.079  -9.851   5.106  0.00  0.00     0.139 C 
ATOM     52  O   UNK d   0     -12.135 -10.011   4.297  0.00  0.00    -0.650 OA
BRANCH  51  53
ATOM     53  O   UNK d   0     -13.973 -10.898   5.269  0.00  0.00    -0.776 OA
ATOM     54  H   UNK d   0     -14.955 -10.700   5.196  0.00  0.00     0.167 HD
ENDBRANCH  51  53
ENDBRANCH  50  51
ENDBRANCH  49  50
ENDBRANCH  24  49
BRANCH  21  55
ATOM     55  C   UNK d   0     -14.828  -5.570   7.762  0.00  0.00     0.151 C 
BRANCH  55  56
ATOM     56  C   UNK d   0     -15.900  -5.981   8.681  0.00  0.00     0.143 C 
ATOM     57  O   UNK d   0     -17.096  -5.672   8.504  0.00  0.00    -0.650 OA
BRANCH  56  58
ATOM     58  O   UNK d   0     -15.547  -6.746   9.791  0.00  0.00    -0.776 OA
ATOM     59  H   UNK d   0     -15.647  -6.265  10.703  0.00  0.00     0.167 HD
ENDBRANCH  56  58
ENDBRANCH  55  56
ENDBRANCH  21  55
BRANCH  18  60
ATOM     60  C   UNK d   0     -17.990  -1.500   6.264  0.00  0.00     0.151 C 
BRANCH  60  61
ATOM     61  C   UNK d   0     -16.919  -0.724   6.908  0.00  0.00     0.143 C 
ATOM     62  O   UNK d   0     -16.260  -1.048   7.896  0.00  0.00    -0.650 OA
BRANCH  61  63
ATOM     63  O   UNK d   0     -16.635   0.525   6.306  0.00  0.00    -0.776 OA
ATOM     64  H   UNK d   0     -17.373   1.148   6.031  0.00  0.00     0.167 HD
ENDBRANCH  61  63
ENDBRANCH  60  61
ENDBRANCH  18  60
BRANCH  14  65
ATOM     65  C   UNK d   0     -18.918  -0.046   3.768  0.00  0.00     0.052 C 
BRANCH  65  66
ATOM     66  C   UNK d   0     -18.321   1.241   3.320  0.00  0.00     0.115 C 
BRANCH  66  67
ATOM     67  C   UNK d   0     -19.015   2.051   2.358  0.00  0.00     0.139 C 
ATOM     68  O   UNK d   0     -19.631   3.101   2.770  0.00  0.00    -0.650 OA
BRANCH  67  69
ATOM     69  O   UNK d   0     -19.116   1.843   0.983  0.00  0.00    -0.776 OA
ATOM     70  H   UNK d   0     -19.141   2.694   0.402  0.00  0.00     0.167 HD
ENDBRANCH  67  69
ENDBRANCH  66  67
ENDBRANCH  65  66
ENDBRANCH  14  65
ENDBRANCH   6   7
ENDBRANCH   5   6
ENDBRANCH   2   5
TORSDOF 28
ENDMDL
MODEL 15
REMARK VINA RESULT:      -5.6     25.995     31.658
REMARK  28 active torsions:
REMARK  status: ('A' for Active; 'I' for Inactive)
REMARK    1  A    between atoms: C_2  and  O_3 
REMARK    2  A    between atoms: C_2  and  C_4 
REMARK    3  A    between atoms: C_4  and  C_5 
REMARK    4  A    between atoms: C_5  and  C_6 
REMARK    5  A    between atoms: C_7  and  C_8 
REMARK    6  A    between atoms: C_8  and  C_9 
REMARK    7  A    between atoms: C_9  and  O_11 
REMARK    8  A    between atoms: C_28  and  C_29 
REMARK    9  A    between atoms: C_29  and  C_30 
REMARK   10  A    between atoms: C_30  and  O_32 
REMARK   11  A    between atoms: C_33  and  C_34 
REMARK   12  A    between atoms: C_34  and  C_35 
REMARK   13  A    between atoms: C_35  and  C_36 
REMARK   14  A    between atoms: C_36  and  O_38 
REMARK   15  A    between atoms: C_39  and  C_40 
REMARK   16  A    between atoms: C_40  and  C_41 
REMARK   17  A    between atoms: C_41  and  C_42 
REMARK   18  A    between atoms: C_42  and  O_44 
REMARK   19  A    between atoms: C_45  and  C_46 
REMARK   20  A    between atoms: C_46  and  C_47 
REMARK   21  A    between atoms: C_47  and  O_49 
REMARK   22  A    between atoms: C_50  and  C_51 
REMARK   23  A    between atoms: C_51  and  C_52 
REMARK   24  A    between atoms: C_52  and  O_54 
REMARK   25  A    between atoms: C_55  and  C_56 
REMARK   26  A    between atoms: C_56  and  C_57 
REMARK   27  A    between atoms: C_57  and  C_58 
REMARK   28  A    between atoms: C_58  and  O_60 
ROOT
ATOM      1  O   UNK d   0      10.841 -12.855  11.034  0.00  0.00    -0.650 OA
ATOM      2  C   UNK d   0      10.730 -12.336   9.901  0.00  0.00     0.139 C 
ENDROOT
BRANCH   2   3
ATOM      3  O   UNK d   0       9.771 -11.374   9.692  0.00  0.00    -0.776 OA
ATOM      4  H   UNK d   0       9.766 -10.508  10.234  0.00  0.00     0.167 HD
ENDBRANCH   2   3
BRANCH   2   5
ATOM      5  C   UNK d   0      11.631 -12.760   8.792  0.00  0.00     0.115 C 
BRANCH   5   6
ATOM      6  C   UNK d   0      12.733 -11.752   8.606  0.00  0.00     0.052 C 
BRANCH   6   7
ATOM      7  C   UNK d   0      12.844 -11.270   7.179  0.00  0.00    -0.020 A 
ATOM      8  C   UNK d   0      12.698 -10.047   6.736  0.00  0.00    -0.011 A 
ATOM      9  C   UNK d   0      12.887 -10.071   5.295  0.00  0.00     0.067 A 
ATOM     10  C   UNK d   0      12.884  -9.125   4.258  0.00  0.00     0.062 C 
ATOM     11  N   UNK d   0      13.138 -11.349   4.945  0.00  0.00    -0.248 NA
ATOM     12  C   UNK d   0      13.365  -9.294   2.955  0.00  0.00     0.041 A 
ATOM     13  N   UNK d   0      13.245 -10.322   2.093  0.00  0.00    -0.355 N 
ATOM     14  C   UNK d   0      14.168  -8.287   2.390  0.00  0.00    -0.022 A 
ATOM     15  C   UNK d   0      13.958  -9.995   0.998  0.00  0.00     0.042 A 
ATOM     16  H   UNK d   0      12.653 -11.250   2.247  0.00  0.00     0.166 HD
ATOM     17  C   UNK d   0      14.168 -10.707  -0.200  0.00  0.00     0.062 C 
ATOM     18  C   UNK d   0      14.551  -8.727   1.147  0.00  0.00    -0.013 A 
ATOM     19  C   UNK d   0      14.475 -12.033  -0.373  0.00  0.00     0.067 A 
ATOM     20  N   UNK d   0      14.375 -12.821   0.700  0.00  0.00    -0.248 NA
ATOM     21  C   UNK d   0      14.922 -12.866  -1.476  0.00  0.00    -0.011 A 
ATOM     22  C   UNK d   0      14.726 -14.110   0.379  0.00  0.00     0.066 A 
ATOM     23  C   UNK d   0      14.631 -15.047   1.397  0.00  0.00     0.062 C 
ATOM     24  C   UNK d   0      15.071 -14.079  -1.029  0.00  0.00    -0.020 A 
ATOM     25  C   UNK d   0      14.134 -14.859   2.696  0.00  0.00     0.041 A 
ATOM     26  N   UNK d   0      14.265 -13.844   3.559  0.00  0.00    -0.355 N 
ATOM     27  C   UNK d   0      13.324 -15.868   3.261  0.00  0.00    -0.022 A 
ATOM     28  C   UNK d   0      13.563 -14.171   4.655  0.00  0.00     0.042 A 
ATOM     29  H   UNK d   0      14.870 -12.916   3.406  0.00  0.00     0.166 HD
ATOM     30  C   UNK d   0      13.352 -13.477   5.857  0.00  0.00     0.062 C 
ATOM     31  C   UNK d   0      12.958 -15.441   4.500  0.00  0.00    -0.013 A 
ATOM     32  C   UNK d   0      13.127 -12.121   6.033  0.00  0.00     0.066 A 
BRANCH   8  33
ATOM     33  C   UNK d   0      12.391  -8.847   7.536  0.00  0.00     0.151 C 
BRANCH  33  34
ATOM     34  C   UNK d   0      13.508  -7.886   7.575  0.00  0.00     0.143 C 
ATOM     35  O   UNK d   0      13.330  -6.692   7.295  0.00  0.00    -0.650 OA
BRANCH  34  36
ATOM     36  O   UNK d   0      14.763  -8.325   7.927  0.00  0.00    -0.776 OA
ATOM     37  H   UNK d   0      14.918  -9.281   8.275  0.00  0.00     0.167 HD
ENDBRANCH  34  36
ENDBRANCH  33  34
ENDBRANCH   8  33
BRANCH  31  38
ATOM     38  C   UNK d   0      12.077 -16.185   5.476  0.00  0.00     0.151 C 
BRANCH  38  39
ATOM     39  C   UNK d   0      12.807 -17.150   6.270  0.00  0.00     0.143 C 
ATOM     40  O   UNK d   0      13.969 -16.944   6.664  0.00  0.00    -0.650 OA
BRANCH  39  41
ATOM     41  O   UNK d   0      12.200 -18.358   6.612  0.00  0.00    -0.776 OA
ATOM     42  H   UNK d   0      11.355 -18.302   7.189  0.00  0.00     0.167 HD
ENDBRANCH  39  41
ENDBRANCH  38  39
ENDBRANCH  31  38
BRANCH  27  43
ATOM     43  C   UNK d   0      12.899 -17.193   2.680  0.00  0.00     0.052 C 
BRANCH  43  44
ATOM     44  C   UNK d   0      13.853 -18.304   2.980  0.00  0.00     0.115 C 
BRANCH  44  45
ATOM     45  C   UNK d   0      13.051 -19.554   3.017  0.00  0.00     0.139 C 
ATOM     46  O   UNK d   0      12.306 -19.750   4.009  0.00  0.00    -0.650 OA
BRANCH  45  47
ATOM     47  O   UNK d   0      13.087 -20.496   2.012  0.00  0.00    -0.776 OA
ATOM     48  H   UNK d   0      13.429 -20.286   1.060  0.00  0.00     0.167 HD
ENDBRANCH  45  47
ENDBRANCH  44  45
ENDBRANCH  43  44
ENDBRANCH  27  43
BRANCH  24  49
ATOM     49  C   UNK d   0      15.475 -15.254  -1.821  0.00  0.00     0.052 C 
BRANCH  49  50
ATOM     50  C   UNK d   0      16.935 -15.556  -1.604  0.00  0.00     0.115 C 
BRANCH  50  51
ATOM     51  C   UNK d   0      17.261 -16.786  -0.894  0.00  0.00     0.139 C 
ATOM     52  O   UNK d   0      18.441 -17.145  -0.670  0.00  0.00    -0.650 OA
BRANCH  51  53
ATOM     53  O   UNK d   0      16.240 -17.608  -0.441  0.00  0.00    -0.776 OA
ATOM     54  H   UNK d   0      15.587 -17.232   0.224  0.00  0.00     0.167 HD
ENDBRANCH  51  53
ENDBRANCH  50  51
ENDBRANCH  49  50
ENDBRANCH  24  49
BRANCH  21  55
ATOM     55  C   UNK d   0      15.149 -12.364  -2.864  0.00  0.00     0.151 C 
BRANCH  55  56
ATOM     56  C   UNK d   0      16.324 -11.482  -2.945  0.00  0.00     0.143 C 
ATOM     57  O   UNK d   0      16.277 -10.340  -3.444  0.00  0.00    -0.650 OA
BRANCH  56  58
ATOM     58  O   UNK d   0      17.531 -11.960  -2.439  0.00  0.00    -0.776 OA
ATOM     59  H   UNK d   0      18.037 -12.614  -3.063  0.00  0.00     0.167 HD
ENDBRANCH  56  58
ENDBRANCH  55  56
ENDBRANCH  21  55
BRANCH  18  60
ATOM     60  C   UNK d   0      15.431  -7.959   0.192  0.00  0.00     0.151 C 
BRANCH  60  61
ATOM     61  C   UNK d   0      16.784  -8.511   0.357  0.00  0.00     0.143 C 
ATOM     62  O   UNK d   0      17.583  -8.259   1.260  0.00  0.00    -0.650 OA
BRANCH  61  63
ATOM     63  O   UNK d   0      17.187  -9.430  -0.642  0.00  0.00    -0.776 OA
ATOM     64  H   UNK d   0      17.781 -10.209  -0.421  0.00  0.00     0.167 HD
ENDBRANCH  61  63
ENDBRANCH  60  61
ENDBRANCH  18  60
BRANCH  14  65
ATOM     65  C   UNK d   0      14.515  -6.913   2.889  0.00  0.00     0.052 C 
BRANCH  65  66
ATOM     66  C   UNK d   0      15.856  -6.850   3.531  0.00  0.00     0.115 C 
BRANCH  66  67
ATOM     67  C   UNK d   0      15.991  -7.149   4.929  0.00  0.00     0.139 C 
ATOM     68  O   UNK d   0      16.153  -8.375   5.281  0.00  0.00    -0.650 OA
BRANCH  67  69
ATOM     69  O   UNK d   0      15.967  -6.255   5.999  0.00  0.00    -0.776 OA
ATOM     70  H   UNK d   0      16.830  -6.204   6.559  0.00  0.00     0.167 HD
ENDBRANCH  67  69
ENDBRANCH  66  67
ENDBRANCH  65  66
ENDBRANCH  14  65
ENDBRANCH   6   7
ENDBRANCH   5   6
ENDBRANCH   2   5
TORSDOF 28
ENDMDL
MODEL 16
REMARK VINA RESULT:      -5.6      4.227     12.321
REMARK  28 active torsions:
REMARK  status: ('A' for Active; 'I' for Inactive)
REMARK    1  A    between atoms: C_2  and  O_3 
REMARK    2  A    between atoms: C_2  and  C_4 
REMARK    3  A    between atoms: C_4  and  C_5 
REMARK    4  A    between atoms: C_5  and  C_6 
REMARK    5  A    between atoms: C_7  and  C_8 
REMARK    6  A    between atoms: C_8  and  C_9 
REMARK    7  A    between atoms: C_9  and  O_11 
REMARK    8  A    between atoms: C_28  and  C_29 
REMARK    9  A    between atoms: C_29  and  C_30 
REMARK   10  A    between atoms: C_30  and  O_32 
REMARK   11  A    between atoms: C_33  and  C_34 
REMARK   12  A    between atoms: C_34  and  C_35 
REMARK   13  A    between atoms: C_35  and  C_36 
REMARK   14  A    between atoms: C_36  and  O_38 
REMARK   15  A    between atoms: C_39  and  C_40 
REMARK   16  A    between atoms: C_40  and  C_41 
REMARK   17  A    between atoms: C_41  and  C_42 
REMARK   18  A    between atoms: C_42  and  O_44 
REMARK   19  A    between atoms: C_45  and  C_46 
REMARK   20  A    between atoms: C_46  and  C_47 
REMARK   21  A    between atoms: C_47  and  O_49 
REMARK   22  A    between atoms: C_50  and  C_51 
REMARK   23  A    between atoms: C_51  and  C_52 
REMARK   24  A    between atoms: C_52  and  O_54 
REMARK   25  A    between atoms: C_55  and  C_56 
REMARK   26  A    between atoms: C_56  and  C_57 
REMARK   27  A    between atoms: C_57  and  C_58 
REMARK   28  A    between atoms: C_58  and  O_60 
ROOT
ATOM      1  O   UNK d   0      20.092   6.722 -17.565  0.00  0.00    -0.650 OA
ATOM      2  C   UNK d   0      19.821   7.718 -16.859  0.00  0.00     0.139 C 
ENDROOT
BRANCH   2   3
ATOM      3  O   UNK d   0      19.965   8.978 -17.389  0.00  0.00    -0.776 OA
ATOM      4  H   UNK d   0      19.236   9.685 -17.273  0.00  0.00     0.167 HD
ENDBRANCH   2   3
BRANCH   2   5
ATOM      5  C   UNK d   0      19.349   7.536 -15.457  0.00  0.00     0.115 C 
BRANCH   5   6
ATOM      6  C   UNK d   0      17.875   7.823 -15.366  0.00  0.00     0.052 C 
BRANCH   6   7
ATOM      7  C   UNK d   0      17.031   6.726 -15.972  0.00  0.00    -0.020 A 
ATOM      8  C   UNK d   0      16.279   6.796 -17.040  0.00  0.00    -0.011 A 
ATOM      9  C   UNK d   0      15.653   5.497 -17.229  0.00  0.00     0.067 A 
ATOM     10  C   UNK d   0      14.781   4.920 -18.165  0.00  0.00     0.062 C 
ATOM     11  N   UNK d   0      16.077   4.699 -16.226  0.00  0.00    -0.248 NA
ATOM     12  C   UNK d   0      14.504   3.560 -18.338  0.00  0.00     0.041 A 
ATOM     13  N   UNK d   0      14.280   2.579 -17.443  0.00  0.00    -0.355 N 
ATOM     14  C   UNK d   0      14.490   3.029 -19.641  0.00  0.00    -0.022 A 
ATOM     15  C   UNK d   0      14.133   1.439 -18.143  0.00  0.00     0.042 A 
ATOM     16  H   UNK d   0      14.208   2.695 -16.339  0.00  0.00     0.166 HD
ATOM     17  C   UNK d   0      13.881   0.124 -17.704  0.00  0.00     0.062 C 
ATOM     18  C   UNK d   0      14.259   1.681 -19.525  0.00  0.00    -0.013 A 
ATOM     19  C   UNK d   0      14.459  -0.565 -16.669  0.00  0.00     0.067 A 
ATOM     20  N   UNK d   0      15.220   0.136 -15.825  0.00  0.00    -0.248 NA
ATOM     21  C   UNK d   0      14.480  -1.947 -16.216  0.00  0.00    -0.011 A 
ATOM     22  C   UNK d   0      15.739  -0.686 -14.855  0.00  0.00     0.066 A 
ATOM     23  C   UNK d   0      16.523  -0.077 -13.886  0.00  0.00     0.062 C 
ATOM     24  C   UNK d   0      15.235  -2.011 -15.157  0.00  0.00    -0.020 A 
ATOM     25  C   UNK d   0      16.778   1.293 -13.722  0.00  0.00     0.041 A 
ATOM     26  N   UNK d   0      17.015   2.265 -14.611  0.00  0.00    -0.355 N 
ATOM     27  C   UNK d   0      16.787   1.826 -12.414  0.00  0.00    -0.022 A 
ATOM     28  C   UNK d   0      17.171   3.402 -13.915  0.00  0.00     0.042 A 
ATOM     29  H   UNK d   0      17.098   2.146 -15.719  0.00  0.00     0.166 HD
ATOM     30  C   UNK d   0      17.431   4.715 -14.337  0.00  0.00     0.062 C 
ATOM     31  C   UNK d   0      17.034   3.160 -12.527  0.00  0.00    -0.013 A 
ATOM     32  C   UNK d   0      16.909   5.379 -15.436  0.00  0.00     0.066 A 
BRANCH   8  33
ATOM     33  C   UNK d   0      16.081   7.971 -17.908  0.00  0.00     0.151 C 
BRANCH  33  34
ATOM     34  C   UNK d   0      16.681   7.801 -19.244  0.00  0.00     0.143 C 
ATOM     35  O   UNK d   0      15.996   7.430 -20.207  0.00  0.00    -0.650 OA
BRANCH  34  36
ATOM     36  O   UNK d   0      18.021   8.057 -19.420  0.00  0.00    -0.776 OA
ATOM     37  H   UNK d   0      18.344   8.899 -19.916  0.00  0.00     0.167 HD
ENDBRANCH  34  36
ENDBRANCH  33  34
ENDBRANCH   8  33
BRANCH  31  38
ATOM     38  C   UNK d   0      17.122   4.149 -11.389  0.00  0.00     0.151 C 
BRANCH  38  39
ATOM     39  C   UNK d   0      18.481   4.563 -11.108  0.00  0.00     0.143 C 
ATOM     40  O   UNK d   0      19.453   3.804 -11.266  0.00  0.00    -0.650 OA
BRANCH  39  41
ATOM     41  O   UNK d   0      18.723   5.855 -10.643  0.00  0.00    -0.776 OA
ATOM     42  H   UNK d   0      18.638   6.614 -11.326  0.00  0.00     0.167 HD
ENDBRANCH  39  41
ENDBRANCH  38  39
ENDBRANCH  31  38
BRANCH  27  43
ATOM     43  C   UNK d   0      16.576   1.129 -11.094  0.00  0.00     0.052 C 
BRANCH  43  44
ATOM     44  C   UNK d   0      15.232   1.389 -10.496  0.00  0.00     0.115 C 
BRANCH  44  45
ATOM     45  C   UNK d   0      14.342   0.293 -10.961  0.00  0.00     0.139 C 
ATOM     46  O   UNK d   0      14.238  -0.731 -10.242  0.00  0.00    -0.650 OA
BRANCH  45  47
ATOM     47  O   UNK d   0      13.627   0.359 -12.138  0.00  0.00    -0.776 OA
ATOM     48  H   UNK d   0      13.942  -0.096 -13.010  0.00  0.00     0.167 HD
ENDBRANCH  45  47
ENDBRANCH  44  45
ENDBRANCH  43  44
ENDBRANCH  27  43
BRANCH  24  49
ATOM     49  C   UNK d   0      15.503  -3.216 -14.354  0.00  0.00     0.052 C 
BRANCH  49  50
ATOM     50  C   UNK d   0      14.863  -3.093 -12.994  0.00  0.00     0.115 C 
BRANCH  50  51
ATOM     51  C   UNK d   0      13.421  -3.283 -12.918  0.00  0.00     0.139 C 
ATOM     52  O   UNK d   0      12.827  -4.204 -13.528  0.00  0.00    -0.650 OA
BRANCH  51  53
ATOM     53  O   UNK d   0      12.655  -2.422 -12.148  0.00  0.00    -0.776 OA
ATOM     54  H   UNK d   0      11.941  -1.883 -12.605  0.00  0.00     0.167 HD
ENDBRANCH  51  53
ENDBRANCH  50  51
ENDBRANCH  49  50
ENDBRANCH  24  49
BRANCH  21  55
ATOM     55  C   UNK d   0      13.742  -3.057 -16.887  0.00  0.00     0.151 C 
BRANCH  55  56
ATOM     56  C   UNK d   0      12.296  -2.794 -16.957  0.00  0.00     0.143 C 
ATOM     57  O   UNK d   0      11.685  -2.663 -18.036  0.00  0.00    -0.650 OA
BRANCH  56  58
ATOM     58  O   UNK d   0      11.596  -2.690 -15.755  0.00  0.00    -0.776 OA
ATOM     59  H   UNK d   0      10.583  -2.502 -15.856  0.00  0.00     0.167 HD
ENDBRANCH  56  58
ENDBRANCH  55  56
ENDBRANCH  21  55
BRANCH  18  60
ATOM     60  C   UNK d   0      14.173   0.716 -20.681  0.00  0.00     0.151 C 
BRANCH  60  61
ATOM     61  C   UNK d   0      15.560   0.350 -21.006  0.00  0.00     0.143 C 
ATOM     62  O   UNK d   0      16.478   0.141 -20.212  0.00  0.00    -0.650 OA
BRANCH  61  63
ATOM     63  O   UNK d   0      15.844   0.231 -22.388  0.00  0.00    -0.776 OA
ATOM     64  H   UNK d   0      15.187  -0.195 -23.017  0.00  0.00     0.167 HD
ENDBRANCH  61  63
ENDBRANCH  60  61
ENDBRANCH  18  60
BRANCH  14  65
ATOM     65  C   UNK d   0      14.581   3.708 -20.978  0.00  0.00     0.052 C 
BRANCH  65  66
ATOM     66  C   UNK d   0      15.975   4.063 -21.357  0.00  0.00     0.115 C 
BRANCH  66  67
ATOM     67  C   UNK d   0      16.482   3.680 -22.645  0.00  0.00     0.139 C 
ATOM     68  O   UNK d   0      17.665   4.059 -22.976  0.00  0.00    -0.650 OA
BRANCH  67  69
ATOM     69  O   UNK d   0      15.839   2.924 -23.624  0.00  0.00    -0.776 OA
ATOM     70  H   UNK d   0      15.060   2.335 -23.296  0.00  0.00     0.167 HD
ENDBRANCH  67  69
ENDBRANCH  66  67
ENDBRANCH  65  66
ENDBRANCH  14  65
ENDBRANCH   6   7
ENDBRANCH   5   6
ENDBRANCH   2   5
TORSDOF 28
ENDMDL
MODEL 17
REMARK VINA RESULT:      -5.6     25.198     30.542
REMARK  28 active torsions:
REMARK  status: ('A' for Active; 'I' for Inactive)
REMARK    1  A    between atoms: C_2  and  O_3 
REMARK    2  A    between atoms: C_2  and  C_4 
REMARK    3  A    between atoms: C_4  and  C_5 
REMARK    4  A    between atoms: C_5  and  C_6 
REMARK    5  A    between atoms: C_7  and  C_8 
REMARK    6  A    between atoms: C_8  and  C_9 
REMARK    7  A    between atoms: C_9  and  O_11 
REMARK    8  A    between atoms: C_28  and  C_29 
REMARK    9  A    between atoms: C_29  and  C_30 
REMARK   10  A    between atoms: C_30  and  O_32 
REMARK   11  A    between atoms: C_33  and  C_34 
REMARK   12  A    between atoms: C_34  and  C_35 
REMARK   13  A    between atoms: C_35  and  C_36 
REMARK   14  A    between atoms: C_36  and  O_38 
REMARK   15  A    between atoms: C_39  and  C_40 
REMARK   16  A    between atoms: C_40  and  C_41 
REMARK   17  A    between atoms: C_41  and  C_42 
REMARK   18  A    between atoms: C_42  and  O_44 
REMARK   19  A    between atoms: C_45  and  C_46 
REMARK   20  A    between atoms: C_46  and  C_47 
REMARK   21  A    between atoms: C_47  and  O_49 
REMARK   22  A    between atoms: C_50  and  C_51 
REMARK   23  A    between atoms: C_51  and  C_52 
REMARK   24  A    between atoms: C_52  and  O_54 
REMARK   25  A    between atoms: C_55  and  C_56 
REMARK   26  A    between atoms: C_56  and  C_57 
REMARK   27  A    between atoms: C_57  and  C_58 
REMARK   28  A    between atoms: C_58  and  O_60 
ROOT
ATOM      1  O   UNK d   0      -4.691  -4.160  -1.545  0.00  0.00    -0.650 OA
ATOM      2  C   UNK d   0      -5.258  -5.126  -2.102  0.00  0.00     0.139 C 
ENDROOT
BRANCH   2   3
ATOM      3  O   UNK d   0      -5.825  -6.111  -1.329  0.00  0.00    -0.776 OA
ATOM      4  H   UNK d   0      -5.994  -5.967  -0.331  0.00  0.00     0.167 HD
ENDBRANCH   2   3
BRANCH   2   5
ATOM      5  C   UNK d   0      -5.313  -5.206  -3.589  0.00  0.00     0.115 C 
BRANCH   5   6
ATOM      6  C   UNK d   0      -5.494  -6.634  -4.025  0.00  0.00     0.052 C 
BRANCH   6   7
ATOM      7  C   UNK d   0      -4.220  -7.244  -4.560  0.00  0.00    -0.020 A 
ATOM      8  C   UNK d   0      -3.824  -7.299  -5.806  0.00  0.00    -0.011 A 
ATOM      9  C   UNK d   0      -2.543  -7.986  -5.835  0.00  0.00     0.067 A 
ATOM     10  C   UNK d   0      -1.607  -8.342  -6.819  0.00  0.00     0.062 C 
ATOM     11  N   UNK d   0      -2.238  -8.320  -4.563  0.00  0.00    -0.248 NA
ATOM     12  C   UNK d   0      -0.287  -8.760  -6.620  0.00  0.00     0.041 A 
ATOM     13  N   UNK d   0       0.248  -9.612  -5.725  0.00  0.00    -0.355 N 
ATOM     14  C   UNK d   0       0.730  -8.204  -7.416  0.00  0.00    -0.022 A 
ATOM     15  C   UNK d   0       1.579  -9.604  -5.927  0.00  0.00     0.042 A 
ATOM     16  H   UNK d   0      -0.306 -10.222  -4.977  0.00  0.00     0.166 HD
ATOM     17  C   UNK d   0       2.607 -10.310  -5.271  0.00  0.00     0.062 C 
ATOM     18  C   UNK d   0       1.919  -8.732  -6.979  0.00  0.00    -0.013 A 
ATOM     19  C   UNK d   0       2.794 -10.511  -3.927  0.00  0.00     0.067 A 
ATOM     20  N   UNK d   0       1.786 -10.173  -3.119  0.00  0.00    -0.248 NA
ATOM     21  C   UNK d   0       3.868 -11.011  -3.085  0.00  0.00    -0.011 A 
ATOM     22  C   UNK d   0       2.123 -10.415  -1.810  0.00  0.00     0.066 A 
ATOM     23  C   UNK d   0       1.147 -10.144  -0.862  0.00  0.00     0.062 C 
ATOM     24  C   UNK d   0       3.471 -10.948  -1.847  0.00  0.00    -0.020 A 
ATOM     25  C   UNK d   0      -0.177  -9.736  -1.083  0.00  0.00     0.041 A 
ATOM     26  N   UNK d   0      -0.707  -8.878  -1.963  0.00  0.00    -0.355 N 
ATOM     27  C   UNK d   0      -1.198 -10.299  -0.286  0.00  0.00    -0.022 A 
ATOM     28  C   UNK d   0      -2.034  -8.878  -1.758  0.00  0.00     0.042 A 
ATOM     29  H   UNK d   0      -0.148  -8.259  -2.706  0.00  0.00     0.166 HD
ATOM     30  C   UNK d   0      -3.067  -8.174  -2.396  0.00  0.00     0.062 C 
ATOM     31  C   UNK d   0      -2.376  -9.762  -0.707  0.00  0.00    -0.013 A 
ATOM     32  C   UNK d   0      -3.207  -7.901  -3.748  0.00  0.00     0.066 A 
BRANCH   8  33
ATOM     33  C   UNK d   0      -4.535  -6.771  -6.985  0.00  0.00     0.151 C 
BRANCH  33  34
ATOM     34  C   UNK d   0      -3.774  -5.722  -7.687  0.00  0.00     0.143 C 
ATOM     35  O   UNK d   0      -3.191  -5.965  -8.754  0.00  0.00    -0.650 OA
BRANCH  34  36
ATOM     36  O   UNK d   0      -3.710  -4.458  -7.148  0.00  0.00    -0.776 OA
ATOM     37  H   UNK d   0      -4.451  -3.766  -7.320  0.00  0.00     0.167 HD
ENDBRANCH  34  36
ENDBRANCH  33  34
ENDBRANCH   8  33
BRANCH  31  38
ATOM     38  C   UNK d   0      -3.747 -10.078  -0.155  0.00  0.00     0.151 C 
BRANCH  38  39
ATOM     39  C   UNK d   0      -4.219  -9.079   0.780  0.00  0.00     0.143 C 
ATOM     40  O   UNK d   0      -5.109  -8.261   0.488  0.00  0.00    -0.650 OA
BRANCH  39  41
ATOM     41  O   UNK d   0      -3.667  -9.022   2.059  0.00  0.00    -0.776 OA
ATOM     42  H   UNK d   0      -3.578  -9.909   2.564  0.00  0.00     0.167 HD
ENDBRANCH  39  41
ENDBRANCH  38  39
ENDBRANCH  31  38
BRANCH  27  43
ATOM     43  C   UNK d   0      -1.096 -11.303   0.835  0.00  0.00     0.052 C 
BRANCH  43  44
ATOM     44  C   UNK d   0      -1.095 -12.720   0.360  0.00  0.00     0.115 C 
BRANCH  44  45
ATOM     45  C   UNK d   0      -0.541 -13.538   1.470  0.00  0.00     0.139 C 
ATOM     46  O   UNK d   0      -1.191 -14.546   1.843  0.00  0.00    -0.650 OA
BRANCH  45  47
ATOM     47  O   UNK d   0       0.649 -13.240   2.097  0.00  0.00    -0.776 OA
ATOM     48  H   UNK d   0       1.526 -13.752   1.908  0.00  0.00     0.167 HD
ENDBRANCH  45  47
ENDBRANCH  44  45
ENDBRANCH  43  44
ENDBRANCH  27  43
BRANCH  24  49
ATOM     49  C   UNK d   0       4.233 -11.390  -0.667  0.00  0.00     0.052 C 
BRANCH  49  50
ATOM     50  C   UNK d   0       4.403 -10.251   0.305  0.00  0.00     0.115 C 
BRANCH  50  51
ATOM     51  C   UNK d   0       5.754  -9.744   0.506  0.00  0.00     0.139 C 
ATOM     52  O   UNK d   0       6.748 -10.212  -0.098  0.00  0.00    -0.650 OA
BRANCH  51  53
ATOM     53  O   UNK d   0       5.971  -8.705   1.398  0.00  0.00    -0.776 OA
ATOM     54  H   UNK d   0       6.142  -8.934   2.361  0.00  0.00     0.167 HD
ENDBRANCH  51  53
ENDBRANCH  50  51
ENDBRANCH  49  50
ENDBRANCH  24  49
BRANCH  21  55
ATOM     55  C   UNK d   0       5.178 -11.503  -3.606  0.00  0.00     0.151 C 
BRANCH  55  56
ATOM     56  C   UNK d   0       6.227 -10.476  -3.518  0.00  0.00     0.143 C 
ATOM     57  O   UNK d   0       7.442 -10.753  -3.488  0.00  0.00    -0.650 OA
BRANCH  56  58
ATOM     58  O   UNK d   0       5.827  -9.141  -3.467  0.00  0.00    -0.776 OA
ATOM     59  H   UNK d   0       5.881  -8.635  -4.369  0.00  0.00     0.167 HD
ENDBRANCH  56  58
ENDBRANCH  55  56
ENDBRANCH  21  55
BRANCH  18  60
ATOM     60  C   UNK d   0       3.275  -8.401  -7.552  0.00  0.00     0.151 C 
BRANCH  60  61
ATOM     61  C   UNK d   0       3.980  -7.642  -6.508  0.00  0.00     0.143 C 
ATOM     62  O   UNK d   0       5.055  -7.930  -5.980  0.00  0.00    -0.650 OA
BRANCH  61  63
ATOM     63  O   UNK d   0       3.332  -6.458  -6.082  0.00  0.00    -0.776 OA
ATOM     64  H   UNK d   0       3.851  -5.703  -5.668  0.00  0.00     0.167 HD
ENDBRANCH  61  63
ENDBRANCH  60  61
ENDBRANCH  18  60
BRANCH  14  65
ATOM     65  C   UNK d   0       0.655  -7.295  -8.610  0.00  0.00     0.052 C 
BRANCH  65  66
ATOM     66  C   UNK d   0       0.292  -8.010  -9.863  0.00  0.00     0.115 C 
BRANCH  66  67
ATOM     67  C   UNK d   0      -0.737  -7.479 -10.713  0.00  0.00     0.139 C 
ATOM     68  O   UNK d   0      -0.427  -6.549 -11.544  0.00  0.00    -0.650 OA
BRANCH  67  69
ATOM     69  O   UNK d   0      -2.080  -7.851 -10.760  0.00  0.00    -0.776 OA
ATOM     70  H   UNK d   0      -2.751  -7.087 -10.926  0.00  0.00     0.167 HD
ENDBRANCH  67  69
ENDBRANCH  66  67
ENDBRANCH  65  66
ENDBRANCH  14  65
ENDBRANCH   6   7
ENDBRANCH   5   6
ENDBRANCH   2   5
TORSDOF 28
ENDMDL
MODEL 18
REMARK VINA RESULT:      -5.5     25.195     30.813
REMARK  28 active torsions:
REMARK  status: ('A' for Active; 'I' for Inactive)
REMARK    1  A    between atoms: C_2  and  O_3 
REMARK    2  A    between atoms: C_2  and  C_4 
REMARK    3  A    between atoms: C_4  and  C_5 
REMARK    4  A    between atoms: C_5  and  C_6 
REMARK    5  A    between atoms: C_7  and  C_8 
REMARK    6  A    between atoms: C_8  and  C_9 
REMARK    7  A    between atoms: C_9  and  O_11 
REMARK    8  A    between atoms: C_28  and  C_29 
REMARK    9  A    between atoms: C_29  and  C_30 
REMARK   10  A    between atoms: C_30  and  O_32 
REMARK   11  A    between atoms: C_33  and  C_34 
REMARK   12  A    between atoms: C_34  and  C_35 
REMARK   13  A    between atoms: C_35  and  C_36 
REMARK   14  A    between atoms: C_36  and  O_38 
REMARK   15  A    between atoms: C_39  and  C_40 
REMARK   16  A    between atoms: C_40  and  C_41 
REMARK   17  A    between atoms: C_41  and  C_42 
REMARK   18  A    between atoms: C_42  and  O_44 
REMARK   19  A    between atoms: C_45  and  C_46 
REMARK   20  A    between atoms: C_46  and  C_47 
REMARK   21  A    between atoms: C_47  and  O_49 
REMARK   22  A    between atoms: C_50  and  C_51 
REMARK   23  A    between atoms: C_51  and  C_52 
REMARK   24  A    between atoms: C_52  and  O_54 
REMARK   25  A    between atoms: C_55  and  C_56 
REMARK   26  A    between atoms: C_56  and  C_57 
REMARK   27  A    between atoms: C_57  and  C_58 
REMARK   28  A    between atoms: C_58  and  O_60 
ROOT
ATOM      1  O   UNK d   0       2.490 -15.824   0.961  0.00  0.00    -0.650 OA
ATOM      2  C   UNK d   0       1.560 -15.031   1.233  0.00  0.00     0.139 C 
ENDROOT
BRANCH   2   3
ATOM      3  O   UNK d   0       0.990 -15.065   2.482  0.00  0.00    -0.776 OA
ATOM      4  H   UNK d   0      -0.026 -15.080   2.598  0.00  0.00     0.167 HD
ENDBRANCH   2   3
BRANCH   2   5
ATOM      5  C   UNK d   0       1.080 -14.061   0.208  0.00  0.00     0.115 C 
BRANCH   5   6
ATOM      6  C   UNK d   0       1.709 -12.713   0.436  0.00  0.00     0.052 C 
BRANCH   6   7
ATOM      7  C   UNK d   0       1.647 -11.829  -0.786  0.00  0.00    -0.020 A 
ATOM      8  C   UNK d   0       2.618 -11.544  -1.615  0.00  0.00    -0.011 A 
ATOM      9  C   UNK d   0       2.088 -10.649  -2.630  0.00  0.00     0.067 A 
ATOM     10  C   UNK d   0       2.585 -10.011  -3.778  0.00  0.00     0.062 C 
ATOM     11  N   UNK d   0       0.787 -10.437  -2.338  0.00  0.00    -0.248 NA
ATOM     12  C   UNK d   0       1.844  -9.401  -4.796  0.00  0.00     0.041 A 
ATOM     13  N   UNK d   0       0.767  -8.595  -4.747  0.00  0.00    -0.355 N 
ATOM     14  C   UNK d   0       2.183  -9.666  -6.136  0.00  0.00    -0.022 A 
ATOM     15  C   UNK d   0       0.409  -8.347  -6.022  0.00  0.00     0.042 A 
ATOM     16  H   UNK d   0       0.281  -8.193  -3.831  0.00  0.00     0.166 HD
ATOM     17  C   UNK d   0      -0.644  -7.566  -6.539  0.00  0.00     0.062 C 
ATOM     18  C   UNK d   0       1.273  -9.002  -6.920  0.00  0.00    -0.013 A 
ATOM     19  C   UNK d   0      -1.955  -7.513  -6.141  0.00  0.00     0.067 A 
ATOM     20  N   UNK d   0      -2.263  -8.122  -4.993  0.00  0.00    -0.248 NA
ATOM     21  C   UNK d   0      -3.186  -6.950  -6.670  0.00  0.00    -0.011 A 
ATOM     22  C   UNK d   0      -3.607  -7.999  -4.734  0.00  0.00     0.066 A 
ATOM     23  C   UNK d   0      -4.059  -8.556  -3.547  0.00  0.00     0.062 C 
ATOM     24  C   UNK d   0      -4.149  -7.241  -5.845  0.00  0.00    -0.020 A 
ATOM     25  C   UNK d   0      -3.297  -9.153  -2.531  0.00  0.00     0.041 A 
ATOM     26  N   UNK d   0      -2.235  -9.967  -2.580  0.00  0.00    -0.355 N 
ATOM     27  C   UNK d   0      -3.635  -8.884  -1.187  0.00  0.00    -0.022 A 
ATOM     28  C   UNK d   0      -1.882 -10.223  -1.310  0.00  0.00     0.042 A 
ATOM     29  H   UNK d   0      -1.755 -10.378  -3.501  0.00  0.00     0.166 HD
ATOM     30  C   UNK d   0      -0.843 -11.005  -0.781  0.00  0.00     0.062 C 
ATOM     31  C   UNK d   0      -2.744  -9.556  -0.408  0.00  0.00    -0.013 A 
ATOM     32  C   UNK d   0       0.460 -11.119  -1.240  0.00  0.00     0.066 A 
BRANCH   8  33
ATOM     33  C   UNK d   0       4.009 -12.028  -1.549  0.00  0.00     0.151 C 
BRANCH  33  34
ATOM     34  C   UNK d   0       4.921 -11.058  -0.915  0.00  0.00     0.143 C 
ATOM     35  O   UNK d   0       5.282 -11.199   0.262  0.00  0.00    -0.650 OA
BRANCH  34  36
ATOM     36  O   UNK d   0       5.373  -9.982  -1.643  0.00  0.00    -0.776 OA
ATOM     37  H   UNK d   0       5.362  -9.990  -2.672  0.00  0.00     0.167 HD
ENDBRANCH  34  36
ENDBRANCH  33  34
ENDBRANCH   8  33
BRANCH  31  38
ATOM     38  C   UNK d   0      -2.703  -9.556   1.103  0.00  0.00     0.151 C 
BRANCH  38  39
ATOM     39  C   UNK d   0      -3.245 -10.769   1.679  0.00  0.00     0.143 C 
ATOM     40  O   UNK d   0      -4.418 -11.132   1.484  0.00  0.00    -0.650 OA
BRANCH  39  41
ATOM     41  O   UNK d   0      -2.433 -11.569   2.482  0.00  0.00    -0.776 OA
ATOM     42  H   UNK d   0      -2.908 -12.230   3.105  0.00  0.00     0.167 HD
ENDBRANCH  39  41
ENDBRANCH  38  39
ENDBRANCH  31  38
BRANCH  27  43
ATOM     43  C   UNK d   0      -4.749  -8.032  -0.631  0.00  0.00     0.052 C 
BRANCH  43  44
ATOM     44  C   UNK d   0      -4.426  -6.573  -0.616  0.00  0.00     0.115 C 
BRANCH  44  45
ATOM     45  C   UNK d   0      -5.568  -5.880  -1.268  0.00  0.00     0.139 C 
ATOM     46  O   UNK d   0      -6.440  -6.582  -1.837  0.00  0.00    -0.650 OA
BRANCH  45  47
ATOM     47  O   UNK d   0      -5.708  -4.509  -1.267  0.00  0.00    -0.776 OA
ATOM     48  H   UNK d   0      -4.999  -3.873  -0.868  0.00  0.00     0.167 HD
ENDBRANCH  45  47
ENDBRANCH  44  45
ENDBRANCH  43  44
ENDBRANCH  27  43
BRANCH  24  49
ATOM     49  C   UNK d   0      -5.558  -6.832  -5.975  0.00  0.00     0.052 C 
BRANCH  49  50
ATOM     50  C   UNK d   0      -5.807  -5.557  -5.212  0.00  0.00     0.115 C 
BRANCH  50  51
ATOM     51  C   UNK d   0      -6.440  -4.462  -5.934  0.00  0.00     0.139 C 
ATOM     52  O   UNK d   0      -7.261  -3.682  -5.397  0.00  0.00    -0.650 OA
BRANCH  51  53
ATOM     53  O   UNK d   0      -6.138  -4.258  -7.272  0.00  0.00    -0.776 OA
ATOM     54  H   UNK d   0      -6.119  -3.314  -7.617  0.00  0.00     0.167 HD
ENDBRANCH  51  53
ENDBRANCH  50  51
ENDBRANCH  49  50
ENDBRANCH  24  49
BRANCH  21  55
ATOM     55  C   UNK d   0      -3.270  -6.176  -7.944  0.00  0.00     0.151 C 
BRANCH  55  56
ATOM     56  C   UNK d   0      -2.777  -6.950  -9.094  0.00  0.00     0.143 C 
ATOM     57  O   UNK d   0      -3.290  -8.029  -9.450  0.00  0.00    -0.650 OA
BRANCH  56  58
ATOM     58  O   UNK d   0      -1.690  -6.441  -9.802  0.00  0.00    -0.776 OA
ATOM     59  H   UNK d   0      -0.764  -6.765  -9.472  0.00  0.00     0.167 HD
ENDBRANCH  56  58
ENDBRANCH  55  56
ENDBRANCH  21  55
BRANCH  18  60
ATOM     60  C   UNK d   0       1.258  -9.017  -8.429  0.00  0.00     0.151 C 
BRANCH  60  61
ATOM     61  C   UNK d   0       1.696  -7.677  -8.850  0.00  0.00     0.143 C 
ATOM     62  O   UNK d   0       2.539  -6.966  -8.303  0.00  0.00    -0.650 OA
BRANCH  61  63
ATOM     63  O   UNK d   0       1.065  -7.176 -10.014  0.00  0.00    -0.776 OA
ATOM     64  H   UNK d   0       1.451  -7.341 -10.926  0.00  0.00     0.167 HD
ENDBRANCH  61  63
ENDBRANCH  60  61
ENDBRANCH  18  60
BRANCH  14  65
ATOM     65  C   UNK d   0       3.347 -10.410  -6.725  0.00  0.00     0.052 C 
BRANCH  65  66
ATOM     66  C   UNK d   0       4.495  -9.524  -7.059  0.00  0.00     0.115 C 
BRANCH  66  67
ATOM     67  C   UNK d   0       4.902  -8.506  -6.132  0.00  0.00     0.139 C 
ATOM     68  O   UNK d   0       5.677  -8.835  -5.161  0.00  0.00    -0.650 OA
BRANCH  67  69
ATOM     69  O   UNK d   0       4.556  -7.155  -6.142  0.00  0.00    -0.776 OA
ATOM     70  H   UNK d   0       5.312  -6.498  -5.900  0.00  0.00     0.167 HD
ENDBRANCH  67  69
ENDBRANCH  66  67
ENDBRANCH  65  66
ENDBRANCH  14  65
ENDBRANCH   6   7
ENDBRANCH   5   6
ENDBRANCH   2   5
TORSDOF 28
ENDMDL
MODEL 19
REMARK VINA RESULT:      -5.5     26.689     32.209
REMARK  28 active torsions:
REMARK  status: ('A' for Active; 'I' for Inactive)
REMARK    1  A    between atoms: C_2  and  O_3 
REMARK    2  A    between atoms: C_2  and  C_4 
REMARK    3  A    between atoms: C_4  and  C_5 
REMARK    4  A    between atoms: C_5  and  C_6 
REMARK    5  A    between atoms: C_7  and  C_8 
REMARK    6  A    between atoms: C_8  and  C_9 
REMARK    7  A    between atoms: C_9  and  O_11 
REMARK    8  A    between atoms: C_28  and  C_29 
REMARK    9  A    between atoms: C_29  and  C_30 
REMARK   10  A    between atoms: C_30  and  O_32 
REMARK   11  A    between atoms: C_33  and  C_34 
REMARK   12  A    between atoms: C_34  and  C_35 
REMARK   13  A    between atoms: C_35  and  C_36 
REMARK   14  A    between atoms: C_36  and  O_38 
REMARK   15  A    between atoms: C_39  and  C_40 
REMARK   16  A    between atoms: C_40  and  C_41 
REMARK   17  A    between atoms: C_41  and  C_42 
REMARK   18  A    between atoms: C_42  and  O_44 
REMARK   19  A    between atoms: C_45  and  C_46 
REMARK   20  A    between atoms: C_46  and  C_47 
REMARK   21  A    between atoms: C_47  and  O_49 
REMARK   22  A    between atoms: C_50  and  C_51 
REMARK   23  A    between atoms: C_51  and  C_52 
REMARK   24  A    between atoms: C_52  and  O_54 
REMARK   25  A    between atoms: C_55  and  C_56 
REMARK   26  A    between atoms: C_56  and  C_57 
REMARK   27  A    between atoms: C_57  and  C_58 
REMARK   28  A    between atoms: C_58  and  O_60 
ROOT
ATOM      1  O   UNK d   0      13.408 -12.811  11.875  0.00  0.00    -0.650 OA
ATOM      2  C   UNK d   0      14.222 -12.384  11.027  0.00  0.00     0.139 C 
ENDROOT
BRANCH   2   3
ATOM      3  O   UNK d   0      15.550 -12.274  11.363  0.00  0.00    -0.776 OA
ATOM      4  H   UNK d   0      16.101 -11.463  11.077  0.00  0.00     0.167 HD
ENDBRANCH   2   3
BRANCH   2   5
ATOM      5  C   UNK d   0      13.752 -11.998   9.666  0.00  0.00     0.115 C 
BRANCH   5   6
ATOM      6  C   UNK d   0      14.863 -11.327   8.906  0.00  0.00     0.052 C 
BRANCH   6   7
ATOM      7  C   UNK d   0      14.479 -11.003   7.482  0.00  0.00    -0.020 A 
ATOM      8  C   UNK d   0      14.357  -9.819   6.937  0.00  0.00    -0.011 A 
ATOM      9  C   UNK d   0      13.963 -10.005   5.551  0.00  0.00     0.067 A 
ATOM     10  C   UNK d   0      13.697  -9.172   4.453  0.00  0.00     0.062 C 
ATOM     11  N   UNK d   0      13.862 -11.334   5.338  0.00  0.00    -0.248 NA
ATOM     12  C   UNK d   0      13.600  -9.548   3.109  0.00  0.00     0.041 A 
ATOM     13  N   UNK d   0      13.000 -10.602   2.524  0.00  0.00    -0.355 N 
ATOM     14  C   UNK d   0      14.259  -8.773   2.137  0.00  0.00    -0.022 A 
ATOM     15  C   UNK d   0      13.269 -10.521   1.207  0.00  0.00     0.042 A 
ATOM     16  H   UNK d   0      12.383 -11.377   3.029  0.00  0.00     0.166 HD
ATOM     17  C   UNK d   0      12.886 -11.363   0.143  0.00  0.00     0.062 C 
ATOM     18  C   UNK d   0      14.056  -9.388   0.926  0.00  0.00    -0.013 A 
ATOM     19  C   UNK d   0      12.898 -12.733   0.080  0.00  0.00     0.067 A 
ATOM     20  N   UNK d   0      13.108 -13.389   1.224  0.00  0.00    -0.248 NA
ATOM     21  C   UNK d   0      12.749 -13.732  -0.965  0.00  0.00    -0.011 A 
ATOM     22  C   UNK d   0      13.109 -14.744   1.003  0.00  0.00     0.066 A 
ATOM     23  C   UNK d   0      13.280 -15.551   2.118  0.00  0.00     0.062 C 
ATOM     24  C   UNK d   0      12.877 -14.907  -0.419  0.00  0.00    -0.020 A 
ATOM     25  C   UNK d   0      13.363 -15.155   3.462  0.00  0.00     0.041 A 
ATOM     26  N   UNK d   0      13.971 -14.115   4.045  0.00  0.00    -0.355 N 
ATOM     27  C   UNK d   0      12.697 -15.930   4.437  0.00  0.00    -0.022 A 
ATOM     28  C   UNK d   0      13.712 -14.198   5.360  0.00  0.00     0.042 A 
ATOM     29  H   UNK d   0      14.600 -13.343   3.537  0.00  0.00     0.166 HD
ATOM     30  C   UNK d   0      14.094 -13.374   6.430  0.00  0.00     0.062 C 
ATOM     31  C   UNK d   0      12.912 -15.331   5.640  0.00  0.00    -0.013 A 
ATOM     32  C   UNK d   0      14.161 -11.990   6.461  0.00  0.00     0.066 A 
BRANCH   8  33
ATOM     33  C   UNK d   0      14.570  -8.516   7.595  0.00  0.00     0.151 C 
BRANCH  33  34
ATOM     34  C   UNK d   0      15.711  -7.773   7.032  0.00  0.00     0.143 C 
ATOM     35  O   UNK d   0      15.660  -6.544   6.884  0.00  0.00    -0.650 OA
BRANCH  34  36
ATOM     36  O   UNK d   0      16.847  -8.456   6.664  0.00  0.00    -0.776 OA
ATOM     37  H   UNK d   0      17.548  -8.032   6.041  0.00  0.00     0.167 HD
ENDBRANCH  34  36
ENDBRANCH  33  34
ENDBRANCH   8  33
BRANCH  31  38
ATOM     38  C   UNK d   0      12.380 -15.798   6.975  0.00  0.00     0.151 C 
BRANCH  38  39
ATOM     39  C   UNK d   0      11.356 -14.925   7.507  0.00  0.00     0.143 C 
ATOM     40  O   UNK d   0      11.320 -14.594   8.706  0.00  0.00    -0.650 OA
BRANCH  39  41
ATOM     41  O   UNK d   0      10.368 -14.428   6.658  0.00  0.00    -0.776 OA
ATOM     42  H   UNK d   0       9.396 -14.554   6.957  0.00  0.00     0.167 HD
ENDBRANCH  39  41
ENDBRANCH  38  39
ENDBRANCH  31  38
BRANCH  27  43
ATOM     43  C   UNK d   0      11.885 -17.190   4.268  0.00  0.00     0.052 C 
BRANCH  43  44
ATOM     44  C   UNK d   0      10.430 -16.930   4.044  0.00  0.00     0.115 C 
BRANCH  44  45
ATOM     45  C   UNK d   0       9.706 -17.566   5.175  0.00  0.00     0.139 C 
ATOM     46  O   UNK d   0       8.910 -16.859   5.841  0.00  0.00    -0.650 OA
BRANCH  45  47
ATOM     47  O   UNK d   0       9.868 -18.892   5.514  0.00  0.00    -0.776 OA
ATOM     48  H   UNK d   0      10.442 -19.547   4.959  0.00  0.00     0.167 HD
ENDBRANCH  45  47
ENDBRANCH  44  45
ENDBRANCH  43  44
ENDBRANCH  27  43
BRANCH  24  49
ATOM     49  C   UNK d   0      12.758 -16.202  -1.109  0.00  0.00     0.052 C 
BRANCH  49  50
ATOM     50  C   UNK d   0      11.525 -16.933  -0.644  0.00  0.00     0.115 C 
BRANCH  50  51
ATOM     51  C   UNK d   0      10.375 -16.935  -1.538  0.00  0.00     0.139 C 
ATOM     52  O   UNK d   0      10.245 -16.110  -2.473  0.00  0.00    -0.650 OA
BRANCH  51  53
ATOM     53  O   UNK d   0       9.372 -17.876  -1.366  0.00  0.00    -0.776 OA
ATOM     54  H   UNK d   0       8.421 -17.556  -1.328  0.00  0.00     0.167 HD
ENDBRANCH  51  53
ENDBRANCH  50  51
ENDBRANCH  49  50
ENDBRANCH  24  49
BRANCH  21  55
ATOM     55  C   UNK d   0      12.489 -13.408  -2.399  0.00  0.00     0.151 C 
BRANCH  55  56
ATOM     56  C   UNK d   0      13.726 -13.076  -3.122  0.00  0.00     0.143 C 
ATOM     57  O   UNK d   0      14.433 -13.938  -3.680  0.00  0.00    -0.650 OA
BRANCH  56  58
ATOM     58  O   UNK d   0      14.106 -11.736  -3.176  0.00  0.00    -0.776 OA
ATOM     59  H   UNK d   0      15.079 -11.571  -3.493  0.00  0.00     0.167 HD
ENDBRANCH  56  58
ENDBRANCH  55  56
ENDBRANCH  21  55
BRANCH  18  60
ATOM     60  C   UNK d   0      14.597  -8.897  -0.394  0.00  0.00     0.151 C 
BRANCH  60  61
ATOM     61  C   UNK d   0      15.938  -9.489  -0.526  0.00  0.00     0.143 C 
ATOM     62  O   UNK d   0      17.010  -8.975  -0.206  0.00  0.00    -0.650 OA
BRANCH  61  63
ATOM     63  O   UNK d   0      15.970 -10.790  -1.083  0.00  0.00    -0.776 OA
ATOM     64  H   UNK d   0      15.330 -11.059  -1.809  0.00  0.00     0.167 HD
ENDBRANCH  61  63
ENDBRANCH  60  61
ENDBRANCH  18  60
BRANCH  14  65
ATOM     65  C   UNK d   0      14.976  -7.458   2.251  0.00  0.00     0.052 C 
BRANCH  65  66
ATOM     66  C   UNK d   0      16.311  -7.577   2.896  0.00  0.00     0.115 C 
BRANCH  66  67
ATOM     67  C   UNK d   0      16.859  -6.457   3.608  0.00  0.00     0.139 C 
ATOM     68  O   UNK d   0      16.451  -5.276   3.303  0.00  0.00    -0.650 OA
BRANCH  67  69
ATOM     69  O   UNK d   0      17.813  -6.476   4.625  0.00  0.00    -0.776 OA
ATOM     70  H   UNK d   0      17.949  -5.588   5.128  0.00  0.00     0.167 HD
ENDBRANCH  67  69
ENDBRANCH  66  67
ENDBRANCH  65  66
ENDBRANCH  14  65
ENDBRANCH   6   7
ENDBRANCH   5   6
ENDBRANCH   2   5
TORSDOF 28
ENDMDL
MODEL 20
REMARK VINA RESULT:      -5.4     26.279     33.517
REMARK  28 active torsions:
REMARK  status: ('A' for Active; 'I' for Inactive)
REMARK    1  A    between atoms: C_2  and  O_3 
REMARK    2  A    between atoms: C_2  and  C_4 
REMARK    3  A    between atoms: C_4  and  C_5 
REMARK    4  A    between atoms: C_5  and  C_6 
REMARK    5  A    between atoms: C_7  and  C_8 
REMARK    6  A    between atoms: C_8  and  C_9 
REMARK    7  A    between atoms: C_9  and  O_11 
REMARK    8  A    between atoms: C_28  and  C_29 
REMARK    9  A    between atoms: C_29  and  C_30 
REMARK   10  A    between atoms: C_30  and  O_32 
REMARK   11  A    between atoms: C_33  and  C_34 
REMARK   12  A    between atoms: C_34  and  C_35 
REMARK   13  A    between atoms: C_35  and  C_36 
REMARK   14  A    between atoms: C_36  and  O_38 
REMARK   15  A    between atoms: C_39  and  C_40 
REMARK   16  A    between atoms: C_40  and  C_41 
REMARK   17  A    between atoms: C_41  and  C_42 
REMARK   18  A    between atoms: C_42  and  O_44 
REMARK   19  A    between atoms: C_45  and  C_46 
REMARK   20  A    between atoms: C_46  and  C_47 
REMARK   21  A    between atoms: C_47  and  O_49 
REMARK   22  A    between atoms: C_50  and  C_51 
REMARK   23  A    between atoms: C_51  and  C_52 
REMARK   24  A    between atoms: C_52  and  O_54 
REMARK   25  A    between atoms: C_55  and  C_56 
REMARK   26  A    between atoms: C_56  and  C_57 
REMARK   27  A    between atoms: C_57  and  C_58 
REMARK   28  A    between atoms: C_58  and  O_60 
ROOT
ATOM      1  O   UNK d   0      17.037  -6.921   7.103  0.00  0.00    -0.650 OA
ATOM      2  C   UNK d   0      15.894  -7.410   6.965  0.00  0.00     0.139 C 
ENDROOT
BRANCH   2   3
ATOM      3  O   UNK d   0      14.810  -6.570   6.874  0.00  0.00    -0.776 OA
ATOM      4  H   UNK d   0      14.857  -5.705   6.331  0.00  0.00     0.167 HD
ENDBRANCH   2   3
BRANCH   2   5
ATOM      5  C   UNK d   0      15.714  -8.888   6.902  0.00  0.00     0.115 C 
BRANCH   5   6
ATOM      6  C   UNK d   0      14.265  -9.223   6.673  0.00  0.00     0.052 C 
BRANCH   6   7
ATOM      7  C   UNK d   0      14.041  -9.983   5.387  0.00  0.00    -0.020 A 
ATOM      8  C   UNK d   0      14.056  -9.510   4.167  0.00  0.00    -0.011 A 
ATOM      9  C   UNK d   0      13.781 -10.612   3.260  0.00  0.00     0.067 A 
ATOM     10  C   UNK d   0      13.680 -10.777   1.869  0.00  0.00     0.062 C 
ATOM     11  N   UNK d   0      13.605 -11.718   4.013  0.00  0.00    -0.248 NA
ATOM     12  C   UNK d   0      13.682 -11.981   1.157  0.00  0.00     0.041 A 
ATOM     13  N   UNK d   0      13.066 -13.154   1.397  0.00  0.00    -0.355 N 
ATOM     14  C   UNK d   0      14.484 -12.090   0.006  0.00  0.00    -0.022 A 
ATOM     15  C   UNK d   0      13.461 -14.006   0.432  0.00  0.00     0.042 A 
ATOM     16  H   UNK d   0      12.350 -13.370   2.220  0.00  0.00     0.166 HD
ATOM     17  C   UNK d   0      13.120 -15.355   0.209  0.00  0.00     0.062 C 
ATOM     18  C   UNK d   0      14.351 -13.375  -0.458  0.00  0.00    -0.013 A 
ATOM     19  C   UNK d   0      13.040 -16.385   1.111  0.00  0.00     0.067 A 
ATOM     20  N   UNK d   0      13.094 -16.061   2.405  0.00  0.00    -0.248 NA
ATOM     21  C   UNK d   0      12.917 -17.832   1.037  0.00  0.00    -0.011 A 
ATOM     22  C   UNK d   0      13.018 -17.191   3.183  0.00  0.00     0.066 A 
ATOM     23  C   UNK d   0      13.025 -16.995   4.556  0.00  0.00     0.062 C 
ATOM     24  C   UNK d   0      12.909 -18.297   2.252  0.00  0.00    -0.020 A 
ATOM     25  C   UNK d   0      13.010 -15.777   5.252  0.00  0.00     0.041 A 
ATOM     26  N   UNK d   0      13.634 -14.615   5.022  0.00  0.00    -0.355 N 
ATOM     27  C   UNK d   0      12.201 -15.667   6.404  0.00  0.00    -0.022 A 
ATOM     28  C   UNK d   0      13.248 -13.767   5.988  0.00  0.00     0.042 A 
ATOM     29  H   UNK d   0      14.362 -14.403   4.200  0.00  0.00     0.166 HD
ATOM     30  C   UNK d   0      13.586 -12.426   6.227  0.00  0.00     0.062 C 
ATOM     31  C   UNK d   0      12.346 -14.399   6.876  0.00  0.00    -0.013 A 
ATOM     32  C   UNK d   0      13.750 -11.407   5.302  0.00  0.00     0.066 A 
BRANCH   8  33
ATOM     33  C   UNK d   0      14.299  -8.113   3.763  0.00  0.00     0.151 C 
BRANCH  33  34
ATOM     34  C   UNK d   0      13.065  -7.310   3.714  0.00  0.00     0.143 C 
ATOM     35  O   UNK d   0      12.665  -6.697   4.714  0.00  0.00    -0.650 OA
BRANCH  34  36
ATOM     36  O   UNK d   0      12.348  -7.242   2.542  0.00  0.00    -0.776 OA
ATOM     37  H   UNK d   0      11.670  -6.487   2.373  0.00  0.00     0.167 HD
ENDBRANCH  34  36
ENDBRANCH  33  34
ENDBRANCH   8  33
BRANCH  31  38
ATOM     38  C   UNK d   0      11.659 -13.815   8.089  0.00  0.00     0.151 C 
BRANCH  38  39
ATOM     39  C   UNK d   0      12.353 -14.112   9.324  0.00  0.00     0.143 C 
ATOM     40  O   UNK d   0      13.547 -14.458   9.350  0.00  0.00    -0.650 OA
BRANCH  39  41
ATOM     41  O   UNK d   0      11.671 -14.009  10.536  0.00  0.00    -0.776 OA
ATOM     42  H   UNK d   0      11.937 -13.234  11.151  0.00  0.00     0.167 HD
ENDBRANCH  39  41
ENDBRANCH  38  39
ENDBRANCH  31  38
BRANCH  27  43
ATOM     43  C   UNK d   0      11.320 -16.702   7.059  0.00  0.00     0.052 C 
BRANCH  43  44
ATOM     44  C   UNK d   0       9.908 -16.667   6.573  0.00  0.00     0.115 C 
BRANCH  44  45
ATOM     45  C   UNK d   0       9.548 -18.063   6.213  0.00  0.00     0.139 C 
ATOM     46  O   UNK d   0       9.936 -18.988   6.968  0.00  0.00    -0.650 OA
BRANCH  45  47
ATOM     47  O   UNK d   0       8.807 -18.379   5.095  0.00  0.00    -0.776 OA
ATOM     48  H   UNK d   0       8.268 -17.676   4.563  0.00  0.00     0.167 HD
ENDBRANCH  45  47
ENDBRANCH  44  45
ENDBRANCH  43  44
ENDBRANCH  27  43
BRANCH  24  49
ATOM     49  C   UNK d   0      12.762 -19.711   2.640  0.00  0.00     0.052 C 
BRANCH  49  50
ATOM     50  C   UNK d   0      11.592 -19.879   3.574  0.00  0.00     0.115 C 
BRANCH  50  51
ATOM     51  C   UNK d   0      11.636 -21.003   4.500  0.00  0.00     0.139 C 
ATOM     52  O   UNK d   0      11.489 -22.192   4.128  0.00  0.00    -0.650 OA
BRANCH  51  53
ATOM     53  O   UNK d   0      11.846 -20.772   5.851  0.00  0.00    -0.776 OA
ATOM     54  H   UNK d   0      11.792 -19.826   6.185  0.00  0.00     0.167 HD
ENDBRANCH  51  53
ENDBRANCH  50  51
ENDBRANCH  49  50
ENDBRANCH  24  49
BRANCH  21  55
ATOM     55  C   UNK d   0      12.817 -18.597  -0.241  0.00  0.00     0.151 C 
BRANCH  55  56
ATOM     56  C   UNK d   0      14.140 -18.956  -0.774  0.00  0.00     0.143 C 
ATOM     57  O   UNK d   0      14.613 -20.106  -0.687  0.00  0.00    -0.650 OA
BRANCH  56  58
ATOM     58  O   UNK d   0      14.880 -17.955  -1.401  0.00  0.00    -0.776 OA
ATOM     59  H   UNK d   0      15.099 -17.136  -0.806  0.00  0.00     0.167 HD
ENDBRANCH  56  58
ENDBRANCH  55  56
ENDBRANCH  21  55
BRANCH  18  60
ATOM     60  C   UNK d   0      15.048 -13.930  -1.676  0.00  0.00     0.151 C 
BRANCH  60  61
ATOM     61  C   UNK d   0      16.320 -14.488  -1.194  0.00  0.00     0.143 C 
ATOM     62  O   UNK d   0      16.473 -15.481  -0.482  0.00  0.00    -0.650 OA
BRANCH  61  63
ATOM     63  O   UNK d   0      17.480 -13.789  -1.607  0.00  0.00    -0.776 OA
ATOM     64  H   UNK d   0      17.729 -12.908  -1.195  0.00  0.00     0.167 HD
ENDBRANCH  61  63
ENDBRANCH  60  61
ENDBRANCH  18  60
BRANCH  14  65
ATOM     65  C   UNK d   0      15.279 -11.054  -0.736  0.00  0.00     0.052 C 
BRANCH  65  66
ATOM     66  C   UNK d   0      14.467 -10.295  -1.725  0.00  0.00     0.115 C 
BRANCH  66  67
ATOM     67  C   UNK d   0      13.980  -8.986  -1.390  0.00  0.00     0.139 C 
ATOM     68  O   UNK d   0      13.066  -8.464  -2.130  0.00  0.00    -0.650 OA
BRANCH  67  69
ATOM     69  O   UNK d   0      14.379  -8.172  -0.331  0.00  0.00    -0.776 OA
ATOM     70  H   UNK d   0      13.645  -7.574   0.076  0.00  0.00     0.167 HD
ENDBRANCH  67  69
ENDBRANCH  66  67
ENDBRANCH  65  66
ENDBRANCH  14  65
ENDBRANCH   6   7
ENDBRANCH   5   6
ENDBRANCH   2   5
TORSDOF 28
ENDMDL
