MODEL 1
REMARK VINA RESULT:      -8.9      0.000      0.000
REMARK  28 active torsions:
REMARK  status: ('A' for Active; 'I' for Inactive)
REMARK    1  A    between atoms: C_2  and  O_3 
REMARK    2  A    between atoms: C_2  and  C_4 
REMARK    3  A    between atoms: C_4  and  C_5 
REMARK    4  A    between atoms: C_5  and  C_6 
REMARK    5  A    between atoms: C_7  and  C_8 
REMARK    6  A    between atoms: C_8  and  C_9 
REMARK    7  A    between atoms: C_9  and  O_11 
REMARK    8  A    between atoms: C_28  and  C_29 
REMARK    9  A    between atoms: C_29  and  C_30 
REMARK   10  A    between atoms: C_30  and  O_32 
REMARK   11  A    between atoms: C_33  and  C_34 
REMARK   12  A    between atoms: C_34  and  C_35 
REMARK   13  A    between atoms: C_35  and  C_36 
REMARK   14  A    between atoms: C_36  and  O_38 
REMARK   15  A    between atoms: C_39  and  C_40 
REMARK   16  A    between atoms: C_40  and  C_41 
REMARK   17  A    between atoms: C_41  and  C_42 
REMARK   18  A    between atoms: C_42  and  O_44 
REMARK   19  A    between atoms: C_45  and  C_46 
REMARK   20  A    between atoms: C_46  and  C_47 
REMARK   21  A    between atoms: C_47  and  O_49 
REMARK   22  A    between atoms: C_50  and  C_51 
REMARK   23  A    between atoms: C_51  and  C_52 
REMARK   24  A    between atoms: C_52  and  O_54 
REMARK   25  A    between atoms: C_55  and  C_56 
REMARK   26  A    between atoms: C_56  and  C_57 
REMARK   27  A    between atoms: C_57  and  C_58 
REMARK   28  A    between atoms: C_58  and  O_60 
ROOT
ATOM      1  O   UNK d   0     -36.923   2.873   5.758  0.00  0.00    -0.650 OA
ATOM      2  C   UNK d   0     -36.090   2.585   6.646  0.00  0.00     0.139 C 
ENDROOT
BRANCH   2   3
ATOM      3  O   UNK d   0     -36.044   3.337   7.796  0.00  0.00    -0.776 OA
ATOM      4  H   UNK d   0     -36.759   4.039   7.996  0.00  0.00     0.167 HD
ENDBRANCH   2   3
BRANCH   2   5
ATOM      5  C   UNK d   0     -35.158   1.438   6.454  0.00  0.00     0.115 C 
BRANCH   5   6
ATOM      6  C   UNK d   0     -33.955   1.593   7.345  0.00  0.00     0.052 C 
BRANCH   6   7
ATOM      7  C   UNK d   0     -33.812   0.459   8.332  0.00  0.00    -0.020 A 
ATOM      8  C   UNK d   0     -33.997   0.499   9.626  0.00  0.00    -0.011 A 
ATOM      9  C   UNK d   0     -33.736  -0.829  10.155  0.00  0.00     0.067 A 
ATOM     10  C   UNK d   0     -33.774  -1.442  11.417  0.00  0.00     0.062 C 
ATOM     11  N   UNK d   0     -33.392  -1.614   9.112  0.00  0.00    -0.248 NA
ATOM     12  C   UNK d   0     -33.757  -2.814  11.693  0.00  0.00     0.041 A 
ATOM     13  N   UNK d   0     -33.027  -3.816  11.167  0.00  0.00    -0.355 N 
ATOM     14  C   UNK d   0     -34.668  -3.330  12.633  0.00  0.00    -0.022 A 
ATOM     15  C   UNK d   0     -33.456  -4.954  11.743  0.00  0.00     0.042 A 
ATOM     16  H   UNK d   0     -32.211  -3.717  10.417  0.00  0.00     0.166 HD
ATOM     17  C   UNK d   0     -33.035  -6.286  11.558  0.00  0.00     0.062 C 
ATOM     18  C   UNK d   0     -34.485  -4.690  12.668  0.00  0.00    -0.013 A 
ATOM     19  C   UNK d   0     -32.775  -6.955  10.389  0.00  0.00     0.067 A 
ATOM     20  N   UNK d   0     -32.714  -6.222   9.274  0.00  0.00    -0.248 NA
ATOM     21  C   UNK d   0     -32.547  -8.338  10.005  0.00  0.00    -0.011 A 
ATOM     22  C   UNK d   0     -32.464  -7.025   8.189  0.00  0.00     0.066 A 
ATOM     23  C   UNK d   0     -32.337  -6.385   6.965  0.00  0.00     0.062 C 
ATOM     24  C   UNK d   0     -32.370  -8.373   8.716  0.00  0.00    -0.020 A 
ATOM     25  C   UNK d   0     -32.344  -5.005   6.710  0.00  0.00     0.041 A 
ATOM     26  N   UNK d   0     -33.080  -4.012   7.222  0.00  0.00    -0.355 N 
ATOM     27  C   UNK d   0     -31.427  -4.488   5.770  0.00  0.00    -0.022 A 
ATOM     28  C   UNK d   0     -32.660  -2.876   6.643  0.00  0.00     0.042 A 
ATOM     29  H   UNK d   0     -33.907  -4.113   7.968  0.00  0.00     0.166 HD
ATOM     30  C   UNK d   0     -33.076  -1.546   6.810  0.00  0.00     0.062 C 
ATOM     31  C   UNK d   0     -31.619  -3.141   5.722  0.00  0.00    -0.013 A 
ATOM     32  C   UNK d   0     -33.420  -0.899   7.987  0.00  0.00     0.066 A 
BRANCH   8  33
ATOM     33  C   UNK d   0     -34.394   1.672  10.428  0.00  0.00     0.151 C 
BRANCH  33  34
ATOM     34  C   UNK d   0     -35.812   1.637  10.827  0.00  0.00     0.143 C 
ATOM     35  O   UNK d   0     -36.153   1.900  11.989  0.00  0.00    -0.650 OA
BRANCH  34  36
ATOM     36  O   UNK d   0     -36.768   1.305   9.895  0.00  0.00    -0.776 OA
ATOM     37  H   UNK d   0     -37.536   1.951   9.664  0.00  0.00     0.167 HD
ENDBRANCH  34  36
ENDBRANCH  33  34
ENDBRANCH   8  33
BRANCH  31  38
ATOM     38  C   UNK d   0     -30.854  -2.162   4.863  0.00  0.00     0.151 C 
BRANCH  38  39
ATOM     39  C   UNK d   0     -29.732  -1.565   5.556  0.00  0.00     0.143 C 
ATOM     40  O   UNK d   0     -29.812  -0.464   6.128  0.00  0.00    -0.650 OA
BRANCH  39  41
ATOM     41  O   UNK d   0     -28.511  -2.239   5.592  0.00  0.00    -0.776 OA
ATOM     42  H   UNK d   0     -28.523  -3.230   5.331  0.00  0.00     0.167 HD
ENDBRANCH  39  41
ENDBRANCH  38  39
ENDBRANCH  31  38
BRANCH  27  43
ATOM     43  C   UNK d   0     -30.400  -5.211   4.935  0.00  0.00     0.052 C 
BRANCH  43  44
ATOM     44  C   UNK d   0     -30.996  -5.977   3.798  0.00  0.00     0.115 C 
BRANCH  44  45
ATOM     45  C   UNK d   0     -29.862  -6.590   3.058  0.00  0.00     0.139 C 
ATOM     46  O   UNK d   0     -30.066  -7.673   2.456  0.00  0.00    -0.650 OA
BRANCH  45  47
ATOM     47  O   UNK d   0     -28.609  -6.018   3.004  0.00  0.00    -0.776 OA
ATOM     48  H   UNK d   0     -27.764  -6.486   3.370  0.00  0.00     0.167 HD
ENDBRANCH  45  47
ENDBRANCH  44  45
ENDBRANCH  43  44
ENDBRANCH  27  43
BRANCH  24  49
ATOM     49  C   UNK d   0     -32.069  -9.570   7.912  0.00  0.00     0.052 C 
BRANCH  49  50
ATOM     50  C   UNK d   0     -30.594  -9.644   7.612  0.00  0.00     0.115 C 
BRANCH  50  51
ATOM     51  C   UNK d   0     -30.201  -9.653   6.209  0.00  0.00     0.139 C 
ATOM     52  O   UNK d   0     -29.568  -8.711   5.678  0.00  0.00    -0.650 OA
BRANCH  51  53
ATOM     53  O   UNK d   0     -30.532 -10.738   5.411  0.00  0.00    -0.776 OA
ATOM     54  H   UNK d   0     -30.216 -11.649   5.693  0.00  0.00     0.167 HD
ENDBRANCH  51  53
ENDBRANCH  50  51
ENDBRANCH  49  50
ENDBRANCH  24  49
BRANCH  21  55
ATOM     55  C   UNK d   0     -32.525  -9.479  10.967  0.00  0.00     0.151 C 
BRANCH  55  56
ATOM     56  C   UNK d   0     -31.192 -10.092  11.065  0.00  0.00     0.143 C 
ATOM     57  O   UNK d   0     -30.139  -9.451  10.879  0.00  0.00    -0.650 OA
BRANCH  56  58
ATOM     58  O   UNK d   0     -31.122 -11.447  11.382  0.00  0.00    -0.776 OA
ATOM     59  H   UNK d   0     -31.312 -11.674  12.375  0.00  0.00     0.167 HD
ENDBRANCH  56  58
ENDBRANCH  55  56
ENDBRANCH  21  55
BRANCH  18  60
ATOM     60  C   UNK d   0     -35.263  -5.645  13.538  0.00  0.00     0.151 C 
BRANCH  60  61
ATOM     61  C   UNK d   0     -36.410  -6.086  12.730  0.00  0.00     0.143 C 
ATOM     62  O   UNK d   0     -36.725  -5.685  11.609  0.00  0.00    -0.650 OA
BRANCH  61  63
ATOM     63  O   UNK d   0     -37.223  -7.078  13.328  0.00  0.00    -0.776 OA
ATOM     64  H   UNK d   0     -38.195  -7.164  13.091  0.00  0.00     0.167 HD
ENDBRANCH  61  63
ENDBRANCH  60  61
ENDBRANCH  18  60
BRANCH  14  65
ATOM     65  C   UNK d   0     -35.619  -2.631  13.562  0.00  0.00     0.052 C 
BRANCH  65  66
ATOM     66  C   UNK d   0     -36.999  -2.532  13.015  0.00  0.00     0.115 C 
BRANCH  66  67
ATOM     67  C   UNK d   0     -37.194  -2.224  11.626  0.00  0.00     0.139 C 
ATOM     68  O   UNK d   0     -37.535  -1.027  11.305  0.00  0.00    -0.650 OA
BRANCH  67  69
ATOM     69  O   UNK d   0     -37.058  -3.082  10.535  0.00  0.00    -0.776 OA
ATOM     70  H   UNK d   0     -36.643  -2.668   9.688  0.00  0.00     0.167 HD
ENDBRANCH  67  69
ENDBRANCH  66  67
ENDBRANCH  65  66
ENDBRANCH  14  65
ENDBRANCH   6   7
ENDBRANCH   5   6
ENDBRANCH   2   5
TORSDOF 28
ENDMDL
MODEL 2
REMARK VINA RESULT:      -8.0      2.121      9.662
REMARK  28 active torsions:
REMARK  status: ('A' for Active; 'I' for Inactive)
REMARK    1  A    between atoms: C_2  and  O_3 
REMARK    2  A    between atoms: C_2  and  C_4 
REMARK    3  A    between atoms: C_4  and  C_5 
REMARK    4  A    between atoms: C_5  and  C_6 
REMARK    5  A    between atoms: C_7  and  C_8 
REMARK    6  A    between atoms: C_8  and  C_9 
REMARK    7  A    between atoms: C_9  and  O_11 
REMARK    8  A    between atoms: C_28  and  C_29 
REMARK    9  A    between atoms: C_29  and  C_30 
REMARK   10  A    between atoms: C_30  and  O_32 
REMARK   11  A    between atoms: C_33  and  C_34 
REMARK   12  A    between atoms: C_34  and  C_35 
REMARK   13  A    between atoms: C_35  and  C_36 
REMARK   14  A    between atoms: C_36  and  O_38 
REMARK   15  A    between atoms: C_39  and  C_40 
REMARK   16  A    between atoms: C_40  and  C_41 
REMARK   17  A    between atoms: C_41  and  C_42 
REMARK   18  A    between atoms: C_42  and  O_44 
REMARK   19  A    between atoms: C_45  and  C_46 
REMARK   20  A    between atoms: C_46  and  C_47 
REMARK   21  A    between atoms: C_47  and  O_49 
REMARK   22  A    between atoms: C_50  and  C_51 
REMARK   23  A    between atoms: C_51  and  C_52 
REMARK   24  A    between atoms: C_52  and  O_54 
REMARK   25  A    between atoms: C_55  and  C_56 
REMARK   26  A    between atoms: C_56  and  C_57 
REMARK   27  A    between atoms: C_57  and  C_58 
REMARK   28  A    between atoms: C_58  and  O_60 
ROOT
ATOM      1  O   UNK d   0     -27.577 -10.547   3.465  0.00  0.00    -0.650 OA
ATOM      2  C   UNK d   0     -27.948 -10.573   4.659  0.00  0.00     0.139 C 
ENDROOT
BRANCH   2   3
ATOM      3  O   UNK d   0     -27.019 -10.793   5.648  0.00  0.00    -0.776 OA
ATOM      4  H   UNK d   0     -26.820 -10.081   6.353  0.00  0.00     0.167 HD
ENDBRANCH   2   3
BRANCH   2   5
ATOM      5  C   UNK d   0     -29.383 -10.366   5.002  0.00  0.00     0.115 C 
BRANCH   5   6
ATOM      6  C   UNK d   0     -30.001  -9.368   4.060  0.00  0.00     0.052 C 
BRANCH   6   7
ATOM      7  C   UNK d   0     -30.293  -8.044   4.726  0.00  0.00    -0.020 A 
ATOM      8  C   UNK d   0     -30.052  -6.846   4.259  0.00  0.00    -0.011 A 
ATOM      9  C   UNK d   0     -30.495  -5.883   5.254  0.00  0.00     0.067 A 
ATOM     10  C   UNK d   0     -30.539  -4.484   5.360  0.00  0.00     0.062 C 
ATOM     11  N   UNK d   0     -30.988  -6.584   6.297  0.00  0.00    -0.248 NA
ATOM     12  C   UNK d   0     -31.263  -3.728   6.288  0.00  0.00     0.041 A 
ATOM     13  N   UNK d   0     -31.449  -3.889   7.612  0.00  0.00    -0.355 N 
ATOM     14  C   UNK d   0     -31.999  -2.618   5.835  0.00  0.00    -0.022 A 
ATOM     15  C   UNK d   0     -32.289  -2.915   8.009  0.00  0.00     0.042 A 
ATOM     16  H   UNK d   0     -30.980  -4.665   8.257  0.00  0.00     0.166 HD
ATOM     17  C   UNK d   0     -32.811  -2.623   9.285  0.00  0.00     0.062 C 
ATOM     18  C   UNK d   0     -32.656  -2.098   6.922  0.00  0.00    -0.013 A 
ATOM     19  C   UNK d   0     -33.332  -3.479  10.220  0.00  0.00     0.067 A 
ATOM     20  N   UNK d   0     -33.159  -4.786  10.007  0.00  0.00    -0.248 NA
ATOM     21  C   UNK d   0     -34.085  -3.343  11.457  0.00  0.00    -0.011 A 
ATOM     22  C   UNK d   0     -33.745  -5.514  11.013  0.00  0.00     0.066 A 
ATOM     23  C   UNK d   0     -33.608  -6.893  10.937  0.00  0.00     0.062 C 
ATOM     24  C   UNK d   0     -34.327  -4.538  11.913  0.00  0.00    -0.020 A 
ATOM     25  C   UNK d   0     -32.865  -7.633  10.003  0.00  0.00     0.041 A 
ATOM     26  N   UNK d   0     -32.693  -7.481   8.685  0.00  0.00    -0.355 N 
ATOM     27  C   UNK d   0     -32.124  -8.744  10.460  0.00  0.00    -0.022 A 
ATOM     28  C   UNK d   0     -31.862  -8.456   8.285  0.00  0.00     0.042 A 
ATOM     29  H   UNK d   0     -33.174  -6.707   8.037  0.00  0.00     0.166 HD
ATOM     30  C   UNK d   0     -31.343  -8.765   7.018  0.00  0.00     0.062 C 
ATOM     31  C   UNK d   0     -31.485  -9.271   9.380  0.00  0.00    -0.013 A 
ATOM     32  C   UNK d   0     -30.895  -7.889   6.041  0.00  0.00     0.066 A 
BRANCH   8  33
ATOM     33  C   UNK d   0     -29.436  -6.508   2.962  0.00  0.00     0.151 C 
BRANCH  33  34
ATOM     34  C   UNK d   0     -28.193  -7.258   2.708  0.00  0.00     0.143 C 
ATOM     35  O   UNK d   0     -27.987  -7.797   1.612  0.00  0.00    -0.650 OA
BRANCH  34  36
ATOM     36  O   UNK d   0     -27.250  -7.360   3.705  0.00  0.00    -0.776 OA
ATOM     37  H   UNK d   0     -26.963  -8.275   4.078  0.00  0.00     0.167 HD
ENDBRANCH  34  36
ENDBRANCH  33  34
ENDBRANCH   8  33
BRANCH  31  38
ATOM     38  C   UNK d   0     -30.562 -10.467   9.385  0.00  0.00     0.151 C 
BRANCH  38  39
ATOM     39  C   UNK d   0     -31.257 -11.711   9.639  0.00  0.00     0.143 C 
ATOM     40  O   UNK d   0     -32.425 -11.911   9.261  0.00  0.00    -0.650 OA
BRANCH  39  41
ATOM     41  O   UNK d   0     -30.605 -12.732  10.331  0.00  0.00    -0.776 OA
ATOM     42  H   UNK d   0     -30.340 -13.560   9.790  0.00  0.00     0.167 HD
ENDBRANCH  39  41
ENDBRANCH  38  39
ENDBRANCH  31  38
BRANCH  27  43
ATOM     43  C   UNK d   0     -32.006  -9.311  11.853  0.00  0.00     0.052 C 
BRANCH  43  44
ATOM     44  C   UNK d   0     -33.053 -10.329  12.168  0.00  0.00     0.115 C 
BRANCH  44  45
ATOM     45  C   UNK d   0     -32.365 -11.444  12.869  0.00  0.00     0.139 C 
ATOM     46  O   UNK d   0     -31.111 -11.497  12.807  0.00  0.00    -0.650 OA
BRANCH  45  47
ATOM     47  O   UNK d   0     -33.041 -12.409  13.582  0.00  0.00    -0.776 OA
ATOM     48  H   UNK d   0     -33.348 -12.271  14.559  0.00  0.00     0.167 HD
ENDBRANCH  45  47
ENDBRANCH  44  45
ENDBRANCH  43  44
ENDBRANCH  27  43
BRANCH  24  49
ATOM     49  C   UNK d   0     -35.030  -4.863  13.166  0.00  0.00     0.052 C 
BRANCH  49  50
ATOM     50  C   UNK d   0     -36.399  -5.420  12.869  0.00  0.00     0.115 C 
BRANCH  50  51
ATOM     51  C   UNK d   0     -37.235  -4.670  11.941  0.00  0.00     0.139 C 
ATOM     52  O   UNK d   0     -37.691  -3.533  12.208  0.00  0.00    -0.650 OA
BRANCH  51  53
ATOM     53  O   UNK d   0     -37.553  -5.218  10.707  0.00  0.00    -0.776 OA
ATOM     54  H   UNK d   0     -38.370  -5.799  10.642  0.00  0.00     0.167 HD
ENDBRANCH  51  53
ENDBRANCH  50  51
ENDBRANCH  49  50
ENDBRANCH  24  49
BRANCH  21  55
ATOM     55  C   UNK d   0     -34.479  -2.033  12.054  0.00  0.00     0.151 C 
BRANCH  55  56
ATOM     56  C   UNK d   0     -35.170  -1.170  11.084  0.00  0.00     0.143 C 
ATOM     57  O   UNK d   0     -34.755  -0.035  10.776  0.00  0.00    -0.650 OA
BRANCH  56  58
ATOM     58  O   UNK d   0     -36.335  -1.658  10.495  0.00  0.00    -0.776 OA
ATOM     59  H   UNK d   0     -36.312  -1.709   9.461  0.00  0.00     0.167 HD
ENDBRANCH  56  58
ENDBRANCH  55  56
ENDBRANCH  21  55
BRANCH  18  60
ATOM     60  C   UNK d   0     -33.571  -0.899   6.887  0.00  0.00     0.151 C 
BRANCH  60  61
ATOM     61  C   UNK d   0     -32.734   0.257   7.244  0.00  0.00     0.143 C 
ATOM     62  O   UNK d   0     -31.844   0.767   6.563  0.00  0.00    -0.650 OA
BRANCH  61  63
ATOM     63  O   UNK d   0     -33.003   0.827   8.512  0.00  0.00    -0.776 OA
ATOM     64  H   UNK d   0     -33.035   1.823   8.636  0.00  0.00     0.167 HD
ENDBRANCH  61  63
ENDBRANCH  60  61
ENDBRANCH  18  60
BRANCH  14  65
ATOM     65  C   UNK d   0     -32.049  -1.959   4.486  0.00  0.00     0.052 C 
BRANCH  65  66
ATOM     66  C   UNK d   0     -33.435  -1.658   4.036  0.00  0.00     0.115 C 
BRANCH  66  67
ATOM     67  C   UNK d   0     -33.720  -0.403   3.400  0.00  0.00     0.139 C 
ATOM     68  O   UNK d   0     -34.310  -0.415   2.257  0.00  0.00    -0.650 OA
BRANCH  67  69
ATOM     69  O   UNK d   0     -33.433   0.877   3.871  0.00  0.00    -0.776 OA
ATOM     70  H   UNK d   0     -33.390   1.618   3.157  0.00  0.00     0.167 HD
ENDBRANCH  67  69
ENDBRANCH  66  67
ENDBRANCH  65  66
ENDBRANCH  14  65
ENDBRANCH   6   7
ENDBRANCH   5   6
ENDBRANCH   2   5
TORSDOF 28
ENDMDL
MODEL 3
REMARK VINA RESULT:      -7.9      1.894      7.795
REMARK  28 active torsions:
REMARK  status: ('A' for Active; 'I' for Inactive)
REMARK    1  A    between atoms: C_2  and  O_3 
REMARK    2  A    between atoms: C_2  and  C_4 
REMARK    3  A    between atoms: C_4  and  C_5 
REMARK    4  A    between atoms: C_5  and  C_6 
REMARK    5  A    between atoms: C_7  and  C_8 
REMARK    6  A    between atoms: C_8  and  C_9 
REMARK    7  A    between atoms: C_9  and  O_11 
REMARK    8  A    between atoms: C_28  and  C_29 
REMARK    9  A    between atoms: C_29  and  C_30 
REMARK   10  A    between atoms: C_30  and  O_32 
REMARK   11  A    between atoms: C_33  and  C_34 
REMARK   12  A    between atoms: C_34  and  C_35 
REMARK   13  A    between atoms: C_35  and  C_36 
REMARK   14  A    between atoms: C_36  and  O_38 
REMARK   15  A    between atoms: C_39  and  C_40 
REMARK   16  A    between atoms: C_40  and  C_41 
REMARK   17  A    between atoms: C_41  and  C_42 
REMARK   18  A    between atoms: C_42  and  O_44 
REMARK   19  A    between atoms: C_45  and  C_46 
REMARK   20  A    between atoms: C_46  and  C_47 
REMARK   21  A    between atoms: C_47  and  O_49 
REMARK   22  A    between atoms: C_50  and  C_51 
REMARK   23  A    between atoms: C_51  and  C_52 
REMARK   24  A    between atoms: C_52  and  O_54 
REMARK   25  A    between atoms: C_55  and  C_56 
REMARK   26  A    between atoms: C_56  and  C_57 
REMARK   27  A    between atoms: C_57  and  C_58 
REMARK   28  A    between atoms: C_58  and  O_60 
ROOT
ATOM      1  O   UNK d   0     -32.080 -10.551  11.827  0.00  0.00    -0.650 OA
ATOM      2  C   UNK d   0     -32.010  -9.447  11.241  0.00  0.00     0.139 C 
ENDROOT
BRANCH   2   3
ATOM      3  O   UNK d   0     -30.786  -8.840  11.093  0.00  0.00    -0.776 OA
ATOM      4  H   UNK d   0     -29.972  -9.157  11.624  0.00  0.00     0.167 HD
ENDBRANCH   2   3
BRANCH   2   5
ATOM      5  C   UNK d   0     -33.244  -8.801  10.712  0.00  0.00     0.115 C 
BRANCH   5   6
ATOM      6  C   UNK d   0     -33.822  -7.868  11.741  0.00  0.00     0.052 C 
BRANCH   6   7
ATOM      7  C   UNK d   0     -34.023  -6.469  11.208  0.00  0.00    -0.020 A 
ATOM      8  C   UNK d   0     -34.872  -5.568  11.633  0.00  0.00    -0.011 A 
ATOM      9  C   UNK d   0     -34.709  -4.381  10.810  0.00  0.00     0.067 A 
ATOM     10  C   UNK d   0     -35.279  -3.099  10.758  0.00  0.00     0.062 C 
ATOM     11  N   UNK d   0     -33.745  -4.650   9.906  0.00  0.00    -0.248 NA
ATOM     12  C   UNK d   0     -34.795  -1.984  10.065  0.00  0.00     0.041 A 
ATOM     13  N   UNK d   0     -34.279  -1.866   8.827  0.00  0.00    -0.355 N 
ATOM     14  C   UNK d   0     -34.754  -0.741  10.721  0.00  0.00    -0.022 A 
ATOM     15  C   UNK d   0     -33.904  -0.580   8.683  0.00  0.00     0.042 A 
ATOM     16  H   UNK d   0     -34.199  -2.670   8.063  0.00  0.00     0.166 HD
ATOM     17  C   UNK d   0     -33.313   0.082   7.589  0.00  0.00     0.062 C 
ATOM     18  C   UNK d   0     -34.186   0.156   9.850  0.00  0.00    -0.013 A 
ATOM     19  C   UNK d   0     -32.275  -0.328   6.791  0.00  0.00     0.067 A 
ATOM     20  N   UNK d   0     -31.881  -1.598   6.917  0.00  0.00    -0.248 NA
ATOM     21  C   UNK d   0     -31.421   0.287   5.790  0.00  0.00    -0.011 A 
ATOM     22  C   UNK d   0     -30.831  -1.857   6.071  0.00  0.00     0.066 A 
ATOM     23  C   UNK d   0     -30.345  -3.157   6.071  0.00  0.00     0.062 C 
ATOM     24  C   UNK d   0     -30.575  -0.612   5.375  0.00  0.00    -0.020 A 
ATOM     25  C   UNK d   0     -30.854  -4.265   6.765  0.00  0.00     0.041 A 
ATOM     26  N   UNK d   0     -31.353  -4.387   8.001  0.00  0.00    -0.355 N 
ATOM     27  C   UNK d   0     -30.899  -5.512   6.105  0.00  0.00    -0.022 A 
ATOM     28  C   UNK d   0     -31.719  -5.670   8.150  0.00  0.00     0.042 A 
ATOM     29  H   UNK d   0     -31.423  -3.580   8.772  0.00  0.00     0.166 HD
ATOM     30  C   UNK d   0     -32.300  -6.343   9.236  0.00  0.00     0.062 C 
ATOM     31  C   UNK d   0     -31.445  -6.406   6.973  0.00  0.00    -0.013 A 
ATOM     32  C   UNK d   0     -33.291  -5.890  10.092  0.00  0.00     0.066 A 
BRANCH   8  33
ATOM     33  C   UNK d   0     -35.834  -5.711  12.741  0.00  0.00     0.151 C 
BRANCH  33  34
ATOM     34  C   UNK d   0     -37.236  -5.654  12.291  0.00  0.00     0.143 C 
ATOM     35  O   UNK d   0     -37.722  -4.601  11.855  0.00  0.00    -0.650 OA
BRANCH  34  36
ATOM     36  O   UNK d   0     -38.014  -6.787  12.359  0.00  0.00    -0.776 OA
ATOM     37  H   UNK d   0     -38.529  -7.131  11.537  0.00  0.00     0.167 HD
ENDBRANCH  34  36
ENDBRANCH  33  34
ENDBRANCH   8  33
BRANCH  31  38
ATOM     38  C   UNK d   0     -31.705  -7.870   6.701  0.00  0.00     0.151 C 
BRANCH  38  39
ATOM     39  C   UNK d   0     -30.574  -8.711   7.028  0.00  0.00     0.143 C 
ATOM     40  O   UNK d   0     -30.369  -9.131   8.181  0.00  0.00    -0.650 OA
BRANCH  39  41
ATOM     41  O   UNK d   0     -29.675  -9.073   6.026  0.00  0.00    -0.776 OA
ATOM     42  H   UNK d   0     -29.156  -9.946   6.164  0.00  0.00     0.167 HD
ENDBRANCH  39  41
ENDBRANCH  38  39
ENDBRANCH  31  38
BRANCH  27  43
ATOM     43  C   UNK d   0     -30.449  -5.876   4.711  0.00  0.00     0.052 C 
BRANCH  43  44
ATOM     44  C   UNK d   0     -31.562  -6.358   3.839  0.00  0.00     0.115 C 
BRANCH  44  45
ATOM     45  C   UNK d   0     -31.066  -7.581   3.155  0.00  0.00     0.139 C 
ATOM     46  O   UNK d   0     -29.903  -7.975   3.418  0.00  0.00    -0.650 OA
BRANCH  45  47
ATOM     47  O   UNK d   0     -31.827  -8.296   2.256  0.00  0.00    -0.776 OA
ATOM     48  H   UNK d   0     -31.916  -9.324   2.290  0.00  0.00     0.167 HD
ENDBRANCH  45  47
ENDBRANCH  44  45
ENDBRANCH  43  44
ENDBRANCH  27  43
BRANCH  24  49
ATOM     49  C   UNK d   0     -29.552  -0.425   4.332  0.00  0.00     0.052 C 
BRANCH  49  50
ATOM     50  C   UNK d   0     -28.244  -0.001   4.950  0.00  0.00     0.115 C 
BRANCH  50  51
ATOM     51  C   UNK d   0     -27.056  -0.757   4.577  0.00  0.00     0.139 C 
ATOM     52  O   UNK d   0     -26.929  -1.308   3.459  0.00  0.00    -0.650 OA
BRANCH  51  53
ATOM     53  O   UNK d   0     -26.013  -0.887   5.482  0.00  0.00    -0.776 OA
ATOM     54  H   UNK d   0     -26.170  -0.599   6.432  0.00  0.00     0.167 HD
ENDBRANCH  51  53
ENDBRANCH  50  51
ENDBRANCH  49  50
ENDBRANCH  24  49
BRANCH  21  55
ATOM     55  C   UNK d   0     -31.542   1.708   5.348  0.00  0.00     0.151 C 
BRANCH  55  56
ATOM     56  C   UNK d   0     -32.814   1.964   4.656  0.00  0.00     0.143 C 
ATOM     57  O   UNK d   0     -33.039   1.580   3.492  0.00  0.00    -0.650 OA
BRANCH  56  58
ATOM     58  O   UNK d   0     -33.799   2.668   5.348  0.00  0.00    -0.776 OA
ATOM     59  H   UNK d   0     -33.902   2.407   6.345  0.00  0.00     0.167 HD
ENDBRANCH  56  58
ENDBRANCH  55  56
ENDBRANCH  21  55
BRANCH  18  60
ATOM     60  C   UNK d   0     -33.941   1.614  10.149  0.00  0.00     0.151 C 
BRANCH  60  61
ATOM     61  C   UNK d   0     -34.958   2.358   9.390  0.00  0.00     0.143 C 
ATOM     62  O   UNK d   0     -34.798   2.958   8.326  0.00  0.00    -0.650 OA
BRANCH  61  63
ATOM     63  O   UNK d   0     -36.251   2.370   9.966  0.00  0.00    -0.776 OA
ATOM     64  H   UNK d   0     -37.065   2.556   9.407  0.00  0.00     0.167 HD
ENDBRANCH  61  63
ENDBRANCH  60  61
ENDBRANCH  18  60
BRANCH  14  65
ATOM     65  C   UNK d   0     -35.295  -0.318  12.057  0.00  0.00     0.052 C 
BRANCH  65  66
ATOM     66  C   UNK d   0     -34.505  -0.851  13.200  0.00  0.00     0.115 C 
BRANCH  66  67
ATOM     67  C   UNK d   0     -35.047  -1.908  14.007  0.00  0.00     0.139 C 
ATOM     68  O   UNK d   0     -36.321  -2.077  14.023  0.00  0.00    -0.650 OA
BRANCH  67  69
ATOM     69  O   UNK d   0     -34.350  -2.812  14.808  0.00  0.00    -0.776 OA
ATOM     70  H   UNK d   0     -34.629  -3.800  14.716  0.00  0.00     0.167 HD
ENDBRANCH  67  69
ENDBRANCH  66  67
ENDBRANCH  65  66
ENDBRANCH  14  65
ENDBRANCH   6   7
ENDBRANCH   5   6
ENDBRANCH   2   5
TORSDOF 28
ENDMDL
MODEL 4
REMARK VINA RESULT:      -7.7      1.637      3.938
REMARK  28 active torsions:
REMARK  status: ('A' for Active; 'I' for Inactive)
REMARK    1  A    between atoms: C_2  and  O_3 
REMARK    2  A    between atoms: C_2  and  C_4 
REMARK    3  A    between atoms: C_4  and  C_5 
REMARK    4  A    between atoms: C_5  and  C_6 
REMARK    5  A    between atoms: C_7  and  C_8 
REMARK    6  A    between atoms: C_8  and  C_9 
REMARK    7  A    between atoms: C_9  and  O_11 
REMARK    8  A    between atoms: C_28  and  C_29 
REMARK    9  A    between atoms: C_29  and  C_30 
REMARK   10  A    between atoms: C_30  and  O_32 
REMARK   11  A    between atoms: C_33  and  C_34 
REMARK   12  A    between atoms: C_34  and  C_35 
REMARK   13  A    between atoms: C_35  and  C_36 
REMARK   14  A    between atoms: C_36  and  O_38 
REMARK   15  A    between atoms: C_39  and  C_40 
REMARK   16  A    between atoms: C_40  and  C_41 
REMARK   17  A    between atoms: C_41  and  C_42 
REMARK   18  A    between atoms: C_42  and  O_44 
REMARK   19  A    between atoms: C_45  and  C_46 
REMARK   20  A    between atoms: C_46  and  C_47 
REMARK   21  A    between atoms: C_47  and  O_49 
REMARK   22  A    between atoms: C_50  and  C_51 
REMARK   23  A    between atoms: C_51  and  C_52 
REMARK   24  A    between atoms: C_52  and  O_54 
REMARK   25  A    between atoms: C_55  and  C_56 
REMARK   26  A    between atoms: C_56  and  C_57 
REMARK   27  A    between atoms: C_57  and  C_58 
REMARK   28  A    between atoms: C_58  and  O_60 
ROOT
ATOM      1  O   UNK d   0     -37.289   3.470   9.028  0.00  0.00    -0.650 OA
ATOM      2  C   UNK d   0     -36.590   2.468   8.758  0.00  0.00     0.139 C 
ENDROOT
BRANCH   2   3
ATOM      3  O   UNK d   0     -37.039   1.565   7.824  0.00  0.00    -0.776 OA
ATOM      4  H   UNK d   0     -38.010   1.577   7.504  0.00  0.00     0.167 HD
ENDBRANCH   2   3
BRANCH   2   5
ATOM      5  C   UNK d   0     -35.283   2.260   9.444  0.00  0.00     0.115 C 
BRANCH   5   6
ATOM      6  C   UNK d   0     -35.492   1.530  10.743  0.00  0.00     0.052 C 
BRANCH   6   7
ATOM      7  C   UNK d   0     -34.854   0.162  10.750  0.00  0.00    -0.020 A 
ATOM      8  C   UNK d   0     -34.661  -0.624  11.779  0.00  0.00    -0.011 A 
ATOM      9  C   UNK d   0     -34.007  -1.830  11.300  0.00  0.00     0.067 A 
ATOM     10  C   UNK d   0     -33.559  -3.033  11.869  0.00  0.00     0.062 C 
ATOM     11  N   UNK d   0     -33.833  -1.691   9.969  0.00  0.00    -0.248 NA
ATOM     12  C   UNK d   0     -33.199  -4.206  11.196  0.00  0.00     0.041 A 
ATOM     13  N   UNK d   0     -32.472  -4.400  10.079  0.00  0.00    -0.355 N 
ATOM     14  C   UNK d   0     -33.682  -5.439  11.672  0.00  0.00    -0.022 A 
ATOM     15  C   UNK d   0     -32.488  -5.723   9.829  0.00  0.00     0.042 A 
ATOM     16  H   UNK d   0     -31.942  -3.619   9.490  0.00  0.00     0.166 HD
ATOM     17  C   UNK d   0     -31.889  -6.463   8.791  0.00  0.00     0.062 C 
ATOM     18  C   UNK d   0     -33.237  -6.407  10.806  0.00  0.00    -0.013 A 
ATOM     19  C   UNK d   0     -31.854  -6.191   7.447  0.00  0.00     0.067 A 
ATOM     20  N   UNK d   0     -32.260  -4.978   7.065  0.00  0.00    -0.248 NA
ATOM     21  C   UNK d   0     -31.482  -6.917   6.244  0.00  0.00    -0.011 A 
ATOM     22  C   UNK d   0     -32.183  -4.858   5.699  0.00  0.00     0.066 A 
ATOM     23  C   UNK d   0     -32.541  -3.628   5.167  0.00  0.00     0.062 C 
ATOM     24  C   UNK d   0     -31.681  -6.133   5.224  0.00  0.00    -0.020 A 
ATOM     25  C   UNK d   0     -32.888  -2.459   5.860  0.00  0.00     0.041 A 
ATOM     26  N   UNK d   0     -33.622  -2.265   6.962  0.00  0.00    -0.355 N 
ATOM     27  C   UNK d   0     -32.399  -1.222   5.385  0.00  0.00    -0.022 A 
ATOM     28  C   UNK d   0     -33.615  -0.945   7.209  0.00  0.00     0.042 A 
ATOM     29  H   UNK d   0     -34.163  -3.049   7.547  0.00  0.00     0.166 HD
ATOM     30  C   UNK d   0     -34.215  -0.194   8.232  0.00  0.00     0.062 C 
ATOM     31  C   UNK d   0     -32.854  -0.259   6.233  0.00  0.00    -0.013 A 
ATOM     32  C   UNK d   0     -34.322  -0.514   9.576  0.00  0.00     0.066 A 
BRANCH   8  33
ATOM     33  C   UNK d   0     -35.029  -0.353  13.181  0.00  0.00     0.151 C 
BRANCH  33  34
ATOM     34  C   UNK d   0     -35.663  -1.510  13.838  0.00  0.00     0.143 C 
ATOM     35  O   UNK d   0     -35.029  -2.215  14.636  0.00  0.00    -0.650 OA
BRANCH  34  36
ATOM     36  O   UNK d   0     -36.977  -1.809  13.558  0.00  0.00    -0.776 OA
ATOM     37  H   UNK d   0     -37.743  -1.440  14.137  0.00  0.00     0.167 HD
ENDBRANCH  34  36
ENDBRANCH  33  34
ENDBRANCH   8  33
BRANCH  31  38
ATOM     38  C   UNK d   0     -32.573   1.222   6.132  0.00  0.00     0.151 C 
BRANCH  38  39
ATOM     39  C   UNK d   0     -33.593   1.938   5.396  0.00  0.00     0.143 C 
ATOM     40  O   UNK d   0     -34.569   2.468   5.956  0.00  0.00    -0.650 OA
BRANCH  39  41
ATOM     41  O   UNK d   0     -33.491   2.046   4.009  0.00  0.00    -0.776 OA
ATOM     42  H   UNK d   0     -34.105   2.728   3.553  0.00  0.00     0.167 HD
ENDBRANCH  39  41
ENDBRANCH  38  39
ENDBRANCH  31  38
BRANCH  27  43
ATOM     43  C   UNK d   0     -31.537  -0.931   4.182  0.00  0.00     0.052 C 
BRANCH  43  44
ATOM     44  C   UNK d   0     -30.309  -0.146   4.511  0.00  0.00     0.115 C 
BRANCH  44  45
ATOM     45  C   UNK d   0     -29.580  -0.917   5.552  0.00  0.00     0.139 C 
ATOM     46  O   UNK d   0     -29.262  -0.324   6.613  0.00  0.00    -0.650 OA
BRANCH  45  47
ATOM     47  O   UNK d   0     -29.247  -2.245   5.403  0.00  0.00    -0.776 OA
ATOM     48  H   UNK d   0     -28.541  -2.716   5.992  0.00  0.00     0.167 HD
ENDBRANCH  45  47
ENDBRANCH  44  45
ENDBRANCH  43  44
ENDBRANCH  27  43
BRANCH  24  49
ATOM     49  C   UNK d   0     -31.400  -6.453   3.814  0.00  0.00     0.052 C 
BRANCH  49  50
ATOM     50  C   UNK d   0     -29.945  -6.216   3.503  0.00  0.00     0.115 C 
BRANCH  50  51
ATOM     51  C   UNK d   0     -29.136  -7.382   3.176  0.00  0.00     0.139 C 
ATOM     52  O   UNK d   0     -29.357  -8.099   2.171  0.00  0.00    -0.650 OA
BRANCH  51  53
ATOM     53  O   UNK d   0     -28.075  -7.734   3.996  0.00  0.00    -0.776 OA
ATOM     54  H   UNK d   0     -27.237  -8.084   3.566  0.00  0.00     0.167 HD
ENDBRANCH  51  53
ENDBRANCH  50  51
ENDBRANCH  49  50
ENDBRANCH  24  49
BRANCH  21  55
ATOM     55  C   UNK d   0     -30.964  -8.317   6.239  0.00  0.00     0.151 C 
BRANCH  55  56
ATOM     56  C   UNK d   0     -31.167  -8.984   7.534  0.00  0.00     0.143 C 
ATOM     57  O   UNK d   0     -30.238  -9.198   8.337  0.00  0.00    -0.650 OA
BRANCH  56  58
ATOM     58  O   UNK d   0     -32.461  -9.387   7.861  0.00  0.00    -0.776 OA
ATOM     59  H   UNK d   0     -32.770 -10.269   7.412  0.00  0.00     0.167 HD
ENDBRANCH  56  58
ENDBRANCH  55  56
ENDBRANCH  21  55
BRANCH  18  60
ATOM     60  C   UNK d   0     -33.531  -7.881  10.933  0.00  0.00     0.151 C 
BRANCH  60  61
ATOM     61  C   UNK d   0     -32.256  -8.517  11.300  0.00  0.00     0.143 C 
ATOM     62  O   UNK d   0     -31.367  -8.042  12.007  0.00  0.00    -0.650 OA
BRANCH  61  63
ATOM     63  O   UNK d   0     -32.056  -9.815  10.771  0.00  0.00    -0.776 OA
ATOM     64  H   UNK d   0     -32.689 -10.202  10.094  0.00  0.00     0.167 HD
ENDBRANCH  61  63
ENDBRANCH  60  61
ENDBRANCH  18  60
BRANCH  14  65
ATOM     65  C   UNK d   0     -34.441  -5.778  12.923  0.00  0.00     0.052 C 
BRANCH  65  66
ATOM     66  C   UNK d   0     -35.903  -5.933  12.692  0.00  0.00     0.115 C 
BRANCH  66  67
ATOM     67  C   UNK d   0     -36.577  -5.053  11.780  0.00  0.00     0.139 C 
ATOM     68  O   UNK d   0     -37.377  -4.168  12.260  0.00  0.00    -0.650 OA
BRANCH  67  69
ATOM     69  O   UNK d   0     -36.478  -5.027  10.390  0.00  0.00    -0.776 OA
ATOM     70  H   UNK d   0     -36.521  -4.093   9.955  0.00  0.00     0.167 HD
ENDBRANCH  67  69
ENDBRANCH  66  67
ENDBRANCH  65  66
ENDBRANCH  14  65
ENDBRANCH   6   7
ENDBRANCH   5   6
ENDBRANCH   2   5
TORSDOF 28
ENDMDL
MODEL 5
REMARK VINA RESULT:      -7.3      2.140      6.078
REMARK  28 active torsions:
REMARK  status: ('A' for Active; 'I' for Inactive)
REMARK    1  A    between atoms: C_2  and  O_3 
REMARK    2  A    between atoms: C_2  and  C_4 
REMARK    3  A    between atoms: C_4  and  C_5 
REMARK    4  A    between atoms: C_5  and  C_6 
REMARK    5  A    between atoms: C_7  and  C_8 
REMARK    6  A    between atoms: C_8  and  C_9 
REMARK    7  A    between atoms: C_9  and  O_11 
REMARK    8  A    between atoms: C_28  and  C_29 
REMARK    9  A    between atoms: C_29  and  C_30 
REMARK   10  A    between atoms: C_30  and  O_32 
REMARK   11  A    between atoms: C_33  and  C_34 
REMARK   12  A    between atoms: C_34  and  C_35 
REMARK   13  A    between atoms: C_35  and  C_36 
REMARK   14  A    between atoms: C_36  and  O_38 
REMARK   15  A    between atoms: C_39  and  C_40 
REMARK   16  A    between atoms: C_40  and  C_41 
REMARK   17  A    between atoms: C_41  and  C_42 
REMARK   18  A    between atoms: C_42  and  O_44 
REMARK   19  A    between atoms: C_45  and  C_46 
REMARK   20  A    between atoms: C_46  and  C_47 
REMARK   21  A    between atoms: C_47  and  O_49 
REMARK   22  A    between atoms: C_50  and  C_51 
REMARK   23  A    between atoms: C_51  and  C_52 
REMARK   24  A    between atoms: C_52  and  O_54 
REMARK   25  A    between atoms: C_55  and  C_56 
REMARK   26  A    between atoms: C_56  and  C_57 
REMARK   27  A    between atoms: C_57  and  C_58 
REMARK   28  A    between atoms: C_58  and  O_60 
ROOT
ATOM      1  O   UNK d   0     -37.673  -3.048  10.643  0.00  0.00    -0.650 OA
ATOM      2  C   UNK d   0     -36.982  -2.404  11.464  0.00  0.00     0.139 C 
ENDROOT
BRANCH   2   3
ATOM      3  O   UNK d   0     -37.283  -2.479  12.802  0.00  0.00    -0.776 OA
ATOM      4  H   UNK d   0     -38.202  -2.202  13.153  0.00  0.00     0.167 HD
ENDBRANCH   2   3
BRANCH   2   5
ATOM      5  C   UNK d   0     -35.846  -1.564  10.989  0.00  0.00     0.115 C 
BRANCH   5   6
ATOM      6  C   UNK d   0     -34.595  -1.909  11.750  0.00  0.00     0.052 C 
BRANCH   6   7
ATOM      7  C   UNK d   0     -33.979  -3.211  11.298  0.00  0.00    -0.020 A 
ATOM      8  C   UNK d   0     -33.930  -4.342  11.955  0.00  0.00    -0.011 A 
ATOM      9  C   UNK d   0     -33.234  -5.310  11.124  0.00  0.00     0.067 A 
ATOM     10  C   UNK d   0     -32.878  -6.664  11.229  0.00  0.00     0.062 C 
ATOM     11  N   UNK d   0     -32.890  -4.682   9.980  0.00  0.00    -0.248 NA
ATOM     12  C   UNK d   0     -32.449  -7.508  10.199  0.00  0.00     0.041 A 
ATOM     13  N   UNK d   0     -31.587  -7.303   9.185  0.00  0.00    -0.355 N 
ATOM     14  C   UNK d   0     -33.004  -8.797  10.101  0.00  0.00    -0.022 A 
ATOM     15  C   UNK d   0     -31.587  -8.425   8.441  0.00  0.00     0.042 A 
ATOM     16  H   UNK d   0     -30.977  -6.390   9.010  0.00  0.00     0.166 HD
ATOM     17  C   UNK d   0     -30.869  -8.746   7.272  0.00  0.00     0.062 C 
ATOM     18  C   UNK d   0     -32.464  -9.385   8.984  0.00  0.00    -0.013 A 
ATOM     19  C   UNK d   0     -30.657  -7.983   6.153  0.00  0.00     0.067 A 
ATOM     20  N   UNK d   0     -30.996  -6.693   6.228  0.00  0.00    -0.248 NA
ATOM     21  C   UNK d   0     -30.144  -8.213   4.813  0.00  0.00    -0.011 A 
ATOM     22  C   UNK d   0     -30.743  -6.064   5.034  0.00  0.00     0.066 A 
ATOM     23  C   UNK d   0     -31.015  -4.704   4.983  0.00  0.00     0.062 C 
ATOM     24  C   UNK d   0     -30.201  -7.087   4.162  0.00  0.00    -0.020 A 
ATOM     25  C   UNK d   0     -31.434  -3.871   6.032  0.00  0.00     0.041 A 
ATOM     26  N   UNK d   0     -32.301  -4.070   7.032  0.00  0.00    -0.355 N 
ATOM     27  C   UNK d   0     -30.873  -2.579   6.133  0.00  0.00    -0.022 A 
ATOM     28  C   UNK d   0     -32.310  -2.949   7.770  0.00  0.00     0.042 A 
ATOM     29  H   UNK d   0     -32.922  -4.984   7.201  0.00  0.00     0.166 HD
ATOM     30  C   UNK d   0     -33.026  -2.613   8.929  0.00  0.00     0.062 C 
ATOM     31  C   UNK d   0     -31.421  -1.989   7.230  0.00  0.00    -0.013 A 
ATOM     32  C   UNK d   0     -33.310  -3.417  10.022  0.00  0.00     0.066 A 
BRANCH   8  33
ATOM     33  C   UNK d   0     -34.472  -4.607  13.301  0.00  0.00     0.151 C 
BRANCH  33  34
ATOM     34  C   UNK d   0     -35.667  -5.469  13.275  0.00  0.00     0.143 C 
ATOM     35  O   UNK d   0     -36.510  -5.361  12.373  0.00  0.00    -0.650 OA
BRANCH  34  36
ATOM     36  O   UNK d   0     -35.848  -6.402  14.269  0.00  0.00    -0.776 OA
ATOM     37  H   UNK d   0     -35.163  -7.154  14.428  0.00  0.00     0.167 HD
ENDBRANCH  34  36
ENDBRANCH  33  34
ENDBRANCH   8  33
BRANCH  31  38
ATOM     38  C   UNK d   0     -31.112  -0.603   7.745  0.00  0.00     0.151 C 
BRANCH  38  39
ATOM     39  C   UNK d   0     -32.050   0.394   7.273  0.00  0.00     0.143 C 
ATOM     40  O   UNK d   0     -32.027   0.830   6.108  0.00  0.00    -0.650 OA
BRANCH  39  41
ATOM     41  O   UNK d   0     -33.020   0.890   8.143  0.00  0.00    -0.776 OA
ATOM     42  H   UNK d   0     -33.075   1.909   8.240  0.00  0.00     0.167 HD
ENDBRANCH  39  41
ENDBRANCH  38  39
ENDBRANCH  31  38
BRANCH  27  43
ATOM     43  C   UNK d   0     -29.860  -1.902   5.244  0.00  0.00     0.052 C 
BRANCH  43  44
ATOM     44  C   UNK d   0     -28.493  -1.841   5.844  0.00  0.00     0.115 C 
BRANCH  44  45
ATOM     45  C   UNK d   0     -27.654  -1.047   4.909  0.00  0.00     0.139 C 
ATOM     46  O   UNK d   0     -28.219  -0.486   3.938  0.00  0.00    -0.650 OA
BRANCH  45  47
ATOM     47  O   UNK d   0     -26.293  -0.900   5.068  0.00  0.00    -0.776 OA
ATOM     48  H   UNK d   0     -25.873  -0.131   5.615  0.00  0.00     0.167 HD
ENDBRANCH  45  47
ENDBRANCH  44  45
ENDBRANCH  43  44
ENDBRANCH  27  43
BRANCH  24  49
ATOM     49  C   UNK d   0     -29.744  -6.859   2.780  0.00  0.00     0.052 C 
BRANCH  49  50
ATOM     50  C   UNK d   0     -28.241  -6.929   2.706  0.00  0.00     0.115 C 
BRANCH  50  51
ATOM     51  C   UNK d   0     -27.664  -7.989   1.890  0.00  0.00     0.139 C 
ATOM     52  O   UNK d   0     -28.362  -8.754   1.183  0.00  0.00    -0.650 OA
BRANCH  51  53
ATOM     53  O   UNK d   0     -26.291  -8.180   1.883  0.00  0.00    -0.776 OA
ATOM     54  H   UNK d   0     -25.909  -8.908   2.460  0.00  0.00     0.167 HD
ENDBRANCH  51  53
ENDBRANCH  50  51
ENDBRANCH  49  50
ENDBRANCH  24  49
BRANCH  21  55
ATOM     55  C   UNK d   0     -29.646  -9.533   4.325  0.00  0.00     0.151 C 
BRANCH  55  56
ATOM     56  C   UNK d   0     -28.440  -9.968   5.046  0.00  0.00     0.143 C 
ATOM     57  O   UNK d   0     -27.562  -9.173   5.434  0.00  0.00    -0.650 OA
BRANCH  56  58
ATOM     58  O   UNK d   0     -28.290 -11.331   5.296  0.00  0.00    -0.776 OA
ATOM     59  H   UNK d   0     -27.470 -11.580   5.877  0.00  0.00     0.167 HD
ENDBRANCH  56  58
ENDBRANCH  55  56
ENDBRANCH  21  55
BRANCH  18  60
ATOM     60  C   UNK d   0     -32.789 -10.774   8.495  0.00  0.00     0.151 C 
BRANCH  60  61
ATOM     61  C   UNK d   0     -31.935 -11.686   9.271  0.00  0.00     0.143 C 
ATOM     62  O   UNK d   0     -30.705 -11.682   9.329  0.00  0.00    -0.650 OA
BRANCH  61  63
ATOM     63  O   UNK d   0     -32.627 -12.665  10.025  0.00  0.00    -0.776 OA
ATOM     64  H   UNK d   0     -32.238 -13.037  10.873  0.00  0.00     0.167 HD
ENDBRANCH  61  63
ENDBRANCH  60  61
ENDBRANCH  18  60
BRANCH  14  65
ATOM     65  C   UNK d   0     -33.922  -9.544  11.027  0.00  0.00     0.052 C 
BRANCH  65  66
ATOM     66  C   UNK d   0     -33.283  -9.888  12.325  0.00  0.00     0.115 C 
BRANCH  66  67
ATOM     67  C   UNK d   0     -32.277 -10.912  12.374  0.00  0.00     0.139 C 
ATOM     68  O   UNK d   0     -32.577 -12.042  12.908  0.00  0.00    -0.650 OA
BRANCH  67  69
ATOM     69  O   UNK d   0     -30.966 -10.843  11.903  0.00  0.00    -0.776 OA
ATOM     70  H   UNK d   0     -30.545 -11.738  11.616  0.00  0.00     0.167 HD
ENDBRANCH  67  69
ENDBRANCH  66  67
ENDBRANCH  65  66
ENDBRANCH  14  65
ENDBRANCH   6   7
ENDBRANCH   5   6
ENDBRANCH   2   5
TORSDOF 28
ENDMDL
MODEL 6
REMARK VINA RESULT:      -6.9     21.955     25.469
REMARK  28 active torsions:
REMARK  status: ('A' for Active; 'I' for Inactive)
REMARK    1  A    between atoms: C_2  and  O_3 
REMARK    2  A    between atoms: C_2  and  C_4 
REMARK    3  A    between atoms: C_4  and  C_5 
REMARK    4  A    between atoms: C_5  and  C_6 
REMARK    5  A    between atoms: C_7  and  C_8 
REMARK    6  A    between atoms: C_8  and  C_9 
REMARK    7  A    between atoms: C_9  and  O_11 
REMARK    8  A    between atoms: C_28  and  C_29 
REMARK    9  A    between atoms: C_29  and  C_30 
REMARK   10  A    between atoms: C_30  and  O_32 
REMARK   11  A    between atoms: C_33  and  C_34 
REMARK   12  A    between atoms: C_34  and  C_35 
REMARK   13  A    between atoms: C_35  and  C_36 
REMARK   14  A    between atoms: C_36  and  O_38 
REMARK   15  A    between atoms: C_39  and  C_40 
REMARK   16  A    between atoms: C_40  and  C_41 
REMARK   17  A    between atoms: C_41  and  C_42 
REMARK   18  A    between atoms: C_42  and  O_44 
REMARK   19  A    between atoms: C_45  and  C_46 
REMARK   20  A    between atoms: C_46  and  C_47 
REMARK   21  A    between atoms: C_47  and  O_49 
REMARK   22  A    between atoms: C_50  and  C_51 
REMARK   23  A    between atoms: C_51  and  C_52 
REMARK   24  A    between atoms: C_52  and  O_54 
REMARK   25  A    between atoms: C_55  and  C_56 
REMARK   26  A    between atoms: C_56  and  C_57 
REMARK   27  A    between atoms: C_57  and  C_58 
REMARK   28  A    between atoms: C_58  and  O_60 
ROOT
ATOM      1  O   UNK d   0     -15.915   9.505   8.557  0.00  0.00    -0.650 OA
ATOM      2  C   UNK d   0     -16.297   9.144   9.692  0.00  0.00     0.139 C 
ENDROOT
BRANCH   2   3
ATOM      3  O   UNK d   0     -16.247  10.038  10.735  0.00  0.00    -0.776 OA
ATOM      4  H   UNK d   0     -16.005  11.018  10.579  0.00  0.00     0.167 HD
ENDBRANCH   2   3
BRANCH   2   5
ATOM      5  C   UNK d   0     -16.800   7.758   9.907  0.00  0.00     0.115 C 
BRANCH   5   6
ATOM      6  C   UNK d   0     -15.812   6.760   9.367  0.00  0.00     0.052 C 
BRANCH   6   7
ATOM      7  C   UNK d   0     -15.074   6.023  10.460  0.00  0.00    -0.020 A 
ATOM      8  C   UNK d   0     -15.333   4.832  10.934  0.00  0.00    -0.011 A 
ATOM      9  C   UNK d   0     -14.362   4.548  11.978  0.00  0.00     0.067 A 
ATOM     10  C   UNK d   0     -14.084   3.474  12.838  0.00  0.00     0.062 C 
ATOM     11  N   UNK d   0     -13.554   5.625  12.077  0.00  0.00    -0.248 NA
ATOM     12  C   UNK d   0     -12.924   3.272  13.594  0.00  0.00     0.041 A 
ATOM     13  N   UNK d   0     -12.187   4.125  14.331  0.00  0.00    -0.355 N 
ATOM     14  C   UNK d   0     -12.327   1.998  13.597  0.00  0.00    -0.022 A 
ATOM     15  C   UNK d   0     -11.133   3.427  14.795  0.00  0.00     0.042 A 
ATOM     16  H   UNK d   0     -12.417   5.193  14.535  0.00  0.00     0.166 HD
ATOM     17  C   UNK d   0     -10.059   3.830  15.613  0.00  0.00     0.062 C 
ATOM     18  C   UNK d   0     -11.186   2.090  14.355  0.00  0.00    -0.013 A 
ATOM     19  C   UNK d   0      -9.295   4.966  15.534  0.00  0.00     0.067 A 
ATOM     20  N   UNK d   0      -9.722   5.927  14.711  0.00  0.00    -0.248 NA
ATOM     21  C   UNK d   0      -8.056   5.436  16.133  0.00  0.00    -0.011 A 
ATOM     22  C   UNK d   0      -8.853   6.990  14.727  0.00  0.00     0.066 A 
ATOM     23  C   UNK d   0      -9.197   8.080  13.941  0.00  0.00     0.062 C 
ATOM     24  C   UNK d   0      -7.801   6.619  15.653  0.00  0.00    -0.020 A 
ATOM     25  C   UNK d   0     -10.373   8.268  13.199  0.00  0.00     0.041 A 
ATOM     26  N   UNK d   0     -11.098   7.425  12.454  0.00  0.00    -0.355 N 
ATOM     27  C   UNK d   0     -10.975   9.546  13.200  0.00  0.00    -0.022 A 
ATOM     28  C   UNK d   0     -12.145   8.121  11.983  0.00  0.00     0.042 A 
ATOM     29  H   UNK d   0     -10.859   6.354  12.241  0.00  0.00     0.166 HD
ATOM     30  C   UNK d   0     -13.215   7.734  11.161  0.00  0.00     0.062 C 
ATOM     31  C   UNK d   0     -12.096   9.461  12.434  0.00  0.00    -0.013 A 
ATOM     32  C   UNK d   0     -13.929   6.547  11.190  0.00  0.00     0.066 A 
BRANCH   8  33
ATOM     33  C   UNK d   0     -16.413   3.924  10.506  0.00  0.00     0.151 C 
BRANCH  33  34
ATOM     34  C   UNK d   0     -16.022   3.066   9.373  0.00  0.00     0.143 C 
ATOM     35  O   UNK d   0     -16.701   3.031   8.337  0.00  0.00    -0.650 OA
BRANCH  34  36
ATOM     36  O   UNK d   0     -14.888   2.294   9.470  0.00  0.00    -0.776 OA
ATOM     37  H   UNK d   0     -14.944   1.268   9.539  0.00  0.00     0.167 HD
ENDBRANCH  34  36
ENDBRANCH  33  34
ENDBRANCH   8  33
BRANCH  31  38
ATOM     38  C   UNK d   0     -13.072  10.580  12.156  0.00  0.00     0.151 C 
BRANCH  38  39
ATOM     39  C   UNK d   0     -12.816  11.249  10.898  0.00  0.00     0.143 C 
ATOM     40  O   UNK d   0     -12.153  12.299  10.826  0.00  0.00    -0.650 OA
BRANCH  39  41
ATOM     41  O   UNK d   0     -13.323  10.708   9.717  0.00  0.00    -0.776 OA
ATOM     42  H   UNK d   0     -12.737  10.017   9.237  0.00  0.00     0.167 HD
ENDBRANCH  39  41
ENDBRANCH  38  39
ENDBRANCH  31  38
BRANCH  27  43
ATOM     43  C   UNK d   0     -10.530  10.814  13.886  0.00  0.00     0.052 C 
BRANCH  43  44
ATOM     44  C   UNK d   0      -9.050  11.018  13.848  0.00  0.00     0.115 C 
BRANCH  44  45
ATOM     45  C   UNK d   0      -8.824  12.486  13.876  0.00  0.00     0.139 C 
ATOM     46  O   UNK d   0      -9.337  13.182  12.966  0.00  0.00    -0.650 OA
BRANCH  45  47
ATOM     47  O   UNK d   0      -8.083  13.109  14.858  0.00  0.00    -0.776 OA
ATOM     48  H   UNK d   0      -8.389  13.161  15.843  0.00  0.00     0.167 HD
ENDBRANCH  45  47
ENDBRANCH  44  45
ENDBRANCH  43  44
ENDBRANCH  27  43
BRANCH  24  49
ATOM     49  C   UNK d   0      -6.661   7.477  16.019  0.00  0.00     0.052 C 
BRANCH  49  50
ATOM     50  C   UNK d   0      -7.006   8.325  17.216  0.00  0.00     0.115 C 
BRANCH  50  51
ATOM     51  C   UNK d   0      -6.482   9.684  17.241  0.00  0.00     0.139 C 
ATOM     52  O   UNK d   0      -5.684  10.085  18.121  0.00  0.00    -0.650 OA
BRANCH  51  53
ATOM     53  O   UNK d   0      -6.872  10.587  16.264  0.00  0.00    -0.776 OA
ATOM     54  H   UNK d   0      -7.624  11.220  16.473  0.00  0.00     0.167 HD
ENDBRANCH  51  53
ENDBRANCH  50  51
ENDBRANCH  49  50
ENDBRANCH  24  49
BRANCH  21  55
ATOM     55  C   UNK d   0      -7.260   4.655  17.125  0.00  0.00     0.151 C 
BRANCH  55  56
ATOM     56  C   UNK d   0      -7.878   4.667  18.460  0.00  0.00     0.143 C 
ATOM     57  O   UNK d   0      -8.561   5.621  18.879  0.00  0.00    -0.650 OA
BRANCH  56  58
ATOM     58  O   UNK d   0      -7.680   3.554  19.277  0.00  0.00    -0.776 OA
ATOM     59  H   UNK d   0      -8.277   2.738  19.053  0.00  0.00     0.167 HD
ENDBRANCH  56  58
ENDBRANCH  55  56
ENDBRANCH  21  55
BRANCH  18  60
ATOM     60  C   UNK d   0     -10.230   0.953  14.619  0.00  0.00     0.151 C 
BRANCH  60  61
ATOM     61  C   UNK d   0     -10.624   0.388  15.919  0.00  0.00     0.143 C 
ATOM     62  O   UNK d   0     -11.711   0.512  16.484  0.00  0.00    -0.650 OA
BRANCH  61  63
ATOM     63  O   UNK d   0      -9.627  -0.378  16.569  0.00  0.00    -0.776 OA
ATOM     64  H   UNK d   0      -9.328  -0.156  17.502  0.00  0.00     0.167 HD
ENDBRANCH  61  63
ENDBRANCH  60  61
ENDBRANCH  18  60
BRANCH  14  65
ATOM     65  C   UNK d   0     -12.799   0.692  13.025  0.00  0.00     0.052 C 
BRANCH  65  66
ATOM     66  C   UNK d   0     -11.833   0.095  12.063  0.00  0.00     0.115 C 
BRANCH  66  67
ATOM     67  C   UNK d   0     -11.434   0.838  10.901  0.00  0.00     0.139 C 
ATOM     68  O   UNK d   0     -12.242   1.720  10.430  0.00  0.00    -0.650 OA
BRANCH  67  69
ATOM     69  O   UNK d   0     -10.243   0.727  10.186  0.00  0.00    -0.776 OA
ATOM     70  H   UNK d   0     -10.335   0.424   9.205  0.00  0.00     0.167 HD
ENDBRANCH  67  69
ENDBRANCH  66  67
ENDBRANCH  65  66
ENDBRANCH  14  65
ENDBRANCH   6   7
ENDBRANCH   5   6
ENDBRANCH   2   5
TORSDOF 28
ENDMDL
MODEL 7
REMARK VINA RESULT:      -6.8      6.116     11.233
REMARK  28 active torsions:
REMARK  status: ('A' for Active; 'I' for Inactive)
REMARK    1  A    between atoms: C_2  and  O_3 
REMARK    2  A    between atoms: C_2  and  C_4 
REMARK    3  A    between atoms: C_4  and  C_5 
REMARK    4  A    between atoms: C_5  and  C_6 
REMARK    5  A    between atoms: C_7  and  C_8 
REMARK    6  A    between atoms: C_8  and  C_9 
REMARK    7  A    between atoms: C_9  and  O_11 
REMARK    8  A    between atoms: C_28  and  C_29 
REMARK    9  A    between atoms: C_29  and  C_30 
REMARK   10  A    between atoms: C_30  and  O_32 
REMARK   11  A    between atoms: C_33  and  C_34 
REMARK   12  A    between atoms: C_34  and  C_35 
REMARK   13  A    between atoms: C_35  and  C_36 
REMARK   14  A    between atoms: C_36  and  O_38 
REMARK   15  A    between atoms: C_39  and  C_40 
REMARK   16  A    between atoms: C_40  and  C_41 
REMARK   17  A    between atoms: C_41  and  C_42 
REMARK   18  A    between atoms: C_42  and  O_44 
REMARK   19  A    between atoms: C_45  and  C_46 
REMARK   20  A    between atoms: C_46  and  C_47 
REMARK   21  A    between atoms: C_47  and  O_49 
REMARK   22  A    between atoms: C_50  and  C_51 
REMARK   23  A    between atoms: C_51  and  C_52 
REMARK   24  A    between atoms: C_52  and  O_54 
REMARK   25  A    between atoms: C_55  and  C_56 
REMARK   26  A    between atoms: C_56  and  C_57 
REMARK   27  A    between atoms: C_57  and  C_58 
REMARK   28  A    between atoms: C_58  and  O_60 
ROOT
ATOM      1  O   UNK d   0     -21.795   3.790   5.283  0.00  0.00    -0.650 OA
ATOM      2  C   UNK d   0     -22.313   3.148   4.343  0.00  0.00     0.139 C 
ENDROOT
BRANCH   2   3
ATOM      3  O   UNK d   0     -22.267   1.775   4.359  0.00  0.00    -0.776 OA
ATOM      4  H   UNK d   0     -22.435   1.231   3.510  0.00  0.00     0.167 HD
ENDBRANCH   2   3
BRANCH   2   5
ATOM      5  C   UNK d   0     -22.973   3.869   3.218  0.00  0.00     0.115 C 
BRANCH   5   6
ATOM      6  C   UNK d   0     -23.605   2.885   2.272  0.00  0.00     0.052 C 
BRANCH   6   7
ATOM      7  C   UNK d   0     -25.110   2.847   2.392  0.00  0.00    -0.020 A 
ATOM      8  C   UNK d   0     -25.985   3.492   1.664  0.00  0.00    -0.011 A 
ATOM      9  C   UNK d   0     -27.310   3.150   2.154  0.00  0.00     0.067 A 
ATOM     10  C   UNK d   0     -28.632   3.472   1.809  0.00  0.00     0.062 C 
ATOM     11  N   UNK d   0     -27.147   2.295   3.186  0.00  0.00    -0.248 NA
ATOM     12  C   UNK d   0     -29.799   2.822   2.224  0.00  0.00     0.041 A 
ATOM     13  N   UNK d   0     -30.170   2.351   3.430  0.00  0.00    -0.355 N 
ATOM     14  C   UNK d   0     -30.786   2.519   1.269  0.00  0.00    -0.022 A 
ATOM     15  C   UNK d   0     -31.363   1.750   3.263  0.00  0.00     0.042 A 
ATOM     16  H   UNK d   0     -29.608   2.458   4.384  0.00  0.00     0.166 HD
ATOM     17  C   UNK d   0     -32.196   1.097   4.194  0.00  0.00     0.062 C 
ATOM     18  C   UNK d   0     -31.782   1.835   1.921  0.00  0.00    -0.013 A 
ATOM     19  C   UNK d   0     -31.857   0.193   5.167  0.00  0.00     0.067 A 
ATOM     20  N   UNK d   0     -30.555   0.037   5.422  0.00  0.00    -0.248 NA
ATOM     21  C   UNK d   0     -32.576  -0.714   6.047  0.00  0.00    -0.011 A 
ATOM     22  C   UNK d   0     -30.371  -0.906   6.403  0.00  0.00     0.066 A 
ATOM     23  C   UNK d   0     -29.061  -1.141   6.794  0.00  0.00     0.062 C 
ATOM     24  C   UNK d   0     -31.700  -1.357   6.764  0.00  0.00    -0.020 A 
ATOM     25  C   UNK d   0     -27.903  -0.467   6.373  0.00  0.00     0.041 A 
ATOM     26  N   UNK d   0     -27.528  -0.012   5.172  0.00  0.00    -0.355 N 
ATOM     27  C   UNK d   0     -26.915  -0.160   7.334  0.00  0.00    -0.022 A 
ATOM     28  C   UNK d   0     -26.334   0.579   5.335  0.00  0.00     0.042 A 
ATOM     29  H   UNK d   0     -28.088  -0.130   4.212  0.00  0.00     0.166 HD
ATOM     30  C   UNK d   0     -25.491   1.224   4.416  0.00  0.00     0.062 C 
ATOM     31  C   UNK d   0     -25.919   0.503   6.685  0.00  0.00    -0.013 A 
ATOM     32  C   UNK d   0     -25.846   2.072   3.379  0.00  0.00     0.066 A 
BRANCH   8  33
ATOM     33  C   UNK d   0     -25.701   4.411   0.546  0.00  0.00     0.151 C 
BRANCH  33  34
ATOM     34  C   UNK d   0     -26.130   3.873  -0.758  0.00  0.00     0.143 C 
ATOM     35  O   UNK d   0     -26.124   4.584  -1.773  0.00  0.00    -0.650 OA
BRANCH  34  36
ATOM     36  O   UNK d   0     -26.543   2.564  -0.845  0.00  0.00    -0.776 OA
ATOM     37  H   UNK d   0     -25.958   1.849  -1.299  0.00  0.00     0.167 HD
ENDBRANCH  34  36
ENDBRANCH  33  34
ENDBRANCH   8  33
BRANCH  31  38
ATOM     38  C   UNK d   0     -24.654   1.043   7.310  0.00  0.00     0.151 C 
BRANCH  38  39
ATOM     39  C   UNK d   0     -23.671   0.013   7.570  0.00  0.00     0.143 C 
ATOM     40  O   UNK d   0     -22.618   0.239   8.192  0.00  0.00    -0.650 OA
BRANCH  39  41
ATOM     41  O   UNK d   0     -23.900  -1.285   7.113  0.00  0.00    -0.776 OA
ATOM     42  H   UNK d   0     -24.637  -1.817   7.586  0.00  0.00     0.167 HD
ENDBRANCH  39  41
ENDBRANCH  38  39
ENDBRANCH  31  38
BRANCH  27  43
ATOM     43  C   UNK d   0     -26.884  -0.468   8.810  0.00  0.00     0.052 C 
BRANCH  43  44
ATOM     44  C   UNK d   0     -27.522   0.591   9.649  0.00  0.00     0.115 C 
BRANCH  44  45
ATOM     45  C   UNK d   0     -26.537   0.948  10.703  0.00  0.00     0.139 C 
ATOM     46  O   UNK d   0     -25.838   1.977  10.536  0.00  0.00    -0.650 OA
BRANCH  45  47
ATOM     47  O   UNK d   0     -26.367   0.202  11.849  0.00  0.00    -0.776 OA
ATOM     48  H   UNK d   0     -27.100  -0.421  12.227  0.00  0.00     0.167 HD
ENDBRANCH  45  47
ENDBRANCH  44  45
ENDBRANCH  43  44
ENDBRANCH  27  43
BRANCH  24  49
ATOM     49  C   UNK d   0     -31.996  -2.347   7.813  0.00  0.00     0.052 C 
BRANCH  49  50
ATOM     50  C   UNK d   0     -31.524  -3.715   7.392  0.00  0.00     0.115 C 
BRANCH  50  51
ATOM     51  C   UNK d   0     -32.536  -4.753   7.247  0.00  0.00     0.139 C 
ATOM     52  O   UNK d   0     -32.879  -5.212   6.132  0.00  0.00    -0.650 OA
BRANCH  51  53
ATOM     53  O   UNK d   0     -33.159  -5.265   8.375  0.00  0.00    -0.776 OA
ATOM     54  H   UNK d   0     -32.635  -5.884   8.968  0.00  0.00     0.167 HD
ENDBRANCH  51  53
ENDBRANCH  50  51
ENDBRANCH  49  50
ENDBRANCH  24  49
BRANCH  21  55
ATOM     55  C   UNK d   0     -34.063  -0.840   6.082  0.00  0.00     0.151 C 
BRANCH  55  56
ATOM     56  C   UNK d   0     -34.580  -1.587   4.925  0.00  0.00     0.143 C 
ATOM     57  O   UNK d   0     -35.033  -1.027   3.907  0.00  0.00    -0.650 OA
BRANCH  56  58
ATOM     58  O   UNK d   0     -34.555  -2.979   4.988  0.00  0.00    -0.776 OA
ATOM     59  H   UNK d   0     -35.463  -3.422   5.221  0.00  0.00     0.167 HD
ENDBRANCH  56  58
ENDBRANCH  55  56
ENDBRANCH  21  55
BRANCH  18  60
ATOM     60  C   UNK d   0     -33.038   1.309   1.271  0.00  0.00     0.151 C 
BRANCH  60  61
ATOM     61  C   UNK d   0     -34.099   2.270   1.607  0.00  0.00     0.143 C 
ATOM     62  O   UNK d   0     -34.215   3.423   1.191  0.00  0.00    -0.650 OA
BRANCH  61  63
ATOM     63  O   UNK d   0     -35.082   1.792   2.507  0.00  0.00    -0.776 OA
ATOM     64  H   UNK d   0     -35.099   2.095   3.464  0.00  0.00     0.167 HD
ENDBRANCH  61  63
ENDBRANCH  60  61
ENDBRANCH  18  60
BRANCH  14  65
ATOM     65  C   UNK d   0     -30.904   2.909  -0.177  0.00  0.00     0.052 C 
BRANCH  65  66
ATOM     66  C   UNK d   0     -30.386   1.868  -1.105  0.00  0.00     0.115 C 
BRANCH  66  67
ATOM     67  C   UNK d   0     -29.554   2.251  -2.211  0.00  0.00     0.139 C 
ATOM     68  O   UNK d   0     -29.628   3.459  -2.644  0.00  0.00    -0.650 OA
BRANCH  67  69
ATOM     69  O   UNK d   0     -28.643   1.458  -2.908  0.00  0.00    -0.776 OA
ATOM     70  H   UNK d   0     -27.736   1.306  -2.444  0.00  0.00     0.167 HD
ENDBRANCH  67  69
ENDBRANCH  66  67
ENDBRANCH  65  66
ENDBRANCH  14  65
ENDBRANCH   6   7
ENDBRANCH   5   6
ENDBRANCH   2   5
TORSDOF 28
ENDMDL
MODEL 8
REMARK VINA RESULT:      -6.8     20.359     23.957
REMARK  28 active torsions:
REMARK  status: ('A' for Active; 'I' for Inactive)
REMARK    1  A    between atoms: C_2  and  O_3 
REMARK    2  A    between atoms: C_2  and  C_4 
REMARK    3  A    between atoms: C_4  and  C_5 
REMARK    4  A    between atoms: C_5  and  C_6 
REMARK    5  A    between atoms: C_7  and  C_8 
REMARK    6  A    between atoms: C_8  and  C_9 
REMARK    7  A    between atoms: C_9  and  O_11 
REMARK    8  A    between atoms: C_28  and  C_29 
REMARK    9  A    between atoms: C_29  and  C_30 
REMARK   10  A    between atoms: C_30  and  O_32 
REMARK   11  A    between atoms: C_33  and  C_34 
REMARK   12  A    between atoms: C_34  and  C_35 
REMARK   13  A    between atoms: C_35  and  C_36 
REMARK   14  A    between atoms: C_36  and  O_38 
REMARK   15  A    between atoms: C_39  and  C_40 
REMARK   16  A    between atoms: C_40  and  C_41 
REMARK   17  A    between atoms: C_41  and  C_42 
REMARK   18  A    between atoms: C_42  and  O_44 
REMARK   19  A    between atoms: C_45  and  C_46 
REMARK   20  A    between atoms: C_46  and  C_47 
REMARK   21  A    between atoms: C_47  and  O_49 
REMARK   22  A    between atoms: C_50  and  C_51 
REMARK   23  A    between atoms: C_51  and  C_52 
REMARK   24  A    between atoms: C_52  and  O_54 
REMARK   25  A    between atoms: C_55  and  C_56 
REMARK   26  A    between atoms: C_56  and  C_57 
REMARK   27  A    between atoms: C_57  and  C_58 
REMARK   28  A    between atoms: C_58  and  O_60 
ROOT
ATOM      1  O   UNK d   0     -17.053   8.310   4.779  0.00  0.00    -0.650 OA
ATOM      2  C   UNK d   0     -17.991   8.107   5.582  0.00  0.00     0.139 C 
ENDROOT
BRANCH   2   3
ATOM      3  O   UNK d   0     -19.113   8.898   5.522  0.00  0.00    -0.776 OA
ATOM      4  H   UNK d   0     -19.644   9.126   6.365  0.00  0.00     0.167 HD
ENDBRANCH   2   3
BRANCH   2   5
ATOM      5  C   UNK d   0     -17.886   7.018   6.594  0.00  0.00     0.115 C 
BRANCH   5   6
ATOM      6  C   UNK d   0     -18.176   7.558   7.968  0.00  0.00     0.052 C 
BRANCH   6   7
ATOM      7  C   UNK d   0     -16.931   8.019   8.687  0.00  0.00    -0.020 A 
ATOM      8  C   UNK d   0     -16.410   9.219   8.691  0.00  0.00    -0.011 A 
ATOM      9  C   UNK d   0     -15.211   9.181   9.512  0.00  0.00     0.067 A 
ATOM     10  C   UNK d   0     -14.239  10.104   9.928  0.00  0.00     0.062 C 
ATOM     11  N   UNK d   0     -15.075   7.917   9.963  0.00  0.00    -0.248 NA
ATOM     12  C   UNK d   0     -13.302   9.943  10.954  0.00  0.00     0.041 A 
ATOM     13  N   UNK d   0     -12.529   8.893  11.293  0.00  0.00    -0.355 N 
ATOM     14  C   UNK d   0     -13.109  10.993  11.871  0.00  0.00    -0.022 A 
ATOM     15  C   UNK d   0     -11.858   9.246  12.405  0.00  0.00     0.042 A 
ATOM     16  H   UNK d   0     -12.446   7.928  10.745  0.00  0.00     0.166 HD
ATOM     17  C   UNK d   0     -10.919   8.528  13.172  0.00  0.00     0.062 C 
ATOM     18  C   UNK d   0     -12.195  10.556  12.798  0.00  0.00    -0.013 A 
ATOM     19  C   UNK d   0     -10.968   7.224  13.595  0.00  0.00     0.067 A 
ATOM     20  N   UNK d   0     -11.919   6.451  13.063  0.00  0.00    -0.248 NA
ATOM     21  C   UNK d   0     -10.227   6.402  14.537  0.00  0.00    -0.011 A 
ATOM     22  C   UNK d   0     -11.854   5.185  13.590  0.00  0.00     0.066 A 
ATOM     23  C   UNK d   0     -12.765   4.264  13.095  0.00  0.00     0.062 C 
ATOM     24  C   UNK d   0     -10.752   5.211  14.532  0.00  0.00    -0.020 A 
ATOM     25  C   UNK d   0     -13.690   4.442  12.055  0.00  0.00     0.041 A 
ATOM     26  N   UNK d   0     -14.469   5.480  11.727  0.00  0.00    -0.355 N 
ATOM     27  C   UNK d   0     -13.880   3.390  11.133  0.00  0.00    -0.022 A 
ATOM     28  C   UNK d   0     -15.146   5.127  10.624  0.00  0.00     0.042 A 
ATOM     29  H   UNK d   0     -14.559   6.445  12.285  0.00  0.00     0.166 HD
ATOM     30  C   UNK d   0     -16.089   5.828   9.855  0.00  0.00     0.062 C 
ATOM     31  C   UNK d   0     -14.799   3.815  10.223  0.00  0.00    -0.013 A 
ATOM     32  C   UNK d   0     -16.078   7.168   9.502  0.00  0.00     0.066 A 
BRANCH   8  33
ATOM     33  C   UNK d   0     -16.926  10.411   7.992  0.00  0.00     0.151 C 
BRANCH  33  34
ATOM     34  C   UNK d   0     -18.201  10.894   8.552  0.00  0.00     0.143 C 
ATOM     35  O   UNK d   0     -18.267  11.309   9.718  0.00  0.00    -0.650 OA
BRANCH  34  36
ATOM     36  O   UNK d   0     -19.331  10.882   7.768  0.00  0.00    -0.776 OA
ATOM     37  H   UNK d   0     -19.804  10.000   7.527  0.00  0.00     0.167 HD
ENDBRANCH  34  36
ENDBRANCH  33  34
ENDBRANCH   8  33
BRANCH  31  38
ATOM     38  C   UNK d   0     -15.309   3.029   9.038  0.00  0.00     0.151 C 
BRANCH  38  39
ATOM     39  C   UNK d   0     -14.394   3.050   7.916  0.00  0.00     0.143 C 
ATOM     40  O   UNK d   0     -14.171   2.043   7.221  0.00  0.00    -0.650 OA
BRANCH  39  41
ATOM     41  O   UNK d   0     -13.734   4.234   7.590  0.00  0.00    -0.776 OA
ATOM     42  H   UNK d   0     -12.827   4.395   8.039  0.00  0.00     0.167 HD
ENDBRANCH  39  41
ENDBRANCH  38  39
ENDBRANCH  31  38
BRANCH  27  43
ATOM     43  C   UNK d   0     -13.235   2.027  11.088  0.00  0.00     0.052 C 
BRANCH  43  44
ATOM     44  C   UNK d   0     -11.916   2.020  10.387  0.00  0.00     0.115 C 
BRANCH  44  45
ATOM     45  C   UNK d   0     -11.155   0.862  10.926  0.00  0.00     0.139 C 
ATOM     46  O   UNK d   0     -11.511   0.382  12.030  0.00  0.00    -0.650 OA
BRANCH  45  47
ATOM     47  O   UNK d   0     -10.086   0.297  10.264  0.00  0.00    -0.776 OA
ATOM     48  H   UNK d   0      -9.478   0.831   9.623  0.00  0.00     0.167 HD
ENDBRANCH  45  47
ENDBRANCH  44  45
ENDBRANCH  43  44
ENDBRANCH  27  43
BRANCH  24  49
ATOM     49  C   UNK d   0     -10.285   4.053  15.313  0.00  0.00     0.052 C 
BRANCH  49  50
ATOM     50  C   UNK d   0     -11.210   3.795  16.474  0.00  0.00     0.115 C 
BRANCH  50  51
ATOM     51  C   UNK d   0     -10.659   3.960  17.812  0.00  0.00     0.139 C 
ATOM     52  O   UNK d   0     -11.378   4.156  18.821  0.00  0.00    -0.650 OA
BRANCH  51  53
ATOM     53  O   UNK d   0      -9.287   3.903  18.001  0.00  0.00    -0.776 OA
ATOM     54  H   UNK d   0      -8.928   4.052  18.928  0.00  0.00     0.167 HD
ENDBRANCH  51  53
ENDBRANCH  50  51
ENDBRANCH  49  50
ENDBRANCH  24  49
BRANCH  21  55
ATOM     55  C   UNK d   0      -9.067   6.892  15.339  0.00  0.00     0.151 C 
BRANCH  55  56
ATOM     56  C   UNK d   0      -9.449   7.209  16.724  0.00  0.00     0.143 C 
ATOM     57  O   UNK d   0      -8.758   6.879  17.707  0.00  0.00    -0.650 OA
BRANCH  56  58
ATOM     58  O   UNK d   0     -10.638   7.910  16.925  0.00  0.00    -0.776 OA
ATOM     59  H   UNK d   0     -10.569   8.704  17.586  0.00  0.00     0.167 HD
ENDBRANCH  56  58
ENDBRANCH  55  56
ENDBRANCH  21  55
BRANCH  18  60
ATOM     60  C   UNK d   0     -11.701  11.364  13.972  0.00  0.00     0.151 C 
BRANCH  60  61
ATOM     61  C   UNK d   0     -10.403  11.921  13.562  0.00  0.00     0.143 C 
ATOM     62  O   UNK d   0     -10.209  12.866  12.797  0.00  0.00    -0.650 OA
BRANCH  61  63
ATOM     63  O   UNK d   0      -9.270  11.283  14.122  0.00  0.00    -0.776 OA
ATOM     64  H   UNK d   0      -9.345  10.380  14.556  0.00  0.00     0.167 HD
ENDBRANCH  61  63
ENDBRANCH  60  61
ENDBRANCH  18  60
BRANCH  14  65
ATOM     65  C   UNK d   0     -13.643  12.397  11.881  0.00  0.00     0.052 C 
BRANCH  65  66
ATOM     66  C   UNK d   0     -13.134  13.220  10.751  0.00  0.00     0.115 C 
BRANCH  66  67
ATOM     67  C   UNK d   0     -12.370  14.406  11.023  0.00  0.00     0.139 C 
ATOM     68  O   UNK d   0     -11.803  15.009  10.039  0.00  0.00    -0.650 OA
BRANCH  67  69
ATOM     69  O   UNK d   0     -12.150  15.015  12.258  0.00  0.00    -0.776 OA
ATOM     70  H   UNK d   0     -11.316  14.697  12.772  0.00  0.00     0.167 HD
ENDBRANCH  67  69
ENDBRANCH  66  67
ENDBRANCH  65  66
ENDBRANCH  14  65
ENDBRANCH   6   7
ENDBRANCH   5   6
ENDBRANCH   2   5
TORSDOF 28
ENDMDL
MODEL 9
REMARK VINA RESULT:      -6.8     20.006     23.044
REMARK  28 active torsions:
REMARK  status: ('A' for Active; 'I' for Inactive)
REMARK    1  A    between atoms: C_2  and  O_3 
REMARK    2  A    between atoms: C_2  and  C_4 
REMARK    3  A    between atoms: C_4  and  C_5 
REMARK    4  A    between atoms: C_5  and  C_6 
REMARK    5  A    between atoms: C_7  and  C_8 
REMARK    6  A    between atoms: C_8  and  C_9 
REMARK    7  A    between atoms: C_9  and  O_11 
REMARK    8  A    between atoms: C_28  and  C_29 
REMARK    9  A    between atoms: C_29  and  C_30 
REMARK   10  A    between atoms: C_30  and  O_32 
REMARK   11  A    between atoms: C_33  and  C_34 
REMARK   12  A    between atoms: C_34  and  C_35 
REMARK   13  A    between atoms: C_35  and  C_36 
REMARK   14  A    between atoms: C_36  and  O_38 
REMARK   15  A    between atoms: C_39  and  C_40 
REMARK   16  A    between atoms: C_40  and  C_41 
REMARK   17  A    between atoms: C_41  and  C_42 
REMARK   18  A    between atoms: C_42  and  O_44 
REMARK   19  A    between atoms: C_45  and  C_46 
REMARK   20  A    between atoms: C_46  and  C_47 
REMARK   21  A    between atoms: C_47  and  O_49 
REMARK   22  A    between atoms: C_50  and  C_51 
REMARK   23  A    between atoms: C_51  and  C_52 
REMARK   24  A    between atoms: C_52  and  O_54 
REMARK   25  A    between atoms: C_55  and  C_56 
REMARK   26  A    between atoms: C_56  and  C_57 
REMARK   27  A    between atoms: C_57  and  C_58 
REMARK   28  A    between atoms: C_58  and  O_60 
ROOT
ATOM      1  O   UNK d   0      -7.045   2.655  21.835  0.00  0.00    -0.650 OA
ATOM      2  C   UNK d   0      -7.390   2.373  20.666  0.00  0.00     0.139 C 
ENDROOT
BRANCH   2   3
ATOM      3  O   UNK d   0      -6.636   2.832  19.612  0.00  0.00    -0.776 OA
ATOM      4  H   UNK d   0      -5.760   2.374  19.352  0.00  0.00     0.167 HD
ENDBRANCH   2   3
BRANCH   2   5
ATOM      5  C   UNK d   0      -8.608   1.549  20.423  0.00  0.00     0.115 C 
BRANCH   5   6
ATOM      6  C   UNK d   0      -8.428   0.713  19.185  0.00  0.00     0.052 C 
BRANCH   6   7
ATOM      7  C   UNK d   0      -9.664   0.684  18.318  0.00  0.00    -0.020 A 
ATOM      8  C   UNK d   0      -9.998   1.528  17.376  0.00  0.00    -0.011 A 
ATOM      9  C   UNK d   0     -11.274   1.100  16.827  0.00  0.00     0.067 A 
ATOM     10  C   UNK d   0     -12.139   1.541  15.813  0.00  0.00     0.062 C 
ATOM     11  N   UNK d   0     -11.647  -0.010  17.498  0.00  0.00    -0.248 NA
ATOM     12  C   UNK d   0     -13.199   0.832  15.237  0.00  0.00     0.041 A 
ATOM     13  N   UNK d   0     -14.152   0.058  15.789  0.00  0.00    -0.355 N 
ATOM     14  C   UNK d   0     -13.336   0.832  13.837  0.00  0.00    -0.022 A 
ATOM     15  C   UNK d   0     -14.885  -0.441  14.776  0.00  0.00     0.042 A 
ATOM     16  H   UNK d   0     -14.315  -0.118  16.875  0.00  0.00     0.166 HD
ATOM     17  C   UNK d   0     -16.000  -1.302  14.792  0.00  0.00     0.062 C 
ATOM     18  C   UNK d   0     -14.403   0.022  13.536  0.00  0.00    -0.013 A 
ATOM     19  C   UNK d   0     -16.193  -2.449  15.519  0.00  0.00     0.067 A 
ATOM     20  N   UNK d   0     -15.313  -2.704  16.492  0.00  0.00    -0.248 NA
ATOM     21  C   UNK d   0     -17.149  -3.543  15.510  0.00  0.00    -0.011 A 
ATOM     22  C   UNK d   0     -15.625  -3.886  17.118  0.00  0.00     0.066 A 
ATOM     23  C   UNK d   0     -14.811  -4.254  18.179  0.00  0.00     0.062 C 
ATOM     24  C   UNK d   0     -16.809  -4.382  16.446  0.00  0.00    -0.020 A 
ATOM     25  C   UNK d   0     -13.758  -3.522  18.751  0.00  0.00     0.041 A 
ATOM     26  N   UNK d   0     -12.802  -2.764  18.200  0.00  0.00    -0.355 N 
ATOM     27  C   UNK d   0     -13.625  -3.518  20.156  0.00  0.00    -0.022 A 
ATOM     28  C   UNK d   0     -12.065  -2.273  19.209  0.00  0.00     0.042 A 
ATOM     29  H   UNK d   0     -12.633  -2.598  17.108  0.00  0.00     0.166 HD
ATOM     30  C   UNK d   0     -10.948  -1.423  19.206  0.00  0.00     0.062 C 
ATOM     31  C   UNK d   0     -12.556  -2.730  20.455  0.00  0.00    -0.013 A 
ATOM     32  C   UNK d   0     -10.721  -0.313  18.408  0.00  0.00     0.066 A 
BRANCH   8  33
ATOM     33  C   UNK d   0      -9.236   2.712  16.937  0.00  0.00     0.151 C 
BRANCH  33  34
ATOM     34  C   UNK d   0      -9.609   3.935  17.669  0.00  0.00     0.143 C 
ATOM     35  O   UNK d   0      -8.796   4.508  18.409  0.00  0.00    -0.650 OA
BRANCH  34  36
ATOM     36  O   UNK d   0     -10.879   4.445  17.529  0.00  0.00    -0.776 OA
ATOM     37  H   UNK d   0     -11.108   5.111  16.778  0.00  0.00     0.167 HD
ENDBRANCH  34  36
ENDBRANCH  33  34
ENDBRANCH   8  33
BRANCH  31  38
ATOM     38  C   UNK d   0     -12.039  -2.417  21.839  0.00  0.00     0.151 C 
BRANCH  38  39
ATOM     39  C   UNK d   0     -11.065  -3.381  22.306  0.00  0.00     0.143 C 
ATOM     40  O   UNK d   0     -11.393  -4.430  22.889  0.00  0.00    -0.650 OA
BRANCH  39  41
ATOM     41  O   UNK d   0      -9.707  -3.139  22.102  0.00  0.00    -0.776 OA
ATOM     42  H   UNK d   0      -9.301  -2.338  22.596  0.00  0.00     0.167 HD
ENDBRANCH  39  41
ENDBRANCH  38  39
ENDBRANCH  31  38
BRANCH  27  43
ATOM     43  C   UNK d   0     -14.455  -4.223  21.200  0.00  0.00     0.052 C 
BRANCH  43  44
ATOM     44  C   UNK d   0     -15.638  -3.427  21.650  0.00  0.00     0.115 C 
BRANCH  44  45
ATOM     45  C   UNK d   0     -16.836  -4.271  21.404  0.00  0.00     0.139 C 
ATOM     46  O   UNK d   0     -16.666  -5.404  20.890  0.00  0.00    -0.650 OA
BRANCH  45  47
ATOM     47  O   UNK d   0     -18.114  -3.865  21.722  0.00  0.00    -0.776 OA
ATOM     48  H   UNK d   0     -18.312  -2.994  22.240  0.00  0.00     0.167 HD
ENDBRANCH  45  47
ENDBRANCH  44  45
ENDBRANCH  43  44
ENDBRANCH  27  43
BRANCH  24  49
ATOM     49  C   UNK d   0     -17.528  -5.615  16.810  0.00  0.00     0.052 C 
BRANCH  49  50
ATOM     50  C   UNK d   0     -16.619  -6.810  16.682  0.00  0.00     0.115 C 
BRANCH  50  51
ATOM     51  C   UNK d   0     -16.304  -7.265  15.334  0.00  0.00     0.139 C 
ATOM     52  O   UNK d   0     -15.222  -7.830  15.046  0.00  0.00    -0.650 OA
BRANCH  51  53
ATOM     53  O   UNK d   0     -17.222  -7.072  14.313  0.00  0.00    -0.776 OA
ATOM     54  H   UNK d   0     -17.064  -6.318  13.667  0.00  0.00     0.167 HD
ENDBRANCH  51  53
ENDBRANCH  50  51
ENDBRANCH  49  50
ENDBRANCH  24  49
BRANCH  21  55
ATOM     55  C   UNK d   0     -18.306  -3.633  14.571  0.00  0.00     0.151 C 
BRANCH  55  56
ATOM     56  C   UNK d   0     -19.557  -3.169  15.190  0.00  0.00     0.143 C 
ATOM     57  O   UNK d   0     -19.731  -1.990  15.557  0.00  0.00    -0.650 OA
BRANCH  56  58
ATOM     58  O   UNK d   0     -20.579  -4.100  15.366  0.00  0.00    -0.776 OA
ATOM     59  H   UNK d   0     -21.476  -3.854  14.909  0.00  0.00     0.167 HD
ENDBRANCH  56  58
ENDBRANCH  55  56
ENDBRANCH  21  55
BRANCH  18  60
ATOM     60  C   UNK d   0     -14.900  -0.271  12.142  0.00  0.00     0.151 C 
BRANCH  60  61
ATOM     61  C   UNK d   0     -15.671   0.913  11.731  0.00  0.00     0.143 C 
ATOM     62  O   UNK d   0     -16.651   1.395  12.301  0.00  0.00    -0.650 OA
BRANCH  61  63
ATOM     63  O   UNK d   0     -15.216   1.548  10.551  0.00  0.00    -0.776 OA
ATOM     64  H   UNK d   0     -14.415   1.204  10.053  0.00  0.00     0.167 HD
ENDBRANCH  61  63
ENDBRANCH  60  61
ENDBRANCH  18  60
BRANCH  14  65
ATOM     65  C   UNK d   0     -12.604   1.608  12.779  0.00  0.00     0.052 C 
BRANCH  65  66
ATOM     66  C   UNK d   0     -11.524   0.822  12.123  0.00  0.00     0.115 C 
BRANCH  66  67
ATOM     67  C   UNK d   0     -11.324   0.933  10.706  0.00  0.00     0.139 C 
ATOM     68  O   UNK d   0     -10.263   0.419  10.194  0.00  0.00    -0.650 OA
BRANCH  67  69
ATOM     69  O   UNK d   0     -12.158   1.547   9.772  0.00  0.00    -0.776 OA
ATOM     70  H   UNK d   0     -12.749   0.914   9.214  0.00  0.00     0.167 HD
ENDBRANCH  67  69
ENDBRANCH  66  67
ENDBRANCH  65  66
ENDBRANCH  14  65
ENDBRANCH   6   7
ENDBRANCH   5   6
ENDBRANCH   2   5
TORSDOF 28
ENDMDL
MODEL 10
REMARK VINA RESULT:      -6.8     21.233     25.651
REMARK  28 active torsions:
REMARK  status: ('A' for Active; 'I' for Inactive)
REMARK    1  A    between atoms: C_2  and  O_3 
REMARK    2  A    between atoms: C_2  and  C_4 
REMARK    3  A    between atoms: C_4  and  C_5 
REMARK    4  A    between atoms: C_5  and  C_6 
REMARK    5  A    between atoms: C_7  and  C_8 
REMARK    6  A    between atoms: C_8  and  C_9 
REMARK    7  A    between atoms: C_9  and  O_11 
REMARK    8  A    between atoms: C_28  and  C_29 
REMARK    9  A    between atoms: C_29  and  C_30 
REMARK   10  A    between atoms: C_30  and  O_32 
REMARK   11  A    between atoms: C_33  and  C_34 
REMARK   12  A    between atoms: C_34  and  C_35 
REMARK   13  A    between atoms: C_35  and  C_36 
REMARK   14  A    between atoms: C_36  and  O_38 
REMARK   15  A    between atoms: C_39  and  C_40 
REMARK   16  A    between atoms: C_40  and  C_41 
REMARK   17  A    between atoms: C_41  and  C_42 
REMARK   18  A    between atoms: C_42  and  O_44 
REMARK   19  A    between atoms: C_45  and  C_46 
REMARK   20  A    between atoms: C_46  and  C_47 
REMARK   21  A    between atoms: C_47  and  O_49 
REMARK   22  A    between atoms: C_50  and  C_51 
REMARK   23  A    between atoms: C_51  and  C_52 
REMARK   24  A    between atoms: C_52  and  O_54 
REMARK   25  A    between atoms: C_55  and  C_56 
REMARK   26  A    between atoms: C_56  and  C_57 
REMARK   27  A    between atoms: C_57  and  C_58 
REMARK   28  A    between atoms: C_58  and  O_60 
ROOT
ATOM      1  O   UNK d   0     -10.159   0.676  18.661  0.00  0.00    -0.650 OA
ATOM      2  C   UNK d   0      -9.918   1.780  18.124  0.00  0.00     0.139 C 
ENDROOT
BRANCH   2   3
ATOM      3  O   UNK d   0      -8.878   2.545  18.594  0.00  0.00    -0.776 OA
ATOM      4  H   UNK d   0      -8.004   2.627  18.070  0.00  0.00     0.167 HD
ENDBRANCH   2   3
BRANCH   2   5
ATOM      5  C   UNK d   0     -10.753   2.257  16.985  0.00  0.00     0.115 C 
BRANCH   5   6
ATOM      6  C   UNK d   0      -9.983   2.151  15.698  0.00  0.00     0.052 C 
BRANCH   6   7
ATOM      7  C   UNK d   0     -10.729   2.738  14.524  0.00  0.00    -0.020 A 
ATOM      8  C   UNK d   0     -11.377   2.094  13.587  0.00  0.00    -0.011 A 
ATOM      9  C   UNK d   0     -11.926   3.077  12.668  0.00  0.00     0.067 A 
ATOM     10  C   UNK d   0     -12.713   3.049  11.506  0.00  0.00     0.062 C 
ATOM     11  N   UNK d   0     -11.559   4.295  13.119  0.00  0.00    -0.248 NA
ATOM     12  C   UNK d   0     -13.381   4.124  10.909  0.00  0.00     0.041 A 
ATOM     13  N   UNK d   0     -12.992   5.393  10.682  0.00  0.00    -0.355 N 
ATOM     14  C   UNK d   0     -14.713   3.950  10.493  0.00  0.00    -0.022 A 
ATOM     15  C   UNK d   0     -14.047   6.031  10.140  0.00  0.00     0.042 A 
ATOM     16  H   UNK d   0     -11.987   5.824  10.883  0.00  0.00     0.166 HD
ATOM     17  C   UNK d   0     -14.184   7.366   9.711  0.00  0.00     0.062 C 
ATOM     18  C   UNK d   0     -15.144   5.159  10.006  0.00  0.00    -0.013 A 
ATOM     19  C   UNK d   0     -13.787   8.519  10.340  0.00  0.00     0.067 A 
ATOM     20  N   UNK d   0     -12.990   8.384  11.403  0.00  0.00    -0.248 NA
ATOM     21  C   UNK d   0     -14.025   9.942  10.161  0.00  0.00    -0.011 A 
ATOM     22  C   UNK d   0     -12.690   9.615  11.933  0.00  0.00     0.066 A 
ATOM     23  C   UNK d   0     -11.835   9.624  13.025  0.00  0.00     0.062 C 
ATOM     24  C   UNK d   0     -13.383  10.577  11.099  0.00  0.00    -0.020 A 
ATOM     25  C   UNK d   0     -11.164   8.535  13.602  0.00  0.00     0.041 A 
ATOM     26  N   UNK d   0     -11.555   7.277  13.841  0.00  0.00    -0.355 N 
ATOM     27  C   UNK d   0      -9.825   8.709  14.015  0.00  0.00    -0.022 A 
ATOM     28  C   UNK d   0     -10.508   6.641  14.390  0.00  0.00     0.042 A 
ATOM     29  H   UNK d   0     -12.569   6.849  13.648  0.00  0.00     0.166 HD
ATOM     30  C   UNK d   0     -10.360   5.316  14.829  0.00  0.00     0.062 C 
ATOM     31  C   UNK d   0      -9.402   7.515  14.515  0.00  0.00    -0.013 A 
ATOM     32  C   UNK d   0     -10.838   4.160  14.233  0.00  0.00     0.066 A 
BRANCH   8  33
ATOM     33  C   UNK d   0     -11.530   0.632  13.462  0.00  0.00     0.151 C 
BRANCH  33  34
ATOM     34  C   UNK d   0     -10.512   0.025  12.585  0.00  0.00     0.143 C 
ATOM     35  O   UNK d   0     -10.521   0.229  11.363  0.00  0.00    -0.650 OA
BRANCH  34  36
ATOM     36  O   UNK d   0      -9.541  -0.781  13.135  0.00  0.00    -0.776 OA
ATOM     37  H   UNK d   0      -8.577  -0.776  12.776  0.00  0.00     0.167 HD
ENDBRANCH  34  36
ENDBRANCH  33  34
ENDBRANCH   8  33
BRANCH  31  38
ATOM     38  C   UNK d   0      -8.028   7.217  15.066  0.00  0.00     0.151 C 
BRANCH  38  39
ATOM     39  C   UNK d   0      -7.820   7.769  16.387  0.00  0.00     0.143 C 
ATOM     40  O   UNK d   0      -6.792   8.399  16.691  0.00  0.00    -0.650 OA
BRANCH  39  41
ATOM     41  O   UNK d   0      -8.800   7.597  17.365  0.00  0.00    -0.776 OA
ATOM     42  H   UNK d   0      -9.601   8.235  17.332  0.00  0.00     0.167 HD
ENDBRANCH  39  41
ENDBRANCH  38  39
ENDBRANCH  31  38
BRANCH  27  43
ATOM     43  C   UNK d   0      -8.956   9.940  13.956  0.00  0.00     0.052 C 
BRANCH  43  44
ATOM     44  C   UNK d   0      -9.735  11.215  13.981  0.00  0.00     0.115 C 
BRANCH  44  45
ATOM     45  C   UNK d   0      -8.741  12.319  14.013  0.00  0.00     0.139 C 
ATOM     46  O   UNK d   0      -8.453  12.888  12.931  0.00  0.00    -0.650 OA
BRANCH  45  47
ATOM     47  O   UNK d   0      -8.133  12.743  15.175  0.00  0.00    -0.776 OA
ATOM     48  H   UNK d   0      -7.355  12.229  15.620  0.00  0.00     0.167 HD
ENDBRANCH  45  47
ENDBRANCH  44  45
ENDBRANCH  43  44
ENDBRANCH  27  43
BRANCH  24  49
ATOM     49  C   UNK d   0     -13.319  12.039  11.270  0.00  0.00     0.052 C 
BRANCH  49  50
ATOM     50  C   UNK d   0     -12.172  12.610  10.476  0.00  0.00     0.115 C 
BRANCH  50  51
ATOM     51  C   UNK d   0     -11.494  13.774  11.030  0.00  0.00     0.139 C 
ATOM     52  O   UNK d   0     -12.063  14.587  11.796  0.00  0.00    -0.650 OA
BRANCH  51  53
ATOM     53  O   UNK d   0     -10.166  14.012  10.709  0.00  0.00    -0.776 OA
ATOM     54  H   UNK d   0      -9.531  14.241  11.453  0.00  0.00     0.167 HD
ENDBRANCH  51  53
ENDBRANCH  50  51
ENDBRANCH  49  50
ENDBRANCH  24  49
BRANCH  21  55
ATOM     55  C   UNK d   0     -14.864  10.517   9.069  0.00  0.00     0.151 C 
BRANCH  55  56
ATOM     56  C   UNK d   0     -16.247  10.020   9.116  0.00  0.00     0.143 C 
ATOM     57  O   UNK d   0     -16.960  10.103  10.135  0.00  0.00    -0.650 OA
BRANCH  56  58
ATOM     58  O   UNK d   0     -16.766   9.433   7.963  0.00  0.00    -0.776 OA
ATOM     59  H   UNK d   0     -17.150  10.100   7.269  0.00  0.00     0.167 HD
ENDBRANCH  56  58
ENDBRANCH  55  56
ENDBRANCH  21  55
BRANCH  18  60
ATOM     60  C   UNK d   0     -16.524   5.428   9.458  0.00  0.00     0.151 C 
BRANCH  60  61
ATOM     61  C   UNK d   0     -16.370   5.507   7.997  0.00  0.00     0.143 C 
ATOM     62  O   UNK d   0     -16.335   6.527   7.309  0.00  0.00    -0.650 OA
BRANCH  61  63
ATOM     63  O   UNK d   0     -16.252   4.261   7.336  0.00  0.00    -0.776 OA
ATOM     64  H   UNK d   0     -15.543   4.108   6.641  0.00  0.00     0.167 HD
ENDBRANCH  61  63
ENDBRANCH  60  61
ENDBRANCH  18  60
BRANCH  14  65
ATOM     65  C   UNK d   0     -15.568   2.716  10.430  0.00  0.00     0.052 C 
BRANCH  65  66
ATOM     66  C   UNK d   0     -15.946   2.201  11.773  0.00  0.00     0.115 C 
BRANCH  66  67
ATOM     67  C   UNK d   0     -15.619   0.851  12.135  0.00  0.00     0.139 C 
ATOM     68  O   UNK d   0     -14.995   0.646  13.241  0.00  0.00    -0.650 OA
BRANCH  67  69
ATOM     69  O   UNK d   0     -15.898  -0.315  11.422  0.00  0.00    -0.776 OA
ATOM     70  H   UNK d   0     -15.234  -1.091  11.556  0.00  0.00     0.167 HD
ENDBRANCH  67  69
ENDBRANCH  66  67
ENDBRANCH  65  66
ENDBRANCH  14  65
ENDBRANCH   6   7
ENDBRANCH   5   6
ENDBRANCH   2   5
TORSDOF 28
ENDMDL
MODEL 11
REMARK VINA RESULT:      -6.7     20.652     22.981
REMARK  28 active torsions:
REMARK  status: ('A' for Active; 'I' for Inactive)
REMARK    1  A    between atoms: C_2  and  O_3 
REMARK    2  A    between atoms: C_2  and  C_4 
REMARK    3  A    between atoms: C_4  and  C_5 
REMARK    4  A    between atoms: C_5  and  C_6 
REMARK    5  A    between atoms: C_7  and  C_8 
REMARK    6  A    between atoms: C_8  and  C_9 
REMARK    7  A    between atoms: C_9  and  O_11 
REMARK    8  A    between atoms: C_28  and  C_29 
REMARK    9  A    between atoms: C_29  and  C_30 
REMARK   10  A    between atoms: C_30  and  O_32 
REMARK   11  A    between atoms: C_33  and  C_34 
REMARK   12  A    between atoms: C_34  and  C_35 
REMARK   13  A    between atoms: C_35  and  C_36 
REMARK   14  A    between atoms: C_36  and  O_38 
REMARK   15  A    between atoms: C_39  and  C_40 
REMARK   16  A    between atoms: C_40  and  C_41 
REMARK   17  A    between atoms: C_41  and  C_42 
REMARK   18  A    between atoms: C_42  and  O_44 
REMARK   19  A    between atoms: C_45  and  C_46 
REMARK   20  A    between atoms: C_46  and  C_47 
REMARK   21  A    between atoms: C_47  and  O_49 
REMARK   22  A    between atoms: C_50  and  C_51 
REMARK   23  A    between atoms: C_51  and  C_52 
REMARK   24  A    between atoms: C_52  and  O_54 
REMARK   25  A    between atoms: C_55  and  C_56 
REMARK   26  A    between atoms: C_56  and  C_57 
REMARK   27  A    between atoms: C_57  and  C_58 
REMARK   28  A    between atoms: C_58  and  O_60 
ROOT
ATOM      1  O   UNK d   0      -8.220   6.285  18.407  0.00  0.00    -0.650 OA
ATOM      2  C   UNK d   0      -8.161   5.036  18.369  0.00  0.00     0.139 C 
ENDROOT
BRANCH   2   3
ATOM      3  O   UNK d   0      -7.024   4.401  18.807  0.00  0.00    -0.776 OA
ATOM      4  H   UNK d   0      -6.768   4.401  19.797  0.00  0.00     0.167 HD
ENDBRANCH   2   3
BRANCH   2   5
ATOM      5  C   UNK d   0      -9.316   4.248  17.853  0.00  0.00     0.115 C 
BRANCH   5   6
ATOM      6  C   UNK d   0      -8.825   3.054  17.081  0.00  0.00     0.052 C 
BRANCH   6   7
ATOM      7  C   UNK d   0      -9.494   1.769  17.509  0.00  0.00    -0.020 A 
ATOM      8  C   UNK d   0      -9.126   0.958  18.467  0.00  0.00    -0.011 A 
ATOM      9  C   UNK d   0     -10.069  -0.147  18.501  0.00  0.00     0.067 A 
ATOM     10  C   UNK d   0     -10.248  -1.302  19.279  0.00  0.00     0.062 C 
ATOM     11  N   UNK d   0     -10.975   0.069  17.525  0.00  0.00    -0.248 NA
ATOM     12  C   UNK d   0     -11.387  -2.113  19.342  0.00  0.00     0.041 A 
ATOM     13  N   UNK d   0     -12.203  -2.571  18.374  0.00  0.00    -0.355 N 
ATOM     14  C   UNK d   0     -11.862  -2.522  20.601  0.00  0.00    -0.022 A 
ATOM     15  C   UNK d   0     -13.189  -3.254  18.987  0.00  0.00     0.042 A 
ATOM     16  H   UNK d   0     -12.075  -2.431  17.278  0.00  0.00     0.166 HD
ATOM     17  C   UNK d   0     -14.299  -3.935  18.450  0.00  0.00     0.062 C 
ATOM     18  C   UNK d   0     -13.009  -3.245  20.384  0.00  0.00    -0.013 A 
ATOM     19  C   UNK d   0     -15.166  -3.531  17.467  0.00  0.00     0.067 A 
ATOM     20  N   UNK d   0     -14.828  -2.442  16.773  0.00  0.00    -0.248 NA
ATOM     21  C   UNK d   0     -16.445  -3.988  16.950  0.00  0.00    -0.011 A 
ATOM     22  C   UNK d   0     -15.794  -2.153  15.840  0.00  0.00     0.066 A 
ATOM     23  C   UNK d   0     -15.551  -1.061  15.019  0.00  0.00     0.062 C 
ATOM     24  C   UNK d   0     -16.809  -3.175  16.001  0.00  0.00    -0.020 A 
ATOM     25  C   UNK d   0     -14.395  -0.267  14.963  0.00  0.00     0.041 A 
ATOM     26  N   UNK d   0     -13.591   0.201  15.926  0.00  0.00    -0.355 N 
ATOM     27  C   UNK d   0     -13.916   0.140  13.699  0.00  0.00    -0.022 A 
ATOM     28  C   UNK d   0     -12.613   0.889  15.318  0.00  0.00     0.042 A 
ATOM     29  H   UNK d   0     -13.727   0.068  17.028  0.00  0.00     0.166 HD
ATOM     30  C   UNK d   0     -11.508   1.580  15.840  0.00  0.00     0.062 C 
ATOM     31  C   UNK d   0     -12.789   0.871  13.914  0.00  0.00    -0.013 A 
ATOM     32  C   UNK d   0     -10.685   1.207  16.891  0.00  0.00     0.066 A 
BRANCH   8  33
ATOM     33  C   UNK d   0      -7.964   1.114  19.361  0.00  0.00     0.151 C 
BRANCH  33  34
ATOM     34  C   UNK d   0      -8.342   1.549  20.718  0.00  0.00     0.143 C 
ATOM     35  O   UNK d   0      -8.529   2.747  20.974  0.00  0.00    -0.650 OA
BRANCH  34  36
ATOM     36  O   UNK d   0      -8.487   0.609  21.712  0.00  0.00    -0.776 OA
ATOM     37  H   UNK d   0      -9.095  -0.212  21.587  0.00  0.00     0.167 HD
ENDBRANCH  34  36
ENDBRANCH  33  34
ENDBRANCH   8  33
BRANCH  31  38
ATOM     38  C   UNK d   0     -11.921   1.505  12.851  0.00  0.00     0.151 C 
BRANCH  38  39
ATOM     39  C   UNK d   0     -10.946   0.588  12.302  0.00  0.00     0.143 C 
ATOM     40  O   UNK d   0     -10.288  -0.190  13.015  0.00  0.00    -0.650 OA
BRANCH  39  41
ATOM     41  O   UNK d   0     -10.726   0.564  10.925  0.00  0.00    -0.776 OA
ATOM     42  H   UNK d   0      -9.764   0.396  10.614  0.00  0.00     0.167 HD
ENDBRANCH  39  41
ENDBRANCH  38  39
ENDBRANCH  31  38
BRANCH  27  43
ATOM     43  C   UNK d   0     -14.480  -0.134  12.327  0.00  0.00     0.052 C 
BRANCH  43  44
ATOM     44  C   UNK d   0     -15.743   0.614  12.048  0.00  0.00     0.115 C 
BRANCH  44  45
ATOM     45  C   UNK d   0     -15.359   1.819  11.268  0.00  0.00     0.139 C 
ATOM     46  O   UNK d   0     -15.013   2.847  11.900  0.00  0.00    -0.650 OA
BRANCH  45  47
ATOM     47  O   UNK d   0     -15.363   1.850   9.890  0.00  0.00    -0.776 OA
ATOM     48  H   UNK d   0     -16.232   1.851   9.332  0.00  0.00     0.167 HD
ENDBRANCH  45  47
ENDBRANCH  44  45
ENDBRANCH  43  44
ENDBRANCH  27  43
BRANCH  24  49
ATOM     49  C   UNK d   0     -18.026  -3.288  15.179  0.00  0.00     0.052 C 
BRANCH  49  50
ATOM     50  C   UNK d   0     -19.241  -2.903  15.984  0.00  0.00     0.115 C 
BRANCH  50  51
ATOM     51  C   UNK d   0     -20.386  -3.801  15.930  0.00  0.00     0.139 C 
ATOM     52  O   UNK d   0     -21.550  -3.431  16.213  0.00  0.00    -0.650 OA
BRANCH  51  53
ATOM     53  O   UNK d   0     -20.205  -5.123  15.554  0.00  0.00    -0.776 OA
ATOM     54  H   UNK d   0     -20.632  -5.840  16.115  0.00  0.00     0.167 HD
ENDBRANCH  51  53
ENDBRANCH  50  51
ENDBRANCH  49  50
ENDBRANCH  24  49
BRANCH  21  55
ATOM     55  C   UNK d   0     -17.168  -5.193  17.456  0.00  0.00     0.151 C 
BRANCH  55  56
ATOM     56  C   UNK d   0     -16.725  -6.424  16.785  0.00  0.00     0.143 C 
ATOM     57  O   UNK d   0     -16.048  -6.416  15.738  0.00  0.00    -0.650 OA
BRANCH  56  58
ATOM     58  O   UNK d   0     -17.086  -7.642  17.358  0.00  0.00    -0.776 OA
ATOM     59  H   UNK d   0     -17.711  -8.230  16.777  0.00  0.00     0.167 HD
ENDBRANCH  56  58
ENDBRANCH  55  56
ENDBRANCH  21  55
BRANCH  18  60
ATOM     60  C   UNK d   0     -13.854  -3.870  21.466  0.00  0.00     0.151 C 
BRANCH  60  61
ATOM     61  C   UNK d   0     -14.934  -2.909  21.740  0.00  0.00     0.143 C 
ATOM     62  O   UNK d   0     -14.823  -1.793  22.247  0.00  0.00    -0.650 OA
BRANCH  61  63
ATOM     63  O   UNK d   0     -16.231  -3.339  21.369  0.00  0.00    -0.776 OA
ATOM     64  H   UNK d   0     -16.934  -3.524  22.063  0.00  0.00     0.167 HD
ENDBRANCH  61  63
ENDBRANCH  60  61
ENDBRANCH  18  60
BRANCH  14  65
ATOM     65  C   UNK d   0     -11.267  -2.367  21.972  0.00  0.00     0.052 C 
BRANCH  65  66
ATOM     66  C   UNK d   0     -10.199  -3.363  22.258  0.00  0.00     0.115 C 
BRANCH  66  67
ATOM     67  C   UNK d   0      -8.824  -3.018  22.029  0.00  0.00     0.139 C 
ATOM     68  O   UNK d   0      -8.253  -2.200  22.840  0.00  0.00    -0.650 OA
BRANCH  67  69
ATOM     69  O   UNK d   0      -7.991  -3.466  21.005  0.00  0.00    -0.776 OA
ATOM     70  H   UNK d   0      -7.692  -4.450  21.069  0.00  0.00     0.167 HD
ENDBRANCH  67  69
ENDBRANCH  66  67
ENDBRANCH  65  66
ENDBRANCH  14  65
ENDBRANCH   6   7
ENDBRANCH   5   6
ENDBRANCH   2   5
TORSDOF 28
ENDMDL
MODEL 12
REMARK VINA RESULT:      -6.6     15.222     17.863
REMARK  28 active torsions:
REMARK  status: ('A' for Active; 'I' for Inactive)
REMARK    1  A    between atoms: C_2  and  O_3 
REMARK    2  A    between atoms: C_2  and  C_4 
REMARK    3  A    between atoms: C_4  and  C_5 
REMARK    4  A    between atoms: C_5  and  C_6 
REMARK    5  A    between atoms: C_7  and  C_8 
REMARK    6  A    between atoms: C_8  and  C_9 
REMARK    7  A    between atoms: C_9  and  O_11 
REMARK    8  A    between atoms: C_28  and  C_29 
REMARK    9  A    between atoms: C_29  and  C_30 
REMARK   10  A    between atoms: C_30  and  O_32 
REMARK   11  A    between atoms: C_33  and  C_34 
REMARK   12  A    between atoms: C_34  and  C_35 
REMARK   13  A    between atoms: C_35  and  C_36 
REMARK   14  A    between atoms: C_36  and  O_38 
REMARK   15  A    between atoms: C_39  and  C_40 
REMARK   16  A    between atoms: C_40  and  C_41 
REMARK   17  A    between atoms: C_41  and  C_42 
REMARK   18  A    between atoms: C_42  and  O_44 
REMARK   19  A    between atoms: C_45  and  C_46 
REMARK   20  A    between atoms: C_46  and  C_47 
REMARK   21  A    between atoms: C_47  and  O_49 
REMARK   22  A    between atoms: C_50  and  C_51 
REMARK   23  A    between atoms: C_51  and  C_52 
REMARK   24  A    between atoms: C_52  and  O_54 
REMARK   25  A    between atoms: C_55  and  C_56 
REMARK   26  A    between atoms: C_56  and  C_57 
REMARK   27  A    between atoms: C_57  and  C_58 
REMARK   28  A    between atoms: C_58  and  O_60 
ROOT
ATOM      1  O   UNK d   0     -12.468   5.994  10.595  0.00  0.00    -0.650 OA
ATOM      2  C   UNK d   0     -13.137   5.870   9.545  0.00  0.00     0.139 C 
ENDROOT
BRANCH   2   3
ATOM      3  O   UNK d   0     -12.661   5.070   8.534  0.00  0.00    -0.776 OA
ATOM      4  H   UNK d   0     -13.300   4.566   7.916  0.00  0.00     0.167 HD
ENDBRANCH   2   3
BRANCH   2   5
ATOM      5  C   UNK d   0     -14.436   6.585   9.397  0.00  0.00     0.115 C 
BRANCH   5   6
ATOM      6  C   UNK d   0     -15.440   5.699   8.710  0.00  0.00     0.052 C 
BRANCH   6   7
ATOM      7  C   UNK d   0     -16.361   5.003   9.683  0.00  0.00    -0.020 A 
ATOM      8  C   UNK d   0     -17.573   5.357  10.027  0.00  0.00    -0.011 A 
ATOM      9  C   UNK d   0     -18.061   4.390  10.996  0.00  0.00     0.067 A 
ATOM     10  C   UNK d   0     -19.250   4.189  11.715  0.00  0.00     0.062 C 
ATOM     11  N   UNK d   0     -17.079   3.484  11.187  0.00  0.00    -0.248 NA
ATOM     12  C   UNK d   0     -19.640   3.033  12.400  0.00  0.00     0.041 A 
ATOM     13  N   UNK d   0     -18.949   2.202  13.202  0.00  0.00    -0.355 N 
ATOM     14  C   UNK d   0     -20.953   2.555  12.235  0.00  0.00    -0.022 A 
ATOM     15  C   UNK d   0     -19.786   1.205  13.544  0.00  0.00     0.042 A 
ATOM     16  H   UNK d   0     -17.895   2.328  13.536  0.00  0.00     0.166 HD
ATOM     17  C   UNK d   0     -19.578   0.077  14.363  0.00  0.00     0.062 C 
ATOM     18  C   UNK d   0     -21.052   1.391  12.956  0.00  0.00    -0.013 A 
ATOM     19  C   UNK d   0     -18.512  -0.786  14.388  0.00  0.00     0.067 A 
ATOM     20  N   UNK d   0     -17.427  -0.427  13.697  0.00  0.00    -0.248 NA
ATOM     21  C   UNK d   0     -18.227  -2.077  14.991  0.00  0.00    -0.011 A 
ATOM     22  C   UNK d   0     -16.454  -1.390  13.802  0.00  0.00     0.066 A 
ATOM     23  C   UNK d   0     -15.253  -1.127  13.160  0.00  0.00     0.062 C 
ATOM     24  C   UNK d   0     -17.023  -2.427  14.640  0.00  0.00    -0.020 A 
ATOM     25  C   UNK d   0     -14.876   0.046  12.488  0.00  0.00     0.041 A 
ATOM     26  N   UNK d   0     -15.559   0.864  11.678  0.00  0.00    -0.355 N 
ATOM     27  C   UNK d   0     -13.560   0.528  12.658  0.00  0.00    -0.022 A 
ATOM     28  C   UNK d   0     -14.724   1.855  11.329  0.00  0.00     0.042 A 
ATOM     29  H   UNK d   0     -16.615   0.731  11.335  0.00  0.00     0.166 HD
ATOM     30  C   UNK d   0     -14.915   2.978  10.508  0.00  0.00     0.062 C 
ATOM     31  C   UNK d   0     -13.455   1.672  11.928  0.00  0.00    -0.013 A 
ATOM     32  C   UNK d   0     -16.030   3.797  10.426  0.00  0.00     0.066 A 
BRANCH   8  33
ATOM     33  C   UNK d   0     -18.326   6.527   9.537  0.00  0.00     0.151 C 
BRANCH  33  34
ATOM     34  C   UNK d   0     -19.290   6.182   8.477  0.00  0.00     0.143 C 
ATOM     35  O   UNK d   0     -18.914   5.986   7.313  0.00  0.00    -0.650 OA
BRANCH  34  36
ATOM     36  O   UNK d   0     -20.627   6.078   8.788  0.00  0.00    -0.776 OA
ATOM     37  H   UNK d   0     -20.991   5.275   9.318  0.00  0.00     0.167 HD
ENDBRANCH  34  36
ENDBRANCH  33  34
ENDBRANCH   8  33
BRANCH  31  38
ATOM     38  C   UNK d   0     -12.229   2.549  11.816  0.00  0.00     0.151 C 
BRANCH  38  39
ATOM     39  C   UNK d   0     -11.428   2.246  10.650  0.00  0.00     0.143 C 
ATOM     40  O   UNK d   0     -11.191   1.080  10.288  0.00  0.00    -0.650 OA
BRANCH  39  41
ATOM     41  O   UNK d   0     -10.895   3.290   9.894  0.00  0.00    -0.776 OA
ATOM     42  H   UNK d   0     -11.298   3.438   8.963  0.00  0.00     0.167 HD
ENDBRANCH  39  41
ENDBRANCH  38  39
ENDBRANCH  31  38
BRANCH  27  43
ATOM     43  C   UNK d   0     -12.425  -0.049  13.467  0.00  0.00     0.052 C 
BRANCH  43  44
ATOM     44  C   UNK d   0     -12.369   0.478  14.865  0.00  0.00     0.115 C 
BRANCH  44  45
ATOM     45  C   UNK d   0     -11.019   0.147  15.389  0.00  0.00     0.139 C 
ATOM     46  O   UNK d   0     -10.178   1.076  15.487  0.00  0.00    -0.650 OA
BRANCH  45  47
ATOM     47  O   UNK d   0     -10.657  -1.126  15.774  0.00  0.00    -0.776 OA
ATOM     48  H   UNK d   0      -9.675  -1.443  15.808  0.00  0.00     0.167 HD
ENDBRANCH  45  47
ENDBRANCH  44  45
ENDBRANCH  43  44
ENDBRANCH  27  43
BRANCH  24  49
ATOM     49  C   UNK d   0     -16.317  -3.650  15.060  0.00  0.00     0.052 C 
BRANCH  49  50
ATOM     50  C   UNK d   0     -16.348  -4.678  13.958  0.00  0.00     0.115 C 
BRANCH  50  51
ATOM     51  C   UNK d   0     -17.640  -5.270  13.637  0.00  0.00     0.139 C 
ATOM     52  O   UNK d   0     -18.174  -6.153  14.347  0.00  0.00    -0.650 OA
BRANCH  51  53
ATOM     53  O   UNK d   0     -18.321  -4.856  12.502  0.00  0.00    -0.776 OA
ATOM     54  H   UNK d   0     -19.145  -5.364  12.231  0.00  0.00     0.167 HD
ENDBRANCH  51  53
ENDBRANCH  50  51
ENDBRANCH  49  50
ENDBRANCH  24  49
BRANCH  21  55
ATOM     55  C   UNK d   0     -19.186  -2.824  15.857  0.00  0.00     0.151 C 
BRANCH  55  56
ATOM     56  C   UNK d   0     -20.399  -3.219  15.124  0.00  0.00     0.143 C 
ATOM     57  O   UNK d   0     -20.421  -3.369  13.886  0.00  0.00    -0.650 OA
BRANCH  56  58
ATOM     58  O   UNK d   0     -21.563  -3.430  15.861  0.00  0.00    -0.776 OA
ATOM     59  H   UNK d   0     -22.324  -3.908  15.347  0.00  0.00     0.167 HD
ENDBRANCH  56  58
ENDBRANCH  55  56
ENDBRANCH  21  55
BRANCH  18  60
ATOM     60  C   UNK d   0     -22.292   0.537  13.053  0.00  0.00     0.151 C 
BRANCH  60  61
ATOM     61  C   UNK d   0     -22.214  -0.416  11.935  0.00  0.00     0.143 C 
ATOM     62  O   UNK d   0     -21.198  -0.785  11.345  0.00  0.00    -0.650 OA
BRANCH  61  63
ATOM     63  O   UNK d   0     -23.454  -0.952  11.512  0.00  0.00    -0.776 OA
ATOM     64  H   UNK d   0     -24.176  -0.359  11.144  0.00  0.00     0.167 HD
ENDBRANCH  61  63
ENDBRANCH  60  61
ENDBRANCH  18  60
BRANCH  14  65
ATOM     65  C   UNK d   0     -22.136   3.160  11.534  0.00  0.00     0.052 C 
BRANCH  65  66
ATOM     66  C   UNK d   0     -22.134   2.911  10.068  0.00  0.00     0.115 C 
BRANCH  66  67
ATOM     67  C   UNK d   0     -23.018   1.926   9.512  0.00  0.00     0.139 C 
ATOM     68  O   UNK d   0     -24.159   1.737  10.074  0.00  0.00    -0.650 OA
BRANCH  67  69
ATOM     69  O   UNK d   0     -22.798   1.113   8.400  0.00  0.00    -0.776 OA
ATOM     70  H   UNK d   0     -23.400   0.279   8.329  0.00  0.00     0.167 HD
ENDBRANCH  67  69
ENDBRANCH  66  67
ENDBRANCH  65  66
ENDBRANCH  14  65
ENDBRANCH   6   7
ENDBRANCH   5   6
ENDBRANCH   2   5
TORSDOF 28
ENDMDL
MODEL 13
REMARK VINA RESULT:      -6.6     23.200     26.756
REMARK  28 active torsions:
REMARK  status: ('A' for Active; 'I' for Inactive)
REMARK    1  A    between atoms: C_2  and  O_3 
REMARK    2  A    between atoms: C_2  and  C_4 
REMARK    3  A    between atoms: C_4  and  C_5 
REMARK    4  A    between atoms: C_5  and  C_6 
REMARK    5  A    between atoms: C_7  and  C_8 
REMARK    6  A    between atoms: C_8  and  C_9 
REMARK    7  A    between atoms: C_9  and  O_11 
REMARK    8  A    between atoms: C_28  and  C_29 
REMARK    9  A    between atoms: C_29  and  C_30 
REMARK   10  A    between atoms: C_30  and  O_32 
REMARK   11  A    between atoms: C_33  and  C_34 
REMARK   12  A    between atoms: C_34  and  C_35 
REMARK   13  A    between atoms: C_35  and  C_36 
REMARK   14  A    between atoms: C_36  and  O_38 
REMARK   15  A    between atoms: C_39  and  C_40 
REMARK   16  A    between atoms: C_40  and  C_41 
REMARK   17  A    between atoms: C_41  and  C_42 
REMARK   18  A    between atoms: C_42  and  O_44 
REMARK   19  A    between atoms: C_45  and  C_46 
REMARK   20  A    between atoms: C_46  and  C_47 
REMARK   21  A    between atoms: C_47  and  O_49 
REMARK   22  A    between atoms: C_50  and  C_51 
REMARK   23  A    between atoms: C_51  and  C_52 
REMARK   24  A    between atoms: C_52  and  O_54 
REMARK   25  A    between atoms: C_55  and  C_56 
REMARK   26  A    between atoms: C_56  and  C_57 
REMARK   27  A    between atoms: C_57  and  C_58 
REMARK   28  A    between atoms: C_58  and  O_60 
ROOT
ATOM      1  O   UNK d   0     -16.597   1.537  12.048  0.00  0.00    -0.650 OA
ATOM      2  C   UNK d   0     -15.790   0.587  12.164  0.00  0.00     0.139 C 
ENDROOT
BRANCH   2   3
ATOM      3  O   UNK d   0     -15.884  -0.484  11.309  0.00  0.00    -0.776 OA
ATOM      4  H   UNK d   0     -15.077  -1.084  11.124  0.00  0.00     0.167 HD
ENDBRANCH   2   3
BRANCH   2   5
ATOM      5  C   UNK d   0     -14.741   0.622  13.222  0.00  0.00     0.115 C 
BRANCH   5   6
ATOM      6  C   UNK d   0     -13.382   0.416  12.609  0.00  0.00     0.052 C 
BRANCH   6   7
ATOM      7  C   UNK d   0     -12.486   1.621  12.764  0.00  0.00    -0.020 A 
ATOM      8  C   UNK d   0     -12.234   2.549  11.876  0.00  0.00    -0.011 A 
ATOM      9  C   UNK d   0     -11.310   3.498  12.474  0.00  0.00     0.067 A 
ATOM     10  C   UNK d   0     -10.685   4.690  12.076  0.00  0.00     0.062 C 
ATOM     11  N   UNK d   0     -11.047   3.067  13.726  0.00  0.00    -0.248 NA
ATOM     12  C   UNK d   0     -10.036   5.621  12.895  0.00  0.00     0.041 A 
ATOM     13  N   UNK d   0      -9.186   5.454  13.926  0.00  0.00    -0.355 N 
ATOM     14  C   UNK d   0     -10.303   6.990  12.713  0.00  0.00    -0.022 A 
ATOM     15  C   UNK d   0      -8.913   6.681  14.408  0.00  0.00     0.042 A 
ATOM     16  H   UNK d   0      -8.772   4.489  14.293  0.00  0.00     0.166 HD
ATOM     17  C   UNK d   0      -8.085   7.080  15.476  0.00  0.00     0.062 C 
ATOM     18  C   UNK d   0      -9.596   7.670  13.673  0.00  0.00    -0.013 A 
ATOM     19  C   UNK d   0      -7.981   6.544  16.734  0.00  0.00     0.067 A 
ATOM     20  N   UNK d   0      -8.586   5.371  16.943  0.00  0.00    -0.248 NA
ATOM     21  C   UNK d   0      -7.363   6.936  17.989  0.00  0.00    -0.011 A 
ATOM     22  C   UNK d   0      -8.409   4.969  18.244  0.00  0.00     0.066 A 
ATOM     23  C   UNK d   0      -8.957   3.743  18.590  0.00  0.00     0.062 C 
ATOM     24  C   UNK d   0      -7.621   6.013  18.870  0.00  0.00    -0.020 A 
ATOM     25  C   UNK d   0      -9.593   2.817  17.749  0.00  0.00     0.041 A 
ATOM     26  N   UNK d   0     -10.450   2.982  16.734  0.00  0.00    -0.355 N 
ATOM     27  C   UNK d   0      -9.321   1.443  17.929  0.00  0.00    -0.022 A 
ATOM     28  C   UNK d   0     -10.730   1.758  16.258  0.00  0.00     0.042 A 
ATOM     29  H   UNK d   0     -10.874   3.951  16.373  0.00  0.00     0.166 HD
ATOM     30  C   UNK d   0     -11.559   1.347  15.202  0.00  0.00     0.062 C 
ATOM     31  C   UNK d   0     -10.036   0.766  16.989  0.00  0.00    -0.013 A 
ATOM     32  C   UNK d   0     -11.724   1.943  13.962  0.00  0.00     0.066 A 
BRANCH   8  33
ATOM     33  C   UNK d   0     -12.776   2.634  10.508  0.00  0.00     0.151 C 
BRANCH  33  34
ATOM     34  C   UNK d   0     -11.778   2.294   9.477  0.00  0.00     0.143 C 
ATOM     35  O   UNK d   0     -10.787   1.604   9.754  0.00  0.00    -0.650 OA
BRANCH  34  36
ATOM     36  O   UNK d   0     -11.953   2.752   8.192  0.00  0.00    -0.776 OA
ATOM     37  H   UNK d   0     -11.817   2.133   7.381  0.00  0.00     0.167 HD
ENDBRANCH  34  36
ENDBRANCH  33  34
ENDBRANCH   8  33
BRANCH  31  38
ATOM     38  C   UNK d   0     -10.050  -0.731  16.788  0.00  0.00     0.151 C 
BRANCH  38  39
ATOM     39  C   UNK d   0     -11.080  -1.392  17.560  0.00  0.00     0.143 C 
ATOM     40  O   UNK d   0     -10.815  -2.158  18.504  0.00  0.00    -0.650 OA
BRANCH  39  41
ATOM     41  O   UNK d   0     -12.421  -1.171  17.248  0.00  0.00    -0.776 OA
ATOM     42  H   UNK d   0     -12.803  -1.696  16.455  0.00  0.00     0.167 HD
ENDBRANCH  39  41
ENDBRANCH  38  39
ENDBRANCH  31  38
BRANCH  27  43
ATOM     43  C   UNK d   0      -8.428   0.767  18.941  0.00  0.00     0.052 C 
BRANCH  43  44
ATOM     44  C   UNK d   0      -9.166   0.271  20.141  0.00  0.00     0.115 C 
BRANCH  44  45
ATOM     45  C   UNK d   0      -8.858   1.213  21.248  0.00  0.00     0.139 C 
ATOM     46  O   UNK d   0      -9.719   2.079  21.546  0.00  0.00    -0.650 OA
BRANCH  45  47
ATOM     47  O   UNK d   0      -7.678   1.172  21.959  0.00  0.00    -0.776 OA
ATOM     48  H   UNK d   0      -7.234   2.015  22.358  0.00  0.00     0.167 HD
ENDBRANCH  45  47
ENDBRANCH  44  45
ENDBRANCH  43  44
ENDBRANCH  27  43
BRANCH  24  49
ATOM     49  C   UNK d   0      -7.153   5.990  20.266  0.00  0.00     0.052 C 
BRANCH  49  50
ATOM     50  C   UNK d   0      -5.995   5.037  20.416  0.00  0.00     0.115 C 
BRANCH  50  51
ATOM     51  C   UNK d   0      -6.121   3.989  21.420  0.00  0.00     0.139 C 
ATOM     52  O   UNK d   0      -6.972   4.032  22.339  0.00  0.00    -0.650 OA
BRANCH  51  53
ATOM     53  O   UNK d   0      -5.274   2.892  21.377  0.00  0.00    -0.776 OA
ATOM     54  H   UNK d   0      -5.679   1.976  21.451  0.00  0.00     0.167 HD
ENDBRANCH  51  53
ENDBRANCH  50  51
ENDBRANCH  49  50
ENDBRANCH  24  49
BRANCH  21  55
ATOM     55  C   UNK d   0      -6.576   8.190  18.176  0.00  0.00     0.151 C 
BRANCH  55  56
ATOM     56  C   UNK d   0      -7.179   9.075  19.185  0.00  0.00     0.143 C 
ATOM     57  O   UNK d   0      -8.412   9.185  19.336  0.00  0.00    -0.650 OA
BRANCH  56  58
ATOM     58  O   UNK d   0      -6.321   9.812  19.998  0.00  0.00    -0.776 OA
ATOM     59  H   UNK d   0      -6.781  10.309  20.782  0.00  0.00     0.167 HD
ENDBRANCH  56  58
ENDBRANCH  55  56
ENDBRANCH  21  55
BRANCH  18  60
ATOM     60  C   UNK d   0      -9.598   9.168  13.850  0.00  0.00     0.151 C 
BRANCH  60  61
ATOM     61  C   UNK d   0     -10.955   9.520  14.296  0.00  0.00     0.143 C 
ATOM     62  O   UNK d   0     -11.612   8.969  15.179  0.00  0.00    -0.650 OA
BRANCH  61  63
ATOM     63  O   UNK d   0     -11.546  10.616  13.621  0.00  0.00    -0.776 OA
ATOM     64  H   UNK d   0     -11.955  11.379  14.130  0.00  0.00     0.167 HD
ENDBRANCH  61  63
ENDBRANCH  60  61
ENDBRANCH  18  60
BRANCH  14  65
ATOM     65  C   UNK d   0     -11.091   7.703  11.651  0.00  0.00     0.052 C 
BRANCH  65  66
ATOM     66  C   UNK d   0     -12.553   7.448  11.741  0.00  0.00     0.115 C 
BRANCH  66  67
ATOM     67  C   UNK d   0     -13.253   6.911  10.608  0.00  0.00     0.139 C 
ATOM     68  O   UNK d   0     -12.572   6.324   9.688  0.00  0.00    -0.650 OA
BRANCH  67  69
ATOM     69  O   UNK d   0     -14.625   6.941  10.359  0.00  0.00    -0.776 OA
ATOM     70  H   UNK d   0     -14.900   7.165   9.392  0.00  0.00     0.167 HD
ENDBRANCH  67  69
ENDBRANCH  66  67
ENDBRANCH  65  66
ENDBRANCH  14  65
ENDBRANCH   6   7
ENDBRANCH   5   6
ENDBRANCH   2   5
TORSDOF 28
ENDMDL
MODEL 14
REMARK VINA RESULT:      -6.6     19.129     21.615
REMARK  28 active torsions:
REMARK  status: ('A' for Active; 'I' for Inactive)
REMARK    1  A    between atoms: C_2  and  O_3 
REMARK    2  A    between atoms: C_2  and  C_4 
REMARK    3  A    between atoms: C_4  and  C_5 
REMARK    4  A    between atoms: C_5  and  C_6 
REMARK    5  A    between atoms: C_7  and  C_8 
REMARK    6  A    between atoms: C_8  and  C_9 
REMARK    7  A    between atoms: C_9  and  O_11 
REMARK    8  A    between atoms: C_28  and  C_29 
REMARK    9  A    between atoms: C_29  and  C_30 
REMARK   10  A    between atoms: C_30  and  O_32 
REMARK   11  A    between atoms: C_33  and  C_34 
REMARK   12  A    between atoms: C_34  and  C_35 
REMARK   13  A    between atoms: C_35  and  C_36 
REMARK   14  A    between atoms: C_36  and  O_38 
REMARK   15  A    between atoms: C_39  and  C_40 
REMARK   16  A    between atoms: C_40  and  C_41 
REMARK   17  A    between atoms: C_41  and  C_42 
REMARK   18  A    between atoms: C_42  and  O_44 
REMARK   19  A    between atoms: C_45  and  C_46 
REMARK   20  A    between atoms: C_46  and  C_47 
REMARK   21  A    between atoms: C_47  and  O_49 
REMARK   22  A    between atoms: C_50  and  C_51 
REMARK   23  A    between atoms: C_51  and  C_52 
REMARK   24  A    between atoms: C_52  and  O_54 
REMARK   25  A    between atoms: C_55  and  C_56 
REMARK   26  A    between atoms: C_56  and  C_57 
REMARK   27  A    between atoms: C_57  and  C_58 
REMARK   28  A    between atoms: C_58  and  O_60 
ROOT
ATOM      1  O   UNK d   0      -9.952   2.363  21.327  0.00  0.00    -0.650 OA
ATOM      2  C   UNK d   0      -9.250   1.820  20.445  0.00  0.00     0.139 C 
ENDROOT
BRANCH   2   3
ATOM      3  O   UNK d   0      -8.061   1.230  20.799  0.00  0.00    -0.776 OA
ATOM      4  H   UNK d   0      -8.042   0.351  21.320  0.00  0.00     0.167 HD
ENDBRANCH   2   3
BRANCH   2   5
ATOM      5  C   UNK d   0      -9.705   1.814  19.025  0.00  0.00     0.115 C 
BRANCH   5   6
ATOM      6  C   UNK d   0      -9.271   0.543  18.348  0.00  0.00     0.052 C 
BRANCH   6   7
ATOM      7  C   UNK d   0     -10.401  -0.448  18.194  0.00  0.00    -0.020 A 
ATOM      8  C   UNK d   0     -10.629  -1.516  18.914  0.00  0.00    -0.011 A 
ATOM      9  C   UNK d   0     -11.821  -2.160  18.389  0.00  0.00     0.067 A 
ATOM     10  C   UNK d   0     -12.585  -3.293  18.712  0.00  0.00     0.062 C 
ATOM     11  N   UNK d   0     -12.250  -1.420  17.346  0.00  0.00    -0.248 NA
ATOM     12  C   UNK d   0     -13.872  -3.603  18.259  0.00  0.00     0.041 A 
ATOM     13  N   UNK d   0     -14.429  -3.507  17.037  0.00  0.00    -0.355 N 
ATOM     14  C   UNK d   0     -14.831  -4.050  19.187  0.00  0.00    -0.022 A 
ATOM     15  C   UNK d   0     -15.719  -3.873  17.167  0.00  0.00     0.042 A 
ATOM     16  H   UNK d   0     -13.917  -3.204  16.097  0.00  0.00     0.166 HD
ATOM     17  C   UNK d   0     -16.746  -3.955  16.206  0.00  0.00     0.062 C 
ATOM     18  C   UNK d   0     -16.007  -4.220  18.501  0.00  0.00    -0.013 A 
ATOM     19  C   UNK d   0     -17.081  -3.058  15.223  0.00  0.00     0.067 A 
ATOM     20  N   UNK d   0     -16.222  -2.063  14.994  0.00  0.00    -0.248 NA
ATOM     21  C   UNK d   0     -18.199  -2.877  14.312  0.00  0.00    -0.011 A 
ATOM     22  C   UNK d   0     -16.696  -1.242  14.000  0.00  0.00     0.066 A 
ATOM     23  C   UNK d   0     -15.880  -0.182  13.634  0.00  0.00     0.062 C 
ATOM     24  C   UNK d   0     -17.969  -1.810  13.602  0.00  0.00    -0.020 A 
ATOM     25  C   UNK d   0     -14.585   0.105  14.092  0.00  0.00     0.041 A 
ATOM     26  N   UNK d   0     -14.035   0.023  15.309  0.00  0.00    -0.355 N 
ATOM     27  C   UNK d   0     -13.622   0.549  13.159  0.00  0.00    -0.022 A 
ATOM     28  C   UNK d   0     -12.752   0.396  15.184  0.00  0.00     0.042 A 
ATOM     29  H   UNK d   0     -14.554  -0.271  16.254  0.00  0.00     0.166 HD
ATOM     30  C   UNK d   0     -11.721   0.491  16.132  0.00  0.00     0.062 C 
ATOM     31  C   UNK d   0     -12.459   0.735  13.841  0.00  0.00    -0.013 A 
ATOM     32  C   UNK d   0     -11.439  -0.375  17.177  0.00  0.00     0.066 A 
BRANCH   8  33
ATOM     33  C   UNK d   0      -9.830  -2.001  20.055  0.00  0.00     0.151 C 
BRANCH  33  34
ATOM     34  C   UNK d   0     -10.509  -1.810  21.349  0.00  0.00     0.143 C 
ATOM     35  O   UNK d   0     -11.148  -0.775  21.586  0.00  0.00    -0.650 OA
BRANCH  34  36
ATOM     36  O   UNK d   0     -10.429  -2.795  22.306  0.00  0.00    -0.776 OA
ATOM     37  H   UNK d   0     -11.139  -3.538  22.369  0.00  0.00     0.167 HD
ENDBRANCH  34  36
ENDBRANCH  33  34
ENDBRANCH   8  33
BRANCH  31  38
ATOM     38  C   UNK d   0     -11.145   1.194  13.254  0.00  0.00     0.151 C 
BRANCH  38  39
ATOM     39  C   UNK d   0     -10.412   0.124  12.612  0.00  0.00     0.143 C 
ATOM     40  O   UNK d   0     -10.280   0.054  11.378  0.00  0.00    -0.650 OA
BRANCH  39  41
ATOM     41  O   UNK d   0      -9.827  -0.872  13.394  0.00  0.00    -0.776 OA
ATOM     42  H   UNK d   0      -9.219  -0.561  14.158  0.00  0.00     0.167 HD
ENDBRANCH  39  41
ENDBRANCH  38  39
ENDBRANCH  31  38
BRANCH  27  43
ATOM     43  C   UNK d   0     -13.766   0.798  11.678  0.00  0.00     0.052 C 
BRANCH  43  44
ATOM     44  C   UNK d   0     -14.033   2.230  11.344  0.00  0.00     0.115 C 
BRANCH  44  45
ATOM     45  C   UNK d   0     -12.960   2.654  10.406  0.00  0.00     0.139 C 
ATOM     46  O   UNK d   0     -12.815   3.882  10.190  0.00  0.00    -0.650 OA
BRANCH  45  47
ATOM     47  O   UNK d   0     -12.123   1.759   9.775  0.00  0.00    -0.776 OA
ATOM     48  H   UNK d   0     -11.777   1.900   8.812  0.00  0.00     0.167 HD
ENDBRANCH  45  47
ENDBRANCH  44  45
ENDBRANCH  43  44
ENDBRANCH  27  43
BRANCH  24  49
ATOM     49  C   UNK d   0     -18.827  -1.280  12.528  0.00  0.00     0.052 C 
BRANCH  49  50
ATOM     50  C   UNK d   0     -19.809  -0.282  13.086  0.00  0.00     0.115 C 
BRANCH  50  51
ATOM     51  C   UNK d   0     -21.148  -0.766  13.392  0.00  0.00     0.139 C 
ATOM     52  O   UNK d   0     -21.674  -0.629  14.522  0.00  0.00    -0.650 OA
BRANCH  51  53
ATOM     53  O   UNK d   0     -21.886  -1.409  12.411  0.00  0.00    -0.776 OA
ATOM     54  H   UNK d   0     -22.559  -2.099  12.698  0.00  0.00     0.167 HD
ENDBRANCH  51  53
ENDBRANCH  50  51
ENDBRANCH  49  50
ENDBRANCH  24  49
BRANCH  21  55
ATOM     55  C   UNK d   0     -19.377  -3.791  14.242  0.00  0.00     0.151 C 
BRANCH  55  56
ATOM     56  C   UNK d   0     -19.251  -4.771  13.152  0.00  0.00     0.143 C 
ATOM     57  O   UNK d   0     -18.424  -5.704  13.175  0.00  0.00    -0.650 OA
BRANCH  56  58
ATOM     58  O   UNK d   0     -20.101  -4.635  12.056  0.00  0.00    -0.776 OA
ATOM     59  H   UNK d   0     -20.802  -5.391  11.951  0.00  0.00     0.167 HD
ENDBRANCH  56  58
ENDBRANCH  55  56
ENDBRANCH  21  55
BRANCH  18  60
ATOM     60  C   UNK d   0     -17.306  -4.684  19.113  0.00  0.00     0.151 C 
BRANCH  60  61
ATOM     61  C   UNK d   0     -18.001  -3.466  19.557  0.00  0.00     0.143 C 
ATOM     62  O   UNK d   0     -18.432  -2.557  18.847  0.00  0.00    -0.650 OA
BRANCH  61  63
ATOM     63  O   UNK d   0     -18.181  -3.351  20.956  0.00  0.00    -0.776 OA
ATOM     64  H   UNK d   0     -18.672  -2.569  21.353  0.00  0.00     0.167 HD
ENDBRANCH  61  63
ENDBRANCH  60  61
ENDBRANCH  18  60
BRANCH  14  65
ATOM     65  C   UNK d   0     -14.695  -4.419  20.637  0.00  0.00     0.052 C 
BRANCH  65  66
ATOM     66  C   UNK d   0     -14.809  -3.248  21.547  0.00  0.00     0.115 C 
BRANCH  66  67
ATOM     67  C   UNK d   0     -13.790  -3.010  22.531  0.00  0.00     0.139 C 
ATOM     68  O   UNK d   0     -13.108  -4.010  22.962  0.00  0.00    -0.650 OA
BRANCH  67  69
ATOM     69  O   UNK d   0     -13.427  -1.792  23.105  0.00  0.00    -0.776 OA
ATOM     70  H   UNK d   0     -12.903  -1.148  22.495  0.00  0.00     0.167 HD
ENDBRANCH  67  69
ENDBRANCH  66  67
ENDBRANCH  65  66
ENDBRANCH  14  65
ENDBRANCH   6   7
ENDBRANCH   5   6
ENDBRANCH   2   5
TORSDOF 28
ENDMDL
MODEL 15
REMARK VINA RESULT:      -6.5     21.942     25.455
REMARK  28 active torsions:
REMARK  status: ('A' for Active; 'I' for Inactive)
REMARK    1  A    between atoms: C_2  and  O_3 
REMARK    2  A    between atoms: C_2  and  C_4 
REMARK    3  A    between atoms: C_4  and  C_5 
REMARK    4  A    between atoms: C_5  and  C_6 
REMARK    5  A    between atoms: C_7  and  C_8 
REMARK    6  A    between atoms: C_8  and  C_9 
REMARK    7  A    between atoms: C_9  and  O_11 
REMARK    8  A    between atoms: C_28  and  C_29 
REMARK    9  A    between atoms: C_29  and  C_30 
REMARK   10  A    between atoms: C_30  and  O_32 
REMARK   11  A    between atoms: C_33  and  C_34 
REMARK   12  A    between atoms: C_34  and  C_35 
REMARK   13  A    between atoms: C_35  and  C_36 
REMARK   14  A    between atoms: C_36  and  O_38 
REMARK   15  A    between atoms: C_39  and  C_40 
REMARK   16  A    between atoms: C_40  and  C_41 
REMARK   17  A    between atoms: C_41  and  C_42 
REMARK   18  A    between atoms: C_42  and  O_44 
REMARK   19  A    between atoms: C_45  and  C_46 
REMARK   20  A    between atoms: C_46  and  C_47 
REMARK   21  A    between atoms: C_47  and  O_49 
REMARK   22  A    between atoms: C_50  and  C_51 
REMARK   23  A    between atoms: C_51  and  C_52 
REMARK   24  A    between atoms: C_52  and  O_54 
REMARK   25  A    between atoms: C_55  and  C_56 
REMARK   26  A    between atoms: C_56  and  C_57 
REMARK   27  A    between atoms: C_57  and  C_58 
REMARK   28  A    between atoms: C_58  and  O_60 
ROOT
ATOM      1  O   UNK d   0      -8.927  -2.391  22.490  0.00  0.00    -0.650 OA
ATOM      2  C   UNK d   0      -9.031  -2.009  21.304  0.00  0.00     0.139 C 
ENDROOT
BRANCH   2   3
ATOM      3  O   UNK d   0      -8.968  -2.935  20.290  0.00  0.00    -0.776 OA
ATOM      4  H   UNK d   0      -8.316  -3.721  20.333  0.00  0.00     0.167 HD
ENDBRANCH   2   3
BRANCH   2   5
ATOM      5  C   UNK d   0      -9.220  -0.563  20.997  0.00  0.00     0.115 C 
BRANCH   5   6
ATOM      6  C   UNK d   0     -10.687  -0.228  20.966  0.00  0.00     0.052 C 
BRANCH   6   7
ATOM      7  C   UNK d   0     -11.211  -0.042  19.562  0.00  0.00    -0.020 A 
ATOM      8  C   UNK d   0     -12.032  -0.823  18.907  0.00  0.00    -0.011 A 
ATOM      9  C   UNK d   0     -12.242  -0.242  17.591  0.00  0.00     0.067 A 
ATOM     10  C   UNK d   0     -13.000  -0.561  16.453  0.00  0.00     0.062 C 
ATOM     11  N   UNK d   0     -11.507   0.887  17.529  0.00  0.00    -0.248 NA
ATOM     12  C   UNK d   0     -13.293   0.274  15.369  0.00  0.00     0.041 A 
ATOM     13  N   UNK d   0     -12.522   1.138  14.682  0.00  0.00    -0.355 N 
ATOM     14  C   UNK d   0     -14.613   0.320  14.884  0.00  0.00    -0.022 A 
ATOM     15  C   UNK d   0     -13.321   1.737  13.778  0.00  0.00     0.042 A 
ATOM     16  H   UNK d   0     -11.432   1.306  14.820  0.00  0.00     0.166 HD
ATOM     17  C   UNK d   0     -13.028   2.717  12.809  0.00  0.00     0.062 C 
ATOM     18  C   UNK d   0     -14.639   1.251  13.875  0.00  0.00    -0.013 A 
ATOM     19  C   UNK d   0     -12.284   3.862  12.938  0.00  0.00     0.067 A 
ATOM     20  N   UNK d   0     -11.568   3.995  14.058  0.00  0.00    -0.248 NA
ATOM     21  C   UNK d   0     -12.057   5.056  12.141  0.00  0.00    -0.011 A 
ATOM     22  C   UNK d   0     -10.891   5.191  14.051  0.00  0.00     0.066 A 
ATOM     23  C   UNK d   0     -10.075   5.442  15.144  0.00  0.00     0.062 C 
ATOM     24  C   UNK d   0     -11.245   5.831  12.800  0.00  0.00    -0.020 A 
ATOM     25  C   UNK d   0      -9.784   4.585  16.216  0.00  0.00     0.041 A 
ATOM     26  N   UNK d   0     -10.553   3.737  16.909  0.00  0.00    -0.355 N 
ATOM     27  C   UNK d   0      -8.458   4.535  16.700  0.00  0.00    -0.022 A 
ATOM     28  C   UNK d   0      -9.762   3.145  17.817  0.00  0.00     0.042 A 
ATOM     29  H   UNK d   0     -11.651   3.577  16.777  0.00  0.00     0.166 HD
ATOM     30  C   UNK d   0     -10.041   2.175  18.793  0.00  0.00     0.062 C 
ATOM     31  C   UNK d   0      -8.435   3.626  17.712  0.00  0.00    -0.013 A 
ATOM     32  C   UNK d   0     -10.863   1.064  18.684  0.00  0.00     0.066 A 
BRANCH   8  33
ATOM     33  C   UNK d   0     -12.642  -2.074  19.394  0.00  0.00     0.151 C 
BRANCH  33  34
ATOM     34  C   UNK d   0     -12.265  -3.246  18.583  0.00  0.00     0.143 C 
ATOM     35  O   UNK d   0     -11.074  -3.535  18.398  0.00  0.00    -0.650 OA
BRANCH  34  36
ATOM     36  O   UNK d   0     -13.250  -4.026  18.024  0.00  0.00    -0.776 OA
ATOM     37  H   UNK d   0     -14.072  -4.320  18.569  0.00  0.00     0.167 HD
ENDBRANCH  34  36
ENDBRANCH  33  34
ENDBRANCH   8  33
BRANCH  31  38
ATOM     38  C   UNK d   0      -7.225   3.227  18.524  0.00  0.00     0.151 C 
BRANCH  38  39
ATOM     39  C   UNK d   0      -7.031   4.062  19.691  0.00  0.00     0.143 C 
ATOM     40  O   UNK d   0      -6.235   5.017  19.700  0.00  0.00    -0.650 OA
BRANCH  39  41
ATOM     41  O   UNK d   0      -7.756   3.797  20.852  0.00  0.00    -0.776 OA
ATOM     42  H   UNK d   0      -7.299   3.213  21.559  0.00  0.00     0.167 HD
ENDBRANCH  39  41
ENDBRANCH  38  39
ENDBRANCH  31  38
BRANCH  27  43
ATOM     43  C   UNK d   0      -7.243   5.305  16.246  0.00  0.00     0.052 C 
BRANCH  43  44
ATOM     44  C   UNK d   0      -7.160   6.677  16.831  0.00  0.00     0.115 C 
BRANCH  44  45
ATOM     45  C   UNK d   0      -6.641   7.565  15.758  0.00  0.00     0.139 C 
ATOM     46  O   UNK d   0      -5.653   7.171  15.090  0.00  0.00    -0.650 OA
BRANCH  45  47
ATOM     47  O   UNK d   0      -7.199   8.791  15.466  0.00  0.00    -0.776 OA
ATOM     48  H   UNK d   0      -8.216   8.929  15.347  0.00  0.00     0.167 HD
ENDBRANCH  45  47
ENDBRANCH  44  45
ENDBRANCH  43  44
ENDBRANCH  27  43
BRANCH  24  49
ATOM     49  C   UNK d   0     -10.719   7.128  12.341  0.00  0.00     0.052 C 
BRANCH  49  50
ATOM     50  C   UNK d   0     -11.400   8.258  13.071  0.00  0.00     0.115 C 
BRANCH  50  51
ATOM     51  C   UNK d   0     -10.555   9.146  13.858  0.00  0.00     0.139 C 
ATOM     52  O   UNK d   0     -10.227  10.291  13.465  0.00  0.00    -0.650 OA
BRANCH  51  53
ATOM     53  O   UNK d   0     -10.083   8.728  15.093  0.00  0.00    -0.776 OA
ATOM     54  H   UNK d   0      -9.089   8.680  15.230  0.00  0.00     0.167 HD
ENDBRANCH  51  53
ENDBRANCH  50  51
ENDBRANCH  49  50
ENDBRANCH  24  49
BRANCH  21  55
ATOM     55  C   UNK d   0     -12.672   5.296  10.802  0.00  0.00     0.151 C 
BRANCH  55  56
ATOM     56  C   UNK d   0     -12.288   4.265   9.826  0.00  0.00     0.143 C 
ATOM     57  O   UNK d   0     -11.117   4.121   9.422  0.00  0.00    -0.650 OA
BRANCH  56  58
ATOM     58  O   UNK d   0     -13.288   3.422   9.343  0.00  0.00    -0.776 OA
ATOM     59  H   UNK d   0     -14.248   3.669   9.643  0.00  0.00     0.167 HD
ENDBRANCH  56  58
ENDBRANCH  55  56
ENDBRANCH  21  55
BRANCH  18  60
ATOM     60  C   UNK d   0     -15.863   1.628  13.078  0.00  0.00     0.151 C 
BRANCH  60  61
ATOM     61  C   UNK d   0     -15.770   0.877  11.816  0.00  0.00     0.143 C 
ATOM     62  O   UNK d   0     -15.913  -0.337  11.663  0.00  0.00    -0.650 OA
BRANCH  61  63
ATOM     63  O   UNK d   0     -15.486   1.657  10.670  0.00  0.00    -0.776 OA
ATOM     64  H   UNK d   0     -16.056   1.593   9.845  0.00  0.00     0.167 HD
ENDBRANCH  61  63
ENDBRANCH  60  61
ENDBRANCH  18  60
BRANCH  14  65
ATOM     65  C   UNK d   0     -15.816  -0.509  15.232  0.00  0.00     0.052 C 
BRANCH  65  66
ATOM     66  C   UNK d   0     -15.726  -1.905  14.725  0.00  0.00     0.115 C 
BRANCH  66  67
ATOM     67  C   UNK d   0     -16.291  -2.979  15.493  0.00  0.00     0.139 C 
ATOM     68  O   UNK d   0     -17.567  -3.140  15.476  0.00  0.00    -0.650 OA
BRANCH  67  69
ATOM     69  O   UNK d   0     -15.618  -3.907  16.287  0.00  0.00    -0.776 OA
ATOM     70  H   UNK d   0     -15.734  -4.894  16.018  0.00  0.00     0.167 HD
ENDBRANCH  67  69
ENDBRANCH  66  67
ENDBRANCH  65  66
ENDBRANCH  14  65
ENDBRANCH   6   7
ENDBRANCH   5   6
ENDBRANCH   2   5
TORSDOF 28
ENDMDL
MODEL 16
REMARK VINA RESULT:      -6.5     14.904     17.326
REMARK  28 active torsions:
REMARK  status: ('A' for Active; 'I' for Inactive)
REMARK    1  A    between atoms: C_2  and  O_3 
REMARK    2  A    between atoms: C_2  and  C_4 
REMARK    3  A    between atoms: C_4  and  C_5 
REMARK    4  A    between atoms: C_5  and  C_6 
REMARK    5  A    between atoms: C_7  and  C_8 
REMARK    6  A    between atoms: C_8  and  C_9 
REMARK    7  A    between atoms: C_9  and  O_11 
REMARK    8  A    between atoms: C_28  and  C_29 
REMARK    9  A    between atoms: C_29  and  C_30 
REMARK   10  A    between atoms: C_30  and  O_32 
REMARK   11  A    between atoms: C_33  and  C_34 
REMARK   12  A    between atoms: C_34  and  C_35 
REMARK   13  A    between atoms: C_35  and  C_36 
REMARK   14  A    between atoms: C_36  and  O_38 
REMARK   15  A    between atoms: C_39  and  C_40 
REMARK   16  A    between atoms: C_40  and  C_41 
REMARK   17  A    between atoms: C_41  and  C_42 
REMARK   18  A    between atoms: C_42  and  O_44 
REMARK   19  A    between atoms: C_45  and  C_46 
REMARK   20  A    between atoms: C_46  and  C_47 
REMARK   21  A    between atoms: C_47  and  O_49 
REMARK   22  A    between atoms: C_50  and  C_51 
REMARK   23  A    between atoms: C_51  and  C_52 
REMARK   24  A    between atoms: C_52  and  O_54 
REMARK   25  A    between atoms: C_55  and  C_56 
REMARK   26  A    between atoms: C_56  and  C_57 
REMARK   27  A    between atoms: C_57  and  C_58 
REMARK   28  A    between atoms: C_58  and  O_60 
ROOT
ATOM      1  O   UNK d   0     -17.112   6.518   6.317  0.00  0.00    -0.650 OA
ATOM      2  C   UNK d   0     -17.174   5.314   6.651  0.00  0.00     0.139 C 
ENDROOT
BRANCH   2   3
ATOM      3  O   UNK d   0     -18.173   4.523   6.136  0.00  0.00    -0.776 OA
ATOM      4  H   UNK d   0     -18.525   4.668   5.188  0.00  0.00     0.167 HD
ENDBRANCH   2   3
BRANCH   2   5
ATOM      5  C   UNK d   0     -16.173   4.748   7.599  0.00  0.00     0.115 C 
BRANCH   5   6
ATOM      6  C   UNK d   0     -16.238   5.473   8.915  0.00  0.00     0.052 C 
BRANCH   6   7
ATOM      7  C   UNK d   0     -17.052   4.731   9.948  0.00  0.00    -0.020 A 
ATOM      8  C   UNK d   0     -18.252   5.024  10.381  0.00  0.00    -0.011 A 
ATOM      9  C   UNK d   0     -18.620   4.032  11.377  0.00  0.00     0.067 A 
ATOM     10  C   UNK d   0     -19.742   3.771  12.179  0.00  0.00     0.062 C 
ATOM     11  N   UNK d   0     -17.584   3.176  11.492  0.00  0.00    -0.248 NA
ATOM     12  C   UNK d   0     -20.025   2.596  12.884  0.00  0.00     0.041 A 
ATOM     13  N   UNK d   0     -19.237   1.799  13.630  0.00  0.00    -0.355 N 
ATOM     14  C   UNK d   0     -21.321   2.054  12.812  0.00  0.00    -0.022 A 
ATOM     15  C   UNK d   0     -19.997   0.761  14.026  0.00  0.00     0.042 A 
ATOM     16  H   UNK d   0     -18.169   1.976  13.887  0.00  0.00     0.166 HD
ATOM     17  C   UNK d   0     -19.675  -0.357  14.821  0.00  0.00     0.062 C 
ATOM     18  C   UNK d   0     -21.310   0.886  13.532  0.00  0.00    -0.013 A 
ATOM     19  C   UNK d   0     -18.569  -1.166  14.764  0.00  0.00     0.067 A 
ATOM     20  N   UNK d   0     -17.556  -0.752  13.998  0.00  0.00    -0.248 NA
ATOM     21  C   UNK d   0     -18.178  -2.443  15.338  0.00  0.00    -0.011 A 
ATOM     22  C   UNK d   0     -16.532  -1.667  14.028  0.00  0.00     0.066 A 
ATOM     23  C   UNK d   0     -15.395  -1.343  13.302  0.00  0.00     0.062 C 
ATOM     24  C   UNK d   0     -16.987  -2.733  14.900  0.00  0.00    -0.020 A 
ATOM     25  C   UNK d   0     -15.126  -0.152  12.611  0.00  0.00     0.041 A 
ATOM     26  N   UNK d   0     -15.905   0.633  11.857  0.00  0.00    -0.355 N 
ATOM     27  C   UNK d   0     -13.826   0.394  12.688  0.00  0.00    -0.022 A 
ATOM     28  C   UNK d   0     -15.147   1.665  11.454  0.00  0.00     0.042 A 
ATOM     29  H   UNK d   0     -16.975   0.448  11.591  0.00  0.00     0.166 HD
ATOM     30  C   UNK d   0     -15.452   2.778  10.655  0.00  0.00     0.062 C 
ATOM     31  C   UNK d   0     -13.830   1.543  11.959  0.00  0.00    -0.013 A 
ATOM     32  C   UNK d   0     -16.608   3.541  10.659  0.00  0.00     0.066 A 
BRANCH   8  33
ATOM     33  C   UNK d   0     -19.094   6.156   9.953  0.00  0.00     0.151 C 
BRANCH  33  34
ATOM     34  C   UNK d   0     -19.971   5.818   8.818  0.00  0.00     0.143 C 
ATOM     35  O   UNK d   0     -20.713   4.827   8.860  0.00  0.00    -0.650 OA
BRANCH  34  36
ATOM     36  O   UNK d   0     -19.962   6.615   7.696  0.00  0.00    -0.776 OA
ATOM     37  H   UNK d   0     -20.826   7.047   7.341  0.00  0.00     0.167 HD
ENDBRANCH  34  36
ENDBRANCH  33  34
ENDBRANCH   8  33
BRANCH  31  38
ATOM     38  C   UNK d   0     -12.660   2.479  11.764  0.00  0.00     0.151 C 
BRANCH  38  39
ATOM     39  C   UNK d   0     -11.819   2.101  10.648  0.00  0.00     0.143 C 
ATOM     40  O   UNK d   0     -12.029   2.501   9.490  0.00  0.00    -0.650 OA
BRANCH  39  41
ATOM     41  O   UNK d   0     -10.729   1.259  10.866  0.00  0.00    -0.776 OA
ATOM     42  H   UNK d   0     -10.503   0.594  10.120  0.00  0.00     0.167 HD
ENDBRANCH  39  41
ENDBRANCH  38  39
ENDBRANCH  31  38
BRANCH  27  43
ATOM     43  C   UNK d   0     -12.609  -0.128  13.410  0.00  0.00     0.052 C 
BRANCH  43  44
ATOM     44  C   UNK d   0     -12.359   0.555  14.716  0.00  0.00     0.115 C 
BRANCH  44  45
ATOM     45  C   UNK d   0     -11.077   0.015  15.239  0.00  0.00     0.139 C 
ATOM     46  O   UNK d   0     -11.096  -0.599  16.334  0.00  0.00    -0.650 OA
BRANCH  45  47
ATOM     47  O   UNK d   0      -9.880   0.155  14.571  0.00  0.00    -0.776 OA
ATOM     48  H   UNK d   0      -9.378   1.055  14.503  0.00  0.00     0.167 HD
ENDBRANCH  45  47
ENDBRANCH  44  45
ENDBRANCH  43  44
ENDBRANCH  27  43
BRANCH  24  49
ATOM     49  C   UNK d   0     -16.193  -3.920  15.260  0.00  0.00     0.052 C 
BRANCH  49  50
ATOM     50  C   UNK d   0     -16.540  -5.077  14.358  0.00  0.00     0.115 C 
BRANCH  50  51
ATOM     51  C   UNK d   0     -16.824  -6.355  14.996  0.00  0.00     0.139 C 
ATOM     52  O   UNK d   0     -17.968  -6.868  15.004  0.00  0.00    -0.650 OA
BRANCH  51  53
ATOM     53  O   UNK d   0     -15.803  -7.049  15.626  0.00  0.00    -0.776 OA
ATOM     54  H   UNK d   0     -15.772  -7.041  16.631  0.00  0.00     0.167 HD
ENDBRANCH  51  53
ENDBRANCH  50  51
ENDBRANCH  49  50
ENDBRANCH  24  49
BRANCH  21  55
ATOM     55  C   UNK d   0     -19.034  -3.238  16.267  0.00  0.00     0.151 C 
BRANCH  55  56
ATOM     56  C   UNK d   0     -20.225  -3.778  15.593  0.00  0.00     0.143 C 
ATOM     57  O   UNK d   0     -21.384  -3.419  15.882  0.00  0.00    -0.650 OA
BRANCH  56  58
ATOM     58  O   UNK d   0     -20.030  -4.730  14.594  0.00  0.00    -0.776 OA
ATOM     59  H   UNK d   0     -20.731  -4.711  13.831  0.00  0.00     0.167 HD
ENDBRANCH  56  58
ENDBRANCH  55  56
ENDBRANCH  21  55
BRANCH  18  60
ATOM     60  C   UNK d   0     -22.496  -0.029  13.713  0.00  0.00     0.151 C 
BRANCH  60  61
ATOM     61  C   UNK d   0     -23.038   0.271  15.047  0.00  0.00     0.143 C 
ATOM     62  O   UNK d   0     -23.590   1.312  15.407  0.00  0.00    -0.650 OA
BRANCH  61  63
ATOM     63  O   UNK d   0     -22.897  -0.764  16.002  0.00  0.00    -0.776 OA
ATOM     64  H   UNK d   0     -22.843  -0.560  16.984  0.00  0.00     0.167 HD
ENDBRANCH  61  63
ENDBRANCH  60  61
ENDBRANCH  18  60
BRANCH  14  65
ATOM     65  C   UNK d   0     -22.580   2.601  12.202  0.00  0.00     0.052 C 
BRANCH  65  66
ATOM     66  C   UNK d   0     -22.649   2.398  10.730  0.00  0.00     0.115 C 
BRANCH  66  67
ATOM     67  C   UNK d   0     -22.581   1.069  10.191  0.00  0.00     0.139 C 
ATOM     68  O   UNK d   0     -21.482   0.683   9.646  0.00  0.00    -0.650 OA
BRANCH  67  69
ATOM     69  O   UNK d   0     -23.586   0.102  10.176  0.00  0.00    -0.776 OA
ATOM     70  H   UNK d   0     -23.633  -0.481   9.328  0.00  0.00     0.167 HD
ENDBRANCH  67  69
ENDBRANCH  66  67
ENDBRANCH  65  66
ENDBRANCH  14  65
ENDBRANCH   6   7
ENDBRANCH   5   6
ENDBRANCH   2   5
TORSDOF 28
ENDMDL
MODEL 17
REMARK VINA RESULT:      -6.5     21.978     26.110
REMARK  28 active torsions:
REMARK  status: ('A' for Active; 'I' for Inactive)
REMARK    1  A    between atoms: C_2  and  O_3 
REMARK    2  A    between atoms: C_2  and  C_4 
REMARK    3  A    between atoms: C_4  and  C_5 
REMARK    4  A    between atoms: C_5  and  C_6 
REMARK    5  A    between atoms: C_7  and  C_8 
REMARK    6  A    between atoms: C_8  and  C_9 
REMARK    7  A    between atoms: C_9  and  O_11 
REMARK    8  A    between atoms: C_28  and  C_29 
REMARK    9  A    between atoms: C_29  and  C_30 
REMARK   10  A    between atoms: C_30  and  O_32 
REMARK   11  A    between atoms: C_33  and  C_34 
REMARK   12  A    between atoms: C_34  and  C_35 
REMARK   13  A    between atoms: C_35  and  C_36 
REMARK   14  A    between atoms: C_36  and  O_38 
REMARK   15  A    between atoms: C_39  and  C_40 
REMARK   16  A    between atoms: C_40  and  C_41 
REMARK   17  A    between atoms: C_41  and  C_42 
REMARK   18  A    between atoms: C_42  and  O_44 
REMARK   19  A    between atoms: C_45  and  C_46 
REMARK   20  A    between atoms: C_46  and  C_47 
REMARK   21  A    between atoms: C_47  and  O_49 
REMARK   22  A    between atoms: C_50  and  C_51 
REMARK   23  A    between atoms: C_51  and  C_52 
REMARK   24  A    between atoms: C_52  and  O_54 
REMARK   25  A    between atoms: C_55  and  C_56 
REMARK   26  A    between atoms: C_56  and  C_57 
REMARK   27  A    between atoms: C_57  and  C_58 
REMARK   28  A    between atoms: C_58  and  O_60 
ROOT
ATOM      1  O   UNK d   0      -8.850   5.260  19.149  0.00  0.00    -0.650 OA
ATOM      2  C   UNK d   0      -7.838   5.084  18.435  0.00  0.00     0.139 C 
ENDROOT
BRANCH   2   3
ATOM      3  O   UNK d   0      -6.663   5.714  18.765  0.00  0.00    -0.776 OA
ATOM      4  H   UNK d   0      -6.592   6.734  18.760  0.00  0.00     0.167 HD
ENDBRANCH   2   3
BRANCH   2   5
ATOM      5  C   UNK d   0      -7.912   4.198  17.239  0.00  0.00     0.115 C 
BRANCH   5   6
ATOM      6  C   UNK d   0      -9.214   3.443  17.233  0.00  0.00     0.052 C 
BRANCH   6   7
ATOM      7  C   UNK d   0     -10.042   3.724  16.002  0.00  0.00    -0.020 A 
ATOM      8  C   UNK d   0     -10.736   2.868  15.295  0.00  0.00    -0.011 A 
ATOM      9  C   UNK d   0     -11.358   3.596  14.202  0.00  0.00     0.067 A 
ATOM     10  C   UNK d   0     -12.216   3.283  13.135  0.00  0.00     0.062 C 
ATOM     11  N   UNK d   0     -10.985   4.888  14.317  0.00  0.00    -0.248 NA
ATOM     12  C   UNK d   0     -12.938   4.178  12.338  0.00  0.00     0.041 A 
ATOM     13  N   UNK d   0     -12.586   5.354  11.783  0.00  0.00    -0.355 N 
ATOM     14  C   UNK d   0     -14.291   3.906  12.064  0.00  0.00    -0.022 A 
ATOM     15  C   UNK d   0     -13.683   5.838  11.170  0.00  0.00     0.042 A 
ATOM     16  H   UNK d   0     -11.578   5.822  11.807  0.00  0.00     0.166 HD
ATOM     17  C   UNK d   0     -13.870   7.028  10.439  0.00  0.00     0.062 C 
ATOM     18  C   UNK d   0     -14.772   4.958  11.325  0.00  0.00    -0.013 A 
ATOM     19  C   UNK d   0     -13.454   8.300  10.740  0.00  0.00     0.067 A 
ATOM     20  N   UNK d   0     -12.590   8.430  11.749  0.00  0.00    -0.248 NA
ATOM     21  C   UNK d   0     -13.727   9.635  10.234  0.00  0.00    -0.011 A 
ATOM     22  C   UNK d   0     -12.279   9.754  11.942  0.00  0.00     0.066 A 
ATOM     23  C   UNK d   0     -11.357  10.032  12.941  0.00  0.00     0.062 C 
ATOM     24  C   UNK d   0     -13.039  10.482  10.945  0.00  0.00    -0.020 A 
ATOM     25  C   UNK d   0     -10.633   9.117  13.721  0.00  0.00     0.041 A 
ATOM     26  N   UNK d   0     -10.987   7.956  14.286  0.00  0.00    -0.355 N 
ATOM     27  C   UNK d   0      -9.274   9.389  13.992  0.00  0.00    -0.022 A 
ATOM     28  C   UNK d   0      -9.897   7.475  14.905  0.00  0.00     0.042 A 
ATOM     29  H   UNK d   0     -12.003   7.492  14.270  0.00  0.00     0.166 HD
ATOM     30  C   UNK d   0      -9.699   6.298  15.644  0.00  0.00     0.062 C 
ATOM     31  C   UNK d   0      -8.801   8.355  14.740  0.00  0.00    -0.013 A 
ATOM     32  C   UNK d   0     -10.193   5.031  15.380  0.00  0.00     0.066 A 
BRANCH   8  33
ATOM     33  C   UNK d   0     -10.871   1.421  15.541  0.00  0.00     0.151 C 
BRANCH  33  34
ATOM     34  C   UNK d   0     -12.138   1.072  16.210  0.00  0.00     0.143 C 
ATOM     35  O   UNK d   0     -12.202   0.984  17.445  0.00  0.00    -0.650 OA
BRANCH  34  36
ATOM     36  O   UNK d   0     -13.261   0.840  15.451  0.00  0.00    -0.776 OA
ATOM     37  H   UNK d   0     -13.961   0.140  15.732  0.00  0.00     0.167 HD
ENDBRANCH  34  36
ENDBRANCH  33  34
ENDBRANCH   8  33
BRANCH  31  38
ATOM     38  C   UNK d   0      -7.389   8.202  15.257  0.00  0.00     0.151 C 
BRANCH  38  39
ATOM     39  C   UNK d   0      -7.175   8.883  16.516  0.00  0.00     0.143 C 
ATOM     40  O   UNK d   0      -7.559   8.411  17.601  0.00  0.00    -0.650 OA
BRANCH  39  41
ATOM     41  O   UNK d   0      -6.516  10.111  16.529  0.00  0.00    -0.776 OA
ATOM     42  H   UNK d   0      -6.616  10.680  17.376  0.00  0.00     0.167 HD
ENDBRANCH  39  41
ENDBRANCH  38  39
ENDBRANCH  31  38
BRANCH  27  43
ATOM     43  C   UNK d   0      -8.432  10.569  13.578  0.00  0.00     0.052 C 
BRANCH  43  44
ATOM     44  C   UNK d   0      -8.691  11.795  14.392  0.00  0.00     0.115 C 
BRANCH  44  45
ATOM     45  C   UNK d   0      -8.052  12.927  13.671  0.00  0.00     0.139 C 
ATOM     46  O   UNK d   0      -7.884  12.819  12.431  0.00  0.00    -0.650 OA
BRANCH  45  47
ATOM     47  O   UNK d   0      -7.644  14.081  14.303  0.00  0.00    -0.776 OA
ATOM     48  H   UNK d   0      -7.892  14.302  15.281  0.00  0.00     0.167 HD
ENDBRANCH  45  47
ENDBRANCH  44  45
ENDBRANCH  43  44
ENDBRANCH  27  43
BRANCH  24  49
ATOM     49  C   UNK d   0     -12.989  11.941  10.749  0.00  0.00     0.052 C 
BRANCH  49  50
ATOM     50  C   UNK d   0     -12.952  12.648  12.079  0.00  0.00     0.115 C 
BRANCH  50  51
ATOM     51  C   UNK d   0     -11.888  13.620  12.286  0.00  0.00     0.139 C 
ATOM     52  O   UNK d   0     -11.965  14.537  13.138  0.00  0.00    -0.650 OA
BRANCH  51  53
ATOM     53  O   UNK d   0     -10.735  13.548  11.520  0.00  0.00    -0.776 OA
ATOM     54  H   UNK d   0     -10.483  14.347  10.964  0.00  0.00     0.167 HD
ENDBRANCH  51  53
ENDBRANCH  50  51
ENDBRANCH  49  50
ENDBRANCH  24  49
BRANCH  21  55
ATOM     55  C   UNK d   0     -14.642   9.924   9.091  0.00  0.00     0.151 C 
BRANCH  55  56
ATOM     56  C   UNK d   0     -16.058   9.848   9.485  0.00  0.00     0.143 C 
ATOM     57  O   UNK d   0     -16.771   8.852   9.250  0.00  0.00    -0.650 OA
BRANCH  56  58
ATOM     58  O   UNK d   0     -16.607  10.944  10.149  0.00  0.00    -0.776 OA
ATOM     59  H   UNK d   0     -17.400  10.721  10.777  0.00  0.00     0.167 HD
ENDBRANCH  56  58
ENDBRANCH  55  56
ENDBRANCH  21  55
BRANCH  18  60
ATOM     60  C   UNK d   0     -16.188   5.083  10.819  0.00  0.00     0.151 C 
BRANCH  60  61
ATOM     61  C   UNK d   0     -16.258   4.253   9.607  0.00  0.00     0.143 C 
ATOM     62  O   UNK d   0     -17.126   3.427   9.322  0.00  0.00    -0.650 OA
BRANCH  61  63
ATOM     63  O   UNK d   0     -15.202   4.444   8.684  0.00  0.00    -0.776 OA
ATOM     64  H   UNK d   0     -15.237   5.180   8.001  0.00  0.00     0.167 HD
ENDBRANCH  61  63
ENDBRANCH  60  61
ENDBRANCH  18  60
BRANCH  14  65
ATOM     65  C   UNK d   0     -15.127   2.694  12.360  0.00  0.00     0.052 C 
BRANCH  65  66
ATOM     66  C   UNK d   0     -14.751   1.513  11.537  0.00  0.00     0.115 C 
BRANCH  66  67
ATOM     67  C   UNK d   0     -15.088   0.193  11.991  0.00  0.00     0.139 C 
ATOM     68  O   UNK d   0     -14.400  -0.321  12.948  0.00  0.00    -0.650 OA
BRANCH  67  69
ATOM     69  O   UNK d   0     -16.099  -0.641  11.515  0.00  0.00    -0.776 OA
ATOM     70  H   UNK d   0     -17.019  -0.533  11.967  0.00  0.00     0.167 HD
ENDBRANCH  67  69
ENDBRANCH  66  67
ENDBRANCH  65  66
ENDBRANCH  14  65
ENDBRANCH   6   7
ENDBRANCH   5   6
ENDBRANCH   2   5
TORSDOF 28
ENDMDL
MODEL 18
REMARK VINA RESULT:      -6.5     22.621     26.490
REMARK  28 active torsions:
REMARK  status: ('A' for Active; 'I' for Inactive)
REMARK    1  A    between atoms: C_2  and  O_3 
REMARK    2  A    between atoms: C_2  and  C_4 
REMARK    3  A    between atoms: C_4  and  C_5 
REMARK    4  A    between atoms: C_5  and  C_6 
REMARK    5  A    between atoms: C_7  and  C_8 
REMARK    6  A    between atoms: C_8  and  C_9 
REMARK    7  A    between atoms: C_9  and  O_11 
REMARK    8  A    between atoms: C_28  and  C_29 
REMARK    9  A    between atoms: C_29  and  C_30 
REMARK   10  A    between atoms: C_30  and  O_32 
REMARK   11  A    between atoms: C_33  and  C_34 
REMARK   12  A    between atoms: C_34  and  C_35 
REMARK   13  A    between atoms: C_35  and  C_36 
REMARK   14  A    between atoms: C_36  and  O_38 
REMARK   15  A    between atoms: C_39  and  C_40 
REMARK   16  A    between atoms: C_40  and  C_41 
REMARK   17  A    between atoms: C_41  and  C_42 
REMARK   18  A    between atoms: C_42  and  O_44 
REMARK   19  A    between atoms: C_45  and  C_46 
REMARK   20  A    between atoms: C_46  and  C_47 
REMARK   21  A    between atoms: C_47  and  O_49 
REMARK   22  A    between atoms: C_50  and  C_51 
REMARK   23  A    between atoms: C_51  and  C_52 
REMARK   24  A    between atoms: C_52  and  O_54 
REMARK   25  A    between atoms: C_55  and  C_56 
REMARK   26  A    between atoms: C_56  and  C_57 
REMARK   27  A    between atoms: C_57  and  C_58 
REMARK   28  A    between atoms: C_58  and  O_60 
ROOT
ATOM      1  O   UNK d   0     -13.441  -1.558  21.285  0.00  0.00    -0.650 OA
ATOM      2  C   UNK d   0     -12.292  -1.457  20.800  0.00  0.00     0.139 C 
ENDROOT
BRANCH   2   3
ATOM      3  O   UNK d   0     -11.500  -2.576  20.705  0.00  0.00    -0.776 OA
ATOM      4  H   UNK d   0     -11.376  -3.204  21.502  0.00  0.00     0.167 HD
ENDBRANCH   2   3
BRANCH   2   5
ATOM      5  C   UNK d   0     -11.790  -0.133  20.333  0.00  0.00     0.115 C 
BRANCH   5   6
ATOM      6  C   UNK d   0     -10.487  -0.303  19.601  0.00  0.00     0.052 C 
BRANCH   6   7
ATOM      7  C   UNK d   0     -10.529   0.262  18.202  0.00  0.00    -0.020 A 
ATOM      8  C   UNK d   0     -10.701  -0.392  17.082  0.00  0.00    -0.011 A 
ATOM      9  C   UNK d   0     -10.659   0.570  15.993  0.00  0.00     0.067 A 
ATOM     10  C   UNK d   0     -10.793   0.526  14.597  0.00  0.00     0.062 C 
ATOM     11  N   UNK d   0     -10.451   1.786  16.541  0.00  0.00    -0.248 NA
ATOM     12  C   UNK d   0     -11.001   1.605  13.731  0.00  0.00     0.041 A 
ATOM     13  N   UNK d   0     -10.446   2.831  13.694  0.00  0.00    -0.355 N 
ATOM     14  C   UNK d   0     -11.981   1.493  12.728  0.00  0.00    -0.022 A 
ATOM     15  C   UNK d   0     -11.054   3.503  12.698  0.00  0.00     0.042 A 
ATOM     16  H   UNK d   0      -9.627   3.207  14.346  0.00  0.00     0.166 HD
ATOM     17  C   UNK d   0     -10.858   4.818  12.231  0.00  0.00     0.062 C 
ATOM     18  C   UNK d   0     -12.023   2.697  12.070  0.00  0.00    -0.013 A 
ATOM     19  C   UNK d   0     -10.714   5.977  12.950  0.00  0.00     0.067 A 
ATOM     20  N   UNK d   0     -10.537   5.853  14.268  0.00  0.00    -0.248 NA
ATOM     21  C   UNK d   0     -10.716   7.399  12.651  0.00  0.00    -0.011 A 
ATOM     22  C   UNK d   0     -10.425   7.090  14.852  0.00  0.00     0.066 A 
ATOM     23  C   UNK d   0     -10.199   7.107  16.221  0.00  0.00     0.062 C 
ATOM     24  C   UNK d   0     -10.551   8.045  13.769  0.00  0.00    -0.020 A 
ATOM     25  C   UNK d   0      -9.980   6.012  17.070  0.00  0.00     0.041 A 
ATOM     26  N   UNK d   0     -10.542   4.798  17.117  0.00  0.00    -0.355 N 
ATOM     27  C   UNK d   0      -8.993   6.123  18.074  0.00  0.00    -0.022 A 
ATOM     28  C   UNK d   0      -9.943   4.129  18.115  0.00  0.00     0.042 A 
ATOM     29  H   UNK d   0     -11.372   4.425  16.468  0.00  0.00     0.166 HD
ATOM     30  C   UNK d   0     -10.135   2.825  18.596  0.00  0.00     0.062 C 
ATOM     31  C   UNK d   0      -8.962   4.936  18.739  0.00  0.00    -0.013 A 
ATOM     32  C   UNK d   0     -10.365   1.669  17.867  0.00  0.00     0.066 A 
BRANCH   8  33
ATOM     33  C   UNK d   0     -10.898  -1.845  16.927  0.00  0.00     0.151 C 
BRANCH  33  34
ATOM     34  C   UNK d   0     -12.256  -2.280  17.300  0.00  0.00     0.143 C 
ATOM     35  O   UNK d   0     -12.447  -3.379  17.840  0.00  0.00    -0.650 OA
BRANCH  34  36
ATOM     36  O   UNK d   0     -13.324  -1.452  17.042  0.00  0.00    -0.776 OA
ATOM     37  H   UNK d   0     -14.053  -1.284  17.750  0.00  0.00     0.167 HD
ENDBRANCH  34  36
ENDBRANCH  33  34
ENDBRANCH   8  33
BRANCH  31  38
ATOM     38  C   UNK d   0      -8.049   4.582  19.889  0.00  0.00     0.151 C 
BRANCH  38  39
ATOM     39  C   UNK d   0      -7.214   3.433  19.610  0.00  0.00     0.143 C 
ATOM     40  O   UNK d   0      -6.552   3.331  18.562  0.00  0.00    -0.650 OA
BRANCH  39  41
ATOM     41  O   UNK d   0      -7.138   2.397  20.540  0.00  0.00    -0.776 OA
ATOM     42  H   UNK d   0      -6.262   2.311  21.064  0.00  0.00     0.167 HD
ENDBRANCH  39  41
ENDBRANCH  38  39
ENDBRANCH  31  38
BRANCH  27  43
ATOM     43  C   UNK d   0      -8.101   7.290  18.416  0.00  0.00     0.052 C 
BRANCH  43  44
ATOM     44  C   UNK d   0      -6.778   7.246  17.724  0.00  0.00     0.115 C 
BRANCH  44  45
ATOM     45  C   UNK d   0      -6.757   8.388  16.773  0.00  0.00     0.139 C 
ATOM     46  O   UNK d   0      -6.928   9.544  17.234  0.00  0.00    -0.650 OA
BRANCH  45  47
ATOM     47  O   UNK d   0      -6.555   8.230  15.419  0.00  0.00    -0.776 OA
ATOM     48  H   UNK d   0      -5.792   8.703  14.908  0.00  0.00     0.167 HD
ENDBRANCH  45  47
ENDBRANCH  44  45
ENDBRANCH  43  44
ENDBRANCH  27  43
BRANCH  24  49
ATOM     49  C   UNK d   0     -10.453   9.507  13.921  0.00  0.00     0.052 C 
BRANCH  49  50
ATOM     50  C   UNK d   0      -9.009   9.939  13.921  0.00  0.00     0.115 C 
BRANCH  50  51
ATOM     51  C   UNK d   0      -8.728  11.318  14.296  0.00  0.00     0.139 C 
ATOM     52  O   UNK d   0      -9.402  12.286  13.870  0.00  0.00    -0.650 OA
BRANCH  51  53
ATOM     53  O   UNK d   0      -7.676  11.595  15.156  0.00  0.00    -0.776 OA
ATOM     54  H   UNK d   0      -7.878  12.076  16.015  0.00  0.00     0.167 HD
ENDBRANCH  51  53
ENDBRANCH  50  51
ENDBRANCH  49  50
ENDBRANCH  24  49
BRANCH  21  55
ATOM     55  C   UNK d   0     -10.879   7.964  11.279  0.00  0.00     0.151 C 
BRANCH  55  56
ATOM     56  C   UNK d   0     -12.276   7.908  10.821  0.00  0.00     0.143 C 
ATOM     57  O   UNK d   0     -13.174   8.625  11.306  0.00  0.00    -0.650 OA
BRANCH  56  58
ATOM     58  O   UNK d   0     -12.590   7.010   9.803  0.00  0.00    -0.776 OA
ATOM     59  H   UNK d   0     -13.256   7.369   9.095  0.00  0.00     0.167 HD
ENDBRANCH  56  58
ENDBRANCH  55  56
ENDBRANCH  21  55
BRANCH  18  60
ATOM     60  C   UNK d   0     -12.945   3.022  10.920  0.00  0.00     0.151 C 
BRANCH  60  61
ATOM     61  C   UNK d   0     -12.248   2.574   9.705  0.00  0.00     0.143 C 
ATOM     62  O   UNK d   0     -11.035   2.419   9.559  0.00  0.00    -0.650 OA
BRANCH  61  63
ATOM     63  O   UNK d   0     -13.086   2.296   8.598  0.00  0.00    -0.776 OA
ATOM     64  H   UNK d   0     -13.944   2.799   8.459  0.00  0.00     0.167 HD
ENDBRANCH  61  63
ENDBRANCH  60  61
ENDBRANCH  18  60
BRANCH  14  65
ATOM     65  C   UNK d   0     -12.802   0.316  12.285  0.00  0.00     0.052 C 
BRANCH  65  66
ATOM     66  C   UNK d   0     -14.161   0.294  12.892  0.00  0.00     0.115 C 
BRANCH  66  67
ATOM     67  C   UNK d   0     -15.319   0.348  12.045  0.00  0.00     0.139 C 
ATOM     68  O   UNK d   0     -15.896   1.483  11.868  0.00  0.00    -0.650 OA
BRANCH  67  69
ATOM     69  O   UNK d   0     -15.927  -0.704  11.362  0.00  0.00    -0.776 OA
ATOM     70  H   UNK d   0     -15.391  -1.097  10.575  0.00  0.00     0.167 HD
ENDBRANCH  67  69
ENDBRANCH  66  67
ENDBRANCH  65  66
ENDBRANCH  14  65
ENDBRANCH   6   7
ENDBRANCH   5   6
ENDBRANCH   2   5
TORSDOF 28
ENDMDL
MODEL 19
REMARK VINA RESULT:      -6.5      6.011     11.665
REMARK  28 active torsions:
REMARK  status: ('A' for Active; 'I' for Inactive)
REMARK    1  A    between atoms: C_2  and  O_3 
REMARK    2  A    between atoms: C_2  and  C_4 
REMARK    3  A    between atoms: C_4  and  C_5 
REMARK    4  A    between atoms: C_5  and  C_6 
REMARK    5  A    between atoms: C_7  and  C_8 
REMARK    6  A    between atoms: C_8  and  C_9 
REMARK    7  A    between atoms: C_9  and  O_11 
REMARK    8  A    between atoms: C_28  and  C_29 
REMARK    9  A    between atoms: C_29  and  C_30 
REMARK   10  A    between atoms: C_30  and  O_32 
REMARK   11  A    between atoms: C_33  and  C_34 
REMARK   12  A    between atoms: C_34  and  C_35 
REMARK   13  A    between atoms: C_35  and  C_36 
REMARK   14  A    between atoms: C_36  and  O_38 
REMARK   15  A    between atoms: C_39  and  C_40 
REMARK   16  A    between atoms: C_40  and  C_41 
REMARK   17  A    between atoms: C_41  and  C_42 
REMARK   18  A    between atoms: C_42  and  O_44 
REMARK   19  A    between atoms: C_45  and  C_46 
REMARK   20  A    between atoms: C_46  and  C_47 
REMARK   21  A    between atoms: C_47  and  O_49 
REMARK   22  A    between atoms: C_50  and  C_51 
REMARK   23  A    between atoms: C_51  and  C_52 
REMARK   24  A    between atoms: C_52  and  O_54 
REMARK   25  A    between atoms: C_55  and  C_56 
REMARK   26  A    between atoms: C_56  and  C_57 
REMARK   27  A    between atoms: C_57  and  C_58 
REMARK   28  A    between atoms: C_58  and  O_60 
ROOT
ATOM      1  O   UNK d   0     -21.681   3.691   5.157  0.00  0.00    -0.650 OA
ATOM      2  C   UNK d   0     -22.284   2.957   4.343  0.00  0.00     0.139 C 
ENDROOT
BRANCH   2   3
ATOM      3  O   UNK d   0     -22.303   1.598   4.547  0.00  0.00    -0.776 OA
ATOM      4  H   UNK d   0     -22.961   0.998   4.044  0.00  0.00     0.167 HD
ENDBRANCH   2   3
BRANCH   2   5
ATOM      5  C   UNK d   0     -22.975   3.555   3.166  0.00  0.00     0.115 C 
BRANCH   5   6
ATOM      6  C   UNK d   0     -23.643   2.478   2.355  0.00  0.00     0.052 C 
BRANCH   6   7
ATOM      7  C   UNK d   0     -25.150   2.559   2.412  0.00  0.00    -0.020 A 
ATOM      8  C   UNK d   0     -25.951   3.138   1.555  0.00  0.00    -0.011 A 
ATOM      9  C   UNK d   0     -27.313   2.964   2.032  0.00  0.00     0.067 A 
ATOM     10  C   UNK d   0     -28.596   3.314   1.583  0.00  0.00     0.062 C 
ATOM     11  N   UNK d   0     -27.247   2.272   3.189  0.00  0.00    -0.248 NA
ATOM     12  C   UNK d   0     -29.820   2.814   2.040  0.00  0.00     0.041 A 
ATOM     13  N   UNK d   0     -30.265   2.563   3.286  0.00  0.00    -0.355 N 
ATOM     14  C   UNK d   0     -30.793   2.432   1.099  0.00  0.00    -0.022 A 
ATOM     15  C   UNK d   0     -31.492   2.024   3.160  0.00  0.00     0.042 A 
ATOM     16  H   UNK d   0     -29.730   2.781   4.237  0.00  0.00     0.166 HD
ATOM     17  C   UNK d   0     -32.400   1.581   4.142  0.00  0.00     0.062 C 
ATOM     18  C   UNK d   0     -31.857   1.925   1.803  0.00  0.00    -0.013 A 
ATOM     19  C   UNK d   0     -32.161   0.819   5.257  0.00  0.00     0.067 A 
ATOM     20  N   UNK d   0     -30.883   0.620   5.591  0.00  0.00    -0.248 NA
ATOM     21  C   UNK d   0     -32.973   0.111   6.232  0.00  0.00    -0.011 A 
ATOM     22  C   UNK d   0     -30.800  -0.168   6.712  0.00  0.00     0.066 A 
ATOM     23  C   UNK d   0     -29.525  -0.424   7.193  0.00  0.00     0.062 C 
ATOM     24  C   UNK d   0     -32.170  -0.468   7.079  0.00  0.00    -0.020 A 
ATOM     25  C   UNK d   0     -28.309   0.099   6.727  0.00  0.00     0.041 A 
ATOM     26  N   UNK d   0     -27.860   0.334   5.488  0.00  0.00    -0.355 N 
ATOM     27  C   UNK d   0     -27.334   0.487   7.672  0.00  0.00    -0.022 A 
ATOM     28  C   UNK d   0     -26.633   0.864   5.611  0.00  0.00     0.042 A 
ATOM     29  H   UNK d   0     -28.395   0.105   4.533  0.00  0.00     0.166 HD
ATOM     30  C   UNK d   0     -25.715   1.301   4.643  0.00  0.00     0.062 C 
ATOM     31  C   UNK d   0     -26.271   0.973   6.974  0.00  0.00    -0.013 A 
ATOM     32  C   UNK d   0     -25.973   1.997   3.473  0.00  0.00     0.066 A 
BRANCH   8  33
ATOM     33  C   UNK d   0     -25.564   3.850   0.323  0.00  0.00     0.151 C 
BRANCH  33  34
ATOM     34  C   UNK d   0     -25.398   5.300   0.531  0.00  0.00     0.143 C 
ATOM     35  O   UNK d   0     -24.277   5.791   0.726  0.00  0.00    -0.650 OA
BRANCH  34  36
ATOM     36  O   UNK d   0     -26.505   6.116   0.508  0.00  0.00    -0.776 OA
ATOM     37  H   UNK d   0     -27.125   6.154  -0.313  0.00  0.00     0.167 HD
ENDBRANCH  34  36
ENDBRANCH  33  34
ENDBRANCH   8  33
BRANCH  31  38
ATOM     38  C   UNK d   0     -24.993   1.520   7.565  0.00  0.00     0.151 C 
BRANCH  38  39
ATOM     39  C   UNK d   0     -23.904   0.567   7.529  0.00  0.00     0.143 C 
ATOM     40  O   UNK d   0     -22.712   0.916   7.589  0.00  0.00    -0.650 OA
BRANCH  39  41
ATOM     41  O   UNK d   0     -24.187  -0.794   7.423  0.00  0.00    -0.776 OA
ATOM     42  H   UNK d   0     -25.018  -1.133   7.918  0.00  0.00     0.167 HD
ENDBRANCH  39  41
ENDBRANCH  38  39
ENDBRANCH  31  38
BRANCH  27  43
ATOM     43  C   UNK d   0     -27.376   0.412   9.178  0.00  0.00     0.052 C 
BRANCH  43  44
ATOM     44  C   UNK d   0     -26.803  -0.857   9.722  0.00  0.00     0.115 C 
BRANCH  44  45
ATOM     45  C   UNK d   0     -25.671  -0.467  10.602  0.00  0.00     0.139 C 
ATOM     46  O   UNK d   0     -25.857   0.456  11.433  0.00  0.00    -0.650 OA
BRANCH  45  47
ATOM     47  O   UNK d   0     -24.437  -1.078  10.547  0.00  0.00    -0.776 OA
ATOM     48  H   UNK d   0     -24.289  -2.005  10.116  0.00  0.00     0.167 HD
ENDBRANCH  45  47
ENDBRANCH  44  45
ENDBRANCH  43  44
ENDBRANCH  27  43
BRANCH  24  49
ATOM     49  C   UNK d   0     -32.572  -1.261   8.253  0.00  0.00     0.052 C 
BRANCH  49  50
ATOM     50  C   UNK d   0     -32.878  -0.354   9.418  0.00  0.00     0.115 C 
BRANCH  50  51
ATOM     51  C   UNK d   0     -34.120  -0.595  10.140  0.00  0.00     0.139 C 
ATOM     52  O   UNK d   0     -34.147  -1.079  11.296  0.00  0.00    -0.650 OA
BRANCH  51  53
ATOM     53  O   UNK d   0     -35.332  -0.286   9.542  0.00  0.00    -0.776 OA
ATOM     54  H   UNK d   0     -35.405   0.578   9.034  0.00  0.00     0.167 HD
ENDBRANCH  51  53
ENDBRANCH  50  51
ENDBRANCH  49  50
ENDBRANCH  24  49
BRANCH  21  55
ATOM     55  C   UNK d   0     -34.465   0.090   6.219  0.00  0.00     0.151 C 
BRANCH  55  56
ATOM     56  C   UNK d   0     -35.038   1.423   6.458  0.00  0.00     0.143 C 
ATOM     57  O   UNK d   0     -34.979   1.995   7.565  0.00  0.00    -0.650 OA
BRANCH  56  58
ATOM     58  O   UNK d   0     -35.668   2.060   5.391  0.00  0.00    -0.776 OA
ATOM     59  H   UNK d   0     -36.111   2.967   5.624  0.00  0.00     0.167 HD
ENDBRANCH  56  58
ENDBRANCH  55  56
ENDBRANCH  21  55
BRANCH  18  60
ATOM     60  C   UNK d   0     -33.125   1.387   1.186  0.00  0.00     0.151 C 
BRANCH  60  61
ATOM     61  C   UNK d   0     -34.115   2.470   1.288  0.00  0.00     0.143 C 
ATOM     62  O   UNK d   0     -34.120   3.532   0.665  0.00  0.00    -0.650 OA
BRANCH  61  63
ATOM     63  O   UNK d   0     -35.165   2.242   2.209  0.00  0.00    -0.776 OA
ATOM     64  H   UNK d   0     -36.093   2.019   1.893  0.00  0.00     0.167 HD
ENDBRANCH  61  63
ENDBRANCH  60  61
ENDBRANCH  18  60
BRANCH  14  65
ATOM     65  C   UNK d   0     -30.833   2.598  -0.393  0.00  0.00     0.052 C 
BRANCH  65  66
ATOM     66  C   UNK d   0     -30.070   1.545  -1.116  0.00  0.00     0.115 C 
BRANCH  66  67
ATOM     67  C   UNK d   0     -29.042   1.923  -2.044  0.00  0.00     0.139 C 
ATOM     68  O   UNK d   0     -28.480   3.072  -1.905  0.00  0.00    -0.650 OA
BRANCH  67  69
ATOM     69  O   UNK d   0     -28.550   1.184  -3.120  0.00  0.00    -0.776 OA
ATOM     70  H   UNK d   0     -27.681   0.659  -2.943  0.00  0.00     0.167 HD
ENDBRANCH  67  69
ENDBRANCH  66  67
ENDBRANCH  65  66
ENDBRANCH  14  65
ENDBRANCH   6   7
ENDBRANCH   5   6
ENDBRANCH   2   5
TORSDOF 28
ENDMDL
MODEL 20
REMARK VINA RESULT:      -6.5      5.937     11.200
REMARK  28 active torsions:
REMARK  status: ('A' for Active; 'I' for Inactive)
REMARK    1  A    between atoms: C_2  and  O_3 
REMARK    2  A    between atoms: C_2  and  C_4 
REMARK    3  A    between atoms: C_4  and  C_5 
REMARK    4  A    between atoms: C_5  and  C_6 
REMARK    5  A    between atoms: C_7  and  C_8 
REMARK    6  A    between atoms: C_8  and  C_9 
REMARK    7  A    between atoms: C_9  and  O_11 
REMARK    8  A    between atoms: C_28  and  C_29 
REMARK    9  A    between atoms: C_29  and  C_30 
REMARK   10  A    between atoms: C_30  and  O_32 
REMARK   11  A    between atoms: C_33  and  C_34 
REMARK   12  A    between atoms: C_34  and  C_35 
REMARK   13  A    between atoms: C_35  and  C_36 
REMARK   14  A    between atoms: C_36  and  O_38 
REMARK   15  A    between atoms: C_39  and  C_40 
REMARK   16  A    between atoms: C_40  and  C_41 
REMARK   17  A    between atoms: C_41  and  C_42 
REMARK   18  A    between atoms: C_42  and  O_44 
REMARK   19  A    between atoms: C_45  and  C_46 
REMARK   20  A    between atoms: C_46  and  C_47 
REMARK   21  A    between atoms: C_47  and  O_49 
REMARK   22  A    between atoms: C_50  and  C_51 
REMARK   23  A    between atoms: C_51  and  C_52 
REMARK   24  A    between atoms: C_52  and  O_54 
REMARK   25  A    between atoms: C_55  and  C_56 
REMARK   26  A    between atoms: C_56  and  C_57 
REMARK   27  A    between atoms: C_57  and  C_58 
REMARK   28  A    between atoms: C_58  and  O_60 
ROOT
ATOM      1  O   UNK d   0     -26.345   1.411   6.758  0.00  0.00    -0.650 OA
ATOM      2  C   UNK d   0     -26.563   0.540   7.629  0.00  0.00     0.139 C 
ENDROOT
BRANCH   2   3
ATOM      3  O   UNK d   0     -25.522   0.084   8.402  0.00  0.00    -0.776 OA
ATOM      4  H   UNK d   0     -24.644   0.603   8.463  0.00  0.00     0.167 HD
ENDBRANCH   2   3
BRANCH   2   5
ATOM      5  C   UNK d   0     -27.940   0.004   7.822  0.00  0.00     0.115 C 
BRANCH   5   6
ATOM      6  C   UNK d   0     -28.283  -0.953   6.714  0.00  0.00     0.052 C 
BRANCH   6   7
ATOM      7  C   UNK d   0     -29.559  -0.579   5.997  0.00  0.00    -0.020 A 
ATOM      8  C   UNK d   0     -30.777  -0.961   6.284  0.00  0.00    -0.011 A 
ATOM      9  C   UNK d   0     -31.673  -0.355   5.314  0.00  0.00     0.067 A 
ATOM     10  C   UNK d   0     -33.058  -0.345   5.082  0.00  0.00     0.062 C 
ATOM     11  N   UNK d   0     -30.915   0.376   4.469  0.00  0.00    -0.248 NA
ATOM     12  C   UNK d   0     -33.772   0.530   4.256  0.00  0.00     0.041 A 
ATOM     13  N   UNK d   0     -33.507   0.999   3.022  0.00  0.00    -0.355 N 
ATOM     14  C   UNK d   0     -34.959   1.108   4.742  0.00  0.00    -0.022 A 
ATOM     15  C   UNK d   0     -34.491   1.866   2.716  0.00  0.00     0.042 A 
ATOM     16  H   UNK d   0     -32.651   0.709   2.373  0.00  0.00     0.166 HD
ATOM     17  C   UNK d   0     -34.701   2.635   1.554  0.00  0.00     0.062 C 
ATOM     18  C   UNK d   0     -35.420   1.961   3.770  0.00  0.00    -0.013 A 
ATOM     19  C   UNK d   0     -33.799   3.377   0.836  0.00  0.00     0.067 A 
ATOM     20  N   UNK d   0     -32.507   3.215   1.135  0.00  0.00    -0.248 NA
ATOM     21  C   UNK d   0     -33.870   4.369  -0.224  0.00  0.00    -0.011 A 
ATOM     22  C   UNK d   0     -31.730   4.029   0.349  0.00  0.00     0.066 A 
ATOM     23  C   UNK d   0     -30.358   3.934   0.530  0.00  0.00     0.062 C 
ATOM     24  C   UNK d   0     -32.657   4.750  -0.501  0.00  0.00    -0.020 A 
ATOM     25  C   UNK d   0     -29.659   3.039   1.356  0.00  0.00     0.041 A 
ATOM     26  N   UNK d   0     -29.915   2.584   2.588  0.00  0.00    -0.355 N 
ATOM     27  C   UNK d   0     -28.470   2.456   0.866  0.00  0.00    -0.022 A 
ATOM     28  C   UNK d   0     -28.931   1.726   2.900  0.00  0.00     0.042 A 
ATOM     29  H   UNK d   0     -30.770   2.885   3.244  0.00  0.00     0.166 HD
ATOM     30  C   UNK d   0     -28.704   0.962   4.055  0.00  0.00     0.062 C 
ATOM     31  C   UNK d   0     -28.003   1.624   1.836  0.00  0.00    -0.013 A 
ATOM     32  C   UNK d   0     -29.634   0.283   4.827  0.00  0.00     0.066 A 
BRANCH   8  33
ATOM     33  C   UNK d   0     -31.189  -1.852   7.385  0.00  0.00     0.151 C 
BRANCH  33  34
ATOM     34  C   UNK d   0     -31.756  -1.117   8.530  0.00  0.00     0.143 C 
ATOM     35  O   UNK d   0     -32.662  -1.610   9.217  0.00  0.00    -0.650 OA
BRANCH  34  36
ATOM     36  O   UNK d   0     -31.271   0.133   8.838  0.00  0.00    -0.776 OA
ATOM     37  H   UNK d   0     -31.580   0.633   9.682  0.00  0.00     0.167 HD
ENDBRANCH  34  36
ENDBRANCH  33  34
ENDBRANCH   8  33
BRANCH  31  38
ATOM     38  C   UNK d   0     -26.759   0.771   1.756  0.00  0.00     0.151 C 
BRANCH  38  39
ATOM     39  C   UNK d   0     -27.042  -0.605   1.408  0.00  0.00     0.143 C 
ATOM     40  O   UNK d   0     -26.846  -1.545   2.198  0.00  0.00    -0.650 OA
BRANCH  39  41
ATOM     41  O   UNK d   0     -27.555  -0.902   0.145  0.00  0.00    -0.776 OA
ATOM     42  H   UNK d   0     -26.912  -0.808  -0.648  0.00  0.00     0.167 HD
ENDBRANCH  39  41
ENDBRANCH  38  39
ENDBRANCH  31  38
BRANCH  27  43
ATOM     43  C   UNK d   0     -27.778   2.660  -0.458  0.00  0.00     0.052 C 
BRANCH  43  44
ATOM     44  C   UNK d   0     -28.332   1.805  -1.552  0.00  0.00     0.115 C 
BRANCH  44  45
ATOM     45  C   UNK d   0     -27.193   1.464  -2.443  0.00  0.00     0.139 C 
ATOM     46  O   UNK d   0     -26.704   2.378  -3.153  0.00  0.00    -0.650 OA
BRANCH  45  47
ATOM     47  O   UNK d   0     -26.653   0.199  -2.515  0.00  0.00    -0.776 OA
ATOM     48  H   UNK d   0     -26.143  -0.239  -1.731  0.00  0.00     0.167 HD
ENDBRANCH  45  47
ENDBRANCH  44  45
ENDBRANCH  43  44
ENDBRANCH  27  43
BRANCH  24  49
ATOM     49  C   UNK d   0     -32.266   5.717  -1.542  0.00  0.00     0.052 C 
BRANCH  49  50
ATOM     50  C   UNK d   0     -32.210   5.043  -2.889  0.00  0.00     0.115 C 
BRANCH  50  51
ATOM     51  C   UNK d   0     -31.157   4.058  -3.096  0.00  0.00     0.139 C 
ATOM     52  O   UNK d   0     -29.968   4.378  -3.333  0.00  0.00    -0.650 OA
BRANCH  51  53
ATOM     53  O   UNK d   0     -31.460   2.706  -3.036  0.00  0.00    -0.776 OA
ATOM     54  H   UNK d   0     -31.797   2.333  -2.167  0.00  0.00     0.167 HD
ENDBRANCH  51  53
ENDBRANCH  50  51
ENDBRANCH  49  50
ENDBRANCH  24  49
BRANCH  21  55
ATOM     55  C   UNK d   0     -35.144   4.830  -0.852  0.00  0.00     0.151 C 
BRANCH  55  56
ATOM     56  C   UNK d   0     -35.798   3.760  -1.621  0.00  0.00     0.143 C 
ATOM     57  O   UNK d   0     -36.900   3.274  -1.299  0.00  0.00    -0.650 OA
BRANCH  56  58
ATOM     58  O   UNK d   0     -35.143   3.283  -2.755  0.00  0.00    -0.776 OA
ATOM     59  H   UNK d   0     -35.199   3.902  -3.584  0.00  0.00     0.167 HD
ENDBRANCH  56  58
ENDBRANCH  55  56
ENDBRANCH  21  55
BRANCH  18  60
ATOM     60  C   UNK d   0     -36.670   2.799   3.876  0.00  0.00     0.151 C 
BRANCH  60  61
ATOM     61  C   UNK d   0     -36.215   4.166   4.173  0.00  0.00     0.143 C 
ATOM     62  O   UNK d   0     -35.562   4.535   5.149  0.00  0.00    -0.650 OA
BRANCH  61  63
ATOM     63  O   UNK d   0     -36.580   5.143   3.216  0.00  0.00    -0.776 OA
ATOM     64  H   UNK d   0     -36.424   4.992   2.235  0.00  0.00     0.167 HD
ENDBRANCH  61  63
ENDBRANCH  60  61
ENDBRANCH  18  60
BRANCH  14  65
ATOM     65  C   UNK d   0     -35.735   0.843   6.001  0.00  0.00     0.052 C 
BRANCH  65  66
ATOM     66  C   UNK d   0     -35.322   1.715   7.133  0.00  0.00     0.115 C 
BRANCH  66  67
ATOM     67  C   UNK d   0     -34.768   1.127   8.319  0.00  0.00     0.139 C 
ATOM     68  O   UNK d   0     -33.775   1.713   8.888  0.00  0.00    -0.650 OA
BRANCH  67  69
ATOM     69  O   UNK d   0     -35.175  -0.041   8.963  0.00  0.00    -0.776 OA
ATOM     70  H   UNK d   0     -35.986   0.054   9.592  0.00  0.00     0.167 HD
ENDBRANCH  67  69
ENDBRANCH  66  67
ENDBRANCH  65  66
ENDBRANCH  14  65
ENDBRANCH   6   7
ENDBRANCH   5   6
ENDBRANCH   2   5
TORSDOF 28
ENDMDL
