MODEL 1
REMARK VINA RESULT:      -8.9      0.000      0.000
REMARK  16 active torsions:
REMARK  status: ('A' for Active; 'I' for Inactive)
REMARK    1  A    between atoms: C_6  and  C_7 
REMARK    2  A    between atoms: C_7  and  C_8 
REMARK    3  A    between atoms: C_8  and  C_9 
REMARK    4  A    between atoms: C_9  and  O_11 
REMARK    5  A    between atoms: C_16  and  C_17 
REMARK    6  A    between atoms: C_17  and  C_18 
REMARK    7  A    between atoms: C_18  and  C_19 
REMARK    8  A    between atoms: C_19  and  O_21 
REMARK    9  A    between atoms: C_28  and  C_29 
REMARK   10  A    between atoms: C_29  and  C_30 
REMARK   11  A    between atoms: C_30  and  C_31 
REMARK   12  A    between atoms: C_31  and  O_33 
REMARK   13  A    between atoms: C_42  and  C_43 
REMARK   14  A    between atoms: C_43  and  C_44 
REMARK   15  A    between atoms: C_44  and  C_45 
REMARK   16  A    between atoms: C_45  and  O_47 
ROOT
HETATM    1  C   UNK     0      19.653   0.610   9.014  0.00  0.00     0.051 C 
HETATM    2  C   UNK     0      18.378  -0.204   8.931  0.00  0.00    -0.031 A 
HETATM    3  C   UNK     0      17.934  -1.042   7.920  0.00  0.00     0.021 A 
HETATM    4  N   UNK     0      16.721  -1.538   8.260  0.00  0.00    -0.361 N 
HETATM    5  C   UNK     0      16.386  -1.043   9.469  0.00  0.00     0.022 A 
HETATM    6  C   UNK     0      17.400  -0.202   9.917  0.00  0.00    -0.027 A 
HETATM    7  C   UNK     0      15.200  -1.349  10.329  0.00  0.00     0.115 C 
HETATM    8  C   UNK     0      14.788  -2.807  10.428  0.00  0.00     0.021 A 
HETATM    9  N   UNK     0      15.571  -3.898  10.445  0.00  0.00    -0.361 N 
HETATM   10  C   UNK     0      14.772  -4.986  10.450  0.00  0.00     0.022 A 
HETATM   11  C   UNK     0      13.439  -4.586  10.447  0.00  0.00    -0.027 A 
HETATM   12  C   UNK     0      13.442  -3.215  10.433  0.00  0.00    -0.031 A 
HETATM   13  C   UNK     0      12.210  -2.338  10.430  0.00  0.00     0.051 C 
HETATM   14  C   UNK     0      15.232  -6.441  10.405  0.00  0.00     0.115 C 
HETATM   15  C   UNK     0      16.025  -6.798   9.158  0.00  0.00     0.021 A 
HETATM   16  N   UNK     0      17.169  -6.238   8.724  0.00  0.00    -0.361 N 
HETATM   17  C   UNK     0      17.509  -6.784   7.554  0.00  0.00     0.022 A 
HETATM   18  C   UNK     0      16.543  -7.752   7.214  0.00  0.00    -0.027 A 
HETATM   19  C   UNK     0      15.620  -7.752   8.227  0.00  0.00    -0.031 A 
HETATM   20  C   UNK     0      14.421  -8.681   8.276  0.00  0.00     0.051 C 
HETATM   21  C   UNK     0      18.657  -6.458   6.626  0.00  0.00     0.115 C 
HETATM   22  C   UNK     0      19.106  -5.017   6.551  0.00  0.00     0.022 A 
HETATM   23  N   UNK     0      18.349  -3.912   6.537  0.00  0.00    -0.361 N 
HETATM   24  C   UNK     0      19.164  -2.840   6.611  0.00  0.00     0.021 A 
HETATM   25  C   UNK     0      20.478  -3.266   6.662  0.00  0.00    -0.031 A 
HETATM   26  C   UNK     0      21.746  -2.439   6.711  0.00  0.00     0.051 C 
HETATM   27  C   UNK     0      20.466  -4.655   6.625  0.00  0.00    -0.027 A 
HETATM   28  C   UNK     0      18.769  -1.378   6.717  0.00  0.00     0.115 C 
HETATM   29  H   UNK     0      16.091  -2.205   7.626  0.00  0.00     0.165 HD
HETATM   30  H   UNK     0      16.687  -3.902  10.503  0.00  0.00     0.165 HD
HETATM   31  H   UNK     0      17.777  -5.476   9.278  0.00  0.00     0.165 HD
HETATM   32  H   UNK     0      17.234  -3.877   6.432  0.00  0.00     0.165 HD
ENDROOT
BRANCH   6  33
HETATM   33  C   UNK     0      17.507   0.595  11.193  0.00  0.00     0.051 C 
BRANCH  33  34
HETATM   34  C   UNK     0      18.230  -0.195  12.258  0.00  0.00     0.114 C 
BRANCH  34  35
HETATM   35  C   UNK     0      19.431   0.592  12.659  0.00  0.00     0.139 C 
HETATM   36  O   UNK     0      20.388   0.029  13.266  0.00  0.00    -0.650 OA
BRANCH  35  37
HETATM   37  O   UNK     0      19.560   1.950  12.393  0.00  0.00    -0.776 OA
HETATM   38  H   UNK     0      20.084   2.565  12.995  0.00  0.00     0.167 HD
ENDBRANCH  35  37
ENDBRANCH  34  35
ENDBRANCH  33  34
ENDBRANCH   6  33
BRANCH  27  39
HETATM   39  C   UNK     0      21.707  -5.476   6.592  0.00  0.00     0.051 C 
BRANCH  39  40
HETATM   40  C   UNK     0      21.919  -6.457   7.655  0.00  0.00     0.114 C 
BRANCH  40  41
HETATM   41  C   UNK     0      21.553  -6.196   9.029  0.00  0.00     0.139 C 
HETATM   42  O   UNK     0      20.611  -6.759   9.604  0.00  0.00    -0.650 OA
BRANCH  41  43
HETATM   43  O   UNK     0      22.303  -5.244   9.776  0.00  0.00    -0.776 OA
HETATM   44  H   UNK     0      22.156  -4.282   9.496  0.00  0.00     0.167 HD
ENDBRANCH  41  43
ENDBRANCH  40  41
ENDBRANCH  39  40
ENDBRANCH  27  39
BRANCH  11  45
HETATM   45  C   UNK     0      12.200  -5.440  10.458  0.00  0.00     0.051 C 
BRANCH  45  46
HETATM   46  C   UNK     0      11.087  -4.881  11.268  0.00  0.00     0.114 C 
BRANCH  46  47
HETATM   47  C   UNK     0       9.863  -5.665  10.936  0.00  0.00     0.139 C 
HETATM   48  O   UNK     0       8.757  -5.123  11.074  0.00  0.00    -0.650 OA
BRANCH  47  49
HETATM   49  O   UNK     0       9.957  -6.959  10.489  0.00  0.00    -0.776 OA
HETATM   50  H   UNK     0      10.860  -7.438  10.392  0.00  0.00     0.167 HD
ENDBRANCH  47  49
ENDBRANCH  46  47
ENDBRANCH  45  46
ENDBRANCH  11  45
BRANCH  18  51
HETATM   51  C   UNK     0      16.514  -8.644   5.999  0.00  0.00     0.051 C 
BRANCH  51  52
HETATM   52  C   UNK     0      15.528  -8.010   5.029  0.00  0.00     0.114 C 
BRANCH  52  53
HETATM   53  C   UNK     0      16.214  -7.250   3.967  0.00  0.00     0.139 C 
HETATM   54  O   UNK     0      16.616  -7.832   2.946  0.00  0.00    -0.650 OA
BRANCH  53  55
HETATM   55  O   UNK     0      16.408  -5.898   4.115  0.00  0.00    -0.776 OA
HETATM   56  H   UNK     0      16.184  -5.199   3.447  0.00  0.00     0.167 HD
ENDBRANCH  53  55
ENDBRANCH  52  53
ENDBRANCH  51  52
ENDBRANCH  18  51
TORSDOF 16
ENDMDL
MODEL 2
REMARK VINA RESULT:      -8.7      1.685      2.065
REMARK  16 active torsions:
REMARK  status: ('A' for Active; 'I' for Inactive)
REMARK    1  A    between atoms: C_6  and  C_7 
REMARK    2  A    between atoms: C_7  and  C_8 
REMARK    3  A    between atoms: C_8  and  C_9 
REMARK    4  A    between atoms: C_9  and  O_11 
REMARK    5  A    between atoms: C_16  and  C_17 
REMARK    6  A    between atoms: C_17  and  C_18 
REMARK    7  A    between atoms: C_18  and  C_19 
REMARK    8  A    between atoms: C_19  and  O_21 
REMARK    9  A    between atoms: C_28  and  C_29 
REMARK   10  A    between atoms: C_29  and  C_30 
REMARK   11  A    between atoms: C_30  and  C_31 
REMARK   12  A    between atoms: C_31  and  O_33 
REMARK   13  A    between atoms: C_42  and  C_43 
REMARK   14  A    between atoms: C_43  and  C_44 
REMARK   15  A    between atoms: C_44  and  C_45 
REMARK   16  A    between atoms: C_45  and  O_47 
ROOT
HETATM    1  C   UNK     0      18.837   0.842   8.040  0.00  0.00     0.051 C 
HETATM    2  C   UNK     0      17.690  -0.141   8.164  0.00  0.00    -0.031 A 
HETATM    3  C   UNK     0      17.111  -0.944   7.193  0.00  0.00     0.021 A 
HETATM    4  N   UNK     0      16.091  -1.641   7.749  0.00  0.00    -0.361 N 
HETATM    5  C   UNK     0      16.014  -1.307   9.053  0.00  0.00     0.022 A 
HETATM    6  C   UNK     0      16.998  -0.368   9.346  0.00  0.00    -0.027 A 
HETATM    7  C   UNK     0      15.127  -1.857  10.126  0.00  0.00     0.115 C 
HETATM    8  C   UNK     0      14.934  -3.363  10.144  0.00  0.00     0.021 A 
HETATM    9  N   UNK     0      15.821  -4.324   9.843  0.00  0.00    -0.361 N 
HETATM   10  C   UNK     0      15.188  -5.515   9.907  0.00  0.00     0.022 A 
HETATM   11  C   UNK     0      13.858  -5.316  10.267  0.00  0.00    -0.027 A 
HETATM   12  C   UNK     0      13.691  -3.963  10.419  0.00  0.00    -0.031 A 
HETATM   13  C   UNK     0      12.401  -3.280  10.814  0.00  0.00     0.051 C 
HETATM   14  C   UNK     0      15.793  -6.876   9.579  0.00  0.00     0.115 C 
HETATM   15  C   UNK     0      16.285  -7.003   8.146  0.00  0.00     0.021 A 
HETATM   16  N   UNK     0      17.208  -6.246   7.524  0.00  0.00    -0.361 N 
HETATM   17  C   UNK     0      17.305  -6.632   6.250  0.00  0.00     0.022 A 
HETATM   18  C   UNK     0      16.410  -7.698   6.034  0.00  0.00    -0.027 A 
HETATM   19  C   UNK     0      15.778  -7.922   7.229  0.00  0.00    -0.031 A 
HETATM   20  C   UNK     0      14.751  -9.018   7.449  0.00  0.00     0.051 C 
HETATM   21  C   UNK     0      18.136  -6.062   5.123  0.00  0.00     0.115 C 
HETATM   22  C   UNK     0      18.374  -4.570   5.117  0.00  0.00     0.022 A 
HETATM   23  N   UNK     0      17.510  -3.591   5.416  0.00  0.00    -0.361 N 
HETATM   24  C   UNK     0      18.181  -2.421   5.423  0.00  0.00     0.021 A 
HETATM   25  C   UNK     0      19.507  -2.652   5.110  0.00  0.00    -0.031 A 
HETATM   26  C   UNK     0      20.637  -1.656   4.956  0.00  0.00     0.051 C 
HETATM   27  C   UNK     0      19.655  -4.020   4.910  0.00  0.00    -0.027 A 
HETATM   28  C   UNK     0      17.651  -1.047   5.795  0.00  0.00     0.115 C 
HETATM   29  H   UNK     0      15.408  -2.334   7.206  0.00  0.00     0.165 HD
HETATM   30  H   UNK     0      16.908  -4.170   9.634  0.00  0.00     0.165 HD
HETATM   31  H   UNK     0      17.838  -5.454   8.005  0.00  0.00     0.165 HD
HETATM   32  H   UNK     0      16.408  -3.711   5.583  0.00  0.00     0.165 HD
ENDROOT
BRANCH   6  33
HETATM   33  C   UNK     0      17.325   0.322  10.646  0.00  0.00     0.051 C 
BRANCH  33  34
HETATM   34  C   UNK     0      18.095  -0.600  11.562  0.00  0.00     0.114 C 
BRANCH  34  35
HETATM   35  C   UNK     0      19.214   0.190  12.151  0.00  0.00     0.139 C 
HETATM   36  O   UNK     0      19.427   1.378  11.769  0.00  0.00    -0.650 OA
BRANCH  35  37
HETATM   37  O   UNK     0      20.060  -0.322  13.128  0.00  0.00    -0.776 OA
HETATM   38  H   UNK     0      20.712  -1.064  12.935  0.00  0.00     0.167 HD
ENDBRANCH  35  37
ENDBRANCH  34  35
ENDBRANCH  33  34
ENDBRANCH   6  33
BRANCH  27  39
HETATM   39  C   UNK     0      20.937  -4.643   4.485  0.00  0.00     0.051 C 
BRANCH  39  40
HETATM   40  C   UNK     0      21.816  -5.195   5.516  0.00  0.00     0.114 C 
BRANCH  40  41
HETATM   41  C   UNK     0      21.436  -5.238   6.910  0.00  0.00     0.139 C 
HETATM   42  O   UNK     0      20.822  -6.183   7.422  0.00  0.00    -0.650 OA
BRANCH  41  43
HETATM   43  O   UNK     0      21.779  -4.143   7.754  0.00  0.00    -0.776 OA
HETATM   44  H   UNK     0      22.485  -3.526   7.373  0.00  0.00     0.167 HD
ENDBRANCH  41  43
ENDBRANCH  40  41
ENDBRANCH  39  40
ENDBRANCH  27  39
BRANCH  11  45
HETATM   45  C   UNK     0      12.774  -6.340  10.470  0.00  0.00     0.051 C 
BRANCH  45  46
HETATM   46  C   UNK     0      12.807  -7.458   9.493  0.00  0.00     0.114 C 
BRANCH  46  47
HETATM   47  C   UNK     0      12.578  -8.718  10.256  0.00  0.00     0.139 C 
HETATM   48  O   UNK     0      11.412  -9.104  10.427  0.00  0.00    -0.650 OA
BRANCH  47  49
HETATM   49  O   UNK     0      13.632  -9.436  10.760  0.00  0.00    -0.776 OA
HETATM   50  H   UNK     0      13.659  -9.754  11.736  0.00  0.00     0.167 HD
ENDBRANCH  47  49
ENDBRANCH  46  47
ENDBRANCH  45  46
ENDBRANCH  11  45
BRANCH  18  51
HETATM   51  C   UNK     0      16.185  -8.476   4.763  0.00  0.00     0.051 C 
BRANCH  51  52
HETATM   52  C   UNK     0      15.082  -7.748   4.009  0.00  0.00     0.114 C 
BRANCH  52  53
HETATM   53  C   UNK     0      13.991  -8.662   3.614  0.00  0.00     0.139 C 
HETATM   54  O   UNK     0      13.012  -8.819   4.361  0.00  0.00    -0.650 OA
BRANCH  53  55
HETATM   55  O   UNK     0      14.069  -9.337   2.420  0.00  0.00    -0.776 OA
HETATM   56  H   UNK     0      14.580  -9.050   1.619  0.00  0.00     0.167 HD
ENDBRANCH  53  55
ENDBRANCH  52  53
ENDBRANCH  51  52
ENDBRANCH  18  51
TORSDOF 16
ENDMDL
MODEL 3
REMARK VINA RESULT:      -8.2      2.930      4.562
REMARK  16 active torsions:
REMARK  status: ('A' for Active; 'I' for Inactive)
REMARK    1  A    between atoms: C_6  and  C_7 
REMARK    2  A    between atoms: C_7  and  C_8 
REMARK    3  A    between atoms: C_8  and  C_9 
REMARK    4  A    between atoms: C_9  and  O_11 
REMARK    5  A    between atoms: C_16  and  C_17 
REMARK    6  A    between atoms: C_17  and  C_18 
REMARK    7  A    between atoms: C_18  and  C_19 
REMARK    8  A    between atoms: C_19  and  O_21 
REMARK    9  A    between atoms: C_28  and  C_29 
REMARK   10  A    between atoms: C_29  and  C_30 
REMARK   11  A    between atoms: C_30  and  C_31 
REMARK   12  A    between atoms: C_31  and  O_33 
REMARK   13  A    between atoms: C_42  and  C_43 
REMARK   14  A    between atoms: C_43  and  C_44 
REMARK   15  A    between atoms: C_44  and  C_45 
REMARK   16  A    between atoms: C_45  and  O_47 
ROOT
HETATM    1  C   UNK     0      20.589   2.775  10.305  0.00  0.00     0.051 C 
HETATM    2  C   UNK     0      19.681   1.635   9.888  0.00  0.00    -0.031 A 
HETATM    3  C   UNK     0      19.498   1.069   8.636  0.00  0.00     0.021 A 
HETATM    4  N   UNK     0      18.563   0.093   8.726  0.00  0.00    -0.361 N 
HETATM    5  C   UNK     0      18.153   0.020  10.009  0.00  0.00     0.022 A 
HETATM    6  C   UNK     0      18.830   0.972  10.763  0.00  0.00    -0.027 A 
HETATM    7  C   UNK     0      17.208  -0.947  10.652  0.00  0.00     0.115 C 
HETATM    8  C   UNK     0      17.346  -2.405  10.250  0.00  0.00     0.021 A 
HETATM    9  N   UNK     0      18.463  -3.090   9.958  0.00  0.00    -0.361 N 
HETATM   10  C   UNK     0      18.103  -4.330   9.564  0.00  0.00     0.022 A 
HETATM   11  C   UNK     0      16.717  -4.450   9.612  0.00  0.00    -0.027 A 
HETATM   12  C   UNK     0      16.234  -3.241  10.044  0.00  0.00    -0.031 A 
HETATM   13  C   UNK     0      14.774  -2.907  10.253  0.00  0.00     0.051 C 
HETATM   14  C   UNK     0      19.043  -5.429   9.077  0.00  0.00     0.115 C 
HETATM   15  C   UNK     0      19.830  -5.059   7.830  0.00  0.00     0.021 A 
HETATM   16  N   UNK     0      20.673  -4.022   7.669  0.00  0.00    -0.361 N 
HETATM   17  C   UNK     0      21.108  -4.003   6.407  0.00  0.00     0.022 A 
HETATM   18  C   UNK     0      20.528  -5.085   5.715  0.00  0.00    -0.027 A 
HETATM   19  C   UNK     0      19.731  -5.739   6.618  0.00  0.00    -0.031 A 
HETATM   20  C   UNK     0      18.943  -6.995   6.294  0.00  0.00     0.051 C 
HETATM   21  C   UNK     0      22.006  -3.011   5.703  0.00  0.00     0.115 C 
HETATM   22  C   UNK     0      21.911  -1.563   6.125  0.00  0.00     0.022 A 
HETATM   23  N   UNK     0      20.813  -0.856   6.425  0.00  0.00    -0.361 N 
HETATM   24  C   UNK     0      21.200   0.349   6.889  0.00  0.00     0.021 A 
HETATM   25  C   UNK     0      22.579   0.425   6.877  0.00  0.00    -0.031 A 
HETATM   26  C   UNK     0      23.474   1.584   7.265  0.00  0.00     0.051 C 
HETATM   27  C   UNK     0      23.057  -0.787   6.392  0.00  0.00    -0.027 A 
HETATM   28  C   UNK     0      20.320   1.458   7.440  0.00  0.00     0.115 C 
HETATM   29  H   UNK     0      18.171  -0.509   7.874  0.00  0.00     0.165 HD
HETATM   30  H   UNK     0      19.510  -2.717  10.077  0.00  0.00     0.165 HD
HETATM   31  H   UNK     0      21.006  -3.316   8.474  0.00  0.00     0.165 HD
HETATM   32  H   UNK     0      19.753  -1.187   6.272  0.00  0.00     0.165 HD
ENDROOT
BRANCH   6  33
HETATM   33  C   UNK     0      18.730   1.297  12.232  0.00  0.00     0.051 C 
BRANCH  33  34
HETATM   34  C   UNK     0      19.666   0.429  13.038  0.00  0.00     0.114 C 
BRANCH  34  35
HETATM   35  C   UNK     0      20.764   1.303  13.541  0.00  0.00     0.139 C 
HETATM   36  O   UNK     0      20.510   2.243  14.350  0.00  0.00    -0.650 OA
BRANCH  35  37
HETATM   37  O   UNK     0      22.090   1.136  13.160  0.00  0.00    -0.776 OA
HETATM   38  H   UNK     0      22.459   0.239  12.889  0.00  0.00     0.167 HD
ENDBRANCH  35  37
ENDBRANCH  34  35
ENDBRANCH  33  34
ENDBRANCH   6  33
BRANCH  27  39
HETATM   39  C   UNK     0      24.503  -1.057   6.167  0.00  0.00     0.051 C 
BRANCH  39  40
HETATM   40  C   UNK     0      25.082  -0.703   4.871  0.00  0.00     0.114 C 
BRANCH  40  41
HETATM   41  C   UNK     0      24.459  -1.076   3.621  0.00  0.00     0.139 C 
HETATM   42  O   UNK     0      23.831  -0.283   2.906  0.00  0.00    -0.650 OA
BRANCH  41  43
HETATM   43  O   UNK     0      24.563  -2.424   3.172  0.00  0.00    -0.776 OA
HETATM   44  H   UNK     0      24.250  -2.574   2.221  0.00  0.00     0.167 HD
ENDBRANCH  41  43
ENDBRANCH  40  41
ENDBRANCH  39  40
ENDBRANCH  27  39
BRANCH  11  45
HETATM   45  C   UNK     0      15.863  -5.642   9.275  0.00  0.00     0.051 C 
BRANCH  45  46
HETATM   46  C   UNK     0      15.288  -6.330  10.458  0.00  0.00     0.114 C 
BRANCH  46  47
HETATM   47  C   UNK     0      16.402  -7.059  11.130  0.00  0.00     0.139 C 
HETATM   48  O   UNK     0      17.007  -7.933  10.494  0.00  0.00    -0.650 OA
BRANCH  47  49
HETATM   49  O   UNK     0      16.751  -6.769  12.425  0.00  0.00    -0.776 OA
HETATM   50  H   UNK     0      16.234  -7.149  13.227  0.00  0.00     0.167 HD
ENDBRANCH  47  49
ENDBRANCH  46  47
ENDBRANCH  45  46
ENDBRANCH  11  45
BRANCH  18  51
HETATM   51  C   UNK     0      20.739  -5.486   4.278  0.00  0.00     0.051 C 
BRANCH  51  52
HETATM   52  C   UNK     0      19.591  -4.870   3.491  0.00  0.00     0.114 C 
BRANCH  52  53
HETATM   53  C   UNK     0      18.808  -5.892   2.770  0.00  0.00     0.139 C 
HETATM   54  O   UNK     0      19.249  -7.047   2.657  0.00  0.00    -0.650 OA
BRANCH  53  55
HETATM   55  O   UNK     0      17.593  -5.557   2.224  0.00  0.00    -0.776 OA
HETATM   56  H   UNK     0      17.151  -4.670   2.284  0.00  0.00     0.167 HD
ENDBRANCH  53  55
ENDBRANCH  52  53
ENDBRANCH  51  52
ENDBRANCH  18  51
TORSDOF 16
ENDMDL
MODEL 4
REMARK VINA RESULT:      -7.9      1.785      7.607
REMARK  16 active torsions:
REMARK  status: ('A' for Active; 'I' for Inactive)
REMARK    1  A    between atoms: C_6  and  C_7 
REMARK    2  A    between atoms: C_7  and  C_8 
REMARK    3  A    between atoms: C_8  and  C_9 
REMARK    4  A    between atoms: C_9  and  O_11 
REMARK    5  A    between atoms: C_16  and  C_17 
REMARK    6  A    between atoms: C_17  and  C_18 
REMARK    7  A    between atoms: C_18  and  C_19 
REMARK    8  A    between atoms: C_19  and  O_21 
REMARK    9  A    between atoms: C_28  and  C_29 
REMARK   10  A    between atoms: C_29  and  C_30 
REMARK   11  A    between atoms: C_30  and  C_31 
REMARK   12  A    between atoms: C_31  and  O_33 
REMARK   13  A    between atoms: C_42  and  C_43 
REMARK   14  A    between atoms: C_43  and  C_44 
REMARK   15  A    between atoms: C_44  and  C_45 
REMARK   16  A    between atoms: C_45  and  O_47 
ROOT
HETATM    1  C   UNK     0      12.714  -6.185  10.404  0.00  0.00     0.051 C 
HETATM    2  C   UNK     0      13.897  -5.257  10.221  0.00  0.00    -0.031 A 
HETATM    3  C   UNK     0      15.217  -5.561   9.927  0.00  0.00     0.021 A 
HETATM    4  N   UNK     0      15.936  -4.415   9.888  0.00  0.00    -0.361 N 
HETATM    5  C   UNK     0      15.102  -3.385  10.141  0.00  0.00     0.022 A 
HETATM    6  C   UNK     0      13.819  -3.877  10.357  0.00  0.00    -0.027 A 
HETATM    7  C   UNK     0      15.373  -1.913  10.123  0.00  0.00     0.115 C 
HETATM    8  C   UNK     0      16.227  -1.392   8.981  0.00  0.00     0.021 A 
HETATM    9  N   UNK     0      16.263  -1.808   7.706  0.00  0.00    -0.361 N 
HETATM   10  C   UNK     0      17.235  -1.122   7.068  0.00  0.00     0.022 A 
HETATM   11  C   UNK     0      17.835  -0.232   7.954  0.00  0.00    -0.027 A 
HETATM   12  C   UNK     0      17.205  -0.397   9.161  0.00  0.00    -0.031 A 
HETATM   13  C   UNK     0      17.524   0.369  10.425  0.00  0.00     0.051 C 
HETATM   14  C   UNK     0      17.671  -1.314   5.618  0.00  0.00     0.115 C 
HETATM   15  C   UNK     0      18.196  -2.708   5.313  0.00  0.00     0.021 A 
HETATM   16  N   UNK     0      17.550  -3.880   5.459  0.00  0.00    -0.361 N 
HETATM   17  C   UNK     0      18.378  -4.879   5.150  0.00  0.00     0.022 A 
HETATM   18  C   UNK     0      19.621  -4.332   4.774  0.00  0.00    -0.027 A 
HETATM   19  C   UNK     0      19.494  -2.972   4.879  0.00  0.00    -0.031 A 
HETATM   20  C   UNK     0      20.598  -1.991   4.531  0.00  0.00     0.051 C 
HETATM   21  C   UNK     0      18.165  -6.375   5.218  0.00  0.00     0.115 C 
HETATM   22  C   UNK     0      17.282  -6.904   6.323  0.00  0.00     0.022 A 
HETATM   23  N   UNK     0      17.222  -6.505   7.600  0.00  0.00    -0.361 N 
HETATM   24  C   UNK     0      16.196  -7.146   8.196  0.00  0.00     0.021 A 
HETATM   25  C   UNK     0      15.587  -7.985   7.283  0.00  0.00    -0.031 A 
HETATM   26  C   UNK     0      14.425  -8.934   7.488  0.00  0.00     0.051 C 
HETATM   27  C   UNK     0      16.265  -7.848   6.077  0.00  0.00    -0.027 A 
HETATM   28  C   UNK     0      15.678  -6.956   9.611  0.00  0.00     0.115 C 
HETATM   29  H   UNK     0      17.036  -4.344   9.720  0.00  0.00     0.165 HD
HETATM   30  H   UNK     0      15.570  -2.551   7.240  0.00  0.00     0.165 HD
HETATM   31  H   UNK     0      16.471  -4.003   5.741  0.00  0.00     0.165 HD
HETATM   32  H   UNK     0      17.932  -5.799   8.106  0.00  0.00     0.165 HD
ENDROOT
BRANCH   6  33
HETATM   33  C   UNK     0      12.541  -3.145  10.681  0.00  0.00     0.051 C 
BRANCH  33  34
HETATM   34  C   UNK     0      11.474  -4.109  11.142  0.00  0.00     0.114 C 
BRANCH  34  35
HETATM   35  C   UNK     0      10.155  -3.543  10.735  0.00  0.00     0.139 C 
HETATM   36  O   UNK     0       9.124  -4.277  10.722  0.00  0.00    -0.650 OA
BRANCH  35  37
HETATM   37  O   UNK     0       9.993  -2.215  10.361  0.00  0.00    -0.776 OA
HETATM   38  H   UNK     0       9.495  -1.555  10.936  0.00  0.00     0.167 HD
ENDBRANCH  35  37
ENDBRANCH  34  35
ENDBRANCH  33  34
ENDBRANCH   6  33
BRANCH  27  39
HETATM   39  C   UNK     0      15.938  -8.652   4.868  0.00  0.00     0.051 C 
BRANCH  39  40
HETATM   40  C   UNK     0      15.061  -8.061   3.857  0.00  0.00     0.114 C 
BRANCH  40  41
HETATM   41  C   UNK     0      13.789  -8.649   3.503  0.00  0.00     0.139 C 
HETATM   42  O   UNK     0      12.805  -8.653   4.254  0.00  0.00    -0.650 OA
BRANCH  41  43
HETATM   43  O   UNK     0      13.642  -9.260   2.225  0.00  0.00    -0.776 OA
HETATM   44  H   UNK     0      13.645  -8.611   1.447  0.00  0.00     0.167 HD
ENDBRANCH  41  43
ENDBRANCH  40  41
ENDBRANCH  39  40
ENDBRANCH  27  39
BRANCH  11  45
HETATM   45  C   UNK     0      18.953   0.742   7.698  0.00  0.00     0.051 C 
BRANCH  45  46
HETATM   46  C   UNK     0      20.272   0.102   7.457  0.00  0.00     0.114 C 
BRANCH  46  47
HETATM   47  C   UNK     0      20.786  -0.359   8.778  0.00  0.00     0.139 C 
HETATM   48  O   UNK     0      20.998   0.486   9.659  0.00  0.00    -0.650 OA
BRANCH  47  49
HETATM   49  O   UNK     0      21.023  -1.690   9.014  0.00  0.00    -0.776 OA
HETATM   50  H   UNK     0      20.550  -2.202   9.768  0.00  0.00     0.167 HD
ENDBRANCH  47  49
ENDBRANCH  46  47
ENDBRANCH  45  46
ENDBRANCH  11  45
BRANCH  18  51
HETATM   51  C   UNK     0      20.857  -5.065   4.320  0.00  0.00     0.051 C 
BRANCH  51  52
HETATM   52  C   UNK     0      21.946  -4.731   5.328  0.00  0.00     0.114 C 
BRANCH  52  53
HETATM   53  C   UNK     0      21.538  -5.062   6.707  0.00  0.00     0.139 C 
HETATM   54  O   UNK     0      21.533  -4.181   7.582  0.00  0.00    -0.650 OA
BRANCH  53  55
HETATM   55  O   UNK     0      21.168  -6.349   7.017  0.00  0.00    -0.776 OA
HETATM   56  H   UNK     0      21.230  -6.775   7.911  0.00  0.00     0.167 HD
ENDBRANCH  53  55
ENDBRANCH  52  53
ENDBRANCH  51  52
ENDBRANCH  18  51
TORSDOF 16
ENDMDL
MODEL 5
REMARK VINA RESULT:      -7.7     21.687     26.259
REMARK  16 active torsions:
REMARK  status: ('A' for Active; 'I' for Inactive)
REMARK    1  A    between atoms: C_6  and  C_7 
REMARK    2  A    between atoms: C_7  and  C_8 
REMARK    3  A    between atoms: C_8  and  C_9 
REMARK    4  A    between atoms: C_9  and  O_11 
REMARK    5  A    between atoms: C_16  and  C_17 
REMARK    6  A    between atoms: C_17  and  C_18 
REMARK    7  A    between atoms: C_18  and  C_19 
REMARK    8  A    between atoms: C_19  and  O_21 
REMARK    9  A    between atoms: C_28  and  C_29 
REMARK   10  A    between atoms: C_29  and  C_30 
REMARK   11  A    between atoms: C_30  and  C_31 
REMARK   12  A    between atoms: C_31  and  O_33 
REMARK   13  A    between atoms: C_42  and  C_43 
REMARK   14  A    between atoms: C_43  and  C_44 
REMARK   15  A    between atoms: C_44  and  C_45 
REMARK   16  A    between atoms: C_45  and  O_47 
ROOT
HETATM    1  C   UNK     0      25.953  18.834   4.473  0.00  0.00     0.051 C 
HETATM    2  C   UNK     0      25.090  18.340   3.330  0.00  0.00    -0.031 A 
HETATM    3  C   UNK     0      24.468  19.061   2.323  0.00  0.00     0.021 A 
HETATM    4  N   UNK     0      23.771  18.208   1.535  0.00  0.00    -0.361 N 
HETATM    5  C   UNK     0      23.944  16.958   2.012  0.00  0.00     0.022 A 
HETATM    6  C   UNK     0      24.761  17.005   3.137  0.00  0.00    -0.027 A 
HETATM    7  C   UNK     0      23.468  15.652   1.456  0.00  0.00     0.115 C 
HETATM    8  C   UNK     0      23.590  15.467  -0.046  0.00  0.00     0.021 A 
HETATM    9  N   UNK     0      24.553  15.912  -0.869  0.00  0.00    -0.361 N 
HETATM   10  C   UNK     0      24.204  15.593  -2.133  0.00  0.00     0.022 A 
HETATM   11  C   UNK     0      22.988  14.917  -2.125  0.00  0.00    -0.027 A 
HETATM   12  C   UNK     0      22.595  14.834  -0.813  0.00  0.00    -0.031 A 
HETATM   13  C   UNK     0      21.327  14.174  -0.321  0.00  0.00     0.051 C 
HETATM   14  C   UNK     0      24.974  15.959  -3.399  0.00  0.00     0.115 C 
HETATM   15  C   UNK     0      25.123  17.456  -3.619  0.00  0.00     0.021 A 
HETATM   16  N   UNK     0      25.699  18.353  -2.797  0.00  0.00    -0.361 N 
HETATM   17  C   UNK     0      25.565  19.574  -3.318  0.00  0.00     0.022 A 
HETATM   18  C   UNK     0      24.875  19.467  -4.542  0.00  0.00    -0.027 A 
HETATM   19  C   UNK     0      24.606  18.135  -4.720  0.00  0.00    -0.031 A 
HETATM   20  C   UNK     0      23.902  17.572  -5.941  0.00  0.00     0.051 C 
HETATM   21  C   UNK     0      25.970  20.919  -2.759  0.00  0.00     0.115 C 
HETATM   22  C   UNK     0      25.896  21.103  -1.261  0.00  0.00     0.022 A 
HETATM   23  N   UNK     0      24.951  20.669  -0.417  0.00  0.00    -0.361 N 
HETATM   24  C   UNK     0      25.357  20.928   0.842  0.00  0.00     0.021 A 
HETATM   25  C   UNK     0      26.588  21.554   0.808  0.00  0.00    -0.031 A 
HETATM   26  C   UNK     0      27.426  22.073   1.958  0.00  0.00     0.051 C 
HETATM   27  C   UNK     0      26.954  21.678  -0.528  0.00  0.00    -0.027 A 
HETATM   28  C   UNK     0      24.668  20.539   2.139  0.00  0.00     0.115 C 
HETATM   29  H   UNK     0      23.131  18.499   0.670  0.00  0.00     0.165 HD
HETATM   30  H   UNK     0      25.505  16.406  -0.555  0.00  0.00     0.165 HD
HETATM   31  H   UNK     0      26.255  18.115  -1.853  0.00  0.00     0.165 HD
HETATM   32  H   UNK     0      23.968  20.213  -0.705  0.00  0.00     0.165 HD
ENDROOT
BRANCH   6  33
HETATM   33  C   UNK     0      25.245  15.892   4.032  0.00  0.00     0.051 C 
BRANCH  33  34
HETATM   34  C   UNK     0      26.643  15.468   3.650  0.00  0.00     0.114 C 
BRANCH  34  35
HETATM   35  C   UNK     0      26.519  14.328   2.696  0.00  0.00     0.139 C 
HETATM   36  O   UNK     0      26.100  13.204   3.097  0.00  0.00    -0.650 OA
BRANCH  35  37
HETATM   37  O   UNK     0      26.846  14.439   1.350  0.00  0.00    -0.776 OA
HETATM   38  H   UNK     0      27.358  13.721   0.863  0.00  0.00     0.167 HD
ENDBRANCH  35  37
ENDBRANCH  34  35
ENDBRANCH  33  34
ENDBRANCH   6  33
BRANCH  27  39
HETATM   39  C   UNK     0      28.195  22.370  -0.967  0.00  0.00     0.051 C 
BRANCH  39  40
HETATM   40  C   UNK     0      29.459  21.637  -0.903  0.00  0.00     0.114 C 
BRANCH  40  41
HETATM   41  C   UNK     0      29.510  20.192  -0.860  0.00  0.00     0.139 C 
HETATM   42  O   UNK     0      29.757  19.548   0.168  0.00  0.00    -0.650 OA
BRANCH  41  43
HETATM   43  O   UNK     0      29.267  19.456  -2.055  0.00  0.00    -0.776 OA
HETATM   44  H   UNK     0      29.465  18.465  -1.984  0.00  0.00     0.167 HD
ENDBRANCH  41  43
ENDBRANCH  40  41
ENDBRANCH  39  40
ENDBRANCH  27  39
BRANCH  11  45
HETATM   45  C   UNK     0      22.211  14.361  -3.288  0.00  0.00     0.051 C 
BRANCH  45  46
HETATM   46  C   UNK     0      22.717  13.057  -3.787  0.00  0.00     0.114 C 
BRANCH  46  47
HETATM   47  C   UNK     0      23.283  13.294  -5.146  0.00  0.00     0.139 C 
HETATM   48  O   UNK     0      24.414  12.855  -5.400  0.00  0.00    -0.650 OA
BRANCH  47  49
HETATM   49  O   UNK     0      22.570  13.983  -6.094  0.00  0.00    -0.776 OA
HETATM   50  H   UNK     0      22.183  13.523  -6.926  0.00  0.00     0.167 HD
ENDBRANCH  47  49
ENDBRANCH  46  47
ENDBRANCH  45  46
ENDBRANCH  11  45
BRANCH  18  51
HETATM   51  C   UNK     0      24.513  20.571  -5.501  0.00  0.00     0.051 C 
BRANCH  51  52
HETATM   52  C   UNK     0      23.017  20.798  -5.343  0.00  0.00     0.114 C 
BRANCH  52  53
HETATM   53  C   UNK     0      22.721  21.823  -4.324  0.00  0.00     0.139 C 
HETATM   54  O   UNK     0      22.657  23.020  -4.647  0.00  0.00    -0.650 OA
BRANCH  53  55
HETATM   55  O   UNK     0      22.521  21.446  -3.018  0.00  0.00    -0.776 OA
HETATM   56  H   UNK     0      21.989  21.941  -2.342  0.00  0.00     0.167 HD
ENDBRANCH  53  55
ENDBRANCH  52  53
ENDBRANCH  51  52
ENDBRANCH  18  51
TORSDOF 16
ENDMDL
MODEL 6
REMARK VINA RESULT:      -7.7     32.620     36.414
REMARK  16 active torsions:
REMARK  status: ('A' for Active; 'I' for Inactive)
REMARK    1  A    between atoms: C_6  and  C_7 
REMARK    2  A    between atoms: C_7  and  C_8 
REMARK    3  A    between atoms: C_8  and  C_9 
REMARK    4  A    between atoms: C_9  and  O_11 
REMARK    5  A    between atoms: C_16  and  C_17 
REMARK    6  A    between atoms: C_17  and  C_18 
REMARK    7  A    between atoms: C_18  and  C_19 
REMARK    8  A    between atoms: C_19  and  O_21 
REMARK    9  A    between atoms: C_28  and  C_29 
REMARK   10  A    between atoms: C_29  and  C_30 
REMARK   11  A    between atoms: C_30  and  C_31 
REMARK   12  A    between atoms: C_31  and  O_33 
REMARK   13  A    between atoms: C_42  and  C_43 
REMARK   14  A    between atoms: C_43  and  C_44 
REMARK   15  A    between atoms: C_44  and  C_45 
REMARK   16  A    between atoms: C_45  and  O_47 
ROOT
HETATM    1  C   UNK     0     -10.897  17.751   6.937  0.00  0.00     0.051 C 
HETATM    2  C   UNK     0     -10.421  17.318   8.309  0.00  0.00    -0.031 A 
HETATM    3  C   UNK     0      -9.312  17.737   9.027  0.00  0.00     0.021 A 
HETATM    4  N   UNK     0      -9.261  17.057  10.197  0.00  0.00    -0.361 N 
HETATM    5  C   UNK     0     -10.319  16.220  10.244  0.00  0.00     0.022 A 
HETATM    6  C   UNK     0     -11.064  16.356   9.077  0.00  0.00    -0.027 A 
HETATM    7  C   UNK     0     -10.774  15.322  11.352  0.00  0.00     0.115 C 
HETATM    8  C   UNK     0     -10.725  15.895  12.757  0.00  0.00     0.021 A 
HETATM    9  N   UNK     0     -10.964  17.154  13.156  0.00  0.00    -0.361 N 
HETATM   10  C   UNK     0     -10.713  17.229  14.480  0.00  0.00     0.022 A 
HETATM   11  C   UNK     0     -10.311  15.982  14.949  0.00  0.00    -0.027 A 
HETATM   12  C   UNK     0     -10.317  15.137  13.869  0.00  0.00    -0.031 A 
HETATM   13  C   UNK     0      -9.952  13.670  13.905  0.00  0.00     0.051 C 
HETATM   14  C   UNK     0     -10.790  18.486  15.342  0.00  0.00     0.115 C 
HETATM   15  C   UNK     0      -9.838  19.589  14.910  0.00  0.00     0.021 A 
HETATM   16  N   UNK     0      -9.779  20.200  13.712  0.00  0.00    -0.361 N 
HETATM   17  C   UNK     0      -8.760  21.062  13.710  0.00  0.00     0.022 A 
HETATM   18  C   UNK     0      -8.130  21.017  14.969  0.00  0.00    -0.027 A 
HETATM   19  C   UNK     0      -8.816  20.091  15.712  0.00  0.00    -0.031 A 
HETATM   20  C   UNK     0      -8.486  19.757  17.156  0.00  0.00     0.051 C 
HETATM   21  C   UNK     0      -8.228  21.935  12.596  0.00  0.00     0.115 C 
HETATM   22  C   UNK     0      -8.311  21.396  11.187  0.00  0.00     0.022 A 
HETATM   23  N   UNK     0      -8.083  20.147  10.762  0.00  0.00    -0.361 N 
HETATM   24  C   UNK     0      -8.414  20.077   9.456  0.00  0.00     0.021 A 
HETATM   25  C   UNK     0      -8.856  21.314   9.028  0.00  0.00    -0.031 A 
HETATM   26  C   UNK     0      -9.297  21.742   7.644  0.00  0.00     0.051 C 
HETATM   27  C   UNK     0      -8.799  22.175  10.118  0.00  0.00    -0.027 A 
HETATM   28  C   UNK     0      -8.415  18.849   8.562  0.00  0.00     0.115 C 
HETATM   29  H   UNK     0      -8.457  17.144  10.964  0.00  0.00     0.165 HD
HETATM   30  H   UNK     0     -11.358  17.980  12.515  0.00  0.00     0.165 HD
HETATM   31  H   UNK     0     -10.501  20.056  12.866  0.00  0.00     0.165 HD
HETATM   32  H   UNK     0      -7.645  19.313  11.369  0.00  0.00     0.165 HD
ENDROOT
BRANCH   6  33
HETATM   33  C   UNK     0     -12.322  15.649   8.641  0.00  0.00     0.051 C 
BRANCH  33  34
HETATM   34  C   UNK     0     -13.528  16.538   8.829  0.00  0.00     0.114 C 
BRANCH  34  35
HETATM   35  C   UNK     0     -14.355  16.436   7.593  0.00  0.00     0.139 C 
HETATM   36  O   UNK     0     -15.305  15.602   7.529  0.00  0.00    -0.650 OA
BRANCH  35  37
HETATM   37  O   UNK     0     -14.134  17.231   6.475  0.00  0.00    -0.776 OA
HETATM   38  H   UNK     0     -14.143  18.237   6.525  0.00  0.00     0.167 HD
ENDBRANCH  35  37
ENDBRANCH  34  35
ENDBRANCH  33  34
ENDBRANCH   6  33
BRANCH  27  39
HETATM   39  C   UNK     0      -9.133  23.622  10.026  0.00  0.00     0.051 C 
BRANCH  39  40
HETATM   40  C   UNK     0      -8.137  24.529   9.454  0.00  0.00     0.114 C 
BRANCH  40  41
HETATM   41  C   UNK     0      -8.031  25.912   9.860  0.00  0.00     0.139 C 
HETATM   42  O   UNK     0      -7.955  26.856   9.061  0.00  0.00    -0.650 OA
BRANCH  41  43
HETATM   43  O   UNK     0      -8.012  26.225  11.249  0.00  0.00    -0.776 OA
HETATM   44  H   UNK     0      -8.842  26.701  11.583  0.00  0.00     0.167 HD
ENDBRANCH  41  43
ENDBRANCH  40  41
ENDBRANCH  39  40
ENDBRANCH  27  39
BRANCH  11  45
HETATM   45  C   UNK     0      -9.935  15.579  16.350  0.00  0.00     0.051 C 
BRANCH  45  46
HETATM   46  C   UNK     0      -8.714  16.248  16.866  0.00  0.00     0.114 C 
BRANCH  46  47
HETATM   47  C   UNK     0      -7.594  15.270  16.758  0.00  0.00     0.139 C 
HETATM   48  O   UNK     0      -6.953  14.988  17.780  0.00  0.00    -0.650 OA
BRANCH  47  49
HETATM   49  O   UNK     0      -7.278  14.694  15.553  0.00  0.00    -0.776 OA
HETATM   50  H   UNK     0      -6.722  15.186  14.843  0.00  0.00     0.167 HD
ENDBRANCH  47  49
ENDBRANCH  46  47
ENDBRANCH  45  46
ENDBRANCH  11  45
BRANCH  18  51
HETATM   51  C   UNK     0      -6.953  21.828  15.446  0.00  0.00     0.051 C 
BRANCH  51  52
HETATM   52  C   UNK     0      -7.451  23.257  15.594  0.00  0.00     0.114 C 
BRANCH  52  53
HETATM   53  C   UNK     0      -8.175  23.458  16.864  0.00  0.00     0.139 C 
HETATM   54  O   UNK     0      -9.243  24.090  16.878  0.00  0.00    -0.650 OA
BRANCH  53  55
HETATM   55  O   UNK     0      -7.658  22.945  18.029  0.00  0.00    -0.776 OA
HETATM   56  H   UNK     0      -8.161  22.783  18.870  0.00  0.00     0.167 HD
ENDBRANCH  53  55
ENDBRANCH  52  53
ENDBRANCH  51  52
ENDBRANCH  18  51
TORSDOF 16
ENDMDL
MODEL 7
REMARK VINA RESULT:      -7.7     21.179     26.119
REMARK  16 active torsions:
REMARK  status: ('A' for Active; 'I' for Inactive)
REMARK    1  A    between atoms: C_6  and  C_7 
REMARK    2  A    between atoms: C_7  and  C_8 
REMARK    3  A    between atoms: C_8  and  C_9 
REMARK    4  A    between atoms: C_9  and  O_11 
REMARK    5  A    between atoms: C_16  and  C_17 
REMARK    6  A    between atoms: C_17  and  C_18 
REMARK    7  A    between atoms: C_18  and  C_19 
REMARK    8  A    between atoms: C_19  and  O_21 
REMARK    9  A    between atoms: C_28  and  C_29 
REMARK   10  A    between atoms: C_29  and  C_30 
REMARK   11  A    between atoms: C_30  and  C_31 
REMARK   12  A    between atoms: C_31  and  O_33 
REMARK   13  A    between atoms: C_42  and  C_43 
REMARK   14  A    between atoms: C_43  and  C_44 
REMARK   15  A    between atoms: C_44  and  C_45 
REMARK   16  A    between atoms: C_45  and  O_47 
ROOT
HETATM    1  C   UNK     0      23.206  11.102  -4.783  0.00  0.00     0.051 C 
HETATM    2  C   UNK     0      23.053  12.609  -4.755  0.00  0.00    -0.031 A 
HETATM    3  C   UNK     0      22.567  13.425  -3.745  0.00  0.00     0.021 A 
HETATM    4  N   UNK     0      22.584  14.710  -4.171  0.00  0.00    -0.361 N 
HETATM    5  C   UNK     0      23.077  14.732  -5.426  0.00  0.00     0.022 A 
HETATM    6  C   UNK     0      23.378  13.433  -5.824  0.00  0.00    -0.027 A 
HETATM    7  C   UNK     0      23.388  15.902  -6.307  0.00  0.00     0.115 C 
HETATM    8  C   UNK     0      24.068  17.089  -5.649  0.00  0.00     0.021 A 
HETATM    9  N   UNK     0      24.982  17.090  -4.667  0.00  0.00    -0.361 N 
HETATM   10  C   UNK     0      25.237  18.373  -4.332  0.00  0.00     0.022 A 
HETATM   11  C   UNK     0      24.473  19.222  -5.128  0.00  0.00    -0.027 A 
HETATM   12  C   UNK     0      23.734  18.419  -5.960  0.00  0.00    -0.031 A 
HETATM   13  C   UNK     0      22.758  18.909  -7.007  0.00  0.00     0.051 C 
HETATM   14  C   UNK     0      26.166  18.847  -3.219  0.00  0.00     0.115 C 
HETATM   15  C   UNK     0      25.760  18.371  -1.833  0.00  0.00     0.021 A 
HETATM   16  N   UNK     0      25.612  17.101  -1.411  0.00  0.00    -0.361 N 
HETATM   17  C   UNK     0      25.176  17.106  -0.150  0.00  0.00     0.022 A 
HETATM   18  C   UNK     0      25.043  18.443   0.274  0.00  0.00    -0.027 A 
HETATM   19  C   UNK     0      25.412  19.225  -0.789  0.00  0.00    -0.031 A 
HETATM   20  C   UNK     0      25.449  20.742  -0.748  0.00  0.00     0.051 C 
HETATM   21  C   UNK     0      24.790  15.954   0.749  0.00  0.00     0.115 C 
HETATM   22  C   UNK     0      24.152  14.747   0.101  0.00  0.00     0.022 A 
HETATM   23  N   UNK     0      23.242  14.716  -0.881  0.00  0.00    -0.361 N 
HETATM   24  C   UNK     0      23.062  13.432  -1.251  0.00  0.00     0.021 A 
HETATM   25  C   UNK     0      23.867  12.616  -0.481  0.00  0.00    -0.031 A 
HETATM   26  C   UNK     0      23.985  11.106  -0.496  0.00  0.00     0.051 C 
HETATM   27  C   UNK     0      24.574  13.434   0.392  0.00  0.00    -0.027 A 
HETATM   28  C   UNK     0      22.200  12.904  -2.385  0.00  0.00     0.115 C 
HETATM   29  H   UNK     0      22.210  15.589  -3.596  0.00  0.00     0.165 HD
HETATM   30  H   UNK     0      25.487  16.189  -4.241  0.00  0.00     0.165 HD
HETATM   31  H   UNK     0      25.867  16.181  -2.000  0.00  0.00     0.165 HD
HETATM   32  H   UNK     0      22.686  15.598  -1.294  0.00  0.00     0.165 HD
ENDROOT
BRANCH   6  33
HETATM   33  C   UNK     0      23.942  12.923  -7.126  0.00  0.00     0.051 C 
BRANCH  33  34
HETATM   34  C   UNK     0      22.847  12.749  -8.151  0.00  0.00     0.114 C 
BRANCH  34  35
HETATM   35  C   UNK     0      23.220  13.562  -9.344  0.00  0.00     0.139 C 
HETATM   36  O   UNK     0      22.320  14.063 -10.080  0.00  0.00    -0.650 OA
BRANCH  35  37
HETATM   37  O   UNK     0      24.540  13.809  -9.701  0.00  0.00    -0.776 OA
HETATM   38  H   UNK     0      24.782  14.316 -10.537  0.00  0.00     0.167 HD
ENDBRANCH  35  37
ENDBRANCH  34  35
ENDBRANCH  33  34
ENDBRANCH   6  33
BRANCH  27  39
HETATM   39  C   UNK     0      25.497  12.904   1.433  0.00  0.00     0.051 C 
BRANCH  39  40
HETATM   40  C   UNK     0      26.932  12.900   1.151  0.00  0.00     0.114 C 
BRANCH  40  41
HETATM   41  C   UNK     0      27.469  13.333  -0.120  0.00  0.00     0.139 C 
HETATM   42  O   UNK     0      27.695  12.565  -1.064  0.00  0.00    -0.650 OA
BRANCH  41  43
HETATM   43  O   UNK     0      27.760  14.714  -0.312  0.00  0.00    -0.776 OA
HETATM   44  H   UNK     0      28.744  14.922  -0.432  0.00  0.00     0.167 HD
ENDBRANCH  41  43
ENDBRANCH  40  41
ENDBRANCH  39  40
ENDBRANCH  27  39
BRANCH  11  45
HETATM   45  C   UNK     0      24.425  20.726  -5.125  0.00  0.00     0.051 C 
BRANCH  45  46
HETATM   46  C   UNK     0      23.847  21.312  -3.889  0.00  0.00     0.114 C 
BRANCH  46  47
HETATM   47  C   UNK     0      22.577  21.992  -4.274  0.00  0.00     0.139 C 
HETATM   48  O   UNK     0      22.618  22.873  -5.144  0.00  0.00    -0.650 OA
BRANCH  47  49
HETATM   49  O   UNK     0      21.389  21.651  -3.678  0.00  0.00    -0.776 OA
HETATM   50  H   UNK     0      21.312  20.859  -3.029  0.00  0.00     0.167 HD
ENDBRANCH  47  49
ENDBRANCH  46  47
ENDBRANCH  45  46
ENDBRANCH  11  45
BRANCH  18  51
HETATM   51  C   UNK     0      24.606  18.947   1.625  0.00  0.00     0.051 C 
BRANCH  51  52
HETATM   52  C   UNK     0      25.849  18.942   2.503  0.00  0.00     0.114 C 
BRANCH  52  53
HETATM   53  C   UNK     0      26.286  20.310   2.845  0.00  0.00     0.139 C 
HETATM   54  O   UNK     0      27.298  20.791   2.311  0.00  0.00    -0.650 OA
BRANCH  53  55
HETATM   55  O   UNK     0      25.569  21.043   3.759  0.00  0.00    -0.776 OA
HETATM   56  H   UNK     0      25.218  20.713   4.627  0.00  0.00     0.167 HD
ENDBRANCH  53  55
ENDBRANCH  52  53
ENDBRANCH  51  52
ENDBRANCH  18  51
TORSDOF 16
ENDMDL
MODEL 8
REMARK VINA RESULT:      -7.6      2.619      7.331
REMARK  16 active torsions:
REMARK  status: ('A' for Active; 'I' for Inactive)
REMARK    1  A    between atoms: C_6  and  C_7 
REMARK    2  A    between atoms: C_7  and  C_8 
REMARK    3  A    between atoms: C_8  and  C_9 
REMARK    4  A    between atoms: C_9  and  O_11 
REMARK    5  A    between atoms: C_16  and  C_17 
REMARK    6  A    between atoms: C_17  and  C_18 
REMARK    7  A    between atoms: C_18  and  C_19 
REMARK    8  A    between atoms: C_19  and  O_21 
REMARK    9  A    between atoms: C_28  and  C_29 
REMARK   10  A    between atoms: C_29  and  C_30 
REMARK   11  A    between atoms: C_30  and  C_31 
REMARK   12  A    between atoms: C_31  and  O_33 
REMARK   13  A    between atoms: C_42  and  C_43 
REMARK   14  A    between atoms: C_43  and  C_44 
REMARK   15  A    between atoms: C_44  and  C_45 
REMARK   16  A    between atoms: C_45  and  O_47 
ROOT
HETATM    1  C   UNK     0      13.000  -5.722  10.540  0.00  0.00     0.051 C 
HETATM    2  C   UNK     0      14.201  -4.855  10.221  0.00  0.00    -0.031 A 
HETATM    3  C   UNK     0      15.497  -5.229   9.903  0.00  0.00     0.021 A 
HETATM    4  N   UNK     0      16.247  -4.116   9.725  0.00  0.00    -0.361 N 
HETATM    5  C   UNK     0      15.455  -3.040   9.914  0.00  0.00     0.022 A 
HETATM    6  C   UNK     0      14.169  -3.466  10.229  0.00  0.00    -0.027 A 
HETATM    7  C   UNK     0      15.768  -1.586   9.745  0.00  0.00     0.115 C 
HETATM    8  C   UNK     0      16.585  -1.203   8.524  0.00  0.00     0.021 A 
HETATM    9  N   UNK     0      16.553  -1.738   7.294  0.00  0.00    -0.361 N 
HETATM   10  C   UNK     0      17.515  -1.147   6.554  0.00  0.00     0.022 A 
HETATM   11  C   UNK     0      18.179  -0.199   7.325  0.00  0.00    -0.027 A 
HETATM   12  C   UNK     0      17.599  -0.228   8.568  0.00  0.00    -0.031 A 
HETATM   13  C   UNK     0      17.996   0.642   9.739  0.00  0.00     0.051 C 
HETATM   14  C   UNK     0      17.880  -1.489   5.112  0.00  0.00     0.115 C 
HETATM   15  C   UNK     0      18.350  -2.922   4.919  0.00  0.00     0.021 A 
HETATM   16  N   UNK     0      17.677  -4.053   5.203  0.00  0.00    -0.361 N 
HETATM   17  C   UNK     0      18.462  -5.104   4.956  0.00  0.00     0.022 A 
HETATM   18  C   UNK     0      19.702  -4.636   4.479  0.00  0.00    -0.027 A 
HETATM   19  C   UNK     0      19.619  -3.268   4.459  0.00  0.00    -0.031 A 
HETATM   20  C   UNK     0      20.736  -2.362   3.974  0.00  0.00     0.051 C 
HETATM   21  C   UNK     0      18.209  -6.578   5.175  0.00  0.00     0.115 C 
HETATM   22  C   UNK     0      17.360  -6.972   6.361  0.00  0.00     0.022 A 
HETATM   23  N   UNK     0      17.369  -6.453   7.596  0.00  0.00    -0.361 N 
HETATM   24  C   UNK     0      16.352  -7.001   8.292  0.00  0.00     0.021 A 
HETATM   25  C   UNK     0      15.678  -7.901   7.489  0.00  0.00    -0.031 A 
HETATM   26  C   UNK     0      14.499  -8.788   7.831  0.00  0.00     0.051 C 
HETATM   27  C   UNK     0      16.305  -7.900   6.248  0.00  0.00    -0.027 A 
HETATM   28  C   UNK     0      15.903  -6.662   9.703  0.00  0.00     0.115 C 
HETATM   29  H   UNK     0      17.340  -4.098   9.506  0.00  0.00     0.165 HD
HETATM   30  H   UNK     0      15.818  -2.498   6.930  0.00  0.00     0.165 HD
HETATM   31  H   UNK     0      16.609  -4.113   5.539  0.00  0.00     0.165 HD
HETATM   32  H   UNK     0      18.120  -5.727   8.002  0.00  0.00     0.165 HD
ENDROOT
BRANCH   6  33
HETATM   33  C   UNK     0      12.929  -2.665  10.534  0.00  0.00     0.051 C 
BRANCH  33  34
HETATM   34  C   UNK     0      13.249  -1.191  10.606  0.00  0.00     0.114 C 
BRANCH  34  35
HETATM   35  C   UNK     0      13.215  -0.796  12.044  0.00  0.00     0.139 C 
HETATM   36  O   UNK     0      14.293  -0.578  12.670  0.00  0.00    -0.650 OA
BRANCH  35  37
HETATM   37  O   UNK     0      12.029  -0.648  12.752  0.00  0.00    -0.776 OA
HETATM   38  H   UNK     0      11.985  -0.141  13.621  0.00  0.00     0.167 HD
ENDBRANCH  35  37
ENDBRANCH  34  35
ENDBRANCH  33  34
ENDBRANCH   6  33
BRANCH  27  39
HETATM   39  C   UNK     0      15.903  -8.803   5.136  0.00  0.00     0.051 C 
BRANCH  39  40
HETATM   40  C   UNK     0      14.953  -8.300   4.143  0.00  0.00     0.114 C 
BRANCH  40  41
HETATM   41  C   UNK     0      15.292  -8.183   2.743  0.00  0.00     0.139 C 
HETATM   42  O   UNK     0      14.620  -8.687   1.832  0.00  0.00    -0.650 OA
BRANCH  41  43
HETATM   43  O   UNK     0      16.456  -7.452   2.372  0.00  0.00    -0.776 OA
HETATM   44  H   UNK     0      17.185  -8.012   1.948  0.00  0.00     0.167 HD
ENDBRANCH  41  43
ENDBRANCH  40  41
ENDBRANCH  39  40
ENDBRANCH  27  39
BRANCH  11  45
HETATM   45  C   UNK     0      19.313   0.709   6.931  0.00  0.00     0.051 C 
BRANCH  45  46
HETATM   46  C   UNK     0      18.882   1.948   6.233  0.00  0.00     0.114 C 
BRANCH  46  47
HETATM   47  C   UNK     0      19.430   1.886   4.847  0.00  0.00     0.139 C 
HETATM   48  O   UNK     0      20.462   1.230   4.647  0.00  0.00    -0.650 OA
BRANCH  47  49
HETATM   49  O   UNK     0      18.806   2.541   3.816  0.00  0.00    -0.776 OA
HETATM   50  H   UNK     0      19.031   3.513   3.572  0.00  0.00     0.167 HD
ENDBRANCH  47  49
ENDBRANCH  46  47
ENDBRANCH  45  46
ENDBRANCH  11  45
BRANCH  18  51
HETATM   51  C   UNK     0      20.894  -5.449   4.045  0.00  0.00     0.051 C 
BRANCH  51  52
HETATM   52  C   UNK     0      22.018  -5.108   5.013  0.00  0.00     0.114 C 
BRANCH  52  53
HETATM   53  C   UNK     0      21.593  -5.247   6.419  0.00  0.00     0.139 C 
HETATM   54  O   UNK     0      21.248  -6.357   6.857  0.00  0.00    -0.650 OA
BRANCH  53  55
HETATM   55  O   UNK     0      21.579  -4.144   7.238  0.00  0.00    -0.776 OA
HETATM   56  H   UNK     0      22.007  -3.269   7.046  0.00  0.00     0.167 HD
ENDBRANCH  53  55
ENDBRANCH  52  53
ENDBRANCH  51  52
ENDBRANCH  18  51
TORSDOF 16
ENDMDL
MODEL 9
REMARK VINA RESULT:      -7.6      2.588      7.895
REMARK  16 active torsions:
REMARK  status: ('A' for Active; 'I' for Inactive)
REMARK    1  A    between atoms: C_6  and  C_7 
REMARK    2  A    between atoms: C_7  and  C_8 
REMARK    3  A    between atoms: C_8  and  C_9 
REMARK    4  A    between atoms: C_9  and  O_11 
REMARK    5  A    between atoms: C_16  and  C_17 
REMARK    6  A    between atoms: C_17  and  C_18 
REMARK    7  A    between atoms: C_18  and  C_19 
REMARK    8  A    between atoms: C_19  and  O_21 
REMARK    9  A    between atoms: C_28  and  C_29 
REMARK   10  A    between atoms: C_29  and  C_30 
REMARK   11  A    between atoms: C_30  and  C_31 
REMARK   12  A    between atoms: C_31  and  O_33 
REMARK   13  A    between atoms: C_42  and  C_43 
REMARK   14  A    between atoms: C_43  and  C_44 
REMARK   15  A    between atoms: C_44  and  C_45 
REMARK   16  A    between atoms: C_45  and  O_47 
ROOT
HETATM    1  C   UNK     0      15.606  -7.538   8.530  0.00  0.00     0.051 C 
HETATM    2  C   UNK     0      16.412  -6.305   8.888  0.00  0.00    -0.031 A 
HETATM    3  C   UNK     0      17.715  -5.977   8.550  0.00  0.00     0.021 A 
HETATM    4  N   UNK     0      18.033  -4.789   9.117  0.00  0.00    -0.361 N 
HETATM    5  C   UNK     0      16.957  -4.349   9.803  0.00  0.00     0.022 A 
HETATM    6  C   UNK     0      15.926  -5.275   9.683  0.00  0.00    -0.027 A 
HETATM    7  C   UNK     0      16.754  -3.055  10.526  0.00  0.00     0.115 C 
HETATM    8  C   UNK     0      17.259  -1.801   9.834  0.00  0.00     0.021 A 
HETATM    9  N   UNK     0      17.267  -1.515   8.523  0.00  0.00    -0.361 N 
HETATM   10  C   UNK     0      17.893  -0.331   8.356  0.00  0.00     0.022 A 
HETATM   11  C   UNK     0      18.291   0.165   9.594  0.00  0.00    -0.027 A 
HETATM   12  C   UNK     0      17.894  -0.756  10.530  0.00  0.00    -0.031 A 
HETATM   13  C   UNK     0      18.111  -0.636  12.022  0.00  0.00     0.051 C 
HETATM   14  C   UNK     0      18.188   0.353   7.024  0.00  0.00     0.115 C 
HETATM   15  C   UNK     0      19.078  -0.460   6.098  0.00  0.00     0.021 A 
HETATM   16  N   UNK     0      18.850  -1.696   5.615  0.00  0.00    -0.361 N 
HETATM   17  C   UNK     0      19.904  -2.087   4.895  0.00  0.00     0.022 A 
HETATM   18  C   UNK     0      20.861  -1.052   4.902  0.00  0.00    -0.027 A 
HETATM   19  C   UNK     0      20.331  -0.039   5.657  0.00  0.00    -0.031 A 
HETATM   20  C   UNK     0      21.026   1.290   5.894  0.00  0.00     0.051 C 
HETATM   21  C   UNK     0      20.176  -3.405   4.207  0.00  0.00     0.115 C 
HETATM   22  C   UNK     0      19.641  -4.657   4.862  0.00  0.00     0.022 A 
HETATM   23  N   UNK     0      19.616  -4.966   6.165  0.00  0.00    -0.361 N 
HETATM   24  C   UNK     0      18.920  -6.111   6.315  0.00  0.00     0.021 A 
HETATM   25  C   UNK     0      18.495  -6.555   5.077  0.00  0.00    -0.031 A 
HETATM   26  C   UNK     0      17.719  -7.808   4.729  0.00  0.00     0.051 C 
HETATM   27  C   UNK     0      18.945  -5.641   4.131  0.00  0.00    -0.027 A 
HETATM   28  C   UNK     0      18.544  -6.807   7.611  0.00  0.00     0.115 C 
HETATM   29  H   UNK     0      19.027  -4.289   9.062  0.00  0.00     0.165 HD
HETATM   30  H   UNK     0      16.788  -2.123   7.717  0.00  0.00     0.165 HD
HETATM   31  H   UNK     0      17.906  -2.286   5.745  0.00  0.00     0.165 HD
HETATM   32  H   UNK     0      20.127  -4.402   6.987  0.00  0.00     0.165 HD
ENDROOT
BRANCH   6  33
HETATM   33  C   UNK     0      14.534  -5.256  10.261  0.00  0.00     0.051 C 
BRANCH  33  34
HETATM   34  C   UNK     0      13.893  -3.902  10.068  0.00  0.00     0.114 C 
BRANCH  34  35
HETATM   35  C   UNK     0      12.594  -3.915  10.801  0.00  0.00     0.139 C 
HETATM   36  O   UNK     0      11.932  -4.988  10.905  0.00  0.00    -0.650 OA
BRANCH  35  37
HETATM   37  O   UNK     0      12.057  -2.779  11.394  0.00  0.00    -0.776 OA
HETATM   38  H   UNK     0      11.925  -1.921  10.883  0.00  0.00     0.167 HD
ENDBRANCH  35  37
ENDBRANCH  34  35
ENDBRANCH  33  34
ENDBRANCH   6  33
BRANCH  27  39
HETATM   39  C   UNK     0      18.740  -5.822   2.668  0.00  0.00     0.051 C 
BRANCH  39  40
HETATM   40  C   UNK     0      17.615  -5.134   2.035  0.00  0.00     0.114 C 
BRANCH  40  41
HETATM   41  C   UNK     0      17.405  -3.710   2.173  0.00  0.00     0.139 C 
HETATM   42  O   UNK     0      17.761  -2.882   1.324  0.00  0.00    -0.650 OA
BRANCH  41  43
HETATM   43  O   UNK     0      16.758  -3.217   3.341  0.00  0.00    -0.776 OA
HETATM   44  H   UNK     0      17.362  -3.129   4.150  0.00  0.00     0.167 HD
ENDBRANCH  41  43
ENDBRANCH  40  41
ENDBRANCH  39  40
ENDBRANCH  27  39
BRANCH  11  45
HETATM   45  C   UNK     0      19.011   1.448   9.908  0.00  0.00     0.051 C 
BRANCH  45  46
HETATM   46  C   UNK     0      20.491   1.346   9.835  0.00  0.00     0.114 C 
BRANCH  46  47
HETATM   47  C   UNK     0      21.033   1.839  11.133  0.00  0.00     0.139 C 
HETATM   48  O   UNK     0      21.371   1.007  11.988  0.00  0.00    -0.650 OA
BRANCH  47  49
HETATM   49  O   UNK     0      21.154   3.183  11.380  0.00  0.00    -0.776 OA
HETATM   50  H   UNK     0      21.294   3.865  10.625  0.00  0.00     0.167 HD
ENDBRANCH  47  49
ENDBRANCH  46  47
ENDBRANCH  45  46
ENDBRANCH  11  45
BRANCH  18  51
HETATM   51  C   UNK     0      22.198  -1.023   4.208  0.00  0.00     0.051 C 
BRANCH  51  52
HETATM   52  C   UNK     0      23.197  -1.628   5.183  0.00  0.00     0.114 C 
BRANCH  52  53
HETATM   53  C   UNK     0      24.524  -1.817   4.564  0.00  0.00     0.139 C 
HETATM   54  O   UNK     0      25.546  -1.440   5.158  0.00  0.00    -0.650 OA
BRANCH  53  55
HETATM   55  O   UNK     0      24.619  -2.408   3.327  0.00  0.00    -0.776 OA
HETATM   56  H   UNK     0      25.122  -2.054   2.548  0.00  0.00     0.167 HD
ENDBRANCH  53  55
ENDBRANCH  52  53
ENDBRANCH  51  52
ENDBRANCH  18  51
TORSDOF 16
ENDMDL
MODEL 10
REMARK VINA RESULT:      -7.5      2.897      7.875
REMARK  16 active torsions:
REMARK  status: ('A' for Active; 'I' for Inactive)
REMARK    1  A    between atoms: C_6  and  C_7 
REMARK    2  A    between atoms: C_7  and  C_8 
REMARK    3  A    between atoms: C_8  and  C_9 
REMARK    4  A    between atoms: C_9  and  O_11 
REMARK    5  A    between atoms: C_16  and  C_17 
REMARK    6  A    between atoms: C_17  and  C_18 
REMARK    7  A    between atoms: C_18  and  C_19 
REMARK    8  A    between atoms: C_19  and  O_21 
REMARK    9  A    between atoms: C_28  and  C_29 
REMARK   10  A    between atoms: C_29  and  C_30 
REMARK   11  A    between atoms: C_30  and  C_31 
REMARK   12  A    between atoms: C_31  and  O_33 
REMARK   13  A    between atoms: C_42  and  C_43 
REMARK   14  A    between atoms: C_43  and  C_44 
REMARK   15  A    between atoms: C_44  and  C_45 
REMARK   16  A    between atoms: C_45  and  O_47 
ROOT
HETATM    1  C   UNK     0      15.603  -6.248   9.074  0.00  0.00     0.051 C 
HETATM    2  C   UNK     0      16.468  -5.097   9.548  0.00  0.00    -0.031 A 
HETATM    3  C   UNK     0      17.848  -4.967   9.527  0.00  0.00     0.021 A 
HETATM    4  N   UNK     0      18.187  -3.781  10.084  0.00  0.00    -0.361 N 
HETATM    5  C   UNK     0      17.054  -3.148  10.451  0.00  0.00     0.022 A 
HETATM    6  C   UNK     0      15.960  -3.945  10.133  0.00  0.00    -0.027 A 
HETATM    7  C   UNK     0      16.872  -1.776  11.023  0.00  0.00     0.115 C 
HETATM    8  C   UNK     0      17.703  -0.665  10.405  0.00  0.00     0.021 A 
HETATM    9  N   UNK     0      18.066  -0.506   9.123  0.00  0.00    -0.361 N 
HETATM   10  C   UNK     0      18.878   0.570   9.048  0.00  0.00     0.022 A 
HETATM   11  C   UNK     0      19.034   1.125  10.315  0.00  0.00    -0.027 A 
HETATM   12  C   UNK     0      18.296   0.352  11.175  0.00  0.00    -0.031 A 
HETATM   13  C   UNK     0      18.164   0.583  12.663  0.00  0.00     0.051 C 
HETATM   14  C   UNK     0      19.578   1.085   7.794  0.00  0.00     0.115 C 
HETATM   15  C   UNK     0      20.538   0.084   7.170  0.00  0.00     0.021 A 
HETATM   16  N   UNK     0      20.257  -1.153   6.720  0.00  0.00    -0.361 N 
HETATM   17  C   UNK     0      21.385  -1.738   6.311  0.00  0.00     0.022 A 
HETATM   18  C   UNK     0      22.451  -0.835   6.495  0.00  0.00    -0.027 A 
HETATM   19  C   UNK     0      21.907   0.303   7.032  0.00  0.00    -0.031 A 
HETATM   20  C   UNK     0      22.709   1.550   7.355  0.00  0.00     0.051 C 
HETATM   21  C   UNK     0      21.621  -3.138   5.792  0.00  0.00     0.115 C 
HETATM   22  C   UNK     0      20.771  -4.247   6.366  0.00  0.00     0.022 A 
HETATM   23  N   UNK     0      20.390  -4.428   7.637  0.00  0.00    -0.361 N 
HETATM   24  C   UNK     0      19.521  -5.458   7.676  0.00  0.00     0.021 A 
HETATM   25  C   UNK     0      19.345  -5.959   6.401  0.00  0.00    -0.031 A 
HETATM   26  C   UNK     0      18.503  -7.133   5.945  0.00  0.00     0.051 C 
HETATM   27  C   UNK     0      20.135  -5.201   5.545  0.00  0.00    -0.027 A 
HETATM   28  C   UNK     0      18.749  -5.978   8.877  0.00  0.00     0.115 C 
HETATM   29  H   UNK     0      19.228  -3.416  10.250  0.00  0.00     0.165 HD
HETATM   30  H   UNK     0      17.711  -1.122   8.261  0.00  0.00     0.165 HD
HETATM   31  H   UNK     0      19.234  -1.607   6.644  0.00  0.00     0.165 HD
HETATM   32  H   UNK     0      20.765  -3.858   8.526  0.00  0.00     0.165 HD
ENDROOT
BRANCH   6  33
HETATM   33  C   UNK     0      14.487  -3.699  10.342  0.00  0.00     0.051 C 
BRANCH  33  34
HETATM   34  C   UNK     0      14.111  -2.302   9.908  0.00  0.00     0.114 C 
BRANCH  34  35
HETATM   35  C   UNK     0      13.270  -1.710  10.988  0.00  0.00     0.139 C 
HETATM   36  O   UNK     0      13.675  -0.696  11.627  0.00  0.00    -0.650 OA
BRANCH  35  37
HETATM   37  O   UNK     0      12.028  -2.226  11.337  0.00  0.00    -0.776 OA
HETATM   38  H   UNK     0      11.685  -2.199  12.284  0.00  0.00     0.167 HD
ENDBRANCH  35  37
ENDBRANCH  34  35
ENDBRANCH  33  34
ENDBRANCH   6  33
BRANCH  27  39
HETATM   39  C   UNK     0      20.263  -5.490   4.090  0.00  0.00     0.051 C 
BRANCH  39  40
HETATM   40  C   UNK     0      19.202  -5.030   3.195  0.00  0.00     0.114 C 
BRANCH  40  41
HETATM   41  C   UNK     0      18.530  -3.764   3.383  0.00  0.00     0.139 C 
HETATM   42  O   UNK     0      17.333  -3.663   3.684  0.00  0.00    -0.650 OA
BRANCH  41  43
HETATM   43  O   UNK     0      19.269  -2.558   3.217  0.00  0.00    -0.776 OA
HETATM   44  H   UNK     0      19.369  -2.257   2.255  0.00  0.00     0.167 HD
ENDBRANCH  41  43
ENDBRANCH  40  41
ENDBRANCH  39  40
ENDBRANCH  27  39
BRANCH  11  45
HETATM   45  C   UNK     0      19.835   2.332  10.722  0.00  0.00     0.051 C 
BRANCH  45  46
HETATM   46  C   UNK     0      21.159   2.010  11.312  0.00  0.00     0.114 C 
BRANCH  46  47
HETATM   47  C   UNK     0      21.180   2.582  12.689  0.00  0.00     0.139 C 
HETATM   48  O   UNK     0      20.811   3.754  12.849  0.00  0.00    -0.650 OA
BRANCH  47  49
HETATM   49  O   UNK     0      21.599   1.829  13.757  0.00  0.00    -0.776 OA
HETATM   50  H   UNK     0      21.514   2.161  14.725  0.00  0.00     0.167 HD
ENDBRANCH  47  49
ENDBRANCH  46  47
ENDBRANCH  45  46
ENDBRANCH  11  45
BRANCH  18  51
HETATM   51  C   UNK     0      23.905  -1.038   6.157  0.00  0.00     0.051 C 
BRANCH  51  52
HETATM   52  C   UNK     0      24.085  -0.538   4.731  0.00  0.00     0.114 C 
BRANCH  52  53
HETATM   53  C   UNK     0      24.823  -1.508   3.898  0.00  0.00     0.139 C 
HETATM   54  O   UNK     0      26.061  -1.447   3.824  0.00  0.00    -0.650 OA
BRANCH  53  55
HETATM   55  O   UNK     0      24.134  -2.473   3.205  0.00  0.00    -0.776 OA
HETATM   56  H   UNK     0      23.317  -2.944   3.517  0.00  0.00     0.167 HD
ENDBRANCH  53  55
ENDBRANCH  52  53
ENDBRANCH  51  52
ENDBRANCH  18  51
TORSDOF 16
ENDMDL
MODEL 11
REMARK VINA RESULT:      -7.5      3.281      8.000
REMARK  16 active torsions:
REMARK  status: ('A' for Active; 'I' for Inactive)
REMARK    1  A    between atoms: C_6  and  C_7 
REMARK    2  A    between atoms: C_7  and  C_8 
REMARK    3  A    between atoms: C_8  and  C_9 
REMARK    4  A    between atoms: C_9  and  O_11 
REMARK    5  A    between atoms: C_16  and  C_17 
REMARK    6  A    between atoms: C_17  and  C_18 
REMARK    7  A    between atoms: C_18  and  C_19 
REMARK    8  A    between atoms: C_19  and  O_21 
REMARK    9  A    between atoms: C_28  and  C_29 
REMARK   10  A    between atoms: C_29  and  C_30 
REMARK   11  A    between atoms: C_30  and  C_31 
REMARK   12  A    between atoms: C_31  and  O_33 
REMARK   13  A    between atoms: C_42  and  C_43 
REMARK   14  A    between atoms: C_43  and  C_44 
REMARK   15  A    between atoms: C_44  and  C_45 
REMARK   16  A    between atoms: C_45  and  O_47 
ROOT
HETATM    1  C   UNK     0      16.629  -0.188  12.082  0.00  0.00     0.051 C 
HETATM    2  C   UNK     0      16.946  -0.409  10.617  0.00  0.00    -0.031 A 
HETATM    3  C   UNK     0      17.806   0.293   9.786  0.00  0.00     0.021 A 
HETATM    4  N   UNK     0      17.749  -0.238   8.542  0.00  0.00    -0.361 N 
HETATM    5  C   UNK     0      16.880  -1.269   8.563  0.00  0.00     0.022 A 
HETATM    6  C   UNK     0      16.357  -1.402   9.845  0.00  0.00    -0.027 A 
HETATM    7  C   UNK     0      16.529  -2.241   7.480  0.00  0.00     0.115 C 
HETATM    8  C   UNK     0      17.679  -2.777   6.647  0.00  0.00     0.021 A 
HETATM    9  N   UNK     0      18.930  -3.066   7.036  0.00  0.00    -0.361 N 
HETATM   10  C   UNK     0      19.637  -3.426   5.944  0.00  0.00     0.022 A 
HETATM   11  C   UNK     0      18.816  -3.377   4.821  0.00  0.00    -0.027 A 
HETATM   12  C   UNK     0      17.581  -2.969   5.257  0.00  0.00    -0.031 A 
HETATM   13  C   UNK     0      16.364  -2.778   4.380  0.00  0.00     0.051 C 
HETATM   14  C   UNK     0      21.122  -3.778   5.907  0.00  0.00     0.115 C 
HETATM   15  C   UNK     0      22.034  -2.647   6.354  0.00  0.00     0.021 A 
HETATM   16  N   UNK     0      22.033  -2.012   7.540  0.00  0.00    -0.361 N 
HETATM   17  C   UNK     0      22.940  -1.032   7.514  0.00  0.00     0.022 A 
HETATM   18  C   UNK     0      23.568  -1.036   6.252  0.00  0.00    -0.027 A 
HETATM   19  C   UNK     0      22.992  -2.053   5.536  0.00  0.00    -0.031 A 
HETATM   20  C   UNK     0      23.405  -2.429   4.125  0.00  0.00     0.051 C 
HETATM   21  C   UNK     0      23.277   0.008   8.558  0.00  0.00     0.115 C 
HETATM   22  C   UNK     0      22.150   0.519   9.424  0.00  0.00     0.022 A 
HETATM   23  N   UNK     0      20.893   0.811   9.063  0.00  0.00    -0.361 N 
HETATM   24  C   UNK     0      20.188   1.092  10.178  0.00  0.00     0.021 A 
HETATM   25  C   UNK     0      21.013   0.988  11.281  0.00  0.00    -0.031 A 
HETATM   26  C   UNK     0      20.692   1.245  12.739  0.00  0.00     0.051 C 
HETATM   27  C   UNK     0      22.274   0.622  10.824  0.00  0.00    -0.027 A 
HETATM   28  C   UNK     0      18.703   1.390  10.286  0.00  0.00     0.115 C 
HETATM   29  H   UNK     0      18.295   0.144   7.648  0.00  0.00     0.165 HD
HETATM   30  H   UNK     0      19.305  -3.065   8.089  0.00  0.00     0.165 HD
HETATM   31  H   UNK     0      21.414  -2.290   8.433  0.00  0.00     0.165 HD
HETATM   32  H   UNK     0      20.503   0.864   8.014  0.00  0.00     0.165 HD
ENDROOT
BRANCH   6  33
HETATM   33  C   UNK     0      15.350  -2.387  10.385  0.00  0.00     0.051 C 
BRANCH  33  34
HETATM   34  C   UNK     0      13.941  -1.903  10.135  0.00  0.00     0.114 C 
BRANCH  34  35
HETATM   35  C   UNK     0      13.014  -2.886  10.766  0.00  0.00     0.139 C 
HETATM   36  O   UNK     0      13.305  -4.117  10.782  0.00  0.00    -0.650 OA
BRANCH  35  37
HETATM   37  O   UNK     0      11.813  -2.511  11.355  0.00  0.00    -0.776 OA
HETATM   38  H   UNK     0      11.694  -2.482  12.355  0.00  0.00     0.167 HD
ENDBRANCH  35  37
ENDBRANCH  34  35
ENDBRANCH  33  34
ENDBRANCH   6  33
BRANCH  27  39
HETATM   39  C   UNK     0      23.452   0.483  11.722  0.00  0.00     0.051 C 
BRANCH  39  40
HETATM   40  C   UNK     0      23.994  -0.856  11.953  0.00  0.00     0.114 C 
BRANCH  40  41
HETATM   41  C   UNK     0      23.192  -2.049  11.799  0.00  0.00     0.139 C 
HETATM   42  O   UNK     0      23.283  -2.814  10.830  0.00  0.00    -0.650 OA
BRANCH  41  43
HETATM   43  O   UNK     0      22.241  -2.377  12.807  0.00  0.00    -0.776 OA
HETATM   44  H   UNK     0      22.396  -3.273  13.254  0.00  0.00     0.167 HD
ENDBRANCH  41  43
ENDBRANCH  40  41
ENDBRANCH  39  40
ENDBRANCH  27  39
BRANCH  11  45
HETATM   45  C   UNK     0      19.156  -3.699   3.391  0.00  0.00     0.051 C 
BRANCH  45  46
HETATM   46  C   UNK     0      19.172  -5.152   3.084  0.00  0.00     0.114 C 
BRANCH  46  47
HETATM   47  C   UNK     0      18.002  -5.429   2.202  0.00  0.00     0.139 C 
HETATM   48  O   UNK     0      17.869  -4.761   1.167  0.00  0.00    -0.650 OA
BRANCH  47  49
HETATM   49  O   UNK     0      17.091  -6.402   2.528  0.00  0.00    -0.776 OA
HETATM   50  H   UNK     0      16.887  -6.652   3.503  0.00  0.00     0.167 HD
ENDBRANCH  47  49
ENDBRANCH  46  47
ENDBRANCH  45  46
ENDBRANCH  11  45
BRANCH  18  51
HETATM   51  C   UNK     0      24.671  -0.133   5.765  0.00  0.00     0.051 C 
BRANCH  51  52
HETATM   52  C   UNK     0      25.977  -0.788   6.191  0.00  0.00     0.114 C 
BRANCH  52  53
HETATM   53  C   UNK     0      26.904  -0.956   5.055  0.00  0.00     0.139 C 
HETATM   54  O   UNK     0      26.484  -0.860   3.890  0.00  0.00    -0.650 OA
BRANCH  53  55
HETATM   55  O   UNK     0      28.230  -1.222   5.293  0.00  0.00    -0.776 OA
HETATM   56  H   UNK     0      28.758  -1.962   4.894  0.00  0.00     0.167 HD
ENDBRANCH  53  55
ENDBRANCH  52  53
ENDBRANCH  51  52
ENDBRANCH  18  51
TORSDOF 16
ENDMDL
MODEL 12
REMARK VINA RESULT:      -7.5      4.000      6.246
REMARK  16 active torsions:
REMARK  status: ('A' for Active; 'I' for Inactive)
REMARK    1  A    between atoms: C_6  and  C_7 
REMARK    2  A    between atoms: C_7  and  C_8 
REMARK    3  A    between atoms: C_8  and  C_9 
REMARK    4  A    between atoms: C_9  and  O_11 
REMARK    5  A    between atoms: C_16  and  C_17 
REMARK    6  A    between atoms: C_17  and  C_18 
REMARK    7  A    between atoms: C_18  and  C_19 
REMARK    8  A    between atoms: C_19  and  O_21 
REMARK    9  A    between atoms: C_28  and  C_29 
REMARK   10  A    between atoms: C_29  and  C_30 
REMARK   11  A    between atoms: C_30  and  C_31 
REMARK   12  A    between atoms: C_31  and  O_33 
REMARK   13  A    between atoms: C_42  and  C_43 
REMARK   14  A    between atoms: C_43  and  C_44 
REMARK   15  A    between atoms: C_44  and  C_45 
REMARK   16  A    between atoms: C_45  and  O_47 
ROOT
HETATM    1  C   UNK     0      16.688   2.438   3.246  0.00  0.00     0.051 C 
HETATM    2  C   UNK     0      16.544   1.357   4.297  0.00  0.00    -0.031 A 
HETATM    3  C   UNK     0      15.932   0.116   4.205  0.00  0.00     0.021 A 
HETATM    4  N   UNK     0      16.015  -0.507   5.405  0.00  0.00    -0.361 N 
HETATM    5  C   UNK     0      16.675   0.305   6.257  0.00  0.00     0.022 A 
HETATM    6  C   UNK     0      17.017   1.481   5.597  0.00  0.00    -0.027 A 
HETATM    7  C   UNK     0      17.110   0.054   7.667  0.00  0.00     0.115 C 
HETATM    8  C   UNK     0      17.703  -1.312   7.964  0.00  0.00     0.021 A 
HETATM    9  N   UNK     0      18.476  -2.077   7.177  0.00  0.00    -0.361 N 
HETATM   10  C   UNK     0      18.692  -3.248   7.814  0.00  0.00     0.022 A 
HETATM   11  C   UNK     0      18.049  -3.232   9.048  0.00  0.00    -0.027 A 
HETATM   12  C   UNK     0      17.424  -2.015   9.149  0.00  0.00    -0.031 A 
HETATM   13  C   UNK     0      16.603  -1.550  10.330  0.00  0.00     0.051 C 
HETATM   14  C   UNK     0      19.465  -4.443   7.264  0.00  0.00     0.115 C 
HETATM   15  C   UNK     0      18.871  -5.029   5.993  0.00  0.00     0.021 A 
HETATM   16  N   UNK     0      18.659  -4.402   4.821  0.00  0.00    -0.361 N 
HETATM   17  C   UNK     0      18.056  -5.243   3.977  0.00  0.00     0.022 A 
HETATM   18  C   UNK     0      17.875  -6.480   4.628  0.00  0.00    -0.027 A 
HETATM   19  C   UNK     0      18.391  -6.333   5.890  0.00  0.00    -0.031 A 
HETATM   20  C   UNK     0      18.433  -7.447   6.919  0.00  0.00     0.051 C 
HETATM   21  C   UNK     0      17.542  -5.010   2.575  0.00  0.00     0.115 C 
HETATM   22  C   UNK     0      16.990  -3.642   2.252  0.00  0.00     0.022 A 
HETATM   23  N   UNK     0      16.222  -2.855   3.018  0.00  0.00    -0.361 N 
HETATM   24  C   UNK     0      16.084  -1.666   2.398  0.00  0.00     0.021 A 
HETATM   25  C   UNK     0      16.771  -1.690   1.200  0.00  0.00    -0.031 A 
HETATM   26  C   UNK     0      16.880  -0.613   0.141  0.00  0.00     0.051 C 
HETATM   27  C   UNK     0      17.359  -2.945   1.084  0.00  0.00    -0.027 A 
HETATM   28  C   UNK     0      15.380  -0.424   2.917  0.00  0.00     0.115 C 
HETATM   29  H   UNK     0      15.573  -1.500   5.652  0.00  0.00     0.165 HD
HETATM   30  H   UNK     0      18.911  -1.774   6.194  0.00  0.00     0.165 HD
HETATM   31  H   UNK     0      18.984  -3.360   4.567  0.00  0.00     0.165 HD
HETATM   32  H   UNK     0      15.733  -3.148   3.983  0.00  0.00     0.165 HD
ENDROOT
BRANCH   6  33
HETATM   33  C   UNK     0      17.749   2.699   6.102  0.00  0.00     0.051 C 
BRANCH  33  34
HETATM   34  C   UNK     0      19.243   2.517   5.974  0.00  0.00     0.114 C 
BRANCH  34  35
HETATM   35  C   UNK     0      19.861   2.991   7.246  0.00  0.00     0.139 C 
HETATM   36  O   UNK     0      20.135   2.167   8.167  0.00  0.00    -0.650 OA
BRANCH  35  37
HETATM   37  O   UNK     0      20.164   4.326   7.480  0.00  0.00    -0.776 OA
HETATM   38  H   UNK     0      19.516   5.067   7.263  0.00  0.00     0.167 HD
ENDBRANCH  35  37
ENDBRANCH  34  35
ENDBRANCH  33  34
ENDBRANCH   6  33
BRANCH  27  39
HETATM   39  C   UNK     0      18.128  -3.372  -0.116  0.00  0.00     0.051 C 
BRANCH  39  40
HETATM   40  C   UNK     0      17.388  -3.708  -1.332  0.00  0.00     0.114 C 
BRANCH  40  41
HETATM   41  C   UNK     0      17.518  -2.941  -2.550  0.00  0.00     0.139 C 
HETATM   42  O   UNK     0      16.550  -2.540  -3.212  0.00  0.00    -0.650 OA
BRANCH  41  43
HETATM   43  O   UNK     0      18.819  -2.621  -3.030  0.00  0.00    -0.776 OA
HETATM   44  H   UNK     0      19.489  -2.395  -2.305  0.00  0.00     0.167 HD
ENDBRANCH  41  43
ENDBRANCH  40  41
ENDBRANCH  39  40
ENDBRANCH  27  39
BRANCH  11  45
HETATM   45  C   UNK     0      18.012  -4.304  10.104  0.00  0.00     0.051 C 
BRANCH  45  46
HETATM   46  C   UNK     0      16.942  -5.314   9.906  0.00  0.00     0.114 C 
BRANCH  46  47
HETATM   47  C   UNK     0      17.217  -6.439  10.845  0.00  0.00     0.139 C 
HETATM   48  O   UNK     0      17.861  -7.413  10.430  0.00  0.00    -0.650 OA
BRANCH  47  49
HETATM   49  O   UNK     0      16.767  -6.399  12.141  0.00  0.00    -0.776 OA
HETATM   50  H   UNK     0      16.274  -7.190  12.571  0.00  0.00     0.167 HD
ENDBRANCH  47  49
ENDBRANCH  46  47
ENDBRANCH  45  46
ENDBRANCH  11  45
BRANCH  18  51
HETATM   51  C   UNK     0      17.263  -7.739   4.071  0.00  0.00     0.051 C 
BRANCH  51  52
HETATM   52  C   UNK     0      15.758  -7.520   4.077  0.00  0.00     0.114 C 
BRANCH  52  53
HETATM   53  C   UNK     0      15.061  -8.517   4.913  0.00  0.00     0.139 C 
HETATM   54  O   UNK     0      14.316  -9.358   4.386  0.00  0.00    -0.650 OA
BRANCH  53  55
HETATM   55  O   UNK     0      15.240  -8.506   6.275  0.00  0.00    -0.776 OA
HETATM   56  H   UNK     0      15.125  -9.280   6.885  0.00  0.00     0.167 HD
ENDBRANCH  53  55
ENDBRANCH  52  53
ENDBRANCH  51  52
ENDBRANCH  18  51
TORSDOF 16
ENDMDL
MODEL 13
REMARK VINA RESULT:      -7.5      3.146      8.067
REMARK  16 active torsions:
REMARK  status: ('A' for Active; 'I' for Inactive)
REMARK    1  A    between atoms: C_6  and  C_7 
REMARK    2  A    between atoms: C_7  and  C_8 
REMARK    3  A    between atoms: C_8  and  C_9 
REMARK    4  A    between atoms: C_9  and  O_11 
REMARK    5  A    between atoms: C_16  and  C_17 
REMARK    6  A    between atoms: C_17  and  C_18 
REMARK    7  A    between atoms: C_18  and  C_19 
REMARK    8  A    between atoms: C_19  and  O_21 
REMARK    9  A    between atoms: C_28  and  C_29 
REMARK   10  A    between atoms: C_29  and  C_30 
REMARK   11  A    between atoms: C_30  and  C_31 
REMARK   12  A    between atoms: C_31  and  O_33 
REMARK   13  A    between atoms: C_42  and  C_43 
REMARK   14  A    between atoms: C_43  and  C_44 
REMARK   15  A    between atoms: C_44  and  C_45 
REMARK   16  A    between atoms: C_45  and  O_47 
ROOT
HETATM    1  C   UNK     0      18.064  -4.965   1.409  0.00  0.00     0.051 C 
HETATM    2  C   UNK     0      18.234  -5.177   2.900  0.00  0.00    -0.031 A 
HETATM    3  C   UNK     0      18.956  -4.430   3.817  0.00  0.00     0.021 A 
HETATM    4  N   UNK     0      18.850  -5.008   5.037  0.00  0.00    -0.361 N 
HETATM    5  C   UNK     0      18.069  -6.102   4.919  0.00  0.00     0.022 A 
HETATM    6  C   UNK     0      17.669  -6.239   3.594  0.00  0.00    -0.027 A 
HETATM    7  C   UNK     0      17.567  -7.033   5.978  0.00  0.00     0.115 C 
HETATM    8  C   UNK     0      17.077  -6.398   7.267  0.00  0.00     0.021 A 
HETATM    9  N   UNK     0      16.426  -5.236   7.432  0.00  0.00    -0.361 N 
HETATM   10  C   UNK     0      16.272  -5.026   8.757  0.00  0.00     0.022 A 
HETATM   11  C   UNK     0      16.830  -6.087   9.464  0.00  0.00    -0.027 A 
HETATM   12  C   UNK     0      17.339  -6.955   8.532  0.00  0.00    -0.031 A 
HETATM   13  C   UNK     0      18.039  -8.259   8.842  0.00  0.00     0.051 C 
HETATM   14  C   UNK     0      15.642  -3.798   9.407  0.00  0.00     0.115 C 
HETATM   15  C   UNK     0      16.365  -2.497   9.096  0.00  0.00     0.021 A 
HETATM   16  N   UNK     0      16.597  -1.956   7.886  0.00  0.00    -0.361 N 
HETATM   17  C   UNK     0      17.324  -0.846   8.034  0.00  0.00     0.022 A 
HETATM   18  C   UNK     0      17.568  -0.650   9.407  0.00  0.00    -0.027 A 
HETATM   19  C   UNK     0      16.962  -1.690  10.062  0.00  0.00    -0.031 A 
HETATM   20  C   UNK     0      16.951  -1.845  11.572  0.00  0.00     0.051 C 
HETATM   21  C   UNK     0      17.904   0.082   6.991  0.00  0.00     0.115 C 
HETATM   22  C   UNK     0      18.355  -0.531   5.686  0.00  0.00     0.022 A 
HETATM   23  N   UNK     0      19.002  -1.688   5.491  0.00  0.00    -0.361 N 
HETATM   24  C   UNK     0      19.075  -1.914   4.164  0.00  0.00     0.021 A 
HETATM   25  C   UNK     0      18.471  -0.872   3.487  0.00  0.00    -0.031 A 
HETATM   26  C   UNK     0      18.338  -0.656   1.994  0.00  0.00     0.051 C 
HETATM   27  C   UNK     0      18.002   0.026   4.439  0.00  0.00    -0.027 A 
HETATM   28  C   UNK     0      19.634  -3.138   3.460  0.00  0.00     0.115 C 
HETATM   29  H   UNK     0      19.360  -4.662   5.966  0.00  0.00     0.165 HD
HETATM   30  H   UNK     0      16.030  -4.586   6.614  0.00  0.00     0.165 HD
HETATM   31  H   UNK     0      16.200  -2.338   6.909  0.00  0.00     0.165 HD
HETATM   32  H   UNK     0      19.451  -2.335   6.289  0.00  0.00     0.165 HD
ENDROOT
BRANCH   6  33
HETATM   33  C   UNK     0      16.803  -7.289   2.945  0.00  0.00     0.051 C 
BRANCH  33  34
HETATM   34  C   UNK     0      15.372  -7.168   3.414  0.00  0.00     0.114 C 
BRANCH  34  35
HETATM   35  C   UNK     0      14.922  -8.527   3.830  0.00  0.00     0.139 C 
HETATM   36  O   UNK     0      13.692  -8.825   3.807  0.00  0.00    -0.650 OA
BRANCH  35  37
HETATM   37  O   UNK     0      15.806  -9.513   4.251  0.00  0.00    -0.776 OA
HETATM   38  H   UNK     0      16.224 -10.166   3.608  0.00  0.00     0.167 HD
ENDBRANCH  35  37
ENDBRANCH  34  35
ENDBRANCH  33  34
ENDBRANCH   6  33
BRANCH  27  39
HETATM   39  C   UNK     0      17.352   1.317   4.086  0.00  0.00     0.051 C 
BRANCH  39  40
HETATM   40  C   UNK     0      15.907   1.326   3.857  0.00  0.00     0.114 C 
BRANCH  40  41
HETATM   41  C   UNK     0      15.051   0.247   4.295  0.00  0.00     0.139 C 
HETATM   42  O   UNK     0      14.702   0.087   5.473  0.00  0.00    -0.650 OA
BRANCH  41  43
HETATM   43  O   UNK     0      14.573  -0.690   3.336  0.00  0.00    -0.776 OA
HETATM   44  H   UNK     0      13.789  -1.249   3.650  0.00  0.00     0.167 HD
ENDBRANCH  41  43
ENDBRANCH  40  41
ENDBRANCH  39  40
ENDBRANCH  27  39
BRANCH  11  45
HETATM   45  C   UNK     0      16.892  -6.297  10.953  0.00  0.00     0.051 C 
BRANCH  45  46
HETATM   46  C   UNK     0      15.817  -7.173  11.486  0.00  0.00     0.114 C 
BRANCH  46  47
HETATM   47  C   UNK     0      16.364  -7.858  12.693  0.00  0.00     0.139 C 
HETATM   48  O   UNK     0      16.301  -9.094  12.751  0.00  0.00    -0.650 OA
BRANCH  47  49
HETATM   49  O   UNK     0      16.923  -7.137  13.717  0.00  0.00    -0.776 OA
HETATM   50  H   UNK     0      17.936  -6.977  13.782  0.00  0.00     0.167 HD
ENDBRANCH  47  49
ENDBRANCH  46  47
ENDBRANCH  45  46
ENDBRANCH  11  45
BRANCH  18  51
HETATM   51  C   UNK     0      18.322   0.480  10.062  0.00  0.00     0.051 C 
BRANCH  51  52
HETATM   52  C   UNK     0      19.793   0.245   9.755  0.00  0.00     0.114 C 
BRANCH  52  53
HETATM   53  C   UNK     0      20.375  -0.800  10.619  0.00  0.00     0.139 C 
HETATM   54  O   UNK     0      20.896  -1.807  10.113  0.00  0.00    -0.650 OA
BRANCH  53  55
HETATM   55  O   UNK     0      20.332  -0.654  11.985  0.00  0.00    -0.776 OA
HETATM   56  H   UNK     0      20.634  -1.323  12.653  0.00  0.00     0.167 HD
ENDBRANCH  53  55
ENDBRANCH  52  53
ENDBRANCH  51  52
ENDBRANCH  18  51
TORSDOF 16
ENDMDL
MODEL 14
REMARK VINA RESULT:      -7.5     21.973     26.386
REMARK  16 active torsions:
REMARK  status: ('A' for Active; 'I' for Inactive)
REMARK    1  A    between atoms: C_6  and  C_7 
REMARK    2  A    between atoms: C_7  and  C_8 
REMARK    3  A    between atoms: C_8  and  C_9 
REMARK    4  A    between atoms: C_9  and  O_11 
REMARK    5  A    between atoms: C_16  and  C_17 
REMARK    6  A    between atoms: C_17  and  C_18 
REMARK    7  A    between atoms: C_18  and  C_19 
REMARK    8  A    between atoms: C_19  and  O_21 
REMARK    9  A    between atoms: C_28  and  C_29 
REMARK   10  A    between atoms: C_29  and  C_30 
REMARK   11  A    between atoms: C_30  and  C_31 
REMARK   12  A    between atoms: C_31  and  O_33 
REMARK   13  A    between atoms: C_42  and  C_43 
REMARK   14  A    between atoms: C_43  and  C_44 
REMARK   15  A    between atoms: C_44  and  C_45 
REMARK   16  A    between atoms: C_45  and  O_47 
ROOT
HETATM    1  C   UNK     0      24.013  20.935  -6.773  0.00  0.00     0.051 C 
HETATM    2  C   UNK     0      24.216  19.469  -6.449  0.00  0.00    -0.031 A 
HETATM    3  C   UNK     0      25.181  18.869  -5.655  0.00  0.00     0.021 A 
HETATM    4  N   UNK     0      24.998  17.527  -5.676  0.00  0.00    -0.361 N 
HETATM    5  C   UNK     0      23.933  17.260  -6.460  0.00  0.00     0.022 A 
HETATM    6  C   UNK     0      23.422  18.452  -6.962  0.00  0.00    -0.027 A 
HETATM    7  C   UNK     0      23.261  15.952  -6.739  0.00  0.00     0.115 C 
HETATM    8  C   UNK     0      23.060  15.023  -5.555  0.00  0.00     0.021 A 
HETATM    9  N   UNK     0      22.778  15.340  -4.281  0.00  0.00    -0.361 N 
HETATM   10  C   UNK     0      22.779  14.202  -3.555  0.00  0.00     0.022 A 
HETATM   11  C   UNK     0      23.061  13.121  -4.385  0.00  0.00    -0.027 A 
HETATM   12  C   UNK     0      23.238  13.631  -5.646  0.00  0.00    -0.031 A 
HETATM   13  C   UNK     0      23.559  12.818  -6.881  0.00  0.00     0.051 C 
HETATM   14  C   UNK     0      22.569  14.094  -2.048  0.00  0.00     0.115 C 
HETATM   15  C   UNK     0      23.609  14.840  -1.227  0.00  0.00     0.021 A 
HETATM   16  N   UNK     0      23.902  16.153  -1.270  0.00  0.00    -0.361 N 
HETATM   17  C   UNK     0      24.922  16.402  -0.446  0.00  0.00     0.022 A 
HETATM   18  C   UNK     0      25.305  15.195   0.172  0.00  0.00    -0.027 A 
HETATM   19  C   UNK     0      24.474  14.225  -0.325  0.00  0.00    -0.031 A 
HETATM   20  C   UNK     0      24.522  12.771   0.108  0.00  0.00     0.051 C 
HETATM   21  C   UNK     0      25.670  17.690  -0.186  0.00  0.00     0.115 C 
HETATM   22  C   UNK     0      25.839  18.644  -1.345  0.00  0.00     0.022 A 
HETATM   23  N   UNK     0      26.116  18.356  -2.624  0.00  0.00    -0.361 N 
HETATM   24  C   UNK     0      26.033  19.494  -3.342  0.00  0.00     0.021 A 
HETATM   25  C   UNK     0      25.704  20.542  -2.504  0.00  0.00    -0.031 A 
HETATM   26  C   UNK     0      25.537  22.011  -2.835  0.00  0.00     0.051 C 
HETATM   27  C   UNK     0      25.575  20.023  -1.221  0.00  0.00    -0.027 A 
HETATM   28  C   UNK     0      26.172  19.656  -4.846  0.00  0.00     0.115 C 
HETATM   29  H   UNK     0      25.647  16.776  -5.170  0.00  0.00     0.165 HD
HETATM   30  H   UNK     0      22.527  16.361  -3.901  0.00  0.00     0.165 HD
HETATM   31  H   UNK     0      23.348  16.930  -1.859  0.00  0.00     0.165 HD
HETATM   32  H   UNK     0      26.416  17.353  -3.024  0.00  0.00     0.165 HD
ENDROOT
BRANCH   6  33
HETATM   33  C   UNK     0      22.252  18.694  -7.882  0.00  0.00     0.051 C 
BRANCH  33  34
HETATM   34  C   UNK     0      22.695  18.681  -9.326  0.00  0.00     0.114 C 
BRANCH  34  35
HETATM   35  C   UNK     0      21.534  19.119 -10.153  0.00  0.00     0.139 C 
HETATM   36  O   UNK     0      20.386  18.627  -9.949  0.00  0.00    -0.650 OA
BRANCH  35  37
HETATM   37  O   UNK     0      21.648  20.067 -11.163  0.00  0.00    -0.776 OA
HETATM   38  H   UNK     0      21.903  19.816 -12.104  0.00  0.00     0.167 HD
ENDBRANCH  35  37
ENDBRANCH  34  35
ENDBRANCH  33  34
ENDBRANCH   6  33
BRANCH  27  39
HETATM   39  C   UNK     0      25.295  20.869  -0.029  0.00  0.00     0.051 C 
BRANCH  39  40
HETATM   40  C   UNK     0      26.425  21.319   0.784  0.00  0.00     0.114 C 
BRANCH  40  41
HETATM   41  C   UNK     0      27.762  21.435   0.248  0.00  0.00     0.139 C 
HETATM   42  O   UNK     0      28.155  22.413  -0.402  0.00  0.00    -0.650 OA
BRANCH  41  43
HETATM   43  O   UNK     0      28.690  20.378   0.468  0.00  0.00    -0.776 OA
HETATM   44  H   UNK     0      28.264  19.481   0.670  0.00  0.00     0.167 HD
ENDBRANCH  41  43
ENDBRANCH  40  41
ENDBRANCH  39  40
ENDBRANCH  27  39
BRANCH  11  45
HETATM   45  C   UNK     0      23.161  11.662  -4.030  0.00  0.00     0.051 C 
BRANCH  45  46
HETATM   46  C   UNK     0      24.355  11.316  -3.218  0.00  0.00     0.114 C 
BRANCH  46  47
HETATM   47  C   UNK     0      25.555  11.572  -4.066  0.00  0.00     0.139 C 
HETATM   48  O   UNK     0      25.773  10.819  -5.025  0.00  0.00    -0.650 OA
BRANCH  47  49
HETATM   49  O   UNK     0      26.400  12.617  -3.791  0.00  0.00    -0.776 OA
HETATM   50  H   UNK     0      27.184  12.861  -4.407  0.00  0.00     0.167 HD
ENDBRANCH  47  49
ENDBRANCH  46  47
ENDBRANCH  45  46
ENDBRANCH  11  45
BRANCH  18  51
HETATM   51  C   UNK     0      26.390  14.982   1.196  0.00  0.00     0.051 C 
BRANCH  51  52
HETATM   52  C   UNK     0      27.692  14.863   0.418  0.00  0.00     0.114 C 
BRANCH  52  53
HETATM   53  C   UNK     0      28.052  13.455   0.160  0.00  0.00     0.139 C 
HETATM   54  O   UNK     0      28.530  12.759   1.070  0.00  0.00    -0.650 OA
BRANCH  53  55
HETATM   55  O   UNK     0      27.856  12.922  -1.091  0.00  0.00    -0.776 OA
HETATM   56  H   UNK     0      28.423  12.233  -1.527  0.00  0.00     0.167 HD
ENDBRANCH  53  55
ENDBRANCH  52  53
ENDBRANCH  51  52
ENDBRANCH  18  51
TORSDOF 16
ENDMDL
MODEL 15
REMARK VINA RESULT:      -7.4      5.101      8.379
REMARK  16 active torsions:
REMARK  status: ('A' for Active; 'I' for Inactive)
REMARK    1  A    between atoms: C_6  and  C_7 
REMARK    2  A    between atoms: C_7  and  C_8 
REMARK    3  A    between atoms: C_8  and  C_9 
REMARK    4  A    between atoms: C_9  and  O_11 
REMARK    5  A    between atoms: C_16  and  C_17 
REMARK    6  A    between atoms: C_17  and  C_18 
REMARK    7  A    between atoms: C_18  and  C_19 
REMARK    8  A    between atoms: C_19  and  O_21 
REMARK    9  A    between atoms: C_28  and  C_29 
REMARK   10  A    between atoms: C_29  and  C_30 
REMARK   11  A    between atoms: C_30  and  C_31 
REMARK   12  A    between atoms: C_31  and  O_33 
REMARK   13  A    between atoms: C_42  and  C_43 
REMARK   14  A    between atoms: C_43  and  C_44 
REMARK   15  A    between atoms: C_44  and  C_45 
REMARK   16  A    between atoms: C_45  and  O_47 
ROOT
HETATM    1  C   UNK     0      18.008  -3.623   9.137  0.00  0.00     0.051 C 
HETATM    2  C   UNK     0      18.085  -2.550   8.070  0.00  0.00    -0.031 A 
HETATM    3  C   UNK     0      18.788  -2.546   6.876  0.00  0.00     0.021 A 
HETATM    4  N   UNK     0      18.589  -1.362   6.250  0.00  0.00    -0.361 N 
HETATM    5  C   UNK     0      17.766  -0.615   7.015  0.00  0.00     0.022 A 
HETATM    6  C   UNK     0      17.434  -1.327   8.163  0.00  0.00    -0.027 A 
HETATM    7  C   UNK     0      17.165   0.727   6.737  0.00  0.00     0.115 C 
HETATM    8  C   UNK     0      16.634   0.958   5.333  0.00  0.00     0.021 A 
HETATM    9  N   UNK     0      16.028   0.084   4.514  0.00  0.00    -0.361 N 
HETATM   10  C   UNK     0      15.811   0.699   3.332  0.00  0.00     0.022 A 
HETATM   11  C   UNK     0      16.280   2.007   3.395  0.00  0.00    -0.027 A 
HETATM   12  C   UNK     0      16.800   2.177   4.653  0.00  0.00    -0.031 A 
HETATM   13  C   UNK     0      17.421   3.453   5.177  0.00  0.00     0.051 C 
HETATM   14  C   UNK     0      15.203   0.064   2.084  0.00  0.00     0.115 C 
HETATM   15  C   UNK     0      16.001  -1.110   1.539  0.00  0.00     0.021 A 
HETATM   16  N   UNK     0      16.325  -2.250   2.178  0.00  0.00    -0.361 N 
HETATM   17  C   UNK     0      17.092  -2.996   1.380  0.00  0.00     0.022 A 
HETATM   18  C   UNK     0      17.269  -2.314   0.160  0.00  0.00    -0.027 A 
HETATM   19  C   UNK     0      16.580  -1.134   0.272  0.00  0.00    -0.031 A 
HETATM   20  C   UNK     0      16.479  -0.107  -0.840  0.00  0.00     0.051 C 
HETATM   21  C   UNK     0      17.771  -4.320   1.646  0.00  0.00     0.115 C 
HETATM   22  C   UNK     0      18.265  -4.581   3.050  0.00  0.00     0.022 A 
HETATM   23  N   UNK     0      18.868  -3.729   3.889  0.00  0.00    -0.361 N 
HETATM   24  C   UNK     0      19.004  -4.338   5.085  0.00  0.00     0.021 A 
HETATM   25  C   UNK     0      18.486  -5.617   5.010  0.00  0.00    -0.031 A 
HETATM   26  C   UNK     0      18.446  -6.693   6.075  0.00  0.00     0.051 C 
HETATM   27  C   UNK     0      18.008  -5.796   3.717  0.00  0.00    -0.027 A 
HETATM   28  C   UNK     0      19.544  -3.744   6.374  0.00  0.00     0.115 C 
HETATM   29  H   UNK     0      19.062  -1.047   5.292  0.00  0.00     0.165 HD
HETATM   30  H   UNK     0      15.708  -0.952   4.783  0.00  0.00     0.165 HD
HETATM   31  H   UNK     0      15.965  -2.557   3.194  0.00  0.00     0.165 HD
HETATM   32  H   UNK     0      19.242  -2.704   3.633  0.00  0.00     0.165 HD
ENDROOT
BRANCH   6  33
HETATM   33  C   UNK     0      16.558  -0.937   9.327  0.00  0.00     0.051 C 
BRANCH  33  34
HETATM   34  C   UNK     0      15.101  -1.160   8.998  0.00  0.00     0.114 C 
BRANCH  34  35
HETATM   35  C   UNK     0      14.336  -1.065  10.275  0.00  0.00     0.139 C 
HETATM   36  O   UNK     0      14.223   0.046  10.869  0.00  0.00    -0.650 OA
BRANCH  35  37
HETATM   37  O   UNK     0      13.721  -2.164  10.863  0.00  0.00    -0.776 OA
HETATM   38  H   UNK     0      13.325  -2.124  11.788  0.00  0.00     0.167 HD
ENDBRANCH  35  37
ENDBRANCH  34  35
ENDBRANCH  33  34
ENDBRANCH   6  33
BRANCH  27  39
HETATM   39  C   UNK     0      17.438  -7.083   3.235  0.00  0.00     0.051 C 
BRANCH  39  40
HETATM   40  C   UNK     0      16.008  -7.323   3.424  0.00  0.00     0.114 C 
BRANCH  40  41
HETATM   41  C   UNK     0      15.340  -8.480   2.870  0.00  0.00     0.139 C 
HETATM   42  O   UNK     0      15.142  -8.640   1.658  0.00  0.00    -0.650 OA
BRANCH  41  43
HETATM   43  O   UNK     0      14.881  -9.500   3.751  0.00  0.00    -0.776 OA
HETATM   44  H   UNK     0      15.613  -9.958   4.280  0.00  0.00     0.167 HD
ENDBRANCH  41  43
ENDBRANCH  40  41
ENDBRANCH  39  40
ENDBRANCH  27  39
BRANCH  11  45
HETATM   45  C   UNK     0      16.249   3.071   2.330  0.00  0.00     0.051 C 
BRANCH  45  46
HETATM   46  C   UNK     0      17.319   2.936   1.308  0.00  0.00     0.114 C 
BRANCH  46  47
HETATM   47  C   UNK     0      18.412   3.877   1.686  0.00  0.00     0.139 C 
HETATM   48  O   UNK     0      19.496   3.406   2.057  0.00  0.00    -0.650 OA
BRANCH  47  49
HETATM   49  O   UNK     0      18.223   5.235   1.627  0.00  0.00    -0.776 OA
HETATM   50  H   UNK     0      18.596   5.869   2.344  0.00  0.00     0.167 HD
ENDBRANCH  47  49
ENDBRANCH  46  47
ENDBRANCH  45  46
ENDBRANCH  11  45
BRANCH  18  51
HETATM   51  C   UNK     0      18.036  -2.770  -1.054  0.00  0.00     0.051 C 
BRANCH  51  52
HETATM   52  C   UNK     0      17.067  -3.600  -1.882  0.00  0.00     0.114 C 
BRANCH  52  53
HETATM   53  C   UNK     0      16.668  -2.905  -3.122  0.00  0.00     0.139 C 
HETATM   54  O   UNK     0      17.417  -2.052  -3.624  0.00  0.00    -0.650 OA
BRANCH  53  55
HETATM   55  O   UNK     0      15.465  -3.205  -3.712  0.00  0.00    -0.776 OA
HETATM   56  H   UNK     0      15.106  -4.116  -3.875  0.00  0.00     0.167 HD
ENDBRANCH  53  55
ENDBRANCH  52  53
ENDBRANCH  51  52
ENDBRANCH  18  51
TORSDOF 16
ENDMDL
MODEL 16
REMARK VINA RESULT:      -7.3     23.443     26.560
REMARK  16 active torsions:
REMARK  status: ('A' for Active; 'I' for Inactive)
REMARK    1  A    between atoms: C_6  and  C_7 
REMARK    2  A    between atoms: C_7  and  C_8 
REMARK    3  A    between atoms: C_8  and  C_9 
REMARK    4  A    between atoms: C_9  and  O_11 
REMARK    5  A    between atoms: C_16  and  C_17 
REMARK    6  A    between atoms: C_17  and  C_18 
REMARK    7  A    between atoms: C_18  and  C_19 
REMARK    8  A    between atoms: C_19  and  O_21 
REMARK    9  A    between atoms: C_28  and  C_29 
REMARK   10  A    between atoms: C_29  and  C_30 
REMARK   11  A    between atoms: C_30  and  C_31 
REMARK   12  A    between atoms: C_31  and  O_33 
REMARK   13  A    between atoms: C_42  and  C_43 
REMARK   14  A    between atoms: C_43  and  C_44 
REMARK   15  A    between atoms: C_44  and  C_45 
REMARK   16  A    between atoms: C_45  and  O_47 
ROOT
HETATM    1  C   UNK     0       8.825   5.741 -17.046  0.00  0.00     0.051 C 
HETATM    2  C   UNK     0       9.091   5.903 -15.563  0.00  0.00    -0.031 A 
HETATM    3  C   UNK     0      10.298   5.901 -14.880  0.00  0.00     0.021 A 
HETATM    4  N   UNK     0      10.055   6.048 -13.556  0.00  0.00    -0.361 N 
HETATM    5  C   UNK     0       8.722   6.153 -13.381  0.00  0.00     0.022 A 
HETATM    6  C   UNK     0       8.088   6.063 -14.616  0.00  0.00    -0.027 A 
HETATM    7  C   UNK     0       7.944   6.421 -12.131  0.00  0.00     0.115 C 
HETATM    8  C   UNK     0       8.498   7.482 -11.197  0.00  0.00     0.021 A 
HETATM    9  N   UNK     0       9.133   8.622 -11.511  0.00  0.00    -0.361 N 
HETATM   10  C   UNK     0       9.530   9.211 -10.363  0.00  0.00     0.022 A 
HETATM   11  C   UNK     0       9.131   8.433  -9.279  0.00  0.00    -0.027 A 
HETATM   12  C   UNK     0       8.480   7.343  -9.798  0.00  0.00    -0.031 A 
HETATM   13  C   UNK     0       7.867   6.224  -8.987  0.00  0.00     0.051 C 
HETATM   14  C   UNK     0      10.343  10.497 -10.243  0.00  0.00     0.115 C 
HETATM   15  C   UNK     0      11.714  10.421 -10.896  0.00  0.00     0.021 A 
HETATM   16  N   UNK     0      11.996  10.154 -12.185  0.00  0.00    -0.361 N 
HETATM   17  C   UNK     0      13.320  10.110 -12.344  0.00  0.00     0.022 A 
HETATM   18  C   UNK     0      13.931  10.371 -11.101  0.00  0.00    -0.027 A 
HETATM   19  C   UNK     0      12.914  10.566 -10.203  0.00  0.00    -0.031 A 
HETATM   20  C   UNK     0      13.133  10.912  -8.742  0.00  0.00     0.051 C 
HETATM   21  C   UNK     0      14.141   9.779 -13.570  0.00  0.00     0.115 C 
HETATM   22  C   UNK     0      13.581   8.756 -14.530  0.00  0.00     0.022 A 
HETATM   23  N   UNK     0      12.941   7.615 -14.246  0.00  0.00    -0.361 N 
HETATM   24  C   UNK     0      12.487   7.085 -15.400  0.00  0.00     0.021 A 
HETATM   25  C   UNK     0      12.853   7.900 -16.453  0.00  0.00    -0.031 A 
HETATM   26  C   UNK     0      12.610   7.709 -17.936  0.00  0.00     0.051 C 
HETATM   27  C   UNK     0      13.554   8.977 -15.922  0.00  0.00    -0.027 A 
HETATM   28  C   UNK     0      11.627   5.846 -15.579  0.00  0.00     0.115 C 
HETATM   29  H   UNK     0      10.825   6.037 -12.750  0.00  0.00     0.165 HD
HETATM   30  H   UNK     0       9.259   9.040 -12.540  0.00  0.00     0.165 HD
HETATM   31  H   UNK     0      11.245  10.040 -13.011  0.00  0.00     0.165 HD
HETATM   32  H   UNK     0      12.840   7.149 -13.231  0.00  0.00     0.165 HD
ENDROOT
BRANCH   6  33
HETATM   33  C   UNK     0       6.621   6.115 -14.960  0.00  0.00     0.051 C 
BRANCH  33  34
HETATM   34  C   UNK     0       5.969   4.773 -14.727  0.00  0.00     0.114 C 
BRANCH  34  35
HETATM   35  C   UNK     0       4.516   4.925 -15.025  0.00  0.00     0.139 C 
HETATM   36  O   UNK     0       3.661   4.815 -14.098  0.00  0.00    -0.650 OA
BRANCH  35  37
HETATM   37  O   UNK     0       4.036   5.192 -16.301  0.00  0.00    -0.776 OA
HETATM   38  H   UNK     0       4.079   4.511 -17.042  0.00  0.00     0.167 HD
ENDBRANCH  35  37
ENDBRANCH  34  35
ENDBRANCH  33  34
ENDBRANCH   6  33
BRANCH  27  39
HETATM   39  C   UNK     0      14.173  10.036 -16.764  0.00  0.00     0.051 C 
BRANCH  39  40
HETATM   40  C   UNK     0      15.632  10.140 -16.787  0.00  0.00     0.114 C 
BRANCH  40  41
HETATM   41  C   UNK     0      16.347  11.127 -16.008  0.00  0.00     0.139 C 
HETATM   42  O   UNK     0      15.994  12.311 -15.916  0.00  0.00    -0.650 OA
BRANCH  41  43
HETATM   43  O   UNK     0      17.521  10.734 -15.305  0.00  0.00    -0.776 OA
HETATM   44  H   UNK     0      18.379  11.130 -15.669  0.00  0.00     0.167 HD
ENDBRANCH  41  43
ENDBRANCH  40  41
ENDBRANCH  39  40
ENDBRANCH  27  39
BRANCH  11  45
HETATM   45  C   UNK     0       9.340   8.687  -7.811  0.00  0.00     0.051 C 
BRANCH  45  46
HETATM   46  C   UNK     0      10.732   8.459  -7.348  0.00  0.00     0.114 C 
BRANCH  46  47
HETATM   47  C   UNK     0      10.853   7.012  -7.010  0.00  0.00     0.139 C 
HETATM   48  O   UNK     0      10.474   6.630  -5.894  0.00  0.00    -0.650 OA
BRANCH  47  49
HETATM   49  O   UNK     0      11.375   6.120  -7.913  0.00  0.00    -0.776 OA
HETATM   50  H   UNK     0      11.715   5.193  -7.630  0.00  0.00     0.167 HD
ENDBRANCH  47  49
ENDBRANCH  46  47
ENDBRANCH  45  46
ENDBRANCH  11  45
BRANCH  18  51
HETATM   51  C   UNK     0      15.403  10.452 -10.791  0.00  0.00     0.051 C 
BRANCH  51  52
HETATM   52  C   UNK     0      15.779  11.923 -10.890  0.00  0.00     0.114 C 
BRANCH  52  53
HETATM   53  C   UNK     0      16.321  12.264 -12.219  0.00  0.00     0.139 C 
HETATM   54  O   UNK     0      17.450  11.866 -12.551  0.00  0.00    -0.650 OA
BRANCH  53  55
HETATM   55  O   UNK     0      15.573  13.025 -13.083  0.00  0.00    -0.776 OA
HETATM   56  H   UNK     0      14.584  13.013 -13.165  0.00  0.00     0.167 HD
ENDBRANCH  53  55
ENDBRANCH  52  53
ENDBRANCH  51  52
ENDBRANCH  18  51
TORSDOF 16
ENDMDL
MODEL 17
REMARK VINA RESULT:      -7.3     34.799     38.218
REMARK  16 active torsions:
REMARK  status: ('A' for Active; 'I' for Inactive)
REMARK    1  A    between atoms: C_6  and  C_7 
REMARK    2  A    between atoms: C_7  and  C_8 
REMARK    3  A    between atoms: C_8  and  C_9 
REMARK    4  A    between atoms: C_9  and  O_11 
REMARK    5  A    between atoms: C_16  and  C_17 
REMARK    6  A    between atoms: C_17  and  C_18 
REMARK    7  A    between atoms: C_18  and  C_19 
REMARK    8  A    between atoms: C_19  and  O_21 
REMARK    9  A    between atoms: C_28  and  C_29 
REMARK   10  A    between atoms: C_29  and  C_30 
REMARK   11  A    between atoms: C_30  and  C_31 
REMARK   12  A    between atoms: C_31  and  O_33 
REMARK   13  A    between atoms: C_42  and  C_43 
REMARK   14  A    between atoms: C_43  and  C_44 
REMARK   15  A    between atoms: C_44  and  C_45 
REMARK   16  A    between atoms: C_45  and  O_47 
ROOT
HETATM    1  C   UNK     0      -9.172  18.578  14.295  0.00  0.00     0.051 C 
HETATM    2  C   UNK     0      -8.756  19.958  13.829  0.00  0.00    -0.031 A 
HETATM    3  C   UNK     0      -8.036  20.328  12.704  0.00  0.00     0.021 A 
HETATM    4  N   UNK     0      -7.871  21.672  12.707  0.00  0.00    -0.361 N 
HETATM    5  C   UNK     0      -8.477  22.168  13.805  0.00  0.00     0.022 A 
HETATM    6  C   UNK     0      -9.039  21.123  14.531  0.00  0.00    -0.027 A 
HETATM    7  C   UNK     0      -8.666  23.592  14.227  0.00  0.00     0.115 C 
HETATM    8  C   UNK     0      -9.058  24.578  13.141  0.00  0.00     0.021 A 
HETATM    9  N   UNK     0      -9.854  24.379  12.079  0.00  0.00    -0.361 N 
HETATM   10  C   UNK     0      -9.846  25.504  11.333  0.00  0.00     0.022 A 
HETATM   11  C   UNK     0      -9.029  26.457  11.936  0.00  0.00    -0.027 A 
HETATM   12  C   UNK     0      -8.530  25.880  13.075  0.00  0.00    -0.031 A 
HETATM   13  C   UNK     0      -7.595  26.550  14.057  0.00  0.00     0.051 C 
HETATM   14  C   UNK     0     -10.561  25.707  10.000  0.00  0.00     0.115 C 
HETATM   15  C   UNK     0     -10.106  24.755   8.906  0.00  0.00     0.021 A 
HETATM   16  N   UNK     0     -10.141  23.409   8.921  0.00  0.00    -0.361 N 
HETATM   17  C   UNK     0      -9.585  22.943   7.801  0.00  0.00     0.022 A 
HETATM   18  C   UNK     0      -9.178  24.038   7.013  0.00  0.00    -0.027 A 
HETATM   19  C   UNK     0      -9.511  25.166   7.715  0.00  0.00    -0.031 A 
HETATM   20  C   UNK     0      -9.278  26.577   7.206  0.00  0.00     0.051 C 
HETATM   21  C   UNK     0      -9.317  21.519   7.368  0.00  0.00     0.115 C 
HETATM   22  C   UNK     0      -8.969  20.517   8.444  0.00  0.00     0.022 A 
HETATM   23  N   UNK     0      -8.182  20.689   9.515  0.00  0.00    -0.361 N 
HETATM   24  C   UNK     0      -8.267  19.584  10.283  0.00  0.00     0.021 A 
HETATM   25  C   UNK     0      -9.121  18.676   9.688  0.00  0.00    -0.031 A 
HETATM   26  C   UNK     0      -9.502  17.284  10.147  0.00  0.00     0.051 C 
HETATM   27  C   UNK     0      -9.582  19.250   8.509  0.00  0.00    -0.027 A 
HETATM   28  C   UNK     0      -7.630  19.346  11.641  0.00  0.00     0.115 C 
HETATM   29  H   UNK     0      -7.293  22.256  11.954  0.00  0.00     0.165 HD
HETATM   30  H   UNK     0     -10.463  23.464  11.879  0.00  0.00     0.165 HD
HETATM   31  H   UNK     0     -10.610  22.774   9.718  0.00  0.00     0.165 HD
HETATM   32  H   UNK     0      -7.526  21.575   9.716  0.00  0.00     0.165 HD
ENDROOT
BRANCH   6  33
HETATM   33  C   UNK     0      -9.812  21.147  15.826  0.00  0.00     0.051 C 
BRANCH  33  34
HETATM   34  C   UNK     0      -8.895  20.903  17.001  0.00  0.00     0.114 C 
BRANCH  34  35
HETATM   35  C   UNK     0      -8.792  22.183  17.759  0.00  0.00     0.139 C 
HETATM   36  O   UNK     0      -9.775  22.605  18.435  0.00  0.00    -0.650 OA
BRANCH  35  37
HETATM   37  O   UNK     0      -7.639  22.960  17.765  0.00  0.00    -0.776 OA
HETATM   38  H   UNK     0      -6.934  22.874  17.051  0.00  0.00     0.167 HD
ENDBRANCH  35  37
ENDBRANCH  34  35
ENDBRANCH  33  34
ENDBRANCH   6  33
BRANCH  27  39
HETATM   39  C   UNK     0     -10.473  18.537   7.554  0.00  0.00     0.051 C 
BRANCH  39  40
HETATM   40  C   UNK     0     -11.920  18.661   7.730  0.00  0.00     0.114 C 
BRANCH  40  41
HETATM   41  C   UNK     0     -12.803  17.517   7.682  0.00  0.00     0.139 C 
HETATM   42  O   UNK     0     -12.946  16.724   8.622  0.00  0.00    -0.650 OA
BRANCH  41  43
HETATM   43  O   UNK     0     -13.557  17.276   6.498  0.00  0.00    -0.776 OA
HETATM   44  H   UNK     0     -13.374  17.928   5.745  0.00  0.00     0.167 HD
ENDBRANCH  41  43
ENDBRANCH  40  41
ENDBRANCH  39  40
ENDBRANCH  27  39
BRANCH  11  45
HETATM   45  C   UNK     0      -8.720  27.857  11.478  0.00  0.00     0.051 C 
BRANCH  45  46
HETATM   46  C   UNK     0      -7.643  27.938  10.459  0.00  0.00     0.114 C 
BRANCH  46  47
HETATM   47  C   UNK     0      -8.004  29.039   9.521  0.00  0.00     0.139 C 
HETATM   48  O   UNK     0      -8.988  29.744   9.786  0.00  0.00    -0.650 OA
BRANCH  47  49
HETATM   49  O   UNK     0      -7.266  29.266   8.387  0.00  0.00    -0.776 OA
HETATM   50  H   UNK     0      -7.478  30.039   7.744  0.00  0.00     0.167 HD
ENDBRANCH  47  49
ENDBRANCH  46  47
ENDBRANCH  45  46
ENDBRANCH  11  45
BRANCH  18  51
HETATM   51  C   UNK     0      -8.526  24.009   5.654  0.00  0.00     0.051 C 
BRANCH  51  52
HETATM   52  C   UNK     0      -9.618  24.350   4.651  0.00  0.00     0.114 C 
BRANCH  52  53
HETATM   53  C   UNK     0      -9.640  23.402   3.520  0.00  0.00     0.139 C 
HETATM   54  O   UNK     0      -8.836  22.457   3.486  0.00  0.00    -0.650 OA
BRANCH  53  55
HETATM   55  O   UNK     0     -10.553  23.573   2.508  0.00  0.00    -0.776 OA
HETATM   56  H   UNK     0     -10.577  24.329   1.865  0.00  0.00     0.167 HD
ENDBRANCH  53  55
ENDBRANCH  52  53
ENDBRANCH  51  52
ENDBRANCH  18  51
TORSDOF 16
ENDMDL
MODEL 18
REMARK VINA RESULT:      -7.3     21.994     26.599
REMARK  16 active torsions:
REMARK  status: ('A' for Active; 'I' for Inactive)
REMARK    1  A    between atoms: C_6  and  C_7 
REMARK    2  A    between atoms: C_7  and  C_8 
REMARK    3  A    between atoms: C_8  and  C_9 
REMARK    4  A    between atoms: C_9  and  O_11 
REMARK    5  A    between atoms: C_16  and  C_17 
REMARK    6  A    between atoms: C_17  and  C_18 
REMARK    7  A    between atoms: C_18  and  C_19 
REMARK    8  A    between atoms: C_19  and  O_21 
REMARK    9  A    between atoms: C_28  and  C_29 
REMARK   10  A    between atoms: C_29  and  C_30 
REMARK   11  A    between atoms: C_30  and  C_31 
REMARK   12  A    between atoms: C_31  and  O_33 
REMARK   13  A    between atoms: C_42  and  C_43 
REMARK   14  A    between atoms: C_43  and  C_44 
REMARK   15  A    between atoms: C_44  and  C_45 
REMARK   16  A    between atoms: C_45  and  O_47 
ROOT
HETATM    1  C   UNK     0      26.037  18.613   4.191  0.00  0.00     0.051 C 
HETATM    2  C   UNK     0      25.167  18.153   3.039  0.00  0.00    -0.031 A 
HETATM    3  C   UNK     0      24.540  18.903   2.056  0.00  0.00     0.021 A 
HETATM    4  N   UNK     0      23.839  18.073   1.248  0.00  0.00    -0.361 N 
HETATM    5  C   UNK     0      24.013  16.810   1.689  0.00  0.00     0.022 A 
HETATM    6  C   UNK     0      24.836  16.824   2.810  0.00  0.00    -0.027 A 
HETATM    7  C   UNK     0      23.533  15.521   1.098  0.00  0.00     0.115 C 
HETATM    8  C   UNK     0      23.646  15.378  -0.409  0.00  0.00     0.021 A 
HETATM    9  N   UNK     0      24.606  15.845  -1.224  0.00  0.00    -0.361 N 
HETATM   10  C   UNK     0      24.250  15.563  -2.495  0.00  0.00     0.022 A 
HETATM   11  C   UNK     0      23.033  14.888  -2.499  0.00  0.00    -0.027 A 
HETATM   12  C   UNK     0      22.647  14.768  -1.188  0.00  0.00    -0.031 A 
HETATM   13  C   UNK     0      21.381  14.095  -0.708  0.00  0.00     0.051 C 
HETATM   14  C   UNK     0      25.013  15.963  -3.754  0.00  0.00     0.115 C 
HETATM   15  C   UNK     0      25.163  17.466  -3.932  0.00  0.00     0.021 A 
HETATM   16  N   UNK     0      25.745  18.339  -3.088  0.00  0.00    -0.361 N 
HETATM   17  C   UNK     0      25.608  19.575  -3.573  0.00  0.00     0.022 A 
HETATM   18  C   UNK     0      24.913  19.503  -4.797  0.00  0.00    -0.027 A 
HETATM   19  C   UNK     0      24.641  18.176  -5.011  0.00  0.00    -0.031 A 
HETATM   20  C   UNK     0      23.930  17.649  -6.243  0.00  0.00     0.051 C 
HETATM   21  C   UNK     0      26.018  20.903  -2.979  0.00  0.00     0.115 C 
HETATM   22  C   UNK     0      25.952  21.044  -1.476  0.00  0.00     0.022 A 
HETATM   23  N   UNK     0      25.011  20.587  -0.640  0.00  0.00    -0.361 N 
HETATM   24  C   UNK     0      25.424  20.809   0.624  0.00  0.00     0.021 A 
HETATM   25  C   UNK     0      26.655  21.435   0.601  0.00  0.00    -0.031 A 
HETATM   26  C   UNK     0      27.500  21.921   1.761  0.00  0.00     0.051 C 
HETATM   27  C   UNK     0      27.014  21.596  -0.732  0.00  0.00    -0.027 A 
HETATM   28  C   UNK     0      24.741  20.385   1.913  0.00  0.00     0.115 C 
HETATM   29  H   UNK     0      23.195  18.389   0.395  0.00  0.00     0.165 HD
HETATM   30  H   UNK     0      25.560  16.329  -0.901  0.00  0.00     0.165 HD
HETATM   31  H   UNK     0      26.305  18.073  -2.154  0.00  0.00     0.165 HD
HETATM   32  H   UNK     0      24.026  20.140  -0.935  0.00  0.00     0.165 HD
ENDROOT
BRANCH   6  33
HETATM   33  C   UNK     0      25.323  15.685   3.670  0.00  0.00     0.051 C 
BRANCH  33  34
HETATM   34  C   UNK     0      24.314  15.357   4.745  0.00  0.00     0.114 C 
BRANCH  34  35
HETATM   35  C   UNK     0      23.934  13.925   4.578  0.00  0.00     0.139 C 
HETATM   36  O   UNK     0      24.446  13.234   3.650  0.00  0.00    -0.650 OA
BRANCH  35  37
HETATM   37  O   UNK     0      23.023  13.289   5.413  0.00  0.00    -0.776 OA
HETATM   38  H   UNK     0      22.792  13.649   6.325  0.00  0.00     0.167 HD
ENDBRANCH  35  37
ENDBRANCH  34  35
ENDBRANCH  33  34
ENDBRANCH   6  33
BRANCH  27  39
HETATM   39  C   UNK     0      28.254  22.300  -1.158  0.00  0.00     0.051 C 
BRANCH  39  40
HETATM   40  C   UNK     0      28.265  23.763  -1.136  0.00  0.00     0.114 C 
BRANCH  40  41
HETATM   41  C   UNK     0      29.427  24.519  -0.726  0.00  0.00     0.139 C 
HETATM   42  O   UNK     0      30.359  24.806  -1.489  0.00  0.00    -0.650 OA
BRANCH  41  43
HETATM   43  O   UNK     0      29.520  24.966   0.622  0.00  0.00    -0.776 OA
HETATM   44  H   UNK     0      29.048  25.843   0.807  0.00  0.00     0.167 HD
ENDBRANCH  41  43
ENDBRANCH  40  41
ENDBRANCH  39  40
ENDBRANCH  27  39
BRANCH  11  45
HETATM   45  C   UNK     0      22.249  14.366  -3.673  0.00  0.00     0.051 C 
BRANCH  45  46
HETATM   46  C   UNK     0      22.782  13.102  -4.244  0.00  0.00     0.114 C 
BRANCH  46  47
HETATM   47  C   UNK     0      23.147  13.377  -5.663  0.00  0.00     0.139 C 
HETATM   48  O   UNK     0      22.664  14.375  -6.216  0.00  0.00    -0.650 OA
BRANCH  47  49
HETATM   49  O   UNK     0      23.999  12.544  -6.343  0.00  0.00    -0.776 OA
HETATM   50  H   UNK     0      24.069  12.555  -7.368  0.00  0.00     0.167 HD
ENDBRANCH  47  49
ENDBRANCH  46  47
ENDBRANCH  45  46
ENDBRANCH  11  45
BRANCH  18  51
HETATM   51  C   UNK     0      24.546  20.634  -5.722  0.00  0.00     0.051 C 
BRANCH  51  52
HETATM   52  C   UNK     0      23.050  20.854  -5.554  0.00  0.00     0.114 C 
BRANCH  52  53
HETATM   53  C   UNK     0      22.756  21.867  -4.523  0.00  0.00     0.139 C 
HETATM   54  O   UNK     0      22.574  21.519  -3.345  0.00  0.00    -0.650 OA
BRANCH  53  55
HETATM   55  O   UNK     0      22.680  23.193  -4.874  0.00  0.00    -0.776 OA
HETATM   56  H   UNK     0      22.256  23.915  -4.341  0.00  0.00     0.167 HD
ENDBRANCH  53  55
ENDBRANCH  52  53
ENDBRANCH  51  52
ENDBRANCH  18  51
TORSDOF 16
ENDMDL
MODEL 19
REMARK VINA RESULT:      -7.3      3.936      8.778
REMARK  16 active torsions:
REMARK  status: ('A' for Active; 'I' for Inactive)
REMARK    1  A    between atoms: C_6  and  C_7 
REMARK    2  A    between atoms: C_7  and  C_8 
REMARK    3  A    between atoms: C_8  and  C_9 
REMARK    4  A    between atoms: C_9  and  O_11 
REMARK    5  A    between atoms: C_16  and  C_17 
REMARK    6  A    between atoms: C_17  and  C_18 
REMARK    7  A    between atoms: C_18  and  C_19 
REMARK    8  A    between atoms: C_19  and  O_21 
REMARK    9  A    between atoms: C_28  and  C_29 
REMARK   10  A    between atoms: C_29  and  C_30 
REMARK   11  A    between atoms: C_30  and  C_31 
REMARK   12  A    between atoms: C_31  and  O_33 
REMARK   13  A    between atoms: C_42  and  C_43 
REMARK   14  A    between atoms: C_43  and  C_44 
REMARK   15  A    between atoms: C_44  and  C_45 
REMARK   16  A    between atoms: C_45  and  O_47 
ROOT
HETATM    1  C   UNK     0      18.468  -7.347   6.425  0.00  0.00     0.051 C 
HETATM    2  C   UNK     0      19.297  -6.182   6.928  0.00  0.00    -0.031 A 
HETATM    3  C   UNK     0      20.013  -5.238   6.210  0.00  0.00     0.021 A 
HETATM    4  N   UNK     0      20.630  -4.400   7.076  0.00  0.00    -0.361 N 
HETATM    5  C   UNK     0      20.315  -4.783   8.330  0.00  0.00     0.022 A 
HETATM    6  C   UNK     0      19.484  -5.898   8.274  0.00  0.00    -0.027 A 
HETATM    7  C   UNK     0      20.659  -4.140   9.637  0.00  0.00     0.115 C 
HETATM    8  C   UNK     0      20.549  -2.627   9.702  0.00  0.00     0.021 A 
HETATM    9  N   UNK     0      19.656  -1.827   9.099  0.00  0.00    -0.361 N 
HETATM   10  C   UNK     0      19.995  -0.547   9.363  0.00  0.00     0.022 A 
HETATM   11  C   UNK     0      21.131  -0.522  10.167  0.00  0.00    -0.027 A 
HETATM   12  C   UNK     0      21.485  -1.830  10.384  0.00  0.00    -0.031 A 
HETATM   13  C   UNK     0      22.664  -2.289  11.212  0.00  0.00     0.051 C 
HETATM   14  C   UNK     0      19.295   0.699   8.828  0.00  0.00     0.115 C 
HETATM   15  C   UNK     0      19.312   0.812   7.312  0.00  0.00     0.021 A 
HETATM   16  N   UNK     0      18.818  -0.065   6.418  0.00  0.00    -0.361 N 
HETATM   17  C   UNK     0      19.095   0.364   5.185  0.00  0.00     0.022 A 
HETATM   18  C   UNK     0      19.793   1.584   5.280  0.00  0.00    -0.027 A 
HETATM   19  C   UNK     0      19.922   1.854   6.617  0.00  0.00    -0.031 A 
HETATM   20  C   UNK     0      20.586   3.103   7.166  0.00  0.00     0.051 C 
HETATM   21  C   UNK     0      18.825  -0.285   3.846  0.00  0.00     0.115 C 
HETATM   22  C   UNK     0      18.887  -1.793   3.777  0.00  0.00     0.022 A 
HETATM   23  N   UNK     0      19.762  -2.615   4.371  0.00  0.00    -0.361 N 
HETATM   24  C   UNK     0      19.361  -3.885   4.158  0.00  0.00     0.021 A 
HETATM   25  C   UNK     0      18.205  -3.880   3.401  0.00  0.00    -0.031 A 
HETATM   26  C   UNK     0      17.405  -5.054   2.876  0.00  0.00     0.051 C 
HETATM   27  C   UNK     0      17.882  -2.552   3.145  0.00  0.00    -0.027 A 
HETATM   28  C   UNK     0      19.977  -5.159   4.710  0.00  0.00     0.115 C 
HETATM   29  H   UNK     0      21.316  -3.566   6.796  0.00  0.00     0.165 HD
HETATM   30  H   UNK     0      18.757  -2.163   8.527  0.00  0.00     0.165 HD
HETATM   31  H   UNK     0      18.221  -0.982   6.660  0.00  0.00     0.165 HD
HETATM   32  H   UNK     0      20.696  -2.308   4.909  0.00  0.00     0.165 HD
ENDROOT
BRANCH   6  33
HETATM   33  C   UNK     0      18.865  -6.703   9.388  0.00  0.00     0.051 C 
BRANCH  33  34
HETATM   34  C   UNK     0      17.607  -6.038   9.895  0.00  0.00     0.114 C 
BRANCH  34  35
HETATM   35  C   UNK     0      17.035  -6.915  10.957  0.00  0.00     0.139 C 
HETATM   36  O   UNK     0      16.937  -8.163  10.768  0.00  0.00    -0.650 OA
BRANCH  35  37
HETATM   37  O   UNK     0      16.594  -6.422  12.178  0.00  0.00    -0.776 OA
HETATM   38  H   UNK     0      15.985  -5.622  12.243  0.00  0.00     0.167 HD
ENDBRANCH  35  37
ENDBRANCH  34  35
ENDBRANCH  33  34
ENDBRANCH   6  33
BRANCH  27  39
HETATM   39  C   UNK     0      16.732  -2.148   2.292  0.00  0.00     0.051 C 
BRANCH  39  40
HETATM   40  C   UNK     0      15.443  -1.898   2.938  0.00  0.00     0.114 C 
BRANCH  40  41
HETATM   41  C   UNK     0      14.800  -0.605   2.899  0.00  0.00     0.139 C 
HETATM   42  O   UNK     0      14.564   0.010   1.850  0.00  0.00    -0.650 OA
BRANCH  41  43
HETATM   43  O   UNK     0      14.409   0.010   4.122  0.00  0.00    -0.776 OA
HETATM   44  H   UNK     0      13.437  -0.128   4.369  0.00  0.00     0.167 HD
ENDBRANCH  41  43
ENDBRANCH  40  41
ENDBRANCH  39  40
ENDBRANCH  27  39
BRANCH  11  45
HETATM   45  C   UNK     0      21.867   0.668  10.720  0.00  0.00     0.051 C 
BRANCH  45  46
HETATM   46  C   UNK     0      21.129   1.396  11.783  0.00  0.00     0.114 C 
BRANCH  46  47
HETATM   47  C   UNK     0      21.386   0.683  13.067  0.00  0.00     0.139 C 
HETATM   48  O   UNK     0      22.332   1.058  13.774  0.00  0.00    -0.650 OA
BRANCH  47  49
HETATM   49  O   UNK     0      20.594  -0.367  13.459  0.00  0.00    -0.776 OA
HETATM   50  H   UNK     0      20.830  -0.956  14.266  0.00  0.00     0.167 HD
ENDBRANCH  47  49
ENDBRANCH  46  47
ENDBRANCH  45  46
ENDBRANCH  11  45
BRANCH  18  51
HETATM   51  C   UNK     0      20.292   2.456   4.156  0.00  0.00     0.051 C 
BRANCH  51  52
HETATM   52  C   UNK     0      21.764   2.115   3.974  0.00  0.00     0.114 C 
BRANCH  52  53
HETATM   53  C   UNK     0      21.956   1.000   3.027  0.00  0.00     0.139 C 
HETATM   54  O   UNK     0      21.710   1.159   1.821  0.00  0.00    -0.650 OA
BRANCH  53  55
HETATM   55  O   UNK     0      22.405  -0.214   3.489  0.00  0.00    -0.776 OA
HETATM   56  H   UNK     0      23.112  -0.354   4.171  0.00  0.00     0.167 HD
ENDBRANCH  53  55
ENDBRANCH  52  53
ENDBRANCH  51  52
ENDBRANCH  18  51
TORSDOF 16
ENDMDL
MODEL 20
REMARK VINA RESULT:      -7.1     33.241     36.550
REMARK  16 active torsions:
REMARK  status: ('A' for Active; 'I' for Inactive)
REMARK    1  A    between atoms: C_6  and  C_7 
REMARK    2  A    between atoms: C_7  and  C_8 
REMARK    3  A    between atoms: C_8  and  C_9 
REMARK    4  A    between atoms: C_9  and  O_11 
REMARK    5  A    between atoms: C_16  and  C_17 
REMARK    6  A    between atoms: C_17  and  C_18 
REMARK    7  A    between atoms: C_18  and  C_19 
REMARK    8  A    between atoms: C_19  and  O_21 
REMARK    9  A    between atoms: C_28  and  C_29 
REMARK   10  A    between atoms: C_29  and  C_30 
REMARK   11  A    between atoms: C_30  and  C_31 
REMARK   12  A    between atoms: C_31  and  O_33 
REMARK   13  A    between atoms: C_42  and  C_43 
REMARK   14  A    between atoms: C_43  and  C_44 
REMARK   15  A    between atoms: C_44  and  C_45 
REMARK   16  A    between atoms: C_45  and  O_47 
ROOT
HETATM    1  C   UNK     0      -9.587  15.723  16.254  0.00  0.00     0.051 C 
HETATM    2  C   UNK     0     -10.175  16.122  14.916  0.00  0.00    -0.031 A 
HETATM    3  C   UNK     0     -10.680  17.346  14.507  0.00  0.00     0.021 A 
HETATM    4  N   UNK     0     -11.129  17.235  13.234  0.00  0.00    -0.361 N 
HETATM    5  C   UNK     0     -10.913  15.970  12.820  0.00  0.00     0.022 A 
HETATM    6  C   UNK     0     -10.320  15.245  13.848  0.00  0.00    -0.027 A 
HETATM    7  C   UNK     0     -11.140  15.357  11.473  0.00  0.00     0.115 C 
HETATM    8  C   UNK     0     -10.732  16.188  10.269  0.00  0.00     0.021 A 
HETATM    9  N   UNK     0      -9.691  17.025  10.144  0.00  0.00    -0.361 N 
HETATM   10  C   UNK     0      -9.772  17.618   8.934  0.00  0.00     0.022 A 
HETATM   11  C   UNK     0     -10.891  17.142   8.257  0.00  0.00    -0.027 A 
HETATM   12  C   UNK     0     -11.501  16.241   9.092  0.00  0.00    -0.031 A 
HETATM   13  C   UNK     0     -12.759  15.465   8.772  0.00  0.00     0.051 C 
HETATM   14  C   UNK     0      -8.832  18.690   8.391  0.00  0.00     0.115 C 
HETATM   15  C   UNK     0      -8.806  19.964   9.221  0.00  0.00     0.021 A 
HETATM   16  N   UNK     0      -8.485  20.090  10.522  0.00  0.00    -0.361 N 
HETATM   17  C   UNK     0      -8.654  21.361  10.893  0.00  0.00     0.022 A 
HETATM   18  C   UNK     0      -9.097  22.100   9.779  0.00  0.00    -0.027 A 
HETATM   19  C   UNK     0      -9.187  21.214   8.737  0.00  0.00    -0.031 A 
HETATM   20  C   UNK     0      -9.598  21.605   7.329  0.00  0.00     0.051 C 
HETATM   21  C   UNK     0      -8.501  22.005  12.253  0.00  0.00     0.115 C 
HETATM   22  C   UNK     0      -8.860  21.174  13.462  0.00  0.00     0.022 A 
HETATM   23  N   UNK     0      -9.889  20.329  13.613  0.00  0.00    -0.361 N 
HETATM   24  C   UNK     0      -9.745  19.693  14.793  0.00  0.00     0.021 A 
HETATM   25  C   UNK     0      -8.601  20.146  15.422  0.00  0.00    -0.031 A 
HETATM   26  C   UNK     0      -8.043  19.763  16.777  0.00  0.00     0.051 C 
HETATM   27  C   UNK     0      -8.018  21.095  14.590  0.00  0.00    -0.027 A 
HETATM   28  C   UNK     0     -10.609  18.581  15.361  0.00  0.00     0.115 C 
HETATM   29  H   UNK     0     -11.632  18.041  12.651  0.00  0.00     0.165 HD
HETATM   30  H   UNK     0      -8.869  17.162  10.889  0.00  0.00     0.165 HD
HETATM   31  H   UNK     0      -8.084  19.276  11.180  0.00  0.00     0.165 HD
HETATM   32  H   UNK     0     -10.750  20.206  12.907  0.00  0.00     0.165 HD
ENDROOT
BRANCH   6  33
HETATM   33  C   UNK     0      -9.888  13.801  13.894  0.00  0.00     0.051 C 
BRANCH  33  34
HETATM   34  C   UNK     0     -10.929  12.953  14.586  0.00  0.00     0.114 C 
BRANCH  34  35
HETATM   35  C   UNK     0     -12.035  12.721  13.612  0.00  0.00     0.139 C 
HETATM   36  O   UNK     0     -13.213  13.093  13.886  0.00  0.00    -0.650 OA
BRANCH  35  37
HETATM   37  O   UNK     0     -11.834  12.103  12.384  0.00  0.00    -0.776 OA
HETATM   38  H   UNK     0     -10.989  12.234  11.851  0.00  0.00     0.167 HD
ENDBRANCH  35  37
ENDBRANCH  34  35
ENDBRANCH  33  34
ENDBRANCH   6  33
BRANCH  27  39
HETATM   39  C   UNK     0      -6.799  21.862  14.964  0.00  0.00     0.051 C 
BRANCH  39  40
HETATM   40  C   UNK     0      -6.957  23.254  15.386  0.00  0.00     0.114 C 
BRANCH  40  41
HETATM   41  C   UNK     0      -7.893  23.646  16.415  0.00  0.00     0.139 C 
HETATM   42  O   UNK     0      -8.861  24.391  16.211  0.00  0.00    -0.650 OA
BRANCH  41  43
HETATM   43  O   UNK     0      -7.707  23.159  17.740  0.00  0.00    -0.776 OA
HETATM   44  H   UNK     0      -8.012  22.204  17.882  0.00  0.00     0.167 HD
ENDBRANCH  41  43
ENDBRANCH  40  41
ENDBRANCH  39  40
ENDBRANCH  27  39
BRANCH  11  45
HETATM   45  C   UNK     0     -11.384  17.504   6.882  0.00  0.00     0.051 C 
BRANCH  45  46
HETATM   46  C   UNK     0     -12.015  18.846   6.797  0.00  0.00     0.114 C 
BRANCH  46  47
HETATM   47  C   UNK     0     -13.392  18.722   7.355  0.00  0.00     0.139 C 
HETATM   48  O   UNK     0     -13.681  19.371   8.370  0.00  0.00    -0.650 OA
BRANCH  47  49
HETATM   49  O   UNK     0     -14.320  17.907   6.759  0.00  0.00    -0.776 OA
HETATM   50  H   UNK     0     -14.336  16.892   6.916  0.00  0.00     0.167 HD
ENDBRANCH  47  49
ENDBRANCH  46  47
ENDBRANCH  45  46
ENDBRANCH  11  45
BRANCH  18  51
HETATM   51  C   UNK     0      -9.398  23.575   9.705  0.00  0.00     0.051 C 
BRANCH  51  52
HETATM   52  C   UNK     0      -8.082  24.262   9.376  0.00  0.00     0.114 C 
BRANCH  52  53
HETATM   53  C   UNK     0      -8.052  25.655   9.865  0.00  0.00     0.139 C 
HETATM   54  O   UNK     0      -8.082  25.886  11.084  0.00  0.00    -0.650 OA
BRANCH  53  55
HETATM   55  O   UNK     0      -7.995  26.690   8.964  0.00  0.00    -0.776 OA
HETATM   56  H   UNK     0      -7.202  27.258   8.776  0.00  0.00     0.167 HD
ENDBRANCH  53  55
ENDBRANCH  52  53
ENDBRANCH  51  52
ENDBRANCH  18  51
TORSDOF 16
ENDMDL
