MODEL 1
REMARK VINA RESULT:     -10.4      0.000      0.000
REMARK  16 active torsions:
REMARK  status: ('A' for Active; 'I' for Inactive)
REMARK    1  A    between atoms: C_6  and  C_7 
REMARK    2  A    between atoms: C_7  and  C_8 
REMARK    3  A    between atoms: C_8  and  C_9 
REMARK    4  A    between atoms: C_9  and  O_11 
REMARK    5  A    between atoms: C_16  and  C_17 
REMARK    6  A    between atoms: C_17  and  C_18 
REMARK    7  A    between atoms: C_18  and  C_19 
REMARK    8  A    between atoms: C_19  and  O_21 
REMARK    9  A    between atoms: C_28  and  C_29 
REMARK   10  A    between atoms: C_29  and  C_30 
REMARK   11  A    between atoms: C_30  and  C_31 
REMARK   12  A    between atoms: C_31  and  O_33 
REMARK   13  A    between atoms: C_42  and  C_43 
REMARK   14  A    between atoms: C_43  and  C_44 
REMARK   15  A    between atoms: C_44  and  C_45 
REMARK   16  A    between atoms: C_45  and  O_47 
ROOT
HETATM    1  C   UNK     0     -11.158  -2.685  19.067  0.00  0.00     0.051 C 
HETATM    2  C   UNK     0     -10.814  -3.908  18.241  0.00  0.00    -0.031 A 
HETATM    3  C   UNK     0      -9.581  -4.341  17.782  0.00  0.00     0.021 A 
HETATM    4  N   UNK     0      -9.752  -5.471  17.054  0.00  0.00    -0.361 N 
HETATM    5  C   UNK     0     -11.067  -5.771  17.048  0.00  0.00     0.022 A 
HETATM    6  C   UNK     0     -11.761  -4.813  17.779  0.00  0.00    -0.027 A 
HETATM    7  C   UNK     0     -11.769  -6.961  16.470  0.00  0.00     0.115 C 
HETATM    8  C   UNK     0     -11.108  -8.311  16.682  0.00  0.00     0.021 A 
HETATM    9  N   UNK     0     -10.419  -8.747  17.748  0.00  0.00    -0.361 N 
HETATM   10  C   UNK     0      -9.935  -9.974  17.461  0.00  0.00     0.022 A 
HETATM   11  C   UNK     0     -10.330 -10.342  16.178  0.00  0.00    -0.027 A 
HETATM   12  C   UNK     0     -11.070  -9.299  15.682  0.00  0.00    -0.031 A 
HETATM   13  C   UNK     0     -11.713  -9.257  14.314  0.00  0.00     0.051 C 
HETATM   14  C   UNK     0      -9.039 -10.822  18.359  0.00  0.00     0.115 C 
HETATM   15  C   UNK     0      -7.707 -10.170  18.693  0.00  0.00     0.021 A 
HETATM   16  N   UNK     0      -7.501  -8.988  19.305  0.00  0.00    -0.361 N 
HETATM   17  C   UNK     0      -6.191  -8.739  19.348  0.00  0.00     0.022 A 
HETATM   18  C   UNK     0      -5.509  -9.815  18.745  0.00  0.00    -0.027 A 
HETATM   19  C   UNK     0      -6.470 -10.705  18.340  0.00  0.00    -0.031 A 
HETATM   20  C   UNK     0      -6.163 -12.031  17.670  0.00  0.00     0.051 C 
HETATM   21  C   UNK     0      -5.449  -7.526  19.861  0.00  0.00     0.115 C 
HETATM   22  C   UNK     0      -6.115  -6.180  19.696  0.00  0.00     0.022 A 
HETATM   23  N   UNK     0      -6.810  -5.721  18.648  0.00  0.00    -0.361 N 
HETATM   24  C   UNK     0      -7.348  -4.531  18.985  0.00  0.00     0.021 A 
HETATM   25  C   UNK     0      -6.982  -4.212  20.278  0.00  0.00    -0.031 A 
HETATM   26  C   UNK     0      -7.304  -2.969  21.081  0.00  0.00     0.051 C 
HETATM   27  C   UNK     0      -6.192  -5.252  20.754  0.00  0.00    -0.027 A 
HETATM   28  C   UNK     0      -8.291  -3.670  18.161  0.00  0.00     0.115 C 
HETATM   29  H   UNK     0      -8.948  -6.025  16.518  0.00  0.00     0.165 HD
HETATM   30  H   UNK     0     -10.315  -8.212  18.723  0.00  0.00     0.165 HD
HETATM   31  H   UNK     0      -8.294  -8.338  19.758  0.00  0.00     0.165 HD
HETATM   32  H   UNK     0      -6.893  -6.212  17.644  0.00  0.00     0.165 HD
ENDROOT
BRANCH   6  33
HETATM   33  C   UNK     0     -13.237  -4.691  18.065  0.00  0.00     0.051 C 
BRANCH  33  34
HETATM   34  C   UNK     0     -13.984  -4.232  16.835  0.00  0.00     0.114 C 
BRANCH  34  35
HETATM   35  C   UNK     0     -15.095  -5.198  16.601  0.00  0.00     0.139 C 
HETATM   36  O   UNK     0     -15.831  -5.087  15.577  0.00  0.00    -0.650 OA
BRANCH  35  37
HETATM   37  O   UNK     0     -15.373  -6.245  17.471  0.00  0.00    -0.776 OA
HETATM   38  H   UNK     0     -14.741  -6.509  18.210  0.00  0.00     0.167 HD
ENDBRANCH  35  37
ENDBRANCH  34  35
ENDBRANCH  33  34
ENDBRANCH   6  33
BRANCH  27  39
HETATM   39  C   UNK     0      -5.548  -5.232  22.096  0.00  0.00     0.051 C 
BRANCH  39  40
HETATM   40  C   UNK     0      -4.155  -4.796  22.191  0.00  0.00     0.114 C 
BRANCH  40  41
HETATM   41  C   UNK     0      -3.704  -3.870  23.205  0.00  0.00     0.139 C 
HETATM   42  O   UNK     0      -3.440  -4.204  24.367  0.00  0.00    -0.650 OA
BRANCH  41  43
HETATM   43  O   UNK     0      -3.552  -2.495  22.866  0.00  0.00    -0.776 OA
HETATM   44  H   UNK     0      -4.347  -1.914  23.104  0.00  0.00     0.167 HD
ENDBRANCH  41  43
ENDBRANCH  40  41
ENDBRANCH  39  40
ENDBRANCH  27  39
BRANCH  11  45
HETATM   45  C   UNK     0     -10.039 -11.617  15.433  0.00  0.00     0.051 C 
BRANCH  45  46
HETATM   46  C   UNK     0      -8.668 -11.687  14.865  0.00  0.00     0.114 C 
BRANCH  46  47
HETATM   47  C   UNK     0      -8.747 -12.509  13.623  0.00  0.00     0.139 C 
HETATM   48  O   UNK     0      -8.004 -13.495  13.518  0.00  0.00    -0.650 OA
BRANCH  47  49
HETATM   49  O   UNK     0      -9.620 -12.181  12.617  0.00  0.00    -0.776 OA
HETATM   50  H   UNK     0     -10.441 -11.586  12.780  0.00  0.00     0.167 HD
ENDBRANCH  47  49
ENDBRANCH  46  47
ENDBRANCH  45  46
ENDBRANCH  11  45
BRANCH  18  51
HETATM   51  C   UNK     0      -4.022  -9.994  18.582  0.00  0.00     0.051 C 
BRANCH  51  52
HETATM   52  C   UNK     0      -3.546 -10.746  19.817  0.00  0.00     0.114 C 
BRANCH  52  53
HETATM   53  C   UNK     0      -3.154 -12.133  19.498  0.00  0.00     0.139 C 
HETATM   54  O   UNK     0      -2.617 -12.392  18.409  0.00  0.00    -0.650 OA
BRANCH  53  55
HETATM   55  O   UNK     0      -3.388 -13.132  20.411  0.00  0.00    -0.776 OA
HETATM   56  H   UNK     0      -4.036 -13.878  20.307  0.00  0.00     0.167 HD
ENDBRANCH  53  55
ENDBRANCH  52  53
ENDBRANCH  51  52
ENDBRANCH  18  51
TORSDOF 16
ENDMDL
MODEL 2
REMARK VINA RESULT:     -10.0      2.678      8.145
REMARK  16 active torsions:
REMARK  status: ('A' for Active; 'I' for Inactive)
REMARK    1  A    between atoms: C_6  and  C_7 
REMARK    2  A    between atoms: C_7  and  C_8 
REMARK    3  A    between atoms: C_8  and  C_9 
REMARK    4  A    between atoms: C_9  and  O_11 
REMARK    5  A    between atoms: C_16  and  C_17 
REMARK    6  A    between atoms: C_17  and  C_18 
REMARK    7  A    between atoms: C_18  and  C_19 
REMARK    8  A    between atoms: C_19  and  O_21 
REMARK    9  A    between atoms: C_28  and  C_29 
REMARK   10  A    between atoms: C_29  and  C_30 
REMARK   11  A    between atoms: C_30  and  C_31 
REMARK   12  A    between atoms: C_31  and  O_33 
REMARK   13  A    between atoms: C_42  and  C_43 
REMARK   14  A    between atoms: C_43  and  C_44 
REMARK   15  A    between atoms: C_44  and  C_45 
REMARK   16  A    between atoms: C_45  and  O_47 
ROOT
HETATM    1  C   UNK     0     -10.306  -5.814  16.228  0.00  0.00     0.051 C 
HETATM    2  C   UNK     0      -9.620  -5.756  17.578  0.00  0.00    -0.031 A 
HETATM    3  C   UNK     0      -9.391  -6.773  18.492  0.00  0.00     0.021 A 
HETATM    4  N   UNK     0      -8.770  -6.256  19.579  0.00  0.00    -0.361 N 
HETATM    5  C   UNK     0      -8.591  -4.935  19.374  0.00  0.00     0.022 A 
HETATM    6  C   UNK     0      -9.114  -4.588  18.133  0.00  0.00    -0.027 A 
HETATM    7  C   UNK     0      -7.878  -3.928  20.221  0.00  0.00     0.115 C 
HETATM    8  C   UNK     0      -6.557  -4.364  20.831  0.00  0.00     0.021 A 
HETATM    9  N   UNK     0      -5.617  -5.165  20.305  0.00  0.00    -0.361 N 
HETATM   10  C   UNK     0      -4.658  -5.352  21.236  0.00  0.00     0.022 A 
HETATM   11  C   UNK     0      -4.984  -4.645  22.390  0.00  0.00    -0.027 A 
HETATM   12  C   UNK     0      -6.179  -4.020  22.141  0.00  0.00    -0.031 A 
HETATM   13  C   UNK     0      -6.919  -3.131  23.115  0.00  0.00     0.051 C 
HETATM   14  C   UNK     0      -3.427  -6.244  21.095  0.00  0.00     0.115 C 
HETATM   15  C   UNK     0      -3.753  -7.711  20.867  0.00  0.00     0.021 A 
HETATM   16  N   UNK     0      -4.474  -8.246  19.863  0.00  0.00    -0.361 N 
HETATM   17  C   UNK     0      -4.590  -9.561  20.059  0.00  0.00     0.022 A 
HETATM   18  C   UNK     0      -3.904  -9.901  21.242  0.00  0.00    -0.027 A 
HETATM   19  C   UNK     0      -3.383  -8.734  21.738  0.00  0.00    -0.031 A 
HETATM   20  C   UNK     0      -2.533  -8.655  22.993  0.00  0.00     0.051 C 
HETATM   21  C   UNK     0      -5.354 -10.598  19.267  0.00  0.00     0.115 C 
HETATM   22  C   UNK     0      -6.648 -10.166  18.618  0.00  0.00     0.022 A 
HETATM   23  N   UNK     0      -7.600  -9.366  19.116  0.00  0.00    -0.361 N 
HETATM   24  C   UNK     0      -8.506  -9.131  18.146  0.00  0.00     0.021 A 
HETATM   25  C   UNK     0      -8.133  -9.804  16.998  0.00  0.00    -0.031 A 
HETATM   26  C   UNK     0      -8.847  -9.881  15.664  0.00  0.00     0.051 C 
HETATM   27  C   UNK     0      -6.947 -10.474  17.276  0.00  0.00    -0.027 A 
HETATM   28  C   UNK     0      -9.713  -8.212  18.205  0.00  0.00     0.115 C 
HETATM   29  H   UNK     0      -8.499  -6.822  20.501  0.00  0.00     0.165 HD
HETATM   30  H   UNK     0      -5.603  -5.560  19.260  0.00  0.00     0.165 HD
HETATM   31  H   UNK     0      -4.869  -7.692  18.972  0.00  0.00     0.165 HD
HETATM   32  H   UNK     0      -7.664  -8.995  20.172  0.00  0.00     0.165 HD
ENDROOT
BRANCH   6  33
HETATM   33  C   UNK     0      -9.171  -3.248  17.444  0.00  0.00     0.051 C 
BRANCH  33  34
HETATM   34  C   UNK     0     -10.346  -2.440  17.940  0.00  0.00     0.114 C 
BRANCH  34  35
HETATM   35  C   UNK     0      -9.851  -1.065  18.234  0.00  0.00     0.139 C 
HETATM   36  O   UNK     0     -10.669  -0.135  18.495  0.00  0.00    -0.650 OA
BRANCH  35  37
HETATM   37  O   UNK     0      -8.500  -0.741  18.240  0.00  0.00    -0.776 OA
HETATM   38  H   UNK     0      -8.096  -0.144  18.945  0.00  0.00     0.167 HD
ENDBRANCH  35  37
ENDBRANCH  34  35
ENDBRANCH  33  34
ENDBRANCH   6  33
BRANCH  27  39
HETATM   39  C   UNK     0      -6.274 -11.369  16.296  0.00  0.00     0.051 C 
BRANCH  39  40
HETATM   40  C   UNK     0      -6.649 -12.783  16.277  0.00  0.00     0.114 C 
BRANCH  40  41
HETATM   41  C   UNK     0      -7.334 -13.383  15.155  0.00  0.00     0.139 C 
HETATM   42  O   UNK     0      -7.486 -12.816  14.064  0.00  0.00    -0.650 OA
BRANCH  41  43
HETATM   43  O   UNK     0      -7.871 -14.695  15.294  0.00  0.00    -0.776 OA
HETATM   44  H   UNK     0      -8.875 -14.725  15.424  0.00  0.00     0.167 HD
ENDBRANCH  41  43
ENDBRANCH  40  41
ENDBRANCH  39  40
ENDBRANCH  27  39
BRANCH  11  45
HETATM   45  C   UNK     0      -4.217  -4.544  23.681  0.00  0.00     0.051 C 
BRANCH  45  46
HETATM   46  C   UNK     0      -3.113  -3.551  23.655  0.00  0.00     0.114 C 
BRANCH  46  47
HETATM   47  C   UNK     0      -1.986  -4.122  24.446  0.00  0.00     0.139 C 
HETATM   48  O   UNK     0      -1.186  -3.344  24.985  0.00  0.00    -0.650 OA
BRANCH  47  49
HETATM   49  O   UNK     0      -1.836  -5.479  24.576  0.00  0.00    -0.776 OA
HETATM   50  H   UNK     0      -2.482  -6.049  25.135  0.00  0.00     0.167 HD
ENDBRANCH  47  49
ENDBRANCH  46  47
ENDBRANCH  45  46
ENDBRANCH  11  45
BRANCH  18  51
HETATM   51  C   UNK     0      -3.736 -11.267  21.855  0.00  0.00     0.051 C 
BRANCH  51  52
HETATM   52  C   UNK     0      -4.766 -11.363  22.971  0.00  0.00     0.114 C 
BRANCH  52  53
HETATM   53  C   UNK     0      -5.589 -12.582  22.856  0.00  0.00     0.139 C 
HETATM   54  O   UNK     0      -5.895 -13.022  21.736  0.00  0.00    -0.650 OA
BRANCH  53  55
HETATM   55  O   UNK     0      -6.016 -13.224  23.993  0.00  0.00    -0.776 OA
HETATM   56  H   UNK     0      -5.617 -13.136  24.898  0.00  0.00     0.167 HD
ENDBRANCH  53  55
ENDBRANCH  52  53
ENDBRANCH  51  52
ENDBRANCH  18  51
TORSDOF 16
ENDMDL
MODEL 3
REMARK VINA RESULT:      -9.7      2.287      5.148
REMARK  16 active torsions:
REMARK  status: ('A' for Active; 'I' for Inactive)
REMARK    1  A    between atoms: C_6  and  C_7 
REMARK    2  A    between atoms: C_7  and  C_8 
REMARK    3  A    between atoms: C_8  and  C_9 
REMARK    4  A    between atoms: C_9  and  O_11 
REMARK    5  A    between atoms: C_16  and  C_17 
REMARK    6  A    between atoms: C_17  and  C_18 
REMARK    7  A    between atoms: C_18  and  C_19 
REMARK    8  A    between atoms: C_19  and  O_21 
REMARK    9  A    between atoms: C_28  and  C_29 
REMARK   10  A    between atoms: C_29  and  C_30 
REMARK   11  A    between atoms: C_30  and  C_31 
REMARK   12  A    between atoms: C_31  and  O_33 
REMARK   13  A    between atoms: C_42  and  C_43 
REMARK   14  A    between atoms: C_43  and  C_44 
REMARK   15  A    between atoms: C_44  and  C_45 
REMARK   16  A    between atoms: C_45  and  O_47 
ROOT
HETATM    1  C   UNK     0     -11.501  -6.346  16.165  0.00  0.00     0.051 C 
HETATM    2  C   UNK     0     -10.296  -7.242  16.363  0.00  0.00    -0.031 A 
HETATM    3  C   UNK     0      -8.960  -6.901  16.505  0.00  0.00     0.021 A 
HETATM    4  N   UNK     0      -8.226  -8.033  16.628  0.00  0.00    -0.361 N 
HETATM    5  C   UNK     0      -9.066  -9.087  16.576  0.00  0.00     0.022 A 
HETATM    6  C   UNK     0     -10.369  -8.628  16.408  0.00  0.00    -0.027 A 
HETATM    7  C   UNK     0      -8.777 -10.545  16.755  0.00  0.00     0.115 C 
HETATM    8  C   UNK     0      -7.825 -10.917  17.878  0.00  0.00     0.021 A 
HETATM    9  N   UNK     0      -7.689 -10.343  19.083  0.00  0.00    -0.361 N 
HETATM   10  C   UNK     0      -6.659 -10.943  19.719  0.00  0.00     0.022 A 
HETATM   11  C   UNK     0      -6.124 -11.936  18.904  0.00  0.00    -0.027 A 
HETATM   12  C   UNK     0      -6.854 -11.925  17.743  0.00  0.00    -0.031 A 
HETATM   13  C   UNK     0      -6.632 -12.844  16.562  0.00  0.00     0.051 C 
HETATM   14  C   UNK     0      -6.107 -10.569  21.092  0.00  0.00     0.115 C 
HETATM   15  C   UNK     0      -5.575  -9.147  21.175  0.00  0.00     0.021 A 
HETATM   16  N   UNK     0      -6.245  -8.004  20.938  0.00  0.00    -0.361 N 
HETATM   17  C   UNK     0      -5.406  -6.972  21.049  0.00  0.00     0.022 A 
HETATM   18  C   UNK     0      -4.130  -7.466  21.385  0.00  0.00    -0.027 A 
HETATM   19  C   UNK     0      -4.249  -8.830  21.462  0.00  0.00    -0.031 A 
HETATM   20  C   UNK     0      -3.108  -9.757  21.837  0.00  0.00     0.051 C 
HETATM   21  C   UNK     0      -5.641  -5.498  20.813  0.00  0.00     0.115 C 
HETATM   22  C   UNK     0      -6.619  -5.113  19.727  0.00  0.00     0.022 A 
HETATM   23  N   UNK     0      -6.780  -5.669  18.520  0.00  0.00    -0.361 N 
HETATM   24  C   UNK     0      -7.860  -5.110  17.936  0.00  0.00     0.021 A 
HETATM   25  C   UNK     0      -8.401  -4.164  18.785  0.00  0.00    -0.031 A 
HETATM   26  C   UNK     0      -9.587  -3.249  18.560  0.00  0.00     0.051 C 
HETATM   27  C   UNK     0      -7.624  -4.147  19.938  0.00  0.00    -0.027 A 
HETATM   28  C   UNK     0      -8.491  -5.477  16.604  0.00  0.00     0.115 C 
HETATM   29  H   UNK     0      -7.116  -8.080  16.710  0.00  0.00     0.165 HD
HETATM   30  H   UNK     0      -8.349  -9.549  19.509  0.00  0.00     0.165 HD
HETATM   31  H   UNK     0      -7.345  -7.919  20.734  0.00  0.00     0.165 HD
HETATM   32  H   UNK     0      -6.107  -6.432  18.049  0.00  0.00     0.165 HD
ENDROOT
BRANCH   6  33
HETATM   33  C   UNK     0     -11.660  -9.397  16.286  0.00  0.00     0.051 C 
BRANCH  33  34
HETATM   34  C   UNK     0     -11.932  -9.761  14.846  0.00  0.00     0.114 C 
BRANCH  34  35
HETATM   35  C   UNK     0     -12.175 -11.231  14.795  0.00  0.00     0.139 C 
HETATM   36  O   UNK     0     -11.201 -12.036  14.729  0.00  0.00    -0.650 OA
BRANCH  35  37
HETATM   37  O   UNK     0     -13.451 -11.781  14.819  0.00  0.00    -0.776 OA
HETATM   38  H   UNK     0     -13.958 -11.994  13.975  0.00  0.00     0.167 HD
ENDBRANCH  35  37
ENDBRANCH  34  35
ENDBRANCH  33  34
ENDBRANCH   6  33
BRANCH  27  39
HETATM   39  C   UNK     0      -7.859  -3.198  21.060  0.00  0.00     0.051 C 
BRANCH  39  40
HETATM   40  C   UNK     0      -6.913  -2.098  21.247  0.00  0.00     0.114 C 
BRANCH  40  41
HETATM   41  C   UNK     0      -5.925  -2.103  22.303  0.00  0.00     0.139 C 
HETATM   42  O   UNK     0      -6.201  -2.280  23.497  0.00  0.00    -0.650 OA
BRANCH  41  43
HETATM   43  O   UNK     0      -4.557  -1.894  21.969  0.00  0.00    -0.776 OA
HETATM   44  H   UNK     0      -3.993  -1.523  22.725  0.00  0.00     0.167 HD
ENDBRANCH  41  43
ENDBRANCH  40  41
ENDBRANCH  39  40
ENDBRANCH  27  39
BRANCH  11  45
HETATM   45  C   UNK     0      -4.977 -12.869  19.186  0.00  0.00     0.051 C 
BRANCH  45  46
HETATM   46  C   UNK     0      -3.640 -12.286  18.908  0.00  0.00     0.114 C 
BRANCH  46  47
HETATM   47  C   UNK     0      -2.699 -13.423  18.691  0.00  0.00     0.139 C 
HETATM   48  O   UNK     0      -1.604 -13.192  18.161  0.00  0.00    -0.650 OA
BRANCH  47  49
HETATM   49  O   UNK     0      -3.039 -14.698  19.068  0.00  0.00    -0.776 OA
HETATM   50  H   UNK     0      -3.624 -14.885  19.891  0.00  0.00     0.167 HD
ENDBRANCH  47  49
ENDBRANCH  46  47
ENDBRANCH  45  46
ENDBRANCH  11  45
BRANCH  18  51
HETATM   51  C   UNK     0      -2.870  -6.680  21.639  0.00  0.00     0.051 C 
BRANCH  51  52
HETATM   52  C   UNK     0      -2.922  -6.251  23.098  0.00  0.00     0.114 C 
BRANCH  52  53
HETATM   53  C   UNK     0      -3.117  -4.794  23.235  0.00  0.00     0.139 C 
HETATM   54  O   UNK     0      -2.437  -4.010  22.555  0.00  0.00    -0.650 OA
BRANCH  53  55
HETATM   55  O   UNK     0      -4.050  -4.314  24.122  0.00  0.00    -0.776 OA
HETATM   56  H   UNK     0      -4.934  -4.721  24.316  0.00  0.00     0.167 HD
ENDBRANCH  53  55
ENDBRANCH  52  53
ENDBRANCH  51  52
ENDBRANCH  18  51
TORSDOF 16
ENDMDL
MODEL 4
REMARK VINA RESULT:      -9.7      2.733     10.565
REMARK  16 active torsions:
REMARK  status: ('A' for Active; 'I' for Inactive)
REMARK    1  A    between atoms: C_6  and  C_7 
REMARK    2  A    between atoms: C_7  and  C_8 
REMARK    3  A    between atoms: C_8  and  C_9 
REMARK    4  A    between atoms: C_9  and  O_11 
REMARK    5  A    between atoms: C_16  and  C_17 
REMARK    6  A    between atoms: C_17  and  C_18 
REMARK    7  A    between atoms: C_18  and  C_19 
REMARK    8  A    between atoms: C_19  and  O_21 
REMARK    9  A    between atoms: C_28  and  C_29 
REMARK   10  A    between atoms: C_29  and  C_30 
REMARK   11  A    between atoms: C_30  and  C_31 
REMARK   12  A    between atoms: C_31  and  O_33 
REMARK   13  A    between atoms: C_42  and  C_43 
REMARK   14  A    between atoms: C_43  and  C_44 
REMARK   15  A    between atoms: C_44  and  C_45 
REMARK   16  A    between atoms: C_45  and  O_47 
ROOT
HETATM    1  C   UNK     0      -4.439 -13.721  19.981  0.00  0.00     0.051 C 
HETATM    2  C   UNK     0      -4.133 -12.242  20.100  0.00  0.00    -0.031 A 
HETATM    3  C   UNK     0      -4.138 -11.261  19.122  0.00  0.00     0.021 A 
HETATM    4  N   UNK     0      -3.770 -10.082  19.677  0.00  0.00    -0.361 N 
HETATM    5  C   UNK     0      -3.540 -10.289  20.990  0.00  0.00     0.022 A 
HETATM    6  C   UNK     0      -3.755 -11.630  21.288  0.00  0.00    -0.027 A 
HETATM    7  C   UNK     0      -3.201  -9.303  22.065  0.00  0.00     0.115 C 
HETATM    8  C   UNK     0      -3.966  -7.991  22.051  0.00  0.00     0.021 A 
HETATM    9  N   UNK     0      -5.247  -7.774  21.715  0.00  0.00    -0.361 N 
HETATM   10  C   UNK     0      -5.473  -6.444  21.761  0.00  0.00     0.022 A 
HETATM   11  C   UNK     0      -4.308  -5.787  22.147  0.00  0.00    -0.027 A 
HETATM   12  C   UNK     0      -3.355  -6.756  22.332  0.00  0.00    -0.031 A 
HETATM   13  C   UNK     0      -1.927  -6.507  22.763  0.00  0.00     0.051 C 
HETATM   14  C   UNK     0      -6.774  -5.737  21.393  0.00  0.00     0.115 C 
HETATM   15  C   UNK     0      -7.203  -5.948  19.950  0.00  0.00     0.021 A 
HETATM   16  N   UNK     0      -7.456  -7.116  19.331  0.00  0.00    -0.361 N 
HETATM   17  C   UNK     0      -7.735  -6.880  18.047  0.00  0.00     0.022 A 
HETATM   18  C   UNK     0      -7.670  -5.491  17.821  0.00  0.00    -0.027 A 
HETATM   19  C   UNK     0      -7.337  -4.918  19.021  0.00  0.00    -0.031 A 
HETATM   20  C   UNK     0      -7.197  -3.422  19.232  0.00  0.00     0.051 C 
HETATM   21  C   UNK     0      -8.015  -7.848  16.920  0.00  0.00     0.115 C 
HETATM   22  C   UNK     0      -7.294  -9.175  16.944  0.00  0.00     0.022 A 
HETATM   23  N   UNK     0      -6.021  -9.422  17.279  0.00  0.00    -0.361 N 
HETATM   24  C   UNK     0      -5.840 -10.758  17.301  0.00  0.00     0.021 A 
HETATM   25  C   UNK     0      -7.023 -11.386  16.963  0.00  0.00    -0.031 A 
HETATM   26  C   UNK     0      -7.307 -12.867  16.813  0.00  0.00     0.051 C 
HETATM   27  C   UNK     0      -7.968 -10.394  16.729  0.00  0.00    -0.027 A 
HETATM   28  C   UNK     0      -4.592 -11.520  17.713  0.00  0.00     0.115 C 
HETATM   29  H   UNK     0      -3.637  -9.120  19.130  0.00  0.00     0.165 HD
HETATM   30  H   UNK     0      -6.008  -8.561  21.492  0.00  0.00     0.165 HD
HETATM   31  H   UNK     0      -7.485  -8.124  19.820  0.00  0.00     0.165 HD
HETATM   32  H   UNK     0      -5.225  -8.653  17.460  0.00  0.00     0.165 HD
ENDROOT
BRANCH   6  33
HETATM   33  C   UNK     0      -3.627 -12.366  22.599  0.00  0.00     0.051 C 
BRANCH  33  34
HETATM   34  C   UNK     0      -4.787 -12.040  23.510  0.00  0.00     0.114 C 
BRANCH  34  35
HETATM   35  C   UNK     0      -4.241 -11.886  24.889  0.00  0.00     0.139 C 
HETATM   36  O   UNK     0      -3.117 -11.334  25.072  0.00  0.00    -0.650 OA
BRANCH  35  37
HETATM   37  O   UNK     0      -4.921 -12.328  26.018  0.00  0.00    -0.776 OA
HETATM   38  H   UNK     0      -4.439 -12.667  26.834  0.00  0.00     0.167 HD
ENDBRANCH  35  37
ENDBRANCH  34  35
ENDBRANCH  33  34
ENDBRANCH   6  33
BRANCH  27  39
HETATM   39  C   UNK     0      -9.353 -10.686  16.269  0.00  0.00     0.051 C 
BRANCH  39  40
HETATM   40  C   UNK     0      -9.624 -10.675  14.832  0.00  0.00     0.114 C 
BRANCH  40  41
HETATM   41  C   UNK     0      -9.843 -11.889  14.079  0.00  0.00     0.139 C 
HETATM   42  O   UNK     0      -9.951 -13.007  14.602  0.00  0.00    -0.650 OA
BRANCH  41  43
HETATM   43  O   UNK     0      -9.941 -11.815  12.661  0.00  0.00    -0.776 OA
HETATM   44  H   UNK     0      -9.242 -12.354  12.164  0.00  0.00     0.167 HD
ENDBRANCH  41  43
ENDBRANCH  40  41
ENDBRANCH  39  40
ENDBRANCH  27  39
BRANCH  11  45
HETATM   45  C   UNK     0      -4.079  -4.313  22.344  0.00  0.00     0.051 C 
BRANCH  45  46
HETATM   46  C   UNK     0      -4.092  -3.881  23.765  0.00  0.00     0.114 C 
BRANCH  46  47
HETATM   47  C   UNK     0      -5.520  -3.749  24.173  0.00  0.00     0.139 C 
HETATM   48  O   UNK     0      -6.161  -2.765  23.777  0.00  0.00    -0.650 OA
BRANCH  47  49
HETATM   49  O   UNK     0      -6.114  -4.696  24.970  0.00  0.00    -0.776 OA
HETATM   50  H   UNK     0      -6.414  -5.606  24.603  0.00  0.00     0.167 HD
ENDBRANCH  47  49
ENDBRANCH  46  47
ENDBRANCH  45  46
ENDBRANCH  11  45
BRANCH  18  51
HETATM   51  C   UNK     0      -7.932  -4.748  16.536  0.00  0.00     0.051 C 
BRANCH  51  52
HETATM   52  C   UNK     0      -9.442  -4.597  16.432  0.00  0.00     0.114 C 
BRANCH  52  53
HETATM   53  C   UNK     0      -9.890  -3.254  16.849  0.00  0.00     0.139 C 
HETATM   54  O   UNK     0      -9.403  -2.244  16.317  0.00  0.00    -0.650 OA
BRANCH  53  55
HETATM   55  O   UNK     0     -10.845  -3.130  17.828  0.00  0.00    -0.776 OA
HETATM   56  H   UNK     0     -11.085  -3.820  18.501  0.00  0.00     0.167 HD
ENDBRANCH  53  55
ENDBRANCH  52  53
ENDBRANCH  51  52
ENDBRANCH  18  51
TORSDOF 16
ENDMDL
MODEL 5
REMARK VINA RESULT:      -9.6      2.217     10.204
REMARK  16 active torsions:
REMARK  status: ('A' for Active; 'I' for Inactive)
REMARK    1  A    between atoms: C_6  and  C_7 
REMARK    2  A    between atoms: C_7  and  C_8 
REMARK    3  A    between atoms: C_8  and  C_9 
REMARK    4  A    between atoms: C_9  and  O_11 
REMARK    5  A    between atoms: C_16  and  C_17 
REMARK    6  A    between atoms: C_17  and  C_18 
REMARK    7  A    between atoms: C_18  and  C_19 
REMARK    8  A    between atoms: C_19  and  O_21 
REMARK    9  A    between atoms: C_28  and  C_29 
REMARK   10  A    between atoms: C_29  and  C_30 
REMARK   11  A    between atoms: C_30  and  C_31 
REMARK   12  A    between atoms: C_31  and  O_33 
REMARK   13  A    between atoms: C_42  and  C_43 
REMARK   14  A    between atoms: C_43  and  C_44 
REMARK   15  A    between atoms: C_44  and  C_45 
REMARK   16  A    between atoms: C_45  and  O_47 
ROOT
HETATM    1  C   UNK     0      -5.967 -13.604  16.782  0.00  0.00     0.051 C 
HETATM    2  C   UNK     0      -5.744 -12.180  17.249  0.00  0.00    -0.031 A 
HETATM    3  C   UNK     0      -6.013 -10.988  16.596  0.00  0.00     0.021 A 
HETATM    4  N   UNK     0      -5.621  -9.956  17.380  0.00  0.00    -0.361 N 
HETATM    5  C   UNK     0      -5.115 -10.465  18.523  0.00  0.00     0.022 A 
HETATM    6  C   UNK     0      -5.174 -11.853  18.473  0.00  0.00    -0.027 A 
HETATM    7  C   UNK     0      -4.633  -9.755  19.749  0.00  0.00     0.115 C 
HETATM    8  C   UNK     0      -5.472  -8.586  20.234  0.00  0.00     0.021 A 
HETATM    9  N   UNK     0      -6.806  -8.444  20.203  0.00  0.00    -0.361 N 
HETATM   10  C   UNK     0      -7.107  -7.208  20.654  0.00  0.00     0.022 A 
HETATM   11  C   UNK     0      -5.935  -6.538  20.993  0.00  0.00    -0.027 A 
HETATM   12  C   UNK     0      -4.901  -7.400  20.731  0.00  0.00    -0.031 A 
HETATM   13  C   UNK     0      -3.436  -7.101  20.953  0.00  0.00     0.051 C 
HETATM   14  C   UNK     0      -8.501  -6.591  20.732  0.00  0.00     0.115 C 
HETATM   15  C   UNK     0      -9.199  -6.474  19.386  0.00  0.00     0.021 A 
HETATM   16  N   UNK     0      -9.492  -7.465  18.524  0.00  0.00    -0.361 N 
HETATM   17  C   UNK     0     -10.042  -6.942  17.425  0.00  0.00     0.022 A 
HETATM   18  C   UNK     0     -10.118  -5.544  17.583  0.00  0.00    -0.027 A 
HETATM   19  C   UNK     0      -9.588  -5.264  18.816  0.00  0.00    -0.031 A 
HETATM   20  C   UNK     0      -9.510  -3.866  19.403  0.00  0.00     0.051 C 
HETATM   21  C   UNK     0     -10.479  -7.614  16.144  0.00  0.00     0.115 C 
HETATM   22  C   UNK     0      -9.680  -8.806  15.673  0.00  0.00     0.022 A 
HETATM   23  N   UNK     0      -8.352  -8.976  15.695  0.00  0.00    -0.361 N 
HETATM   24  C   UNK     0      -8.080 -10.241  15.316  0.00  0.00     0.021 A 
HETATM   25  C   UNK     0      -9.262 -10.899  15.033  0.00  0.00    -0.031 A 
HETATM   26  C   UNK     0      -9.469 -12.314  14.534  0.00  0.00     0.051 C 
HETATM   27  C   UNK     0     -10.300 -10.001  15.253  0.00  0.00    -0.027 A 
HETATM   28  C   UNK     0      -6.726 -10.928  15.274  0.00  0.00     0.115 C 
HETATM   29  H   UNK     0      -5.668  -8.877  17.105  0.00  0.00     0.165 HD
HETATM   30  H   UNK     0      -7.542  -9.233  19.911  0.00  0.00     0.165 HD
HETATM   31  H   UNK     0      -9.353  -8.561  18.713  0.00  0.00     0.165 HD
HETATM   32  H   UNK     0      -7.590  -8.190  15.938  0.00  0.00     0.165 HD
ENDROOT
BRANCH   6  33
HETATM   33  C   UNK     0      -4.734 -12.880  19.485  0.00  0.00     0.051 C 
BRANCH  33  34
HETATM   34  C   UNK     0      -5.901 -13.333  20.330  0.00  0.00     0.114 C 
BRANCH  34  35
HETATM   35  C   UNK     0      -5.651 -12.868  21.724  0.00  0.00     0.139 C 
HETATM   36  O   UNK     0      -4.505 -12.449  22.060  0.00  0.00    -0.650 OA
BRANCH  35  37
HETATM   37  O   UNK     0      -6.637 -12.867  22.703  0.00  0.00    -0.776 OA
HETATM   38  H   UNK     0      -6.418 -12.789  23.683  0.00  0.00     0.167 HD
ENDBRANCH  35  37
ENDBRANCH  34  35
ENDBRANCH  33  34
ENDBRANCH   6  33
BRANCH  27  39
HETATM   39  C   UNK     0     -11.726 -10.329  14.984  0.00  0.00     0.051 C 
BRANCH  39  40
HETATM   40  C   UNK     0     -12.264 -11.578  15.522  0.00  0.00     0.114 C 
BRANCH  40  41
HETATM   41  C   UNK     0     -13.405 -12.242  14.933  0.00  0.00     0.139 C 
HETATM   42  O   UNK     0     -13.551 -12.397  13.713  0.00  0.00    -0.650 OA
BRANCH  41  43
HETATM   43  O   UNK     0     -14.425 -12.752  15.786  0.00  0.00    -0.776 OA
HETATM   44  H   UNK     0     -15.286 -12.219  15.774  0.00  0.00     0.167 HD
ENDBRANCH  41  43
ENDBRANCH  40  41
ENDBRANCH  39  40
ENDBRANCH  27  39
BRANCH  11  45
HETATM   45  C   UNK     0      -5.771  -5.147  21.544  0.00  0.00     0.051 C 
BRANCH  45  46
HETATM   46  C   UNK     0      -6.167  -4.070  20.600  0.00  0.00     0.114 C 
BRANCH  46  47
HETATM   47  C   UNK     0      -6.620  -2.909  21.419  0.00  0.00     0.139 C 
HETATM   48  O   UNK     0      -7.327  -3.126  22.413  0.00  0.00    -0.650 OA
BRANCH  47  49
HETATM   49  O   UNK     0      -6.263  -1.629  21.080  0.00  0.00    -0.776 OA
HETATM   50  H   UNK     0      -6.031  -1.365  20.115  0.00  0.00     0.167 HD
ENDBRANCH  47  49
ENDBRANCH  46  47
ENDBRANCH  45  46
ENDBRANCH  11  45
BRANCH  18  51
HETATM   51  C   UNK     0     -10.685  -4.533  16.621  0.00  0.00     0.051 C 
BRANCH  51  52
HETATM   52  C   UNK     0     -12.098  -4.234  17.100  0.00  0.00     0.114 C 
BRANCH  52  53
HETATM   53  C   UNK     0     -13.116  -4.826  16.210  0.00  0.00     0.139 C 
HETATM   54  O   UNK     0     -13.692  -5.876  16.537  0.00  0.00    -0.650 OA
BRANCH  53  55
HETATM   55  O   UNK     0     -13.419  -4.211  15.020  0.00  0.00    -0.776 OA
HETATM   56  H   UNK     0     -12.832  -4.165  14.221  0.00  0.00     0.167 HD
ENDBRANCH  53  55
ENDBRANCH  52  53
ENDBRANCH  51  52
ENDBRANCH  18  51
TORSDOF 16
ENDMDL
MODEL 6
REMARK VINA RESULT:      -9.5      2.126     10.274
REMARK  16 active torsions:
REMARK  status: ('A' for Active; 'I' for Inactive)
REMARK    1  A    between atoms: C_6  and  C_7 
REMARK    2  A    between atoms: C_7  and  C_8 
REMARK    3  A    between atoms: C_8  and  C_9 
REMARK    4  A    between atoms: C_9  and  O_11 
REMARK    5  A    between atoms: C_16  and  C_17 
REMARK    6  A    between atoms: C_17  and  C_18 
REMARK    7  A    between atoms: C_18  and  C_19 
REMARK    8  A    between atoms: C_19  and  O_21 
REMARK    9  A    between atoms: C_28  and  C_29 
REMARK   10  A    between atoms: C_29  and  C_30 
REMARK   11  A    between atoms: C_30  and  C_31 
REMARK   12  A    between atoms: C_31  and  O_33 
REMARK   13  A    between atoms: C_42  and  C_43 
REMARK   14  A    between atoms: C_43  and  C_44 
REMARK   15  A    between atoms: C_44  and  C_45 
REMARK   16  A    between atoms: C_45  and  O_47 
ROOT
HETATM    1  C   UNK     0      -5.081 -13.016  18.330  0.00  0.00     0.051 C 
HETATM    2  C   UNK     0      -4.927 -11.531  18.587  0.00  0.00    -0.031 A 
HETATM    3  C   UNK     0      -5.178 -10.462  17.741  0.00  0.00     0.021 A 
HETATM    4  N   UNK     0      -4.870  -9.310  18.383  0.00  0.00    -0.361 N 
HETATM    5  C   UNK     0      -4.436  -9.621  19.622  0.00  0.00     0.022 A 
HETATM    6  C   UNK     0      -4.457 -11.002  19.782  0.00  0.00    -0.027 A 
HETATM    7  C   UNK     0      -4.062  -8.717  20.755  0.00  0.00     0.115 C 
HETATM    8  C   UNK     0      -4.963  -7.518  20.996  0.00  0.00     0.021 A 
HETATM    9  N   UNK     0      -6.295  -7.431  20.853  0.00  0.00    -0.361 N 
HETATM   10  C   UNK     0      -6.658  -6.152  21.087  0.00  0.00     0.022 A 
HETATM   11  C   UNK     0      -5.531  -5.397  21.398  0.00  0.00    -0.027 A 
HETATM   12  C   UNK     0      -4.460  -6.252  21.343  0.00  0.00    -0.031 A 
HETATM   13  C   UNK     0      -3.022  -5.870  21.616  0.00  0.00     0.051 C 
HETATM   14  C   UNK     0      -8.069  -5.581  20.974  0.00  0.00     0.115 C 
HETATM   15  C   UNK     0      -8.670  -5.694  19.582  0.00  0.00     0.021 A 
HETATM   16  N   UNK     0      -8.875  -6.814  18.864  0.00  0.00    -0.361 N 
HETATM   17  C   UNK     0      -9.356  -6.483  17.664  0.00  0.00     0.022 A 
HETATM   18  C   UNK     0      -9.479  -5.081  17.600  0.00  0.00    -0.027 A 
HETATM   19  C   UNK     0      -9.047  -4.598  18.808  0.00  0.00    -0.031 A 
HETATM   20  C   UNK     0      -9.046  -3.126  19.177  0.00  0.00     0.051 C 
HETATM   21  C   UNK     0      -9.682  -7.357  16.474  0.00  0.00     0.115 C 
HETATM   22  C   UNK     0      -8.821  -8.577  16.247  0.00  0.00     0.022 A 
HETATM   23  N   UNK     0      -7.494  -8.694  16.386  0.00  0.00    -0.361 N 
HETATM   24  C   UNK     0      -7.165  -9.991  16.225  0.00  0.00     0.021 A 
HETATM   25  C   UNK     0      -8.306 -10.726  15.966  0.00  0.00    -0.031 A 
HETATM   26  C   UNK     0      -8.441 -12.207  15.677  0.00  0.00     0.051 C 
HETATM   27  C   UNK     0      -9.379  -9.843  15.975  0.00  0.00    -0.027 A 
HETATM   28  C   UNK     0      -5.795 -10.628  16.381  0.00  0.00     0.115 C 
HETATM   29  H   UNK     0      -4.923  -8.287  17.942  0.00  0.00     0.165 HD
HETATM   30  H   UNK     0      -6.987  -8.281  20.636  0.00  0.00     0.165 HD
HETATM   31  H   UNK     0      -8.723  -7.863  19.229  0.00  0.00     0.165 HD
HETATM   32  H   UNK     0      -6.772  -7.854  16.556  0.00  0.00     0.165 HD
ENDROOT
BRANCH   6  33
HETATM   33  C   UNK     0      -4.066 -11.848  20.968  0.00  0.00     0.051 C 
BRANCH  33  34
HETATM   34  C   UNK     0      -4.928 -11.522  22.164  0.00  0.00     0.114 C 
BRANCH  34  35
HETATM   35  C   UNK     0      -5.708 -12.748  22.500  0.00  0.00     0.139 C 
HETATM   36  O   UNK     0      -6.175 -13.477  21.578  0.00  0.00    -0.650 OA
BRANCH  35  37
HETATM   37  O   UNK     0      -5.954 -13.144  23.809  0.00  0.00    -0.776 OA
HETATM   38  H   UNK     0      -5.409 -12.800  24.583  0.00  0.00     0.167 HD
ENDBRANCH  35  37
ENDBRANCH  34  35
ENDBRANCH  33  34
ENDBRANCH   6  33
BRANCH  27  39
HETATM   39  C   UNK     0     -10.774 -10.258  15.663  0.00  0.00     0.051 C 
BRANCH  39  40
HETATM   40  C   UNK     0     -11.234 -10.159  14.278  0.00  0.00     0.114 C 
BRANCH  40  41
HETATM   41  C   UNK     0     -11.270 -11.303  13.394  0.00  0.00     0.139 C 
HETATM   42  O   UNK     0     -12.267 -12.024  13.250  0.00  0.00    -0.650 OA
BRANCH  41  43
HETATM   43  O   UNK     0     -10.106 -11.633  12.643  0.00  0.00    -0.776 OA
HETATM   44  H   UNK     0      -9.394 -10.913  12.636  0.00  0.00     0.167 HD
ENDBRANCH  41  43
ENDBRANCH  40  41
ENDBRANCH  39  40
ENDBRANCH  27  39
BRANCH  11  45
HETATM   45  C   UNK     0      -5.442  -3.934  21.739  0.00  0.00     0.051 C 
BRANCH  45  46
HETATM   46  C   UNK     0      -5.418  -3.651  23.197  0.00  0.00     0.114 C 
BRANCH  46  47
HETATM   47  C   UNK     0      -6.502  -2.665  23.474  0.00  0.00     0.139 C 
HETATM   48  O   UNK     0      -6.185  -1.506  23.775  0.00  0.00    -0.650 OA
BRANCH  47  49
HETATM   49  O   UNK     0      -7.822  -3.032  23.398  0.00  0.00    -0.776 OA
HETATM   50  H   UNK     0      -8.291  -3.197  22.499  0.00  0.00     0.167 HD
ENDBRANCH  47  49
ENDBRANCH  46  47
ENDBRANCH  45  46
ENDBRANCH  11  45
BRANCH  18  51
HETATM   51  C   UNK     0      -9.999  -4.248  16.457  0.00  0.00     0.051 C 
BRANCH  51  52
HETATM   52  C   UNK     0     -11.404  -3.816  16.850  0.00  0.00     0.114 C 
BRANCH  52  53
HETATM   53  C   UNK     0     -12.436  -4.666  16.226  0.00  0.00     0.139 C 
HETATM   54  O   UNK     0     -12.723  -5.764  16.728  0.00  0.00    -0.650 OA
BRANCH  53  55
HETATM   55  O   UNK     0     -13.072  -4.237  15.087  0.00  0.00    -0.776 OA
HETATM   56  H   UNK     0     -12.635  -3.840  14.288  0.00  0.00     0.167 HD
ENDBRANCH  53  55
ENDBRANCH  52  53
ENDBRANCH  51  52
ENDBRANCH  18  51
TORSDOF 16
ENDMDL
MODEL 7
REMARK VINA RESULT:      -9.5      2.137      6.892
REMARK  16 active torsions:
REMARK  status: ('A' for Active; 'I' for Inactive)
REMARK    1  A    between atoms: C_6  and  C_7 
REMARK    2  A    between atoms: C_7  and  C_8 
REMARK    3  A    between atoms: C_8  and  C_9 
REMARK    4  A    between atoms: C_9  and  O_11 
REMARK    5  A    between atoms: C_16  and  C_17 
REMARK    6  A    between atoms: C_17  and  C_18 
REMARK    7  A    between atoms: C_18  and  C_19 
REMARK    8  A    between atoms: C_19  and  O_21 
REMARK    9  A    between atoms: C_28  and  C_29 
REMARK   10  A    between atoms: C_29  and  C_30 
REMARK   11  A    between atoms: C_30  and  C_31 
REMARK   12  A    between atoms: C_31  and  O_33 
REMARK   13  A    between atoms: C_42  and  C_43 
REMARK   14  A    between atoms: C_43  and  C_44 
REMARK   15  A    between atoms: C_44  and  C_45 
REMARK   16  A    between atoms: C_45  and  O_47 
ROOT
HETATM    1  C   UNK     0      -4.369  -4.805  23.515  0.00  0.00     0.051 C 
HETATM    2  C   UNK     0      -5.068  -4.854  22.171  0.00  0.00    -0.031 A 
HETATM    3  C   UNK     0      -4.681  -5.489  21.002  0.00  0.00     0.021 A 
HETATM    4  N   UNK     0      -5.599  -5.238  20.038  0.00  0.00    -0.361 N 
HETATM    5  C   UNK     0      -6.567  -4.463  20.571  0.00  0.00     0.022 A 
HETATM    6  C   UNK     0      -6.264  -4.202  21.903  0.00  0.00    -0.027 A 
HETATM    7  C   UNK     0      -7.847  -3.985  19.961  0.00  0.00     0.115 C 
HETATM    8  C   UNK     0      -8.627  -4.993  19.135  0.00  0.00     0.021 A 
HETATM    9  N   UNK     0      -8.763  -6.312  19.338  0.00  0.00    -0.361 N 
HETATM   10  C   UNK     0      -9.466  -6.824  18.305  0.00  0.00     0.022 A 
HETATM   11  C   UNK     0      -9.800  -5.805  17.418  0.00  0.00    -0.027 A 
HETATM   12  C   UNK     0      -9.274  -4.648  17.935  0.00  0.00    -0.031 A 
HETATM   13  C   UNK     0      -9.393  -3.277  17.308  0.00  0.00     0.051 C 
HETATM   14  C   UNK     0      -9.804  -8.296  18.086  0.00  0.00     0.115 C 
HETATM   15  C   UNK     0      -8.585  -9.193  17.944  0.00  0.00     0.021 A 
HETATM   16  N   UNK     0      -7.589  -9.371  18.832  0.00  0.00    -0.361 N 
HETATM   17  C   UNK     0      -6.671 -10.184  18.303  0.00  0.00     0.022 A 
HETATM   18  C   UNK     0      -7.095 -10.562  17.014  0.00  0.00    -0.027 A 
HETATM   19  C   UNK     0      -8.296  -9.936  16.801  0.00  0.00    -0.031 A 
HETATM   20  C   UNK     0      -9.122 -10.101  15.539  0.00  0.00     0.051 C 
HETATM   21  C   UNK     0      -5.340 -10.638  18.858  0.00  0.00     0.115 C 
HETATM   22  C   UNK     0      -4.573  -9.660  19.717  0.00  0.00     0.022 A 
HETATM   23  N   UNK     0      -4.424  -8.341  19.542  0.00  0.00    -0.361 N 
HETATM   24  C   UNK     0      -3.788  -7.840  20.621  0.00  0.00     0.021 A 
HETATM   25  C   UNK     0      -3.513  -8.863  21.507  0.00  0.00    -0.031 A 
HETATM   26  C   UNK     0      -2.782  -8.805  22.833  0.00  0.00     0.051 C 
HETATM   27  C   UNK     0      -4.005 -10.038  20.951  0.00  0.00    -0.027 A 
HETATM   28  C   UNK     0      -3.476  -6.384  20.923  0.00  0.00     0.115 C 
HETATM   29  H   UNK     0      -5.536  -5.576  18.978  0.00  0.00     0.165 HD
HETATM   30  H   UNK     0      -8.408  -6.878  20.233  0.00  0.00     0.165 HD
HETATM   31  H   UNK     0      -7.554  -8.953  19.871  0.00  0.00     0.165 HD
HETATM   32  H   UNK     0      -4.727  -7.757  18.635  0.00  0.00     0.165 HD
ENDROOT
BRANCH   6  33
HETATM   33  C   UNK     0      -7.015  -3.389  22.927  0.00  0.00     0.051 C 
BRANCH  33  34
HETATM   34  C   UNK     0      -6.898  -1.913  22.628  0.00  0.00     0.114 C 
BRANCH  34  35
HETATM   35  C   UNK     0      -5.581  -1.454  23.156  0.00  0.00     0.139 C 
HETATM   36  O   UNK     0      -5.346  -1.486  24.399  0.00  0.00    -0.650 OA
BRANCH  35  37
HETATM   37  O   UNK     0      -4.568  -0.981  22.331  0.00  0.00    -0.776 OA
HETATM   38  H   UNK     0      -4.126  -0.088  22.484  0.00  0.00     0.167 HD
ENDBRANCH  35  37
ENDBRANCH  34  35
ENDBRANCH  33  34
ENDBRANCH   6  33
BRANCH  27  39
HETATM   39  C   UNK     0      -3.831 -11.372  21.587  0.00  0.00     0.051 C 
BRANCH  39  40
HETATM   40  C   UNK     0      -4.990 -11.991  22.230  0.00  0.00     0.114 C 
BRANCH  40  41
HETATM   41  C   UNK     0      -5.016 -12.297  23.642  0.00  0.00     0.139 C 
HETATM   42  O   UNK     0      -4.191 -11.854  24.453  0.00  0.00    -0.650 OA
BRANCH  41  43
HETATM   43  O   UNK     0      -6.037 -13.152  24.145  0.00  0.00    -0.776 OA
HETATM   44  H   UNK     0      -5.915 -13.427  25.112  0.00  0.00     0.167 HD
ENDBRANCH  41  43
ENDBRANCH  40  41
ENDBRANCH  39  40
ENDBRANCH  27  39
BRANCH  11  45
HETATM   45  C   UNK     0     -10.581  -5.891  16.135  0.00  0.00     0.051 C 
BRANCH  45  46
HETATM   46  C   UNK     0     -12.036  -6.120  16.325  0.00  0.00     0.114 C 
BRANCH  46  47
HETATM   47  C   UNK     0     -12.701  -4.786  16.299  0.00  0.00     0.139 C 
HETATM   48  O   UNK     0     -12.885  -4.195  17.373  0.00  0.00    -0.650 OA
BRANCH  47  49
HETATM   49  O   UNK     0     -13.102  -4.223  15.114  0.00  0.00    -0.776 OA
HETATM   50  H   UNK     0     -12.593  -3.443  14.681  0.00  0.00     0.167 HD
ENDBRANCH  47  49
ENDBRANCH  46  47
ENDBRANCH  45  46
ENDBRANCH  11  45
BRANCH  18  51
HETATM   51  C   UNK     0      -6.404 -11.486  16.045  0.00  0.00     0.051 C 
BRANCH  51  52
HETATM   52  C   UNK     0      -6.897 -12.889  16.368  0.00  0.00     0.114 C 
BRANCH  52  53
HETATM   53  C   UNK     0      -7.469 -13.557  15.183  0.00  0.00     0.139 C 
HETATM   54  O   UNK     0      -7.847 -14.737  15.257  0.00  0.00    -0.650 OA
BRANCH  53  55
HETATM   55  O   UNK     0      -7.576 -12.867  14.000  0.00  0.00    -0.776 OA
HETATM   56  H   UNK     0      -6.981 -12.133  13.696  0.00  0.00     0.167 HD
ENDBRANCH  53  55
ENDBRANCH  52  53
ENDBRANCH  51  52
ENDBRANCH  18  51
TORSDOF 16
ENDMDL
MODEL 8
REMARK VINA RESULT:      -9.3      4.873      9.019
REMARK  16 active torsions:
REMARK  status: ('A' for Active; 'I' for Inactive)
REMARK    1  A    between atoms: C_6  and  C_7 
REMARK    2  A    between atoms: C_7  and  C_8 
REMARK    3  A    between atoms: C_8  and  C_9 
REMARK    4  A    between atoms: C_9  and  O_11 
REMARK    5  A    between atoms: C_16  and  C_17 
REMARK    6  A    between atoms: C_17  and  C_18 
REMARK    7  A    between atoms: C_18  and  C_19 
REMARK    8  A    between atoms: C_19  and  O_21 
REMARK    9  A    between atoms: C_28  and  C_29 
REMARK   10  A    between atoms: C_29  and  C_30 
REMARK   11  A    between atoms: C_30  and  C_31 
REMARK   12  A    between atoms: C_31  and  O_33 
REMARK   13  A    between atoms: C_42  and  C_43 
REMARK   14  A    between atoms: C_43  and  C_44 
REMARK   15  A    between atoms: C_44  and  C_45 
REMARK   16  A    between atoms: C_45  and  O_47 
ROOT
HETATM    1  C   UNK     0      -7.977 -10.110  18.975  0.00  0.00     0.051 C 
HETATM    2  C   UNK     0      -6.503 -10.417  19.147  0.00  0.00    -0.031 A 
HETATM    3  C   UNK     0      -5.405  -9.590  18.967  0.00  0.00     0.021 A 
HETATM    4  N   UNK     0      -4.276 -10.298  19.204  0.00  0.00    -0.361 N 
HETATM    5  C   UNK     0      -4.630 -11.556  19.539  0.00  0.00     0.022 A 
HETATM    6  C   UNK     0      -6.016 -11.666  19.511  0.00  0.00    -0.027 A 
HETATM    7  C   UNK     0      -3.772 -12.700  19.983  0.00  0.00     0.115 C 
HETATM    8  C   UNK     0      -2.665 -12.379  20.971  0.00  0.00     0.021 A 
HETATM    9  N   UNK     0      -2.672 -11.488  21.974  0.00  0.00    -0.361 N 
HETATM   10  C   UNK     0      -1.442 -11.473  22.531  0.00  0.00     0.022 A 
HETATM   11  C   UNK     0      -0.624 -12.387  21.875  0.00  0.00    -0.027 A 
HETATM   12  C   UNK     0      -1.387 -12.962  20.891  0.00  0.00    -0.031 A 
HETATM   13  C   UNK     0      -0.913 -14.023  19.924  0.00  0.00     0.051 C 
HETATM   14  C   UNK     0      -0.977 -10.564  23.665  0.00  0.00     0.115 C 
HETATM   15  C   UNK     0      -1.048  -9.082  23.334  0.00  0.00     0.021 A 
HETATM   16  N   UNK     0      -2.133  -8.372  22.973  0.00  0.00    -0.361 N 
HETATM   17  C   UNK     0      -1.766  -7.118  22.700  0.00  0.00     0.022 A 
HETATM   18  C   UNK     0      -0.376  -7.003  22.902  0.00  0.00    -0.027 A 
HETATM   19  C   UNK     0       0.061  -8.239  23.300  0.00  0.00    -0.031 A 
HETATM   20  C   UNK     0       1.503  -8.548  23.660  0.00  0.00     0.051 C 
HETATM   21  C   UNK     0      -2.585  -5.955  22.188  0.00  0.00     0.115 C 
HETATM   22  C   UNK     0      -3.719  -6.265  21.238  0.00  0.00     0.022 A 
HETATM   23  N   UNK     0      -3.741  -7.150  20.233  0.00  0.00    -0.361 N 
HETATM   24  C   UNK     0      -4.996  -7.203  19.743  0.00  0.00     0.021 A 
HETATM   25  C   UNK     0      -5.799  -6.324  20.444  0.00  0.00    -0.031 A 
HETATM   26  C   UNK     0      -7.265  -6.001  20.239  0.00  0.00     0.051 C 
HETATM   27  C   UNK     0      -5.004  -5.711  21.406  0.00  0.00    -0.027 A 
HETATM   28  C   UNK     0      -5.534  -8.124  18.662  0.00  0.00     0.115 C 
HETATM   29  H   UNK     0      -3.235  -9.915  19.094  0.00  0.00     0.165 HD
HETATM   30  H   UNK     0      -3.558 -10.903  22.324  0.00  0.00     0.165 HD
HETATM   31  H   UNK     0      -3.188  -8.751  22.956  0.00  0.00     0.165 HD
HETATM   32  H   UNK     0      -2.860  -7.714  19.830  0.00  0.00     0.165 HD
ENDROOT
BRANCH   6  33
HETATM   33  C   UNK     0      -6.901 -12.852  19.797  0.00  0.00     0.051 C 
BRANCH  33  34
HETATM   34  C   UNK     0      -6.600 -13.428  21.161  0.00  0.00     0.114 C 
BRANCH  34  35
HETATM   35  C   UNK     0      -6.817 -12.343  22.161  0.00  0.00     0.139 C 
HETATM   36  O   UNK     0      -7.960 -11.817  22.292  0.00  0.00    -0.650 OA
BRANCH  35  37
HETATM   37  O   UNK     0      -5.801 -11.868  22.981  0.00  0.00    -0.776 OA
HETATM   38  H   UNK     0      -5.129 -12.483  23.411  0.00  0.00     0.167 HD
ENDBRANCH  35  37
ENDBRANCH  34  35
ENDBRANCH  33  34
ENDBRANCH   6  33
BRANCH  27  39
HETATM   39  C   UNK     0      -5.506  -4.643  22.312  0.00  0.00     0.051 C 
BRANCH  39  40
HETATM   40  C   UNK     0      -5.086  -3.265  22.060  0.00  0.00     0.114 C 
BRANCH  40  41
HETATM   41  C   UNK     0      -4.002  -2.644  22.789  0.00  0.00     0.139 C 
HETATM   42  O   UNK     0      -3.874  -2.720  24.018  0.00  0.00    -0.650 OA
BRANCH  41  43
HETATM   43  O   UNK     0      -3.022  -1.903  22.070  0.00  0.00    -0.776 OA
HETATM   44  H   UNK     0      -2.921  -0.941  22.371  0.00  0.00     0.167 HD
ENDBRANCH  41  43
ENDBRANCH  40  41
ENDBRANCH  39  40
ENDBRANCH  27  39
BRANCH  11  45
HETATM   45  C   UNK     0       0.818 -12.725  22.146  0.00  0.00     0.051 C 
BRANCH  45  46
HETATM   46  C   UNK     0       1.788 -11.814  21.487  0.00  0.00     0.114 C 
BRANCH  46  47
HETATM   47  C   UNK     0       2.850 -12.666  20.879  0.00  0.00     0.139 C 
HETATM   48  O   UNK     0       2.990 -12.651  19.648  0.00  0.00    -0.650 OA
BRANCH  47  49
HETATM   49  O   UNK     0       3.656 -13.452  21.664  0.00  0.00    -0.776 OA
HETATM   50  H   UNK     0       4.676 -13.333  21.690  0.00  0.00     0.167 HD
ENDBRANCH  47  49
ENDBRANCH  46  47
ENDBRANCH  45  46
ENDBRANCH  11  45
BRANCH  18  51
HETATM   51  C   UNK     0       0.484  -5.776  22.744  0.00  0.00     0.051 C 
BRANCH  51  52
HETATM   52  C   UNK     0       0.397  -5.022  24.063  0.00  0.00     0.114 C 
BRANCH  52  53
HETATM   53  C   UNK     0      -0.410  -3.793  23.941  0.00  0.00     0.139 C 
HETATM   54  O   UNK     0      -0.401  -3.146  22.882  0.00  0.00    -0.650 OA
BRANCH  53  55
HETATM   55  O   UNK     0      -1.167  -3.368  25.006  0.00  0.00    -0.776 OA
HETATM   56  H   UNK     0      -1.709  -3.946  25.605  0.00  0.00     0.167 HD
ENDBRANCH  53  55
ENDBRANCH  52  53
ENDBRANCH  51  52
ENDBRANCH  18  51
TORSDOF 16
ENDMDL
MODEL 9
REMARK VINA RESULT:      -9.3     28.438     31.663
REMARK  16 active torsions:
REMARK  status: ('A' for Active; 'I' for Inactive)
REMARK    1  A    between atoms: C_6  and  C_7 
REMARK    2  A    between atoms: C_7  and  C_8 
REMARK    3  A    between atoms: C_8  and  C_9 
REMARK    4  A    between atoms: C_9  and  O_11 
REMARK    5  A    between atoms: C_16  and  C_17 
REMARK    6  A    between atoms: C_17  and  C_18 
REMARK    7  A    between atoms: C_18  and  C_19 
REMARK    8  A    between atoms: C_19  and  O_21 
REMARK    9  A    between atoms: C_28  and  C_29 
REMARK   10  A    between atoms: C_29  and  C_30 
REMARK   11  A    between atoms: C_30  and  C_31 
REMARK   12  A    between atoms: C_31  and  O_33 
REMARK   13  A    between atoms: C_42  and  C_43 
REMARK   14  A    between atoms: C_43  and  C_44 
REMARK   15  A    between atoms: C_44  and  C_45 
REMARK   16  A    between atoms: C_45  and  O_47 
ROOT
HETATM    1  C   UNK     0      13.289  11.256  11.979  0.00  0.00     0.051 C 
HETATM    2  C   UNK     0      13.000  10.481  10.710  0.00  0.00    -0.031 A 
HETATM    3  C   UNK     0      12.134  10.785   9.671  0.00  0.00     0.021 A 
HETATM    4  N   UNK     0      12.176   9.788   8.756  0.00  0.00    -0.361 N 
HETATM    5  C   UNK     0      13.056   8.859   9.184  0.00  0.00     0.022 A 
HETATM    6  C   UNK     0      13.588   9.260  10.405  0.00  0.00    -0.027 A 
HETATM    7  C   UNK     0      13.535   7.616   8.502  0.00  0.00     0.115 C 
HETATM    8  C   UNK     0      13.847   7.729   7.020  0.00  0.00     0.021 A 
HETATM    9  N   UNK     0      14.377   8.766   6.353  0.00  0.00    -0.361 N 
HETATM   10  C   UNK     0      14.389   8.458   5.039  0.00  0.00     0.022 A 
HETATM   11  C   UNK     0      13.860   7.183   4.855  0.00  0.00    -0.027 A 
HETATM   12  C   UNK     0      13.517   6.718   6.099  0.00  0.00    -0.031 A 
HETATM   13  C   UNK     0      12.906   5.366   6.388  0.00  0.00     0.051 C 
HETATM   14  C   UNK     0      14.847   9.369   3.904  0.00  0.00     0.115 C 
HETATM   15  C   UNK     0      14.046  10.656   3.786  0.00  0.00     0.021 A 
HETATM   16  N   UNK     0      13.882  11.609   4.721  0.00  0.00    -0.361 N 
HETATM   17  C   UNK     0      13.052  12.544   4.254  0.00  0.00     0.022 A 
HETATM   18  C   UNK     0      12.664  12.187   2.947  0.00  0.00    -0.027 A 
HETATM   19  C   UNK     0      13.295  11.003   2.665  0.00  0.00    -0.031 A 
HETATM   20  C   UNK     0      13.179  10.281   1.335  0.00  0.00     0.051 C 
HETATM   21  C   UNK     0      12.493  13.775   4.931  0.00  0.00     0.115 C 
HETATM   22  C   UNK     0      12.219  13.691   6.414  0.00  0.00     0.022 A 
HETATM   23  N   UNK     0      11.696  12.670   7.106  0.00  0.00    -0.361 N 
HETATM   24  C   UNK     0      11.766  12.967   8.419  0.00  0.00     0.021 A 
HETATM   25  C   UNK     0      12.339  14.215   8.577  0.00  0.00    -0.031 A 
HETATM   26  C   UNK     0      12.591  14.993   9.851  0.00  0.00     0.051 C 
HETATM   27  C   UNK     0      12.637  14.698   7.308  0.00  0.00    -0.027 A 
HETATM   28  C   UNK     0      11.383  12.084   9.594  0.00  0.00     0.115 C 
HETATM   29  H   UNK     0      11.554   9.728   7.833  0.00  0.00     0.165 HD
HETATM   30  H   UNK     0      14.790   9.697   6.813  0.00  0.00     0.165 HD
HETATM   31  H   UNK     0      14.400  11.649   5.715  0.00  0.00     0.165 HD
HETATM   32  H   UNK     0      11.233  11.747   6.670  0.00  0.00     0.165 HD
ENDROOT
BRANCH   6  33
HETATM   33  C   UNK     0      14.597   8.578  11.293  0.00  0.00     0.051 C 
BRANCH  33  34
HETATM   34  C   UNK     0      13.932   7.530  12.153  0.00  0.00     0.114 C 
BRANCH  34  35
HETATM   35  C   UNK     0      14.542   6.214  11.806  0.00  0.00     0.139 C 
HETATM   36  O   UNK     0      15.743   6.153  11.413  0.00  0.00    -0.650 OA
BRANCH  35  37
HETATM   37  O   UNK     0      13.843   5.017  11.897  0.00  0.00    -0.776 OA
HETATM   38  H   UNK     0      14.026   4.243  11.279  0.00  0.00     0.167 HD
ENDBRANCH  35  37
ENDBRANCH  34  35
ENDBRANCH  33  34
ENDBRANCH   6  33
BRANCH  27  39
HETATM   39  C   UNK     0      13.204  16.053   7.069  0.00  0.00     0.051 C 
BRANCH  39  40
HETATM   40  C   UNK     0      12.279  17.158   6.817  0.00  0.00     0.114 C 
BRANCH  40  41
HETATM   41  C   UNK     0      11.350  17.147   5.709  0.00  0.00     0.139 C 
HETATM   42  O   UNK     0      10.173  16.776   5.808  0.00  0.00    -0.650 OA
BRANCH  41  43
HETATM   43  O   UNK     0      11.796  17.584   4.429  0.00  0.00    -0.776 OA
HETATM   44  H   UNK     0      11.090  18.056   3.878  0.00  0.00     0.167 HD
ENDBRANCH  41  43
ENDBRANCH  40  41
ENDBRANCH  39  40
ENDBRANCH  27  39
BRANCH  11  45
HETATM   45  C   UNK     0      13.679   6.415   3.574  0.00  0.00     0.051 C 
BRANCH  45  46
HETATM   46  C   UNK     0      14.912   5.741   3.092  0.00  0.00     0.114 C 
BRANCH  46  47
HETATM   47  C   UNK     0      15.092   6.121   1.661  0.00  0.00     0.139 C 
HETATM   48  O   UNK     0      14.327   6.963   1.171  0.00  0.00    -0.650 OA
BRANCH  47  49
HETATM   49  O   UNK     0      16.084   5.552   0.903  0.00  0.00    -0.776 OA
HETATM   50  H   UNK     0      16.187   5.752  -0.099  0.00  0.00     0.167 HD
ENDBRANCH  47  49
ENDBRANCH  46  47
ENDBRANCH  45  46
ENDBRANCH  11  45
BRANCH  18  51
HETATM   51  C   UNK     0      11.759  12.944   2.010  0.00  0.00     0.051 C 
BRANCH  51  52
HETATM   52  C   UNK     0      12.632  13.979   1.316  0.00  0.00     0.114 C 
BRANCH  52  53
HETATM   53  C   UNK     0      12.105  15.346   1.487  0.00  0.00     0.139 C 
HETATM   54  O   UNK     0      11.162  15.556   2.267  0.00  0.00    -0.650 OA
BRANCH  53  55
HETATM   55  O   UNK     0      12.662  16.383   0.778  0.00  0.00    -0.776 OA
HETATM   56  H   UNK     0      13.524  16.357   0.286  0.00  0.00     0.167 HD
ENDBRANCH  53  55
ENDBRANCH  52  53
ENDBRANCH  51  52
ENDBRANCH  18  51
TORSDOF 16
ENDMDL
MODEL 10
REMARK VINA RESULT:      -9.2      3.955      7.035
REMARK  16 active torsions:
REMARK  status: ('A' for Active; 'I' for Inactive)
REMARK    1  A    between atoms: C_6  and  C_7 
REMARK    2  A    between atoms: C_7  and  C_8 
REMARK    3  A    between atoms: C_8  and  C_9 
REMARK    4  A    between atoms: C_9  and  O_11 
REMARK    5  A    between atoms: C_16  and  C_17 
REMARK    6  A    between atoms: C_17  and  C_18 
REMARK    7  A    between atoms: C_18  and  C_19 
REMARK    8  A    between atoms: C_19  and  O_21 
REMARK    9  A    between atoms: C_28  and  C_29 
REMARK   10  A    between atoms: C_29  and  C_30 
REMARK   11  A    between atoms: C_30  and  C_31 
REMARK   12  A    between atoms: C_31  and  O_33 
REMARK   13  A    between atoms: C_42  and  C_43 
REMARK   14  A    between atoms: C_43  and  C_44 
REMARK   15  A    between atoms: C_44  and  C_45 
REMARK   16  A    between atoms: C_45  and  O_47 
ROOT
HETATM    1  C   UNK     0      -9.049  -7.817  18.805  0.00  0.00     0.051 C 
HETATM    2  C   UNK     0      -7.780  -8.646  18.844  0.00  0.00    -0.031 A 
HETATM    3  C   UNK     0      -6.458  -8.232  18.804  0.00  0.00     0.021 A 
HETATM    4  N   UNK     0      -5.654  -9.321  18.831  0.00  0.00    -0.361 N 
HETATM    5  C   UNK     0      -6.435 -10.420  18.896  0.00  0.00     0.022 A 
HETATM    6  C   UNK     0      -7.771 -10.033  18.902  0.00  0.00    -0.027 A 
HETATM    7  C   UNK     0      -6.045 -11.858  19.040  0.00  0.00     0.115 C 
HETATM    8  C   UNK     0      -4.933 -12.167  20.026  0.00  0.00     0.021 A 
HETATM    9  N   UNK     0      -4.668 -11.573  21.201  0.00  0.00    -0.361 N 
HETATM   10  C   UNK     0      -3.532 -12.110  21.694  0.00  0.00     0.022 A 
HETATM   11  C   UNK     0      -3.057 -13.082  20.819  0.00  0.00    -0.027 A 
HETATM   12  C   UNK     0      -3.935 -13.123  19.766  0.00  0.00    -0.031 A 
HETATM   13  C   UNK     0      -3.822 -14.041  18.569  0.00  0.00     0.051 C 
HETATM   14  C   UNK     0      -2.822 -11.692  22.979  0.00  0.00     0.115 C 
HETATM   15  C   UNK     0      -2.362 -10.243  22.986  0.00  0.00     0.021 A 
HETATM   16  N   UNK     0      -3.120  -9.140  22.837  0.00  0.00    -0.361 N 
HETATM   17  C   UNK     0      -2.330  -8.064  22.831  0.00  0.00     0.022 A 
HETATM   18  C   UNK     0      -0.996  -8.485  22.994  0.00  0.00    -0.027 A 
HETATM   19  C   UNK     0      -1.029  -9.852  23.091  0.00  0.00    -0.031 A 
HETATM   20  C   UNK     0       0.201 -10.713  23.313  0.00  0.00     0.051 C 
HETATM   21  C   UNK     0      -2.675  -6.607  22.623  0.00  0.00     0.115 C 
HETATM   22  C   UNK     0      -3.809  -6.287  21.677  0.00  0.00     0.022 A 
HETATM   23  N   UNK     0      -4.099  -6.864  20.504  0.00  0.00    -0.361 N 
HETATM   24  C   UNK     0      -5.276  -6.369  20.068  0.00  0.00     0.021 A 
HETATM   25  C   UNK     0      -5.750  -5.444  20.978  0.00  0.00    -0.031 A 
HETATM   26  C   UNK     0      -7.004  -4.597  20.911  0.00  0.00     0.051 C 
HETATM   27  C   UNK     0      -4.828  -5.374  22.017  0.00  0.00    -0.027 A 
HETATM   28  C   UNK     0      -6.058  -6.784  18.834  0.00  0.00     0.115 C 
HETATM   29  H   UNK     0      -4.541  -9.308  18.764  0.00  0.00     0.165 HD
HETATM   30  H   UNK     0      -5.308 -10.811  21.708  0.00  0.00     0.165 HD
HETATM   31  H   UNK     0      -4.239  -9.116  22.782  0.00  0.00     0.165 HD
HETATM   32  H   UNK     0      -3.454  -7.594  19.950  0.00  0.00     0.165 HD
ENDROOT
BRANCH   6  33
HETATM   33  C   UNK     0      -9.023 -10.872  18.957  0.00  0.00     0.051 C 
BRANCH  33  34
HETATM   34  C   UNK     0      -9.355 -11.244  20.383  0.00  0.00     0.114 C 
BRANCH  34  35
HETATM   35  C   UNK     0     -10.479 -10.369  20.823  0.00  0.00     0.139 C 
HETATM   36  O   UNK     0     -10.272  -9.431  21.647  0.00  0.00    -0.650 OA
BRANCH  35  37
HETATM   37  O   UNK     0     -11.780 -10.530  20.361  0.00  0.00    -0.776 OA
HETATM   38  H   UNK     0     -12.405  -9.750  20.241  0.00  0.00     0.167 HD
ENDBRANCH  35  37
ENDBRANCH  34  35
ENDBRANCH  33  34
ENDBRANCH   6  33
BRANCH  27  39
HETATM   39  C   UNK     0      -4.962  -4.426  23.156  0.00  0.00     0.051 C 
BRANCH  39  40
HETATM   40  C   UNK     0      -4.320  -3.116  23.049  0.00  0.00     0.114 C 
BRANCH  40  41
HETATM   41  C   UNK     0      -5.078  -1.885  23.048  0.00  0.00     0.139 C 
HETATM   42  O   UNK     0      -5.568  -1.383  24.068  0.00  0.00    -0.650 OA
BRANCH  41  43
HETATM   43  O   UNK     0      -5.280  -1.200  21.816  0.00  0.00    -0.776 OA
HETATM   44  H   UNK     0      -4.470  -0.693  21.480  0.00  0.00     0.167 HD
ENDBRANCH  41  43
ENDBRANCH  40  41
ENDBRANCH  39  40
ENDBRANCH  27  39
BRANCH  11  45
HETATM   45  C   UNK     0      -1.833 -13.949  20.948  0.00  0.00     0.051 C 
BRANCH  45  46
HETATM   46  C   UNK     0      -0.590 -13.323  20.429  0.00  0.00     0.114 C 
BRANCH  46  47
HETATM   47  C   UNK     0       0.084 -14.333  19.563  0.00  0.00     0.139 C 
HETATM   48  O   UNK     0       0.890 -15.116  20.084  0.00  0.00    -0.650 OA
BRANCH  47  49
HETATM   49  O   UNK     0      -0.181 -14.394  18.218  0.00  0.00    -0.776 OA
HETATM   50  H   UNK     0      -0.788 -13.711  17.751  0.00  0.00     0.167 HD
ENDBRANCH  47  49
ENDBRANCH  46  47
ENDBRANCH  45  46
ENDBRANCH  11  45
BRANCH  18  51
HETATM   51  C   UNK     0       0.242  -7.630  23.074  0.00  0.00     0.051 C 
BRANCH  51  52
HETATM   52  C   UNK     0       0.199  -6.944  24.432  0.00  0.00     0.114 C 
BRANCH  52  53
HETATM   53  C   UNK     0       0.390  -7.902  25.538  0.00  0.00     0.139 C 
HETATM   54  O   UNK     0       1.522  -8.342  25.790  0.00  0.00    -0.650 OA
BRANCH  53  55
HETATM   55  O   UNK     0      -0.693  -8.304  26.282  0.00  0.00    -0.776 OA
HETATM   56  H   UNK     0      -0.670  -8.922  27.059  0.00  0.00     0.167 HD
ENDBRANCH  53  55
ENDBRANCH  52  53
ENDBRANCH  51  52
ENDBRANCH  18  51
TORSDOF 16
ENDMDL
MODEL 11
REMARK VINA RESULT:      -9.2     29.924     33.400
REMARK  16 active torsions:
REMARK  status: ('A' for Active; 'I' for Inactive)
REMARK    1  A    between atoms: C_6  and  C_7 
REMARK    2  A    between atoms: C_7  and  C_8 
REMARK    3  A    between atoms: C_8  and  C_9 
REMARK    4  A    between atoms: C_9  and  O_11 
REMARK    5  A    between atoms: C_16  and  C_17 
REMARK    6  A    between atoms: C_17  and  C_18 
REMARK    7  A    between atoms: C_18  and  C_19 
REMARK    8  A    between atoms: C_19  and  O_21 
REMARK    9  A    between atoms: C_28  and  C_29 
REMARK   10  A    between atoms: C_29  and  C_30 
REMARK   11  A    between atoms: C_30  and  C_31 
REMARK   12  A    between atoms: C_31  and  O_33 
REMARK   13  A    between atoms: C_42  and  C_43 
REMARK   14  A    between atoms: C_43  and  C_44 
REMARK   15  A    between atoms: C_44  and  C_45 
REMARK   16  A    between atoms: C_45  and  O_47 
ROOT
HETATM    1  C   UNK     0      13.856   9.013   9.695  0.00  0.00     0.051 C 
HETATM    2  C   UNK     0      13.879  10.391   9.066  0.00  0.00    -0.031 A 
HETATM    3  C   UNK     0      14.619  10.855   7.990  0.00  0.00     0.021 A 
HETATM    4  N   UNK     0      14.342  12.166   7.797  0.00  0.00    -0.361 N 
HETATM    5  C   UNK     0      13.435  12.546   8.720  0.00  0.00     0.022 A 
HETATM    6  C   UNK     0      13.125  11.460   9.533  0.00  0.00    -0.027 A 
HETATM    7  C   UNK     0      12.732  13.858   8.882  0.00  0.00     0.115 C 
HETATM    8  C   UNK     0      12.231  14.524   7.613  0.00  0.00     0.021 A 
HETATM    9  N   UNK     0      11.729  13.948   6.509  0.00  0.00    -0.361 N 
HETATM   10  C   UNK     0      11.500  14.918   5.598  0.00  0.00     0.022 A 
HETATM   11  C   UNK     0      11.856  16.153   6.133  0.00  0.00    -0.027 A 
HETATM   12  C   UNK     0      12.317  15.911   7.402  0.00  0.00    -0.031 A 
HETATM   13  C   UNK     0      12.812  16.965   8.367  0.00  0.00     0.051 C 
HETATM   14  C   UNK     0      10.989  14.715   4.175  0.00  0.00     0.115 C 
HETATM   15  C   UNK     0      11.900  13.858   3.310  0.00  0.00     0.021 A 
HETATM   16  N   UNK     0      12.296  12.592   3.538  0.00  0.00    -0.361 N 
HETATM   17  C   UNK     0      13.150  12.221   2.580  0.00  0.00     0.022 A 
HETATM   18  C   UNK     0      13.310  13.293   1.681  0.00  0.00    -0.027 A 
HETATM   19  C   UNK     0      12.521  14.312   2.148  0.00  0.00    -0.031 A 
HETATM   20  C   UNK     0      12.371  15.652   1.450  0.00  0.00     0.051 C 
HETATM   21  C   UNK     0      13.928  10.935   2.418  0.00  0.00     0.115 C 
HETATM   22  C   UNK     0      14.395  10.238   3.674  0.00  0.00     0.022 A 
HETATM   23  N   UNK     0      14.896  10.786   4.789  0.00  0.00    -0.361 N 
HETATM   24  C   UNK     0      15.043   9.812   5.710  0.00  0.00     0.021 A 
HETATM   25  C   UNK     0      14.637   8.606   5.171  0.00  0.00    -0.031 A 
HETATM   26  C   UNK     0      14.651   7.228   5.800  0.00  0.00     0.051 C 
HETATM   27  C   UNK     0      14.218   8.854   3.869  0.00  0.00    -0.027 A 
HETATM   28  C   UNK     0      15.488   9.958   7.155  0.00  0.00     0.115 C 
HETATM   29  H   UNK     0      14.818  12.825   7.034  0.00  0.00     0.165 HD
HETATM   30  H   UNK     0      11.487  12.864   6.388  0.00  0.00     0.165 HD
HETATM   31  H   UNK     0      11.930  11.929   4.364  0.00  0.00     0.165 HD
HETATM   32  H   UNK     0      15.191  11.859   4.923  0.00  0.00     0.165 HD
ENDROOT
BRANCH   6  33
HETATM   33  C   UNK     0      12.182  11.364  10.705  0.00  0.00     0.051 C 
BRANCH  33  34
HETATM   34  C   UNK     0      12.929  11.523  12.008  0.00  0.00     0.114 C 
BRANCH  34  35
HETATM   35  C   UNK     0      12.329  12.684  12.727  0.00  0.00     0.139 C 
HETATM   36  O   UNK     0      12.655  13.866  12.413  0.00  0.00    -0.650 OA
BRANCH  35  37
HETATM   37  O   UNK     0      11.403  12.533  13.752  0.00  0.00    -0.776 OA
HETATM   38  H   UNK     0      10.797  11.731  13.810  0.00  0.00     0.167 HD
ENDBRANCH  35  37
ENDBRANCH  34  35
ENDBRANCH  33  34
ENDBRANCH   6  33
BRANCH  27  39
HETATM   39  C   UNK     0      13.774   7.777   2.942  0.00  0.00     0.051 C 
BRANCH  39  40
HETATM   40  C   UNK     0      14.793   7.042   2.193  0.00  0.00     0.114 C 
BRANCH  40  41
HETATM   41  C   UNK     0      15.693   7.697   1.271  0.00  0.00     0.139 C 
HETATM   42  O   UNK     0      16.927   7.609   1.341  0.00  0.00    -0.650 OA
BRANCH  41  43
HETATM   43  O   UNK     0      15.150   8.489   0.220  0.00  0.00    -0.776 OA
HETATM   44  H   UNK     0      15.577   8.333  -0.686  0.00  0.00     0.167 HD
ENDBRANCH  41  43
ENDBRANCH  40  41
ENDBRANCH  39  40
ENDBRANCH  27  39
BRANCH  11  45
HETATM   45  C   UNK     0      11.772  17.514   5.497  0.00  0.00     0.051 C 
BRANCH  45  46
HETATM   46  C   UNK     0      10.386  17.962   5.205  0.00  0.00     0.114 C 
BRANCH  46  47
HETATM   47  C   UNK     0      10.348  18.378   3.774  0.00  0.00     0.139 C 
HETATM   48  O   UNK     0      11.420  18.595   3.192  0.00  0.00    -0.650 OA
BRANCH  47  49
HETATM   49  O   UNK     0       9.153  18.519   3.115  0.00  0.00    -0.776 OA
HETATM   50  H   UNK     0       9.055  19.117   2.286  0.00  0.00     0.167 HD
ENDBRANCH  47  49
ENDBRANCH  46  47
ENDBRANCH  45  46
ENDBRANCH  11  45
BRANCH  18  51
HETATM   51  C   UNK     0      14.152  13.337   0.432  0.00  0.00     0.051 C 
BRANCH  51  52
HETATM   52  C   UNK     0      14.181  11.917  -0.112  0.00  0.00     0.114 C 
BRANCH  52  53
HETATM   53  C   UNK     0      14.607  11.878  -1.524  0.00  0.00     0.139 C 
HETATM   54  O   UNK     0      14.883  10.793  -2.061  0.00  0.00    -0.650 OA
BRANCH  53  55
HETATM   55  O   UNK     0      14.699  13.048  -2.239  0.00  0.00    -0.776 OA
HETATM   56  H   UNK     0      14.175  13.875  -2.075  0.00  0.00     0.167 HD
ENDBRANCH  53  55
ENDBRANCH  52  53
ENDBRANCH  51  52
ENDBRANCH  18  51
TORSDOF 16
ENDMDL
MODEL 12
REMARK VINA RESULT:      -9.1      1.972      7.207
REMARK  16 active torsions:
REMARK  status: ('A' for Active; 'I' for Inactive)
REMARK    1  A    between atoms: C_6  and  C_7 
REMARK    2  A    between atoms: C_7  and  C_8 
REMARK    3  A    between atoms: C_8  and  C_9 
REMARK    4  A    between atoms: C_9  and  O_11 
REMARK    5  A    between atoms: C_16  and  C_17 
REMARK    6  A    between atoms: C_17  and  C_18 
REMARK    7  A    between atoms: C_18  and  C_19 
REMARK    8  A    between atoms: C_19  and  O_21 
REMARK    9  A    between atoms: C_28  and  C_29 
REMARK   10  A    between atoms: C_29  and  C_30 
REMARK   11  A    between atoms: C_30  and  C_31 
REMARK   12  A    between atoms: C_31  and  O_33 
REMARK   13  A    between atoms: C_42  and  C_43 
REMARK   14  A    between atoms: C_43  and  C_44 
REMARK   15  A    between atoms: C_44  and  C_45 
REMARK   16  A    between atoms: C_45  and  O_47 
ROOT
HETATM    1  C   UNK     0      -4.143  -6.894  21.922  0.00  0.00     0.051 C 
HETATM    2  C   UNK     0      -5.055  -6.594  20.750  0.00  0.00    -0.031 A 
HETATM    3  C   UNK     0      -5.117  -7.200  19.505  0.00  0.00     0.021 A 
HETATM    4  N   UNK     0      -6.065  -6.583  18.761  0.00  0.00    -0.361 N 
HETATM    5  C   UNK     0      -6.615  -5.603  19.507  0.00  0.00     0.022 A 
HETATM    6  C   UNK     0      -6.004  -5.580  20.756  0.00  0.00    -0.027 A 
HETATM    7  C   UNK     0      -7.760  -4.693  19.189  0.00  0.00     0.115 C 
HETATM    8  C   UNK     0      -8.963  -5.324  18.509  0.00  0.00     0.021 A 
HETATM    9  N   UNK     0      -9.479  -6.549  18.691  0.00  0.00    -0.361 N 
HETATM   10  C   UNK     0     -10.487  -6.715  17.808  0.00  0.00     0.022 A 
HETATM   11  C   UNK     0     -10.630  -5.560  17.044  0.00  0.00    -0.027 A 
HETATM   12  C   UNK     0      -9.673  -4.680  17.480  0.00  0.00    -0.031 A 
HETATM   13  C   UNK     0      -9.456  -3.286  16.937  0.00  0.00     0.051 C 
HETATM   14  C   UNK     0     -11.317  -7.980  17.615  0.00  0.00     0.115 C 
HETATM   15  C   UNK     0     -10.502  -9.193  17.195  0.00  0.00     0.021 A 
HETATM   16  N   UNK     0      -9.471  -9.757  17.852  0.00  0.00    -0.361 N 
HETATM   17  C   UNK     0      -8.980 -10.759  17.119  0.00  0.00     0.022 A 
HETATM   18  C   UNK     0      -9.733 -10.859  15.932  0.00  0.00    -0.027 A 
HETATM   19  C   UNK     0     -10.684  -9.873  15.993  0.00  0.00    -0.031 A 
HETATM   20  C   UNK     0     -11.737  -9.650  14.923  0.00  0.00     0.051 C 
HETATM   21  C   UNK     0      -7.788 -11.655  17.372  0.00  0.00     0.115 C 
HETATM   22  C   UNK     0      -6.602 -11.052  18.087  0.00  0.00     0.022 A 
HETATM   23  N   UNK     0      -6.069  -9.833  17.929  0.00  0.00    -0.361 N 
HETATM   24  C   UNK     0      -5.119  -9.662  18.870  0.00  0.00     0.021 A 
HETATM   25  C   UNK     0      -5.030 -10.802  19.646  0.00  0.00    -0.031 A 
HETATM   26  C   UNK     0      -4.090 -11.103  20.794  0.00  0.00     0.051 C 
HETATM   27  C   UNK     0      -5.970 -11.706  19.164  0.00  0.00    -0.027 A 
HETATM   28  C   UNK     0      -4.303  -8.412  19.150  0.00  0.00     0.115 C 
HETATM   29  H   UNK     0      -6.312  -6.819  17.700  0.00  0.00     0.165 HD
HETATM   30  H   UNK     0      -9.166  -7.282  19.475  0.00  0.00     0.165 HD
HETATM   31  H   UNK     0      -9.112  -9.474  18.875  0.00  0.00     0.165 HD
HETATM   32  H   UNK     0      -6.329  -9.098  17.124  0.00  0.00     0.165 HD
ENDROOT
BRANCH   6  33
HETATM   33  C   UNK     0      -6.249  -4.677  21.939  0.00  0.00     0.051 C 
BRANCH  33  34
HETATM   34  C   UNK     0      -5.363  -3.456  21.873  0.00  0.00     0.114 C 
BRANCH  34  35
HETATM   35  C   UNK     0      -6.253  -2.260  21.837  0.00  0.00     0.139 C 
HETATM   36  O   UNK     0      -6.839  -1.870  22.888  0.00  0.00    -0.650 OA
BRANCH  35  37
HETATM   37  O   UNK     0      -6.477  -1.528  20.677  0.00  0.00    -0.776 OA
HETATM   38  H   UNK     0      -6.559  -1.968  19.775  0.00  0.00     0.167 HD
ENDBRANCH  35  37
ENDBRANCH  34  35
ENDBRANCH  33  34
ENDBRANCH   6  33
BRANCH  27  39
HETATM   39  C   UNK     0      -6.122 -13.083  19.706  0.00  0.00     0.051 C 
BRANCH  39  40
HETATM   40  C   UNK     0      -7.064 -13.297  20.805  0.00  0.00     0.114 C 
BRANCH  40  41
HETATM   41  C   UNK     0      -7.965 -12.261  21.259  0.00  0.00     0.139 C 
HETATM   42  O   UNK     0      -9.116 -12.118  20.824  0.00  0.00    -0.650 OA
BRANCH  41  43
HETATM   43  O   UNK     0      -7.522 -11.350  22.259  0.00  0.00    -0.776 OA
HETATM   44  H   UNK     0      -8.036 -10.477  22.287  0.00  0.00     0.167 HD
ENDBRANCH  41  43
ENDBRANCH  40  41
ENDBRANCH  39  40
ENDBRANCH  27  39
BRANCH  11  45
HETATM   45  C   UNK     0     -11.620  -5.275  15.946  0.00  0.00     0.051 C 
BRANCH  45  46
HETATM   46  C   UNK     0     -12.688  -4.315  16.328  0.00  0.00     0.114 C 
BRANCH  46  47
HETATM   47  C   UNK     0     -13.338  -4.846  17.560  0.00  0.00     0.139 C 
HETATM   48  O   UNK     0     -13.162  -4.245  18.629  0.00  0.00    -0.650 OA
BRANCH  47  49
HETATM   49  O   UNK     0     -14.115  -5.976  17.513  0.00  0.00    -0.776 OA
HETATM   50  H   UNK     0     -15.055  -5.974  17.100  0.00  0.00     0.167 HD
ENDBRANCH  47  49
ENDBRANCH  46  47
ENDBRANCH  45  46
ENDBRANCH  11  45
BRANCH  18  51
HETATM   51  C   UNK     0      -9.569 -11.852  14.811  0.00  0.00     0.051 C 
BRANCH  51  52
HETATM   52  C   UNK     0      -8.098 -11.817  14.423  0.00  0.00     0.114 C 
BRANCH  52  53
HETATM   53  C   UNK     0      -7.444 -13.124  14.630  0.00  0.00     0.139 C 
HETATM   54  O   UNK     0      -6.205 -13.200  14.663  0.00  0.00    -0.650 OA
BRANCH  53  55
HETATM   55  O   UNK     0      -8.212 -14.252  14.783  0.00  0.00    -0.776 OA
HETATM   56  H   UNK     0      -8.523 -14.850  14.054  0.00  0.00     0.167 HD
ENDBRANCH  53  55
ENDBRANCH  52  53
ENDBRANCH  51  52
ENDBRANCH  18  51
TORSDOF 16
ENDMDL
MODEL 13
REMARK VINA RESULT:      -9.1     27.859     31.267
REMARK  16 active torsions:
REMARK  status: ('A' for Active; 'I' for Inactive)
REMARK    1  A    between atoms: C_6  and  C_7 
REMARK    2  A    between atoms: C_7  and  C_8 
REMARK    3  A    between atoms: C_8  and  C_9 
REMARK    4  A    between atoms: C_9  and  O_11 
REMARK    5  A    between atoms: C_16  and  C_17 
REMARK    6  A    between atoms: C_17  and  C_18 
REMARK    7  A    between atoms: C_18  and  C_19 
REMARK    8  A    between atoms: C_19  and  O_21 
REMARK    9  A    between atoms: C_28  and  C_29 
REMARK   10  A    between atoms: C_29  and  C_30 
REMARK   11  A    between atoms: C_30  and  C_31 
REMARK   12  A    between atoms: C_31  and  O_33 
REMARK   13  A    between atoms: C_42  and  C_43 
REMARK   14  A    between atoms: C_43  and  C_44 
REMARK   15  A    between atoms: C_44  and  C_45 
REMARK   16  A    between atoms: C_45  and  O_47 
ROOT
HETATM    1  C   UNK     0      13.218   8.029  12.198  0.00  0.00     0.051 C 
HETATM    2  C   UNK     0      13.045   7.977  10.694  0.00  0.00    -0.031 A 
HETATM    3  C   UNK     0      12.127   8.635   9.890  0.00  0.00     0.021 A 
HETATM    4  N   UNK     0      12.321   8.263   8.603  0.00  0.00    -0.361 N 
HETATM    5  C   UNK     0      13.348   7.389   8.567  0.00  0.00     0.022 A 
HETATM    6  C   UNK     0      13.822   7.185   9.858  0.00  0.00    -0.027 A 
HETATM    7  C   UNK     0      14.017   6.755   7.388  0.00  0.00     0.115 C 
HETATM    8  C   UNK     0      14.286   7.652   6.193  0.00  0.00     0.021 A 
HETATM    9  N   UNK     0      14.629   8.950   6.182  0.00  0.00    -0.361 N 
HETATM   10  C   UNK     0      14.674   9.360   4.896  0.00  0.00     0.022 A 
HETATM   11  C   UNK     0      14.361   8.295   4.056  0.00  0.00    -0.027 A 
HETATM   12  C   UNK     0      14.116   7.216   4.866  0.00  0.00    -0.031 A 
HETATM   13  C   UNK     0      13.741   5.831   4.388  0.00  0.00     0.051 C 
HETATM   14  C   UNK     0      14.961  10.779   4.413  0.00  0.00     0.115 C 
HETATM   15  C   UNK     0      13.957  11.811   4.903  0.00  0.00     0.021 A 
HETATM   16  N   UNK     0      13.649  12.117   6.177  0.00  0.00    -0.361 N 
HETATM   17  C   UNK     0      12.670  13.024   6.185  0.00  0.00     0.022 A 
HETATM   18  C   UNK     0      12.329  13.330   4.853  0.00  0.00    -0.027 A 
HETATM   19  C   UNK     0      13.144  12.564   4.059  0.00  0.00    -0.031 A 
HETATM   20  C   UNK     0      13.131  12.613   2.542  0.00  0.00     0.051 C 
HETATM   21  C   UNK     0      11.924  13.638   7.348  0.00  0.00     0.115 C 
HETATM   22  C   UNK     0      11.688  12.770   8.562  0.00  0.00     0.022 A 
HETATM   23  N   UNK     0      11.350  11.475   8.603  0.00  0.00    -0.361 N 
HETATM   24  C   UNK     0      11.387  11.068   9.888  0.00  0.00     0.021 A 
HETATM   25  C   UNK     0      11.747  12.130  10.695  0.00  0.00    -0.031 A 
HETATM   26  C   UNK     0      11.884  12.177  12.203  0.00  0.00     0.051 C 
HETATM   27  C   UNK     0      11.945  13.230   9.869  0.00  0.00    -0.027 A 
HETATM   28  C   UNK     0      11.170   9.663  10.424  0.00  0.00     0.115 C 
HETATM   29  H   UNK     0      11.705   8.591   7.733  0.00  0.00     0.165 HD
HETATM   30  H   UNK     0      14.888   9.566   7.077  0.00  0.00     0.165 HD
HETATM   31  H   UNK     0      14.166  11.721   7.089  0.00  0.00     0.165 HD
HETATM   32  H   UNK     0      11.040  10.846   7.728  0.00  0.00     0.165 HD
ENDROOT
BRANCH   6  33
HETATM   33  C   UNK     0      14.942   6.305  10.352  0.00  0.00     0.051 C 
BRANCH  33  34
HETATM   34  C   UNK     0      14.459   4.889  10.558  0.00  0.00     0.114 C 
BRANCH  34  35
HETATM   35  C   UNK     0      15.456   3.980   9.922  0.00  0.00     0.139 C 
HETATM   36  O   UNK     0      15.716   4.084   8.689  0.00  0.00    -0.650 OA
BRANCH  35  37
HETATM   37  O   UNK     0      16.135   2.998  10.634  0.00  0.00    -0.776 OA
HETATM   38  H   UNK     0      17.038   3.166  11.047  0.00  0.00     0.167 HD
ENDBRANCH  35  37
ENDBRANCH  34  35
ENDBRANCH  33  34
ENDBRANCH   6  33
BRANCH  27  39
HETATM   39  C   UNK     0      12.277  14.585  10.389  0.00  0.00     0.051 C 
BRANCH  39  40
HETATM   40  C   UNK     0      13.471  15.253   9.873  0.00  0.00     0.114 C 
BRANCH  40  41
HETATM   41  C   UNK     0      13.431  16.596   9.338  0.00  0.00     0.139 C 
HETATM   42  O   UNK     0      14.244  17.478   9.646  0.00  0.00    -0.650 OA
BRANCH  41  43
HETATM   43  O   UNK     0      12.411  16.940   8.407  0.00  0.00    -0.776 OA
HETATM   44  H   UNK     0      12.211  16.222   7.720  0.00  0.00     0.167 HD
ENDBRANCH  41  43
ENDBRANCH  40  41
ENDBRANCH  39  40
ENDBRANCH  27  39
BRANCH  11  45
HETATM   45  C   UNK     0      14.293   8.271   2.553  0.00  0.00     0.051 C 
BRANCH  45  46
HETATM   46  C   UNK     0      13.204   9.104   1.982  0.00  0.00     0.114 C 
BRANCH  46  47
HETATM   47  C   UNK     0      12.912   8.575   0.619  0.00  0.00     0.139 C 
HETATM   48  O   UNK     0      11.761   8.191   0.366  0.00  0.00    -0.650 OA
BRANCH  47  49
HETATM   49  O   UNK     0      13.895   8.512  -0.336  0.00  0.00    -0.776 OA
HETATM   50  H   UNK     0      14.586   7.753  -0.358  0.00  0.00     0.167 HD
ENDBRANCH  47  49
ENDBRANCH  46  47
ENDBRANCH  45  46
ENDBRANCH  11  45
BRANCH  18  51
HETATM   51  C   UNK     0      11.299  14.314   4.362  0.00  0.00     0.051 C 
BRANCH  51  52
HETATM   52  C   UNK     0      12.023  15.643   4.200  0.00  0.00     0.114 C 
BRANCH  52  53
HETATM   53  C   UNK     0      11.291  16.749   4.847  0.00  0.00     0.139 C 
HETATM   54  O   UNK     0      10.708  16.561   5.927  0.00  0.00    -0.650 OA
BRANCH  53  55
HETATM   55  O   UNK     0      11.257  17.984   4.247  0.00  0.00    -0.776 OA
HETATM   56  H   UNK     0      10.564  18.682   4.384  0.00  0.00     0.167 HD
ENDBRANCH  53  55
ENDBRANCH  52  53
ENDBRANCH  51  52
ENDBRANCH  18  51
TORSDOF 16
ENDMDL
MODEL 14
REMARK VINA RESULT:      -9.1     28.307     32.203
REMARK  16 active torsions:
REMARK  status: ('A' for Active; 'I' for Inactive)
REMARK    1  A    between atoms: C_6  and  C_7 
REMARK    2  A    between atoms: C_7  and  C_8 
REMARK    3  A    between atoms: C_8  and  C_9 
REMARK    4  A    between atoms: C_9  and  O_11 
REMARK    5  A    between atoms: C_16  and  C_17 
REMARK    6  A    between atoms: C_17  and  C_18 
REMARK    7  A    between atoms: C_18  and  C_19 
REMARK    8  A    between atoms: C_19  and  O_21 
REMARK    9  A    between atoms: C_28  and  C_29 
REMARK   10  A    between atoms: C_29  and  C_30 
REMARK   11  A    between atoms: C_30  and  C_31 
REMARK   12  A    between atoms: C_31  and  O_33 
REMARK   13  A    between atoms: C_42  and  C_43 
REMARK   14  A    between atoms: C_43  and  C_44 
REMARK   15  A    between atoms: C_44  and  C_45 
REMARK   16  A    between atoms: C_45  and  O_47 
ROOT
HETATM    1  C   UNK     0      13.453   6.378   4.035  0.00  0.00     0.051 C 
HETATM    2  C   UNK     0      13.756   7.237   5.246  0.00  0.00    -0.031 A 
HETATM    3  C   UNK     0      14.398   8.463   5.316  0.00  0.00     0.021 A 
HETATM    4  N   UNK     0      14.476   8.847   6.612  0.00  0.00    -0.361 N 
HETATM    5  C   UNK     0      13.890   7.897   7.369  0.00  0.00     0.022 A 
HETATM    6  C   UNK     0      13.431   6.873   6.546  0.00  0.00    -0.027 A 
HETATM    7  C   UNK     0      13.629   7.880   8.843  0.00  0.00     0.115 C 
HETATM    8  C   UNK     0      13.123   9.172   9.460  0.00  0.00     0.021 A 
HETATM    9  N   UNK     0      12.293  10.084   8.930  0.00  0.00    -0.361 N 
HETATM   10  C   UNK     0      12.194  11.114   9.796  0.00  0.00     0.022 A 
HETATM   11  C   UNK     0      12.974  10.855  10.919  0.00  0.00    -0.027 A 
HETATM   12  C   UNK     0      13.562   9.633  10.715  0.00  0.00    -0.031 A 
HETATM   13  C   UNK     0      14.496   8.939  11.680  0.00  0.00     0.051 C 
HETATM   14  C   UNK     0      11.406  12.403   9.577  0.00  0.00     0.115 C 
HETATM   15  C   UNK     0      11.871  13.212   8.377  0.00  0.00     0.021 A 
HETATM   16  N   UNK     0      11.925  12.818   7.091  0.00  0.00    -0.361 N 
HETATM   17  C   UNK     0      12.457  13.796   6.355  0.00  0.00     0.022 A 
HETATM   18  C   UNK     0      12.755  14.883   7.200  0.00  0.00    -0.027 A 
HETATM   19  C   UNK     0      12.383  14.506   8.464  0.00  0.00    -0.031 A 
HETATM   20  C   UNK     0      12.500  15.403   9.682  0.00  0.00     0.051 C 
HETATM   21  C   UNK     0      12.797  13.828   4.882  0.00  0.00     0.115 C 
HETATM   22  C   UNK     0      13.259  12.539   4.244  0.00  0.00     0.022 A 
HETATM   23  N   UNK     0      14.081  11.611   4.751  0.00  0.00    -0.361 N 
HETATM   24  C   UNK     0      14.104  10.559   3.907  0.00  0.00     0.021 A 
HETATM   25  C   UNK     0      13.284  10.821   2.826  0.00  0.00    -0.031 A 
HETATM   26  C   UNK     0      13.016   9.967   1.604  0.00  0.00     0.051 C 
HETATM   27  C   UNK     0      12.733  12.083   3.019  0.00  0.00    -0.027 A 
HETATM   28  C   UNK     0      14.817   9.232   4.095  0.00  0.00     0.115 C 
HETATM   29  H   UNK     0      14.979   9.769   6.987  0.00  0.00     0.165 HD
HETATM   30  H   UNK     0      11.737   9.980   7.966  0.00  0.00     0.165 HD
HETATM   31  H   UNK     0      11.535  11.848   6.686  0.00  0.00     0.165 HD
HETATM   32  H   UNK     0      14.687  11.707   5.689  0.00  0.00     0.165 HD
ENDROOT
BRANCH   6  33
HETATM   33  C   UNK     0      12.719   5.591   6.898  0.00  0.00     0.051 C 
BRANCH  33  34
HETATM   34  C   UNK     0      13.668   4.613   7.549  0.00  0.00     0.114 C 
BRANCH  34  35
HETATM   35  C   UNK     0      14.082   3.631   6.506  0.00  0.00     0.139 C 
HETATM   36  O   UNK     0      15.184   3.771   5.901  0.00  0.00    -0.650 OA
BRANCH  35  37
HETATM   37  O   UNK     0      13.300   2.537   6.155  0.00  0.00    -0.776 OA
HETATM   38  H   UNK     0      12.954   2.406   5.218  0.00  0.00     0.167 HD
ENDBRANCH  35  37
ENDBRANCH  34  35
ENDBRANCH  33  34
ENDBRANCH   6  33
BRANCH  27  39
HETATM   39  C   UNK     0      11.846  12.741   2.021  0.00  0.00     0.051 C 
BRANCH  39  40
HETATM   40  C   UNK     0      12.393  13.841   1.227  0.00  0.00     0.114 C 
BRANCH  40  41
HETATM   41  C   UNK     0      12.043  15.221   1.478  0.00  0.00     0.139 C 
HETATM   42  O   UNK     0      11.186  15.570   2.301  0.00  0.00    -0.650 OA
BRANCH  41  43
HETATM   43  O   UNK     0      12.711  16.247   0.750  0.00  0.00    -0.776 OA
HETATM   44  H   UNK     0      13.702  16.088   0.615  0.00  0.00     0.167 HD
ENDBRANCH  41  43
ENDBRANCH  40  41
ENDBRANCH  39  40
ENDBRANCH  27  39
BRANCH  11  45
HETATM   45  C   UNK     0      13.170  11.705  12.146  0.00  0.00     0.051 C 
BRANCH  45  46
HETATM   46  C   UNK     0      14.095  12.850  11.948  0.00  0.00     0.114 C 
BRANCH  46  47
HETATM   47  C   UNK     0      15.323  12.569  12.747  0.00  0.00     0.139 C 
HETATM   48  O   UNK     0      15.240  11.790  13.706  0.00  0.00    -0.650 OA
BRANCH  47  49
HETATM   49  O   UNK     0      16.519  13.161  12.428  0.00  0.00    -0.776 OA
HETATM   50  H   UNK     0      17.190  12.722  11.787  0.00  0.00     0.167 HD
ENDBRANCH  47  49
ENDBRANCH  46  47
ENDBRANCH  45  46
ENDBRANCH  11  45
BRANCH  18  51
HETATM   51  C   UNK     0      13.344  16.217   6.820  0.00  0.00     0.051 C 
BRANCH  51  52
HETATM   52  C   UNK     0      12.198  17.217   6.865  0.00  0.00     0.114 C 
BRANCH  52  53
HETATM   53  C   UNK     0      11.324  17.106   5.681  0.00  0.00     0.139 C 
HETATM   54  O   UNK     0      10.166  16.675   5.802  0.00  0.00    -0.650 OA
BRANCH  53  55
HETATM   55  O   UNK     0      11.800  17.477   4.448  0.00  0.00    -0.776 OA
HETATM   56  H   UNK     0      11.553  17.067   3.578  0.00  0.00     0.167 HD
ENDBRANCH  53  55
ENDBRANCH  52  53
ENDBRANCH  51  52
ENDBRANCH  18  51
TORSDOF 16
ENDMDL
MODEL 15
REMARK VINA RESULT:      -9.1     29.669     32.849
REMARK  16 active torsions:
REMARK  status: ('A' for Active; 'I' for Inactive)
REMARK    1  A    between atoms: C_6  and  C_7 
REMARK    2  A    between atoms: C_7  and  C_8 
REMARK    3  A    between atoms: C_8  and  C_9 
REMARK    4  A    between atoms: C_9  and  O_11 
REMARK    5  A    between atoms: C_16  and  C_17 
REMARK    6  A    between atoms: C_17  and  C_18 
REMARK    7  A    between atoms: C_18  and  C_19 
REMARK    8  A    between atoms: C_19  and  O_21 
REMARK    9  A    between atoms: C_28  and  C_29 
REMARK   10  A    between atoms: C_29  and  C_30 
REMARK   11  A    between atoms: C_30  and  C_31 
REMARK   12  A    between atoms: C_31  and  O_33 
REMARK   13  A    between atoms: C_42  and  C_43 
REMARK   14  A    between atoms: C_43  and  C_44 
REMARK   15  A    between atoms: C_44  and  C_45 
REMARK   16  A    between atoms: C_45  and  O_47 
ROOT
HETATM    1  C   UNK     0      11.942  17.510   5.756  0.00  0.00     0.051 C 
HETATM    2  C   UNK     0      11.920  16.098   6.304  0.00  0.00    -0.031 A 
HETATM    3  C   UNK     0      11.427  14.938   5.727  0.00  0.00     0.021 A 
HETATM    4  N   UNK     0      11.592  13.910   6.593  0.00  0.00    -0.361 N 
HETATM    5  C   UNK     0      12.186  14.388   7.706  0.00  0.00     0.022 A 
HETATM    6  C   UNK     0      12.403  15.754   7.560  0.00  0.00    -0.027 A 
HETATM    7  C   UNK     0      12.669  13.654   8.918  0.00  0.00     0.115 C 
HETATM    8  C   UNK     0      13.395  12.342   8.675  0.00  0.00     0.021 A 
HETATM    9  N   UNK     0      14.223  12.018   7.669  0.00  0.00    -0.361 N 
HETATM   10  C   UNK     0      14.561  10.718   7.807  0.00  0.00     0.022 A 
HETATM   11  C   UNK     0      13.942  10.194   8.938  0.00  0.00    -0.027 A 
HETATM   12  C   UNK     0      13.207  11.211   9.490  0.00  0.00    -0.031 A 
HETATM   13  C   UNK     0      12.366  11.103  10.743  0.00  0.00     0.051 C 
HETATM   14  C   UNK     0      15.435   9.908   6.854  0.00  0.00     0.115 C 
HETATM   15  C   UNK     0      14.876   9.806   5.444  0.00  0.00     0.021 A 
HETATM   16  N   UNK     0      14.583  10.814   4.601  0.00  0.00    -0.361 N 
HETATM   17  C   UNK     0      14.048  10.312   3.486  0.00  0.00     0.022 A 
HETATM   18  C   UNK     0      13.998   8.909   3.604  0.00  0.00    -0.027 A 
HETATM   19  C   UNK     0      14.521   8.605   4.834  0.00  0.00    -0.031 A 
HETATM   20  C   UNK     0      14.687   7.188   5.353  0.00  0.00     0.051 C 
HETATM   21  C   UNK     0      13.489  11.020   2.273  0.00  0.00     0.115 C 
HETATM   22  C   UNK     0      12.802  12.347   2.494  0.00  0.00     0.022 A 
HETATM   23  N   UNK     0      11.977  12.700   3.488  0.00  0.00    -0.361 N 
HETATM   24  C   UNK     0      11.715  14.017   3.374  0.00  0.00     0.021 A 
HETATM   25  C   UNK     0      12.380  14.524   2.274  0.00  0.00    -0.031 A 
HETATM   26  C   UNK     0      12.366  15.932   1.717  0.00  0.00     0.051 C 
HETATM   27  C   UNK     0      13.082  13.474   1.694  0.00  0.00    -0.027 A 
HETATM   28  C   UNK     0      10.906  14.889   4.319  0.00  0.00     0.115 C 
HETATM   29  H   UNK     0      11.251  12.862   6.428  0.00  0.00     0.165 HD
HETATM   30  H   UNK     0      14.610  12.717   6.888  0.00  0.00     0.165 HD
HETATM   31  H   UNK     0      14.803  11.899   4.776  0.00  0.00     0.165 HD
HETATM   32  H   UNK     0      11.536  12.011   4.255  0.00  0.00     0.165 HD
ENDROOT
BRANCH   6  33
HETATM   33  C   UNK     0      13.025  16.745   8.511  0.00  0.00     0.051 C 
BRANCH  33  34
HETATM   34  C   UNK     0      14.063  16.074   9.379  0.00  0.00     0.114 C 
BRANCH  34  35
HETATM   35  C   UNK     0      14.666  17.126  10.248  0.00  0.00     0.139 C 
HETATM   36  O   UNK     0      14.793  16.930  11.491  0.00  0.00    -0.650 OA
BRANCH  35  37
HETATM   37  O   UNK     0      15.112  18.344   9.749  0.00  0.00    -0.776 OA
HETATM   38  H   UNK     0      15.956  18.423   9.206  0.00  0.00     0.167 HD
ENDBRANCH  35  37
ENDBRANCH  34  35
ENDBRANCH  33  34
ENDBRANCH   6  33
BRANCH  27  39
HETATM   39  C   UNK     0      13.867  13.620   0.437  0.00  0.00     0.051 C 
BRANCH  39  40
HETATM   40  C   UNK     0      14.464  12.421  -0.151  0.00  0.00     0.114 C 
BRANCH  40  41
HETATM   41  C   UNK     0      14.660  12.278  -1.576  0.00  0.00     0.139 C 
HETATM   42  O   UNK     0      14.714  11.183  -2.152  0.00  0.00    -0.650 OA
BRANCH  41  43
HETATM   43  O   UNK     0      14.802  13.448  -2.375  0.00  0.00    -0.776 OA
HETATM   44  H   UNK     0      15.761  13.738  -2.527  0.00  0.00     0.167 HD
ENDBRANCH  41  43
ENDBRANCH  40  41
ENDBRANCH  39  40
ENDBRANCH  27  39
BRANCH  11  45
HETATM   45  C   UNK     0      14.027   8.799   9.497  0.00  0.00     0.051 C 
BRANCH  45  46
HETATM   46  C   UNK     0      13.228   7.796   8.747  0.00  0.00     0.114 C 
BRANCH  46  47
HETATM   47  C   UNK     0      11.899   7.700   9.416  0.00  0.00     0.139 C 
HETATM   48  O   UNK     0      10.922   8.230   8.870  0.00  0.00    -0.650 OA
BRANCH  47  49
HETATM   49  O   UNK     0      11.761   7.042  10.612  0.00  0.00    -0.776 OA
HETATM   50  H   UNK     0      11.668   7.545  11.503  0.00  0.00     0.167 HD
ENDBRANCH  47  49
ENDBRANCH  46  47
ENDBRANCH  45  46
ENDBRANCH  11  45
BRANCH  18  51
HETATM   51  C   UNK     0      13.499   7.912   2.591  0.00  0.00     0.051 C 
BRANCH  51  52
HETATM   52  C   UNK     0      14.498   7.933   1.444  0.00  0.00     0.114 C 
BRANCH  52  53
HETATM   53  C   UNK     0      13.869   8.348   0.175  0.00  0.00     0.139 C 
HETATM   54  O   UNK     0      12.632   8.368   0.072  0.00  0.00    -0.650 OA
BRANCH  53  55
HETATM   55  O   UNK     0      14.660   8.707  -0.890  0.00  0.00    -0.776 OA
HETATM   56  H   UNK     0      14.578   8.366  -1.819  0.00  0.00     0.167 HD
ENDBRANCH  53  55
ENDBRANCH  52  53
ENDBRANCH  51  52
ENDBRANCH  18  51
TORSDOF 16
ENDMDL
MODEL 16
REMARK VINA RESULT:      -9.0     28.135     31.448
REMARK  16 active torsions:
REMARK  status: ('A' for Active; 'I' for Inactive)
REMARK    1  A    between atoms: C_6  and  C_7 
REMARK    2  A    between atoms: C_7  and  C_8 
REMARK    3  A    between atoms: C_8  and  C_9 
REMARK    4  A    between atoms: C_9  and  O_11 
REMARK    5  A    between atoms: C_16  and  C_17 
REMARK    6  A    between atoms: C_17  and  C_18 
REMARK    7  A    between atoms: C_18  and  C_19 
REMARK    8  A    between atoms: C_19  and  O_21 
REMARK    9  A    between atoms: C_28  and  C_29 
REMARK   10  A    between atoms: C_29  and  C_30 
REMARK   11  A    between atoms: C_30  and  C_31 
REMARK   12  A    between atoms: C_31  and  O_33 
REMARK   13  A    between atoms: C_42  and  C_43 
REMARK   14  A    between atoms: C_43  and  C_44 
REMARK   15  A    between atoms: C_44  and  C_45 
REMARK   16  A    between atoms: C_45  and  O_47 
ROOT
HETATM    1  C   UNK     0      13.344   8.939  12.247  0.00  0.00     0.051 C 
HETATM    2  C   UNK     0      13.130   8.700  10.766  0.00  0.00    -0.031 A 
HETATM    3  C   UNK     0      12.201   9.267   9.908  0.00  0.00     0.021 A 
HETATM    4  N   UNK     0      12.355   8.732   8.674  0.00  0.00    -0.361 N 
HETATM    5  C   UNK     0      13.368   7.842   8.724  0.00  0.00     0.022 A 
HETATM    6  C   UNK     0      13.874   7.795  10.019  0.00  0.00    -0.027 A 
HETATM    7  C   UNK     0      13.997   7.052   7.620  0.00  0.00     0.115 C 
HETATM    8  C   UNK     0      14.247   7.786   6.314  0.00  0.00     0.021 A 
HETATM    9  N   UNK     0      14.608   9.065   6.130  0.00  0.00    -0.361 N 
HETATM   10  C   UNK     0      14.625   9.309   4.802  0.00  0.00     0.022 A 
HETATM   11  C   UNK     0      14.275   8.152   4.112  0.00  0.00    -0.027 A 
HETATM   12  C   UNK     0      14.036   7.188   5.058  0.00  0.00    -0.031 A 
HETATM   13  C   UNK     0      13.628   5.761   4.769  0.00  0.00     0.051 C 
HETATM   14  C   UNK     0      14.919  10.649   4.135  0.00  0.00     0.115 C 
HETATM   15  C   UNK     0      13.944  11.752   4.514  0.00  0.00     0.021 A 
HETATM   16  N   UNK     0      13.675  12.223   5.746  0.00  0.00    -0.361 N 
HETATM   17  C   UNK     0      12.709  13.141   5.663  0.00  0.00     0.022 A 
HETATM   18  C   UNK     0      12.338  13.282   4.311  0.00  0.00    -0.027 A 
HETATM   19  C   UNK     0      13.120  12.408   3.602  0.00  0.00    -0.031 A 
HETATM   20  C   UNK     0      13.068  12.264   2.092  0.00  0.00     0.051 C 
HETATM   21  C   UNK     0      12.004  13.911   6.757  0.00  0.00     0.115 C 
HETATM   22  C   UNK     0      11.787  13.208   8.076  0.00  0.00     0.022 A 
HETATM   23  N   UNK     0      11.431  11.934   8.289  0.00  0.00    -0.361 N 
HETATM   24  C   UNK     0      11.496  11.693   9.614  0.00  0.00     0.021 A 
HETATM   25  C   UNK     0      11.894  12.842  10.271  0.00  0.00    -0.031 A 
HETATM   26  C   UNK     0      12.071  13.078  11.757  0.00  0.00     0.051 C 
HETATM   27  C   UNK     0      12.085  13.825   9.308  0.00  0.00    -0.027 A 
HETATM   28  C   UNK     0      11.274  10.372  10.330  0.00  0.00     0.115 C 
HETATM   29  H   UNK     0      11.722   8.958   7.785  0.00  0.00     0.165 HD
HETATM   30  H   UNK     0      14.900   9.785   6.933  0.00  0.00     0.165 HD
HETATM   31  H   UNK     0      14.210  11.937   6.689  0.00  0.00     0.165 HD
HETATM   32  H   UNK     0      11.089  11.205   7.510  0.00  0.00     0.165 HD
ENDROOT
BRANCH   6  33
HETATM   33  C   UNK     0      14.993   6.965  10.594  0.00  0.00     0.051 C 
BRANCH  33  34
HETATM   34  C   UNK     0      14.455   5.697  11.214  0.00  0.00     0.114 C 
BRANCH  34  35
HETATM   35  C   UNK     0      14.760   4.577  10.278  0.00  0.00     0.139 C 
HETATM   36  O   UNK     0      13.847   4.087   9.552  0.00  0.00    -0.650 OA
BRANCH  35  37
HETATM   37  O   UNK     0      16.031   4.029  10.154  0.00  0.00    -0.776 OA
HETATM   38  H   UNK     0      16.392   3.710   9.270  0.00  0.00     0.167 HD
ENDBRANCH  35  37
ENDBRANCH  34  35
ENDBRANCH  33  34
ENDBRANCH   6  33
BRANCH  27  39
HETATM   39  C   UNK     0      12.450  15.229   9.643  0.00  0.00     0.051 C 
BRANCH  39  40
HETATM   40  C   UNK     0      13.862  15.608   9.600  0.00  0.00     0.114 C 
BRANCH  40  41
HETATM   41  C   UNK     0      14.455  16.484  10.585  0.00  0.00     0.139 C 
HETATM   42  O   UNK     0      14.952  16.083  11.646  0.00  0.00    -0.650 OA
BRANCH  41  43
HETATM   43  O   UNK     0      14.478  17.886  10.338  0.00  0.00    -0.776 OA
HETATM   44  H   UNK     0      14.595  18.456  11.168  0.00  0.00     0.167 HD
ENDBRANCH  41  43
ENDBRANCH  40  41
ENDBRANCH  39  40
ENDBRANCH  27  39
BRANCH  11  45
HETATM   45  C   UNK     0      14.167   7.938   2.626  0.00  0.00     0.051 C 
BRANCH  45  46
HETATM   46  C   UNK     0      13.119   8.761   1.970  0.00  0.00     0.114 C 
BRANCH  46  47
HETATM   47  C   UNK     0      13.185   8.477   0.508  0.00  0.00     0.139 C 
HETATM   48  O   UNK     0      14.195   8.827  -0.118  0.00  0.00    -0.650 OA
BRANCH  47  49
HETATM   49  O   UNK     0      12.149   7.844  -0.132  0.00  0.00    -0.776 OA
HETATM   50  H   UNK     0      11.818   6.915   0.154  0.00  0.00     0.167 HD
ENDBRANCH  47  49
ENDBRANCH  46  47
ENDBRANCH  45  46
ENDBRANCH  11  45
BRANCH  18  51
HETATM   51  C   UNK     0      11.310  14.214   3.725  0.00  0.00     0.051 C 
BRANCH  51  52
HETATM   52  C   UNK     0      12.077  15.416   3.195  0.00  0.00     0.114 C 
BRANCH  52  53
HETATM   53  C   UNK     0      11.699  15.740   1.806  0.00  0.00     0.139 C 
HETATM   54  O   UNK     0      10.551  15.497   1.401  0.00  0.00    -0.650 OA
BRANCH  53  55
HETATM   55  O   UNK     0      12.625  16.308   0.964  0.00  0.00    -0.776 OA
HETATM   56  H   UNK     0      12.440  16.697   0.070  0.00  0.00     0.167 HD
ENDBRANCH  53  55
ENDBRANCH  52  53
ENDBRANCH  51  52
ENDBRANCH  18  51
TORSDOF 16
ENDMDL
MODEL 17
REMARK VINA RESULT:      -9.0     28.194     30.743
REMARK  16 active torsions:
REMARK  status: ('A' for Active; 'I' for Inactive)
REMARK    1  A    between atoms: C_6  and  C_7 
REMARK    2  A    between atoms: C_7  and  C_8 
REMARK    3  A    between atoms: C_8  and  C_9 
REMARK    4  A    between atoms: C_9  and  O_11 
REMARK    5  A    between atoms: C_16  and  C_17 
REMARK    6  A    between atoms: C_17  and  C_18 
REMARK    7  A    between atoms: C_18  and  C_19 
REMARK    8  A    between atoms: C_19  and  O_21 
REMARK    9  A    between atoms: C_28  and  C_29 
REMARK   10  A    between atoms: C_29  and  C_30 
REMARK   11  A    between atoms: C_30  and  C_31 
REMARK   12  A    between atoms: C_31  and  O_33 
REMARK   13  A    between atoms: C_42  and  C_43 
REMARK   14  A    between atoms: C_43  and  C_44 
REMARK   15  A    between atoms: C_44  and  C_45 
REMARK   16  A    between atoms: C_45  and  O_47 
ROOT
HETATM    1  C   UNK     0      12.941  13.744   3.747  0.00  0.00     0.051 C 
HETATM    2  C   UNK     0      13.780  12.482   3.735  0.00  0.00    -0.031 A 
HETATM    3  C   UNK     0      14.506  11.899   4.761  0.00  0.00     0.021 A 
HETATM    4  N   UNK     0      15.129  10.793   4.288  0.00  0.00    -0.361 N 
HETATM    5  C   UNK     0      14.808  10.655   2.985  0.00  0.00     0.022 A 
HETATM    6  C   UNK     0      13.968  11.696   2.606  0.00  0.00    -0.027 A 
HETATM    7  C   UNK     0      15.156   9.556   2.030  0.00  0.00     0.115 C 
HETATM    8  C   UNK     0      15.060   8.136   2.561  0.00  0.00     0.021 A 
HETATM    9  N   UNK     0      14.176   7.628   3.433  0.00  0.00    -0.361 N 
HETATM   10  C   UNK     0      14.525   6.349   3.687  0.00  0.00     0.022 A 
HETATM   11  C   UNK     0      15.661   6.022   2.952  0.00  0.00    -0.027 A 
HETATM   12  C   UNK     0      16.003   7.143   2.240  0.00  0.00    -0.031 A 
HETATM   13  C   UNK     0      17.177   7.253   1.293  0.00  0.00     0.051 C 
HETATM   14  C   UNK     0      13.838   5.405   4.670  0.00  0.00     0.115 C 
HETATM   15  C   UNK     0      13.858   5.893   6.109  0.00  0.00     0.021 A 
HETATM   16  N   UNK     0      13.358   7.045   6.593  0.00  0.00    -0.361 N 
HETATM   17  C   UNK     0      13.640   7.133   7.895  0.00  0.00     0.022 A 
HETATM   18  C   UNK     0      14.349   5.978   8.280  0.00  0.00    -0.027 A 
HETATM   19  C   UNK     0      14.478   5.209   7.153  0.00  0.00    -0.031 A 
HETATM   20  C   UNK     0      15.153   3.849   7.131  0.00  0.00     0.051 C 
HETATM   21  C   UNK     0      13.366   8.251   8.875  0.00  0.00     0.115 C 
HETATM   22  C   UNK     0      13.415   9.666   8.350  0.00  0.00     0.022 A 
HETATM   23  N   UNK     0      14.281  10.199   7.479  0.00  0.00    -0.361 N 
HETATM   24  C   UNK     0      13.869  11.448   7.181  0.00  0.00     0.021 A 
HETATM   25  C   UNK     0      12.714  11.730   7.886  0.00  0.00    -0.031 A 
HETATM   26  C   UNK     0      11.904  13.009   7.915  0.00  0.00     0.051 C 
HETATM   27  C   UNK     0      12.404  10.605   8.641  0.00  0.00    -0.027 A 
HETATM   28  C   UNK     0      14.473  12.411   6.173  0.00  0.00     0.115 C 
HETATM   29  H   UNK     0      15.822  10.141   4.867  0.00  0.00     0.165 HD
HETATM   30  H   UNK     0      13.274   8.153   3.833  0.00  0.00     0.165 HD
HETATM   31  H   UNK     0      12.752   7.790   6.015  0.00  0.00     0.165 HD
HETATM   32  H   UNK     0      15.217   9.714   7.099  0.00  0.00     0.165 HD
ENDROOT
BRANCH   6  33
HETATM   33  C   UNK     0      13.340  11.999   1.268  0.00  0.00     0.051 C 
BRANCH  33  34
HETATM   34  C   UNK     0      14.202  12.954   0.476  0.00  0.00     0.114 C 
BRANCH  34  35
HETATM   35  C   UNK     0      14.491  12.309  -0.837  0.00  0.00     0.139 C 
HETATM   36  O   UNK     0      14.660  11.057  -0.909  0.00  0.00    -0.650 OA
BRANCH  35  37
HETATM   37  O   UNK     0      14.586  13.031  -2.021  0.00  0.00    -0.776 OA
HETATM   38  H   UNK     0      15.020  12.649  -2.846  0.00  0.00     0.167 HD
ENDBRANCH  35  37
ENDBRANCH  34  35
ENDBRANCH  33  34
ENDBRANCH   6  33
BRANCH  27  39
HETATM   39  C   UNK     0      11.258  10.556   9.590  0.00  0.00     0.051 C 
BRANCH  39  40
HETATM   40  C   UNK     0      10.064   9.807   9.199  0.00  0.00     0.114 C 
BRANCH  40  41
HETATM   41  C   UNK     0       9.995   8.366   9.288  0.00  0.00     0.139 C 
HETATM   42  O   UNK     0       9.669   7.637   8.341  0.00  0.00    -0.650 OA
BRANCH  41  43
HETATM   43  O   UNK     0      10.316   7.734  10.523  0.00  0.00    -0.776 OA
HETATM   44  H   UNK     0       9.802   6.880  10.703  0.00  0.00     0.167 HD
ENDBRANCH  41  43
ENDBRANCH  40  41
ENDBRANCH  39  40
ENDBRANCH  27  39
BRANCH  11  45
HETATM   45  C   UNK     0      16.407   4.716   2.903  0.00  0.00     0.051 C 
BRANCH  45  46
HETATM   46  C   UNK     0      16.565   4.159   1.535  0.00  0.00     0.114 C 
BRANCH  46  47
HETATM   47  C   UNK     0      15.195   3.932   0.990  0.00  0.00     0.139 C 
HETATM   48  O   UNK     0      14.441   3.153   1.589  0.00  0.00    -0.650 OA
BRANCH  47  49
HETATM   49  O   UNK     0      14.778   4.570  -0.151  0.00  0.00    -0.776 OA
HETATM   50  H   UNK     0      15.282   5.376  -0.539  0.00  0.00     0.167 HD
ENDBRANCH  47  49
ENDBRANCH  46  47
ENDBRANCH  45  46
ENDBRANCH  11  45
BRANCH  18  51
HETATM   51  C   UNK     0      14.858   5.617   9.652  0.00  0.00     0.051 C 
BRANCH  51  52
HETATM   52  C   UNK     0      13.720   4.887  10.349  0.00  0.00     0.114 C 
BRANCH  52  53
HETATM   53  C   UNK     0      13.450   5.443  11.690  0.00  0.00     0.139 C 
HETATM   54  O   UNK     0      14.000   4.951  12.688  0.00  0.00    -0.650 OA
BRANCH  53  55
HETATM   55  O   UNK     0      12.587   6.502  11.825  0.00  0.00    -0.776 OA
HETATM   56  H   UNK     0      12.360   6.966  12.673  0.00  0.00     0.167 HD
ENDBRANCH  53  55
ENDBRANCH  52  53
ENDBRANCH  51  52
ENDBRANCH  18  51
TORSDOF 16
ENDMDL
MODEL 18
REMARK VINA RESULT:      -9.0      1.726      2.226
REMARK  16 active torsions:
REMARK  status: ('A' for Active; 'I' for Inactive)
REMARK    1  A    between atoms: C_6  and  C_7 
REMARK    2  A    between atoms: C_7  and  C_8 
REMARK    3  A    between atoms: C_8  and  C_9 
REMARK    4  A    between atoms: C_9  and  O_11 
REMARK    5  A    between atoms: C_16  and  C_17 
REMARK    6  A    between atoms: C_17  and  C_18 
REMARK    7  A    between atoms: C_18  and  C_19 
REMARK    8  A    between atoms: C_19  and  O_21 
REMARK    9  A    between atoms: C_28  and  C_29 
REMARK   10  A    between atoms: C_29  and  C_30 
REMARK   11  A    between atoms: C_30  and  C_31 
REMARK   12  A    between atoms: C_31  and  O_33 
REMARK   13  A    between atoms: C_42  and  C_43 
REMARK   14  A    between atoms: C_43  and  C_44 
REMARK   15  A    between atoms: C_44  and  C_45 
REMARK   16  A    between atoms: C_45  and  O_47 
ROOT
HETATM    1  C   UNK     0     -10.448  -2.379  18.870  0.00  0.00     0.051 C 
HETATM    2  C   UNK     0      -9.895  -3.708  18.398  0.00  0.00    -0.031 A 
HETATM    3  C   UNK     0      -8.577  -4.130  18.308  0.00  0.00     0.021 A 
HETATM    4  N   UNK     0      -8.550  -5.385  17.801  0.00  0.00    -0.361 N 
HETATM    5  C   UNK     0      -9.822  -5.775  17.574  0.00  0.00     0.022 A 
HETATM    6  C   UNK     0     -10.688  -4.749  17.934  0.00  0.00    -0.027 A 
HETATM    7  C   UNK     0     -10.342  -7.100  17.109  0.00  0.00     0.115 C 
HETATM    8  C   UNK     0      -9.707  -8.335  17.722  0.00  0.00     0.021 A 
HETATM    9  N   UNK     0      -9.262  -8.512  18.976  0.00  0.00    -0.361 N 
HETATM   10  C   UNK     0      -8.691  -9.733  19.050  0.00  0.00     0.022 A 
HETATM   11  C   UNK     0      -8.779 -10.364  17.812  0.00  0.00    -0.027 A 
HETATM   12  C   UNK     0      -9.419  -9.489  16.971  0.00  0.00    -0.031 A 
HETATM   13  C   UNK     0      -9.741  -9.751  15.517  0.00  0.00     0.051 C 
HETATM   14  C   UNK     0      -7.995 -10.330  20.269  0.00  0.00     0.115 C 
HETATM   15  C   UNK     0      -6.791  -9.533  20.743  0.00  0.00     0.021 A 
HETATM   16  N   UNK     0      -6.760  -8.246  21.136  0.00  0.00    -0.361 N 
HETATM   17  C   UNK     0      -5.500  -7.900  21.408  0.00  0.00     0.022 A 
HETATM   18  C   UNK     0      -4.671  -9.018  21.191  0.00  0.00    -0.027 A 
HETATM   19  C   UNK     0      -5.491 -10.034  20.776  0.00  0.00    -0.031 A 
HETATM   20  C   UNK     0      -5.004 -11.438  20.466  0.00  0.00     0.051 C 
HETATM   21  C   UNK     0      -4.926  -6.561  21.814  0.00  0.00     0.115 C 
HETATM   22  C   UNK     0      -5.576  -5.322  21.246  0.00  0.00     0.022 A 
HETATM   23  N   UNK     0      -6.033  -5.119  20.003  0.00  0.00    -0.361 N 
HETATM   24  C   UNK     0      -6.666  -3.929  19.973  0.00  0.00     0.021 A 
HETATM   25  C   UNK     0      -6.607  -3.347  21.225  0.00  0.00    -0.031 A 
HETATM   26  C   UNK     0      -7.135  -2.001  21.676  0.00  0.00     0.051 C 
HETATM   27  C   UNK     0      -5.914  -4.219  22.056  0.00  0.00    -0.027 A 
HETATM   28  C   UNK     0      -7.425  -3.309  18.813  0.00  0.00     0.115 C 
HETATM   29  H   UNK     0      -7.631  -5.972  17.570  0.00  0.00     0.165 HD
HETATM   30  H   UNK     0      -9.393  -7.797  19.824  0.00  0.00     0.165 HD
HETATM   31  H   UNK     0      -7.653  -7.580  21.270  0.00  0.00     0.165 HD
HETATM   32  H   UNK     0      -5.875  -5.796  19.124  0.00  0.00     0.165 HD
ENDROOT
BRANCH   6  33
HETATM   33  C   UNK     0     -12.193  -4.682  17.868  0.00  0.00     0.051 C 
BRANCH  33  34
HETATM   34  C   UNK     0     -12.656  -4.419  16.454  0.00  0.00     0.114 C 
BRANCH  34  35
HETATM   35  C   UNK     0     -14.104  -4.769  16.387  0.00  0.00     0.139 C 
HETATM   36  O   UNK     0     -14.515  -5.874  16.846  0.00  0.00    -0.650 OA
BRANCH  35  37
HETATM   37  O   UNK     0     -15.054  -3.920  15.832  0.00  0.00    -0.776 OA
HETATM   38  H   UNK     0     -14.934  -3.505  14.922  0.00  0.00     0.167 HD
ENDBRANCH  35  37
ENDBRANCH  34  35
ENDBRANCH  33  34
ENDBRANCH   6  33
BRANCH  27  39
HETATM   39  C   UNK     0      -5.587  -3.900  23.473  0.00  0.00     0.051 C 
BRANCH  39  40
HETATM   40  C   UNK     0      -4.474  -2.990  23.740  0.00  0.00     0.114 C 
BRANCH  40  41
HETATM   41  C   UNK     0      -3.360  -2.847  22.831  0.00  0.00     0.139 C 
HETATM   42  O   UNK     0      -2.514  -3.732  22.641  0.00  0.00    -0.650 OA
BRANCH  41  43
HETATM   43  O   UNK     0      -3.210  -1.630  22.107  0.00  0.00    -0.776 OA
HETATM   44  H   UNK     0      -3.998  -0.998  22.182  0.00  0.00     0.167 HD
ENDBRANCH  41  43
ENDBRANCH  40  41
ENDBRANCH  39  40
ENDBRANCH  27  39
BRANCH  11  45
HETATM   45  C   UNK     0      -8.293 -11.732  17.416  0.00  0.00     0.051 C 
BRANCH  45  46
HETATM   46  C   UNK     0      -7.052 -11.721  16.599  0.00  0.00     0.114 C 
BRANCH  46  47
HETATM   47  C   UNK     0      -7.257 -12.675  15.472  0.00  0.00     0.139 C 
HETATM   48  O   UNK     0      -6.260 -13.130  14.893  0.00  0.00    -0.650 OA
BRANCH  47  49
HETATM   49  O   UNK     0      -8.520 -13.042  15.082  0.00  0.00    -0.776 OA
HETATM   50  H   UNK     0      -9.355 -12.529  15.388  0.00  0.00     0.167 HD
ENDBRANCH  47  49
ENDBRANCH  46  47
ENDBRANCH  45  46
ENDBRANCH  11  45
BRANCH  18  51
HETATM   51  C   UNK     0      -3.180  -9.118  21.389  0.00  0.00     0.051 C 
BRANCH  51  52
HETATM   52  C   UNK     0      -2.962  -9.342  22.878  0.00  0.00     0.114 C 
BRANCH  52  53
HETATM   53  C   UNK     0      -2.510 -10.717  23.166  0.00  0.00     0.139 C 
HETATM   54  O   UNK     0      -2.046 -11.422  22.256  0.00  0.00    -0.650 OA
BRANCH  53  55
HETATM   55  O   UNK     0      -2.609 -11.212  24.444  0.00  0.00    -0.776 OA
HETATM   56  H   UNK     0      -3.147 -11.997  24.726  0.00  0.00     0.167 HD
ENDBRANCH  53  55
ENDBRANCH  52  53
ENDBRANCH  51  52
ENDBRANCH  18  51
TORSDOF 16
ENDMDL
MODEL 19
REMARK VINA RESULT:      -8.9     28.187     31.429
REMARK  16 active torsions:
REMARK  status: ('A' for Active; 'I' for Inactive)
REMARK    1  A    between atoms: C_6  and  C_7 
REMARK    2  A    between atoms: C_7  and  C_8 
REMARK    3  A    between atoms: C_8  and  C_9 
REMARK    4  A    between atoms: C_9  and  O_11 
REMARK    5  A    between atoms: C_16  and  C_17 
REMARK    6  A    between atoms: C_17  and  C_18 
REMARK    7  A    between atoms: C_18  and  C_19 
REMARK    8  A    between atoms: C_19  and  O_21 
REMARK    9  A    between atoms: C_28  and  C_29 
REMARK   10  A    between atoms: C_29  and  C_30 
REMARK   11  A    between atoms: C_30  and  C_31 
REMARK   12  A    between atoms: C_31  and  O_33 
REMARK   13  A    between atoms: C_42  and  C_43 
REMARK   14  A    between atoms: C_43  and  C_44 
REMARK   15  A    between atoms: C_44  and  C_45 
REMARK   16  A    between atoms: C_45  and  O_47 
ROOT
HETATM    1  C   UNK     0      13.822   9.079  12.183  0.00  0.00     0.051 C 
HETATM    2  C   UNK     0      13.426   8.678  10.776  0.00  0.00    -0.031 A 
HETATM    3  C   UNK     0      12.514   9.271   9.916  0.00  0.00     0.021 A 
HETATM    4  N   UNK     0      12.459   8.554   8.769  0.00  0.00    -0.361 N 
HETATM    5  C   UNK     0      13.321   7.522   8.875  0.00  0.00     0.022 A 
HETATM    6  C   UNK     0      13.941   7.568  10.120  0.00  0.00    -0.027 A 
HETATM    7  C   UNK     0      13.706   6.494   7.858  0.00  0.00     0.115 C 
HETATM    8  C   UNK     0      13.935   6.990   6.441  0.00  0.00     0.021 A 
HETATM    9  N   UNK     0      14.469   8.153   6.038  0.00  0.00    -0.361 N 
HETATM   10  C   UNK     0      14.391   8.207   4.692  0.00  0.00     0.022 A 
HETATM   11  C   UNK     0      13.798   7.042   4.213  0.00  0.00    -0.027 A 
HETATM   12  C   UNK     0      13.508   6.271   5.310  0.00  0.00    -0.031 A 
HETATM   13  C   UNK     0      12.858   4.906   5.272  0.00  0.00     0.051 C 
HETATM   14  C   UNK     0      14.821   9.375   3.809  0.00  0.00     0.115 C 
HETATM   15  C   UNK     0      14.071  10.668   4.091  0.00  0.00     0.021 A 
HETATM   16  N   UNK     0      14.003  11.341   5.255  0.00  0.00    -0.361 N 
HETATM   17  C   UNK     0      13.188  12.388   5.108  0.00  0.00     0.022 A 
HETATM   18  C   UNK     0      12.709  12.403   3.783  0.00  0.00    -0.027 A 
HETATM   19  C   UNK     0      13.271  11.321   3.156  0.00  0.00    -0.031 A 
HETATM   20  C   UNK     0      13.046  10.983   1.694  0.00  0.00     0.051 C 
HETATM   21  C   UNK     0      12.724  13.407   6.124  0.00  0.00     0.115 C 
HETATM   22  C   UNK     0      12.534  12.938   7.547  0.00  0.00     0.022 A 
HETATM   23  N   UNK     0      12.009  11.783   7.977  0.00  0.00    -0.361 N 
HETATM   24  C   UNK     0      12.168  11.717   9.314  0.00  0.00     0.021 A 
HETATM   25  C   UNK     0      12.803  12.862   9.757  0.00  0.00    -0.031 A 
HETATM   26  C   UNK     0      13.162  13.266  11.172  0.00  0.00     0.051 C 
HETATM   27  C   UNK     0      13.047  13.659   8.645  0.00  0.00    -0.027 A 
HETATM   28  C   UNK     0      11.817  10.563  10.237  0.00  0.00     0.115 C 
HETATM   29  H   UNK     0      11.782   8.759   7.908  0.00  0.00     0.165 HD
HETATM   30  H   UNK     0      14.949   8.917   6.698  0.00  0.00     0.165 HD
HETATM   31  H   UNK     0      14.579  11.101   6.186  0.00  0.00     0.165 HD
HETATM   32  H   UNK     0      11.481  11.022   7.345  0.00  0.00     0.165 HD
ENDROOT
BRANCH   6  33
HETATM   33  C   UNK     0      14.970   6.648  10.726  0.00  0.00     0.051 C 
BRANCH  33  34
HETATM   34  C   UNK     0      14.304   5.503  11.451  0.00  0.00     0.114 C 
BRANCH  34  35
HETATM   35  C   UNK     0      14.909   4.239  10.942  0.00  0.00     0.139 C 
HETATM   36  O   UNK     0      14.474   3.119  11.338  0.00  0.00    -0.650 OA
BRANCH  35  37
HETATM   37  O   UNK     0      15.955   4.225  10.026  0.00  0.00    -0.776 OA
HETATM   38  H   UNK     0      16.503   5.046   9.829  0.00  0.00     0.167 HD
ENDBRANCH  35  37
ENDBRANCH  34  35
ENDBRANCH  33  34
ENDBRANCH   6  33
BRANCH  27  39
HETATM   39  C   UNK     0      13.657  15.013   8.735  0.00  0.00     0.051 C 
BRANCH  39  40
HETATM   40  C   UNK     0      12.789  16.178   8.564  0.00  0.00     0.114 C 
BRANCH  40  41
HETATM   41  C   UNK     0      12.702  16.897   7.312  0.00  0.00     0.139 C 
HETATM   42  O   UNK     0      13.657  17.036   6.536  0.00  0.00    -0.650 OA
BRANCH  41  43
HETATM   43  O   UNK     0      11.460  17.482   6.936  0.00  0.00    -0.776 OA
HETATM   44  H   UNK     0      10.774  16.823   6.588  0.00  0.00     0.167 HD
ENDBRANCH  41  43
ENDBRANCH  40  41
ENDBRANCH  39  40
ENDBRANCH  27  39
BRANCH  11  45
HETATM   45  C   UNK     0      13.509   6.649   2.789  0.00  0.00     0.051 C 
BRANCH  45  46
HETATM   46  C   UNK     0      14.718   6.304   1.999  0.00  0.00     0.114 C 
BRANCH  46  47
HETATM   47  C   UNK     0      14.765   7.235   0.835  0.00  0.00     0.139 C 
HETATM   48  O   UNK     0      15.589   8.161   0.851  0.00  0.00    -0.650 OA
BRANCH  47  49
HETATM   49  O   UNK     0      13.915   7.073  -0.230  0.00  0.00    -0.776 OA
HETATM   50  H   UNK     0      13.358   6.220  -0.358  0.00  0.00     0.167 HD
ENDBRANCH  47  49
ENDBRANCH  46  47
ENDBRANCH  45  46
ENDBRANCH  11  45
BRANCH  18  51
HETATM   51  C   UNK     0      11.784  13.406   3.144  0.00  0.00     0.051 C 
BRANCH  51  52
HETATM   52  C   UNK     0      12.676  14.458   2.500  0.00  0.00     0.114 C 
BRANCH  52  53
HETATM   53  C   UNK     0      11.932  15.294   1.538  0.00  0.00     0.139 C 
HETATM   54  O   UNK     0      10.710  15.132   1.389  0.00  0.00    -0.650 OA
BRANCH  53  55
HETATM   55  O   UNK     0      12.600  16.247   0.808  0.00  0.00    -0.776 OA
HETATM   56  H   UNK     0      12.832  16.189  -0.155  0.00  0.00     0.167 HD
ENDBRANCH  53  55
ENDBRANCH  52  53
ENDBRANCH  51  52
ENDBRANCH  18  51
TORSDOF 16
ENDMDL
MODEL 20
REMARK VINA RESULT:      -8.9      2.656      8.479
REMARK  16 active torsions:
REMARK  status: ('A' for Active; 'I' for Inactive)
REMARK    1  A    between atoms: C_6  and  C_7 
REMARK    2  A    between atoms: C_7  and  C_8 
REMARK    3  A    between atoms: C_8  and  C_9 
REMARK    4  A    between atoms: C_9  and  O_11 
REMARK    5  A    between atoms: C_16  and  C_17 
REMARK    6  A    between atoms: C_17  and  C_18 
REMARK    7  A    between atoms: C_18  and  C_19 
REMARK    8  A    between atoms: C_19  and  O_21 
REMARK    9  A    between atoms: C_28  and  C_29 
REMARK   10  A    between atoms: C_29  and  C_30 
REMARK   11  A    between atoms: C_30  and  C_31 
REMARK   12  A    between atoms: C_31  and  O_33 
REMARK   13  A    between atoms: C_42  and  C_43 
REMARK   14  A    between atoms: C_43  and  C_44 
REMARK   15  A    between atoms: C_44  and  C_45 
REMARK   16  A    between atoms: C_45  and  O_47 
ROOT
HETATM    1  C   UNK     0      -4.096  -2.716  22.227  0.00  0.00     0.051 C 
HETATM    2  C   UNK     0      -4.392  -4.202  22.214  0.00  0.00    -0.031 A 
HETATM    3  C   UNK     0      -5.611  -4.855  22.125  0.00  0.00     0.021 A 
HETATM    4  N   UNK     0      -5.400  -6.192  22.181  0.00  0.00    -0.361 N 
HETATM    5  C   UNK     0      -4.073  -6.405  22.295  0.00  0.00     0.022 A 
HETATM    6  C   UNK     0      -3.412  -5.181  22.321  0.00  0.00    -0.027 A 
HETATM    7  C   UNK     0      -3.313  -7.694  22.301  0.00  0.00     0.115 C 
HETATM    8  C   UNK     0      -3.746  -8.745  21.294  0.00  0.00     0.021 A 
HETATM    9  N   UNK     0      -4.200  -8.569  20.044  0.00  0.00    -0.361 N 
HETATM   10  C   UNK     0      -4.552  -9.775  19.551  0.00  0.00     0.022 A 
HETATM   11  C   UNK     0      -4.309 -10.757  20.507  0.00  0.00    -0.027 A 
HETATM   12  C   UNK     0      -3.801 -10.115  21.608  0.00  0.00    -0.031 A 
HETATM   13  C   UNK     0      -3.384 -10.787  22.897  0.00  0.00     0.051 C 
HETATM   14  C   UNK     0      -5.178 -10.044  18.186  0.00  0.00     0.115 C 
HETATM   15  C   UNK     0      -6.520  -9.360  17.979  0.00  0.00     0.021 A 
HETATM   16  N   UNK     0      -6.788  -8.042  18.039  0.00  0.00    -0.361 N 
HETATM   17  C   UNK     0      -8.098  -7.853  17.869  0.00  0.00     0.022 A 
HETATM   18  C   UNK     0      -8.712  -9.107  17.679  0.00  0.00    -0.027 A 
HETATM   19  C   UNK     0      -7.712 -10.042  17.748  0.00  0.00    -0.031 A 
HETATM   20  C   UNK     0      -7.935 -11.532  17.559  0.00  0.00     0.051 C 
HETATM   21  C   UNK     0      -8.911  -6.579  17.922  0.00  0.00     0.115 C 
HETATM   22  C   UNK     0      -8.466  -5.507  18.888  0.00  0.00     0.022 A 
HETATM   23  N   UNK     0      -8.006  -5.654  20.137  0.00  0.00    -0.361 N 
HETATM   24  C   UNK     0      -7.588  -4.450  20.579  0.00  0.00     0.021 A 
HETATM   25  C   UNK     0      -7.795  -3.503  19.594  0.00  0.00    -0.031 A 
HETATM   26  C   UNK     0      -7.526  -2.013  19.633  0.00  0.00     0.051 C 
HETATM   27  C   UNK     0      -8.356  -4.155  18.502  0.00  0.00    -0.027 A 
HETATM   28  C   UNK     0      -6.907  -4.130  21.898  0.00  0.00     0.115 C 
HETATM   29  H   UNK     0      -6.194  -6.974  22.180  0.00  0.00     0.165 HD
HETATM   30  H   UNK     0      -4.226  -7.600  19.488  0.00  0.00     0.165 HD
HETATM   31  H   UNK     0      -6.031  -7.224  18.157  0.00  0.00     0.165 HD
HETATM   32  H   UNK     0      -8.011  -6.602  20.735  0.00  0.00     0.165 HD
ENDROOT
BRANCH   6  33
HETATM   33  C   UNK     0      -1.941  -4.875  22.441  0.00  0.00     0.051 C 
BRANCH  33  34
HETATM   34  C   UNK     0      -1.533  -4.771  23.891  0.00  0.00     0.114 C 
BRANCH  34  35
HETATM   35  C   UNK     0      -0.746  -5.993  24.223  0.00  0.00     0.139 C 
HETATM   36  O   UNK     0       0.421  -6.146  23.757  0.00  0.00    -0.650 OA
BRANCH  35  37
HETATM   37  O   UNK     0      -1.238  -7.002  25.042  0.00  0.00    -0.776 OA
HETATM   38  H   UNK     0      -2.099  -7.484  24.838  0.00  0.00     0.167 HD
ENDBRANCH  35  37
ENDBRANCH  34  35
ENDBRANCH  33  34
ENDBRANCH   6  33
BRANCH  27  39
HETATM   39  C   UNK     0      -8.786  -3.445  17.267  0.00  0.00     0.051 C 
BRANCH  39  40
HETATM   40  C   UNK     0     -10.172  -2.987  17.177  0.00  0.00     0.114 C 
BRANCH  40  41
HETATM   41  C   UNK     0     -11.286  -3.907  17.135  0.00  0.00     0.139 C 
HETATM   42  O   UNK     0     -11.869  -4.321  18.147  0.00  0.00    -0.650 OA
BRANCH  41  43
HETATM   43  O   UNK     0     -11.752  -4.372  15.873  0.00  0.00    -0.776 OA
HETATM   44  H   UNK     0     -11.480  -5.321  15.650  0.00  0.00     0.167 HD
ENDBRANCH  41  43
ENDBRANCH  40  41
ENDBRANCH  39  40
ENDBRANCH  27  39
BRANCH  11  45
HETATM   45  C   UNK     0      -4.535 -12.242  20.411  0.00  0.00     0.051 C 
BRANCH  45  46
HETATM   46  C   UNK     0      -5.966 -12.638  20.406  0.00  0.00     0.114 C 
BRANCH  46  47
HETATM   47  C   UNK     0      -6.472 -12.481  21.800  0.00  0.00     0.139 C 
HETATM   48  O   UNK     0      -6.031 -13.235  22.679  0.00  0.00    -0.650 OA
BRANCH  47  49
HETATM   49  O   UNK     0      -7.407 -11.524  22.104  0.00  0.00    -0.776 OA
HETATM   50  H   UNK     0      -7.320 -10.554  21.779  0.00  0.00     0.167 HD
ENDBRANCH  47  49
ENDBRANCH  46  47
ENDBRANCH  45  46
ENDBRANCH  11  45
BRANCH  18  51
HETATM   51  C   UNK     0     -10.168  -9.396  17.424  0.00  0.00     0.051 C 
BRANCH  51  52
HETATM   52  C   UNK     0     -10.370  -9.276  15.920  0.00  0.00     0.114 C 
BRANCH  52  53
HETATM   53  C   UNK     0     -11.619  -8.563  15.589  0.00  0.00     0.139 C 
HETATM   54  O   UNK     0     -12.604  -9.196  15.176  0.00  0.00    -0.650 OA
BRANCH  53  55
HETATM   55  O   UNK     0     -11.683  -7.199  15.736  0.00  0.00    -0.776 OA
HETATM   56  H   UNK     0     -10.916  -6.594  15.915  0.00  0.00     0.167 HD
ENDBRANCH  53  55
ENDBRANCH  52  53
ENDBRANCH  51  52
ENDBRANCH  18  51
TORSDOF 16
ENDMDL
