MODEL 1
REMARK VINA RESULT:      -8.0      0.000      0.000
REMARK  16 active torsions:
REMARK  status: ('A' for Active; 'I' for Inactive)
REMARK    1  A    between atoms: C_6  and  C_7 
REMARK    2  A    between atoms: C_7  and  C_8 
REMARK    3  A    between atoms: C_8  and  C_9 
REMARK    4  A    between atoms: C_9  and  O_11 
REMARK    5  A    between atoms: C_16  and  C_17 
REMARK    6  A    between atoms: C_17  and  C_18 
REMARK    7  A    between atoms: C_18  and  C_19 
REMARK    8  A    between atoms: C_19  and  O_21 
REMARK    9  A    between atoms: C_28  and  C_29 
REMARK   10  A    between atoms: C_29  and  C_30 
REMARK   11  A    between atoms: C_30  and  C_31 
REMARK   12  A    between atoms: C_31  and  O_33 
REMARK   13  A    between atoms: C_42  and  C_43 
REMARK   14  A    between atoms: C_43  and  C_44 
REMARK   15  A    between atoms: C_44  and  C_45 
REMARK   16  A    between atoms: C_45  and  O_47 
ROOT
HETATM    1  C   UNK     0      13.040  19.049  -4.953  0.00  0.00     0.051 C 
HETATM    2  C   UNK     0      11.865  18.709  -5.847  0.00  0.00    -0.031 A 
HETATM    3  C   UNK     0      11.849  18.055  -7.068  0.00  0.00     0.021 A 
HETATM    4  N   UNK     0      10.575  18.000  -7.523  0.00  0.00    -0.361 N 
HETATM    5  C   UNK     0       9.777  18.597  -6.613  0.00  0.00     0.022 A 
HETATM    6  C   UNK     0      10.552  19.054  -5.553  0.00  0.00    -0.027 A 
HETATM    7  C   UNK     0       8.285  18.720  -6.591  0.00  0.00     0.115 C 
HETATM    8  C   UNK     0       7.493  17.486  -6.987  0.00  0.00     0.021 A 
HETATM    9  N   UNK     0       7.780  16.197  -6.749  0.00  0.00    -0.361 N 
HETATM   10  C   UNK     0       6.846  15.440  -7.364  0.00  0.00     0.022 A 
HETATM   11  C   UNK     0       5.928  16.265  -8.007  0.00  0.00    -0.027 A 
HETATM   12  C   UNK     0       6.330  17.555  -7.773  0.00  0.00    -0.031 A 
HETATM   13  C   UNK     0       5.626  18.795  -8.278  0.00  0.00     0.051 C 
HETATM   14  C   UNK     0       6.812  13.915  -7.414  0.00  0.00     0.115 C 
HETATM   15  C   UNK     0       8.027  13.294  -8.085  0.00  0.00     0.021 A 
HETATM   16  N   UNK     0       9.319  13.430  -7.733  0.00  0.00    -0.361 N 
HETATM   17  C   UNK     0      10.084  12.785  -8.617  0.00  0.00     0.022 A 
HETATM   18  C   UNK     0       9.250  12.192  -9.585  0.00  0.00    -0.027 A 
HETATM   19  C   UNK     0       7.964  12.517  -9.240  0.00  0.00    -0.031 A 
HETATM   20  C   UNK     0       6.740  12.046 -10.005  0.00  0.00     0.051 C 
HETATM   21  C   UNK     0      11.590  12.692  -8.713  0.00  0.00     0.115 C 
HETATM   22  C   UNK     0      12.392  13.896  -8.280  0.00  0.00     0.022 A 
HETATM   23  N   UNK     0      12.129  15.191  -8.499  0.00  0.00    -0.361 N 
HETATM   24  C   UNK     0      13.026  15.928  -7.813  0.00  0.00     0.021 A 
HETATM   25  C   UNK     0      13.895  15.087  -7.145  0.00  0.00    -0.031 A 
HETATM   26  C   UNK     0      15.088  15.439  -6.281  0.00  0.00     0.051 C 
HETATM   27  C   UNK     0      13.510  13.781  -7.428  0.00  0.00    -0.027 A 
HETATM   28  C   UNK     0      13.078  17.440  -7.677  0.00  0.00     0.115 C 
HETATM   29  H   UNK     0      10.253  17.574  -8.502  0.00  0.00     0.165 HD
HETATM   30  H   UNK     0       8.612  15.819  -6.106  0.00  0.00     0.165 HD
HETATM   31  H   UNK     0       9.697  13.952  -6.816  0.00  0.00     0.165 HD
HETATM   32  H   UNK     0      11.333  15.598  -9.176  0.00  0.00     0.165 HD
ENDROOT
BRANCH   6  33
HETATM   33  C   UNK     0      10.146  19.788  -4.300  0.00  0.00     0.051 C 
BRANCH  33  34
HETATM   34  C   UNK     0       9.613  18.825  -3.266  0.00  0.00     0.114 C 
BRANCH  34  35
HETATM   35  C   UNK     0       8.302  19.356  -2.795  0.00  0.00     0.139 C 
HETATM   36  O   UNK     0       7.681  20.220  -3.480  0.00  0.00    -0.650 OA
BRANCH  35  37
HETATM   37  O   UNK     0       7.706  18.939  -1.611  0.00  0.00    -0.776 OA
HETATM   38  H   UNK     0       7.293  18.025  -1.513  0.00  0.00     0.167 HD
ENDBRANCH  35  37
ENDBRANCH  34  35
ENDBRANCH  33  34
ENDBRANCH   6  33
BRANCH  27  39
HETATM   39  C   UNK     0      14.257  12.591  -6.939  0.00  0.00     0.051 C 
BRANCH  39  40
HETATM   40  C   UNK     0      13.689  11.821  -5.834  0.00  0.00     0.114 C 
BRANCH  40  41
HETATM   41  C   UNK     0      13.236  10.458  -5.997  0.00  0.00     0.139 C 
HETATM   42  O   UNK     0      13.776   9.644  -6.759  0.00  0.00    -0.650 OA
BRANCH  41  43
HETATM   43  O   UNK     0      12.110  10.009  -5.250  0.00  0.00    -0.776 OA
HETATM   44  H   UNK     0      11.334  10.661  -5.229  0.00  0.00     0.167 HD
ENDBRANCH  41  43
ENDBRANCH  40  41
ENDBRANCH  39  40
ENDBRANCH  27  39
BRANCH  11  45
HETATM   45  C   UNK     0       4.716  15.877  -8.810  0.00  0.00     0.051 C 
BRANCH  45  46
HETATM   46  C   UNK     0       3.501  15.629  -7.993  0.00  0.00     0.114 C 
BRANCH  46  47
HETATM   47  C   UNK     0       2.489  14.995  -8.886  0.00  0.00     0.139 C 
HETATM   48  O   UNK     0       2.834  14.661 -10.028  0.00  0.00    -0.650 OA
BRANCH  47  49
HETATM   49  O   UNK     0       1.203  14.787  -8.455  0.00  0.00    -0.776 OA
HETATM   50  H   UNK     0       0.436  14.583  -9.107  0.00  0.00     0.167 HD
ENDBRANCH  47  49
ENDBRANCH  46  47
ENDBRANCH  45  46
ENDBRANCH  11  45
BRANCH  18  51
HETATM   51  C   UNK     0       9.655  11.344 -10.763  0.00  0.00     0.051 C 
BRANCH  51  52
HETATM   52  C   UNK     0       9.866  12.303 -11.925  0.00  0.00     0.114 C 
BRANCH  52  53
HETATM   53  C   UNK     0       9.035  11.945 -13.091  0.00  0.00     0.139 C 
HETATM   54  O   UNK     0       8.037  12.626 -13.375  0.00  0.00    -0.650 OA
BRANCH  53  55
HETATM   55  O   UNK     0       9.370  10.854 -13.855  0.00  0.00    -0.776 OA
HETATM   56  H   UNK     0       8.774  10.092 -14.079  0.00  0.00     0.167 HD
ENDBRANCH  53  55
ENDBRANCH  52  53
ENDBRANCH  51  52
ENDBRANCH  18  51
TORSDOF 16
ENDMDL
MODEL 2
REMARK VINA RESULT:      -8.0      7.164     12.163
REMARK  16 active torsions:
REMARK  status: ('A' for Active; 'I' for Inactive)
REMARK    1  A    between atoms: C_6  and  C_7 
REMARK    2  A    between atoms: C_7  and  C_8 
REMARK    3  A    between atoms: C_8  and  C_9 
REMARK    4  A    between atoms: C_9  and  O_11 
REMARK    5  A    between atoms: C_16  and  C_17 
REMARK    6  A    between atoms: C_17  and  C_18 
REMARK    7  A    between atoms: C_18  and  C_19 
REMARK    8  A    between atoms: C_19  and  O_21 
REMARK    9  A    between atoms: C_28  and  C_29 
REMARK   10  A    between atoms: C_29  and  C_30 
REMARK   11  A    between atoms: C_30  and  C_31 
REMARK   12  A    between atoms: C_31  and  O_33 
REMARK   13  A    between atoms: C_42  and  C_43 
REMARK   14  A    between atoms: C_43  and  C_44 
REMARK   15  A    between atoms: C_44  and  C_45 
REMARK   16  A    between atoms: C_45  and  O_47 
ROOT
HETATM    1  C   UNK     0      12.733  12.474  -7.211  0.00  0.00     0.051 C 
HETATM    2  C   UNK     0      13.983  11.787  -7.723  0.00  0.00    -0.031 A 
HETATM    3  C   UNK     0      14.856  10.940  -7.058  0.00  0.00     0.021 A 
HETATM    4  N   UNK     0      15.855  10.586  -7.901  0.00  0.00    -0.361 N 
HETATM    5  C   UNK     0      15.633  11.182  -9.091  0.00  0.00     0.022 A 
HETATM    6  C   UNK     0      14.471  11.943  -9.013  0.00  0.00    -0.027 A 
HETATM    7  C   UNK     0      16.383  11.046 -10.379  0.00  0.00     0.115 C 
HETATM    8  C   UNK     0      16.815   9.644 -10.771  0.00  0.00     0.021 A 
HETATM    9  N   UNK     0      16.169   8.485 -10.574  0.00  0.00    -0.361 N 
HETATM   10  C   UNK     0      16.966   7.483 -11.001  0.00  0.00     0.022 A 
HETATM   11  C   UNK     0      18.154   8.012 -11.496  0.00  0.00    -0.027 A 
HETATM   12  C   UNK     0      18.066   9.373 -11.354  0.00  0.00    -0.031 A 
HETATM   13  C   UNK     0      19.130  10.366 -11.764  0.00  0.00     0.051 C 
HETATM   14  C   UNK     0      16.663   5.989 -10.912  0.00  0.00     0.115 C 
HETATM   15  C   UNK     0      16.474   5.483  -9.491  0.00  0.00     0.021 A 
HETATM   16  N   UNK     0      15.571   5.901  -8.584  0.00  0.00    -0.361 N 
HETATM   17  C   UNK     0      15.776   5.257  -7.433  0.00  0.00     0.022 A 
HETATM   18  C   UNK     0      16.859   4.370  -7.601  0.00  0.00    -0.027 A 
HETATM   19  C   UNK     0      17.286   4.521  -8.894  0.00  0.00    -0.031 A 
HETATM   20  C   UNK     0      18.420   3.720  -9.507  0.00  0.00     0.051 C 
HETATM   21  C   UNK     0      15.087   5.412  -6.096  0.00  0.00     0.115 C 
HETATM   22  C   UNK     0      14.613   6.794  -5.713  0.00  0.00     0.022 A 
HETATM   23  N   UNK     0      15.233   7.966  -5.900  0.00  0.00    -0.361 N 
HETATM   24  C   UNK     0      14.390   8.954  -5.540  0.00  0.00     0.021 A 
HETATM   25  C   UNK     0      13.201   8.405  -5.100  0.00  0.00    -0.031 A 
HETATM   26  C   UNK     0      11.971   9.103  -4.557  0.00  0.00     0.051 C 
HETATM   27  C   UNK     0      13.320   7.023  -5.201  0.00  0.00    -0.027 A 
HETATM   28  C   UNK     0      14.608  10.453  -5.659  0.00  0.00     0.115 C 
HETATM   29  H   UNK     0      16.731   9.950  -7.638  0.00  0.00     0.165 HD
HETATM   30  H   UNK     0      15.129   8.373 -10.180  0.00  0.00     0.165 HD
HETATM   31  H   UNK     0      14.741   6.630  -8.773  0.00  0.00     0.165 HD
HETATM   32  H   UNK     0      16.290   8.106  -6.248  0.00  0.00     0.165 HD
ENDROOT
BRANCH   6  33
HETATM   33  C   UNK     0      13.800  12.799 -10.058  0.00  0.00     0.051 C 
BRANCH  33  34
HETATM   34  C   UNK     0      14.303  14.221  -9.989  0.00  0.00     0.114 C 
BRANCH  34  35
HETATM   35  C   UNK     0      14.812  14.581 -11.343  0.00  0.00     0.139 C 
HETATM   36  O   UNK     0      16.056  14.597 -11.573  0.00  0.00    -0.650 OA
BRANCH  35  37
HETATM   37  O   UNK     0      13.968  14.907 -12.398  0.00  0.00    -0.776 OA
HETATM   38  H   UNK     0      13.077  15.353 -12.252  0.00  0.00     0.167 HD
ENDBRANCH  35  37
ENDBRANCH  34  35
ENDBRANCH  33  34
ENDBRANCH   6  33
BRANCH  27  39
HETATM   39  C   UNK     0      12.258   6.083  -4.749  0.00  0.00     0.051 C 
BRANCH  39  40
HETATM   40  C   UNK     0      12.240   5.681  -3.343  0.00  0.00     0.114 C 
BRANCH  40  41
HETATM   41  C   UNK     0      11.395   4.613  -2.858  0.00  0.00     0.139 C 
HETATM   42  O   UNK     0      10.267   4.797  -2.380  0.00  0.00    -0.650 OA
BRANCH  41  43
HETATM   43  O   UNK     0      11.869   3.272  -2.925  0.00  0.00    -0.776 OA
HETATM   44  H   UNK     0      11.139   2.570  -2.951  0.00  0.00     0.167 HD
ENDBRANCH  41  43
ENDBRANCH  40  41
ENDBRANCH  39  40
ENDBRANCH  27  39
BRANCH  11  45
HETATM   45  C   UNK     0      19.335   7.287 -12.084  0.00  0.00     0.051 C 
BRANCH  45  46
HETATM   46  C   UNK     0      20.452   7.073 -11.128  0.00  0.00     0.114 C 
BRANCH  46  47
HETATM   47  C   UNK     0      20.938   5.677 -11.324  0.00  0.00     0.139 C 
HETATM   48  O   UNK     0      20.376   4.967 -12.170  0.00  0.00    -0.650 OA
BRANCH  47  49
HETATM   49  O   UNK     0      21.985   5.187 -10.584  0.00  0.00    -0.776 OA
HETATM   50  H   UNK     0      22.136   5.461  -9.606  0.00  0.00     0.167 HD
ENDBRANCH  47  49
ENDBRANCH  46  47
ENDBRANCH  45  46
ENDBRANCH  11  45
BRANCH  18  51
HETATM   51  C   UNK     0      17.440   3.417  -6.590  0.00  0.00     0.051 C 
BRANCH  51  52
HETATM   52  C   UNK     0      17.127   2.016  -7.096  0.00  0.00     0.114 C 
BRANCH  52  53
HETATM   53  C   UNK     0      15.930   1.452  -6.445  0.00  0.00     0.139 C 
HETATM   54  O   UNK     0      15.455   0.376  -6.842  0.00  0.00    -0.650 OA
BRANCH  53  55
HETATM   55  O   UNK     0      15.343   2.124  -5.400  0.00  0.00    -0.776 OA
HETATM   56  H   UNK     0      14.647   1.764  -4.790  0.00  0.00     0.167 HD
ENDBRANCH  53  55
ENDBRANCH  52  53
ENDBRANCH  51  52
ENDBRANCH  18  51
TORSDOF 16
ENDMDL
MODEL 3
REMARK VINA RESULT:      -7.9      6.484     11.398
REMARK  16 active torsions:
REMARK  status: ('A' for Active; 'I' for Inactive)
REMARK    1  A    between atoms: C_6  and  C_7 
REMARK    2  A    between atoms: C_7  and  C_8 
REMARK    3  A    between atoms: C_8  and  C_9 
REMARK    4  A    between atoms: C_9  and  O_11 
REMARK    5  A    between atoms: C_16  and  C_17 
REMARK    6  A    between atoms: C_17  and  C_18 
REMARK    7  A    between atoms: C_18  and  C_19 
REMARK    8  A    between atoms: C_19  and  O_21 
REMARK    9  A    between atoms: C_28  and  C_29 
REMARK   10  A    between atoms: C_29  and  C_30 
REMARK   11  A    between atoms: C_30  and  C_31 
REMARK   12  A    between atoms: C_31  and  O_33 
REMARK   13  A    between atoms: C_42  and  C_43 
REMARK   14  A    between atoms: C_43  and  C_44 
REMARK   15  A    between atoms: C_44  and  C_45 
REMARK   16  A    between atoms: C_45  and  O_47 
ROOT
HETATM    1  C   UNK     0      19.552   7.066 -11.969  0.00  0.00     0.051 C 
HETATM    2  C   UNK     0      18.299   7.768 -11.484  0.00  0.00    -0.031 A 
HETATM    3  C   UNK     0      17.085   7.228 -11.090  0.00  0.00     0.021 A 
HETATM    4  N   UNK     0      16.240   8.235 -10.763  0.00  0.00    -0.361 N 
HETATM    5  C   UNK     0      16.892   9.403 -10.932  0.00  0.00     0.022 A 
HETATM    6  C   UNK     0      18.182   9.148 -11.385  0.00  0.00    -0.027 A 
HETATM    7  C   UNK     0      16.442  10.798 -10.625  0.00  0.00     0.115 C 
HETATM    8  C   UNK     0      15.703  11.002  -9.314  0.00  0.00     0.021 A 
HETATM    9  N   UNK     0      15.906  10.390  -8.136  0.00  0.00    -0.361 N 
HETATM   10  C   UNK     0      14.958  10.816  -7.275  0.00  0.00     0.022 A 
HETATM   11  C   UNK     0      14.128  11.734  -7.912  0.00  0.00    -0.027 A 
HETATM   12  C   UNK     0      14.592  11.855  -9.197  0.00  0.00    -0.031 A 
HETATM   13  C   UNK     0      13.999  12.753 -10.259  0.00  0.00     0.051 C 
HETATM   14  C   UNK     0      14.764  10.337  -5.839  0.00  0.00     0.115 C 
HETATM   15  C   UNK     0      14.469   8.850  -5.720  0.00  0.00     0.021 A 
HETATM   16  N   UNK     0      15.231   7.825  -6.146  0.00  0.00    -0.361 N 
HETATM   17  C   UNK     0      14.589   6.678  -5.918  0.00  0.00     0.022 A 
HETATM   18  C   UNK     0      13.354   6.968  -5.304  0.00  0.00    -0.027 A 
HETATM   19  C   UNK     0      13.292   8.332  -5.185  0.00  0.00    -0.031 A 
HETATM   20  C   UNK     0      12.134   9.071  -4.538  0.00  0.00     0.051 C 
HETATM   21  C   UNK     0      14.977   5.260  -6.271  0.00  0.00     0.115 C 
HETATM   22  C   UNK     0      15.751   5.047  -7.551  0.00  0.00     0.022 A 
HETATM   23  N   UNK     0      15.574   5.645  -8.737  0.00  0.00    -0.361 N 
HETATM   24  C   UNK     0      16.575   5.265  -9.556  0.00  0.00     0.021 A 
HETATM   25  C   UNK     0      17.412   4.394  -8.884  0.00  0.00    -0.031 A 
HETATM   26  C   UNK     0      18.642   3.672  -9.392  0.00  0.00     0.051 C 
HETATM   27  C   UNK     0      16.904   4.239  -7.600  0.00  0.00    -0.027 A 
HETATM   28  C   UNK     0      16.855   5.748 -10.969  0.00  0.00     0.115 C 
HETATM   29  H   UNK     0      15.176   8.114 -10.453  0.00  0.00     0.165 HD
HETATM   30  H   UNK     0      16.747   9.695  -7.895  0.00  0.00     0.165 HD
HETATM   31  H   UNK     0      16.263   7.910  -6.574  0.00  0.00     0.165 HD
HETATM   32  H   UNK     0      14.715   6.307  -9.021  0.00  0.00     0.165 HD
ENDROOT
BRANCH   6  33
HETATM   33  C   UNK     0      19.296  10.104 -11.729  0.00  0.00     0.051 C 
BRANCH  33  34
HETATM   34  C   UNK     0      19.067  10.727 -13.086  0.00  0.00     0.114 C 
BRANCH  34  35
HETATM   35  C   UNK     0      19.332  12.188 -12.957  0.00  0.00     0.139 C 
HETATM   36  O   UNK     0      20.049  12.784 -13.813  0.00  0.00    -0.650 OA
BRANCH  35  37
HETATM   37  O   UNK     0      18.815  12.955 -11.919  0.00  0.00    -0.776 OA
HETATM   38  H   UNK     0      18.845  12.646 -10.961  0.00  0.00     0.167 HD
ENDBRANCH  35  37
ENDBRANCH  34  35
ENDBRANCH  33  34
ENDBRANCH   6  33
BRANCH  27  39
HETATM   39  C   UNK     0      17.501   3.313  -6.599  0.00  0.00     0.051 C 
BRANCH  39  40
HETATM   40  C   UNK     0      17.220   1.883  -6.721  0.00  0.00     0.114 C 
BRANCH  40  41
HETATM   41  C   UNK     0      15.941   1.315  -6.358  0.00  0.00     0.139 C 
HETATM   42  O   UNK     0      15.453   0.320  -6.911  0.00  0.00    -0.650 OA
BRANCH  41  43
HETATM   43  O   UNK     0      15.188   1.920  -5.312  0.00  0.00    -0.776 OA
HETATM   44  H   UNK     0      14.248   1.558  -5.208  0.00  0.00     0.167 HD
ENDBRANCH  41  43
ENDBRANCH  40  41
ENDBRANCH  39  40
ENDBRANCH  27  39
BRANCH  11  45
HETATM   45  C   UNK     0      12.944  12.479  -7.355  0.00  0.00     0.051 C 
BRANCH  45  46
HETATM   46  C   UNK     0      11.743  11.633  -7.137  0.00  0.00     0.114 C 
BRANCH  46  47
HETATM   47  C   UNK     0      11.279  11.171  -8.477  0.00  0.00     0.139 C 
HETATM   48  O   UNK     0      10.810  12.007  -9.261  0.00  0.00    -0.650 OA
BRANCH  47  49
HETATM   49  O   UNK     0      11.368   9.849  -8.834  0.00  0.00    -0.776 OA
HETATM   50  H   UNK     0      12.264   9.348  -8.850  0.00  0.00     0.167 HD
ENDBRANCH  47  49
ENDBRANCH  46  47
ENDBRANCH  45  46
ENDBRANCH  11  45
BRANCH  18  51
HETATM   51  C   UNK     0      12.300   5.997  -4.838  0.00  0.00     0.051 C 
BRANCH  51  52
HETATM   52  C   UNK     0      12.673   5.615  -3.413  0.00  0.00     0.114 C 
BRANCH  52  53
HETATM   53  C   UNK     0      11.667   4.726  -2.801  0.00  0.00     0.139 C 
HETATM   54  O   UNK     0      10.691   5.208  -2.206  0.00  0.00    -0.650 OA
BRANCH  53  55
HETATM   55  O   UNK     0      11.820   3.363  -2.892  0.00  0.00    -0.776 OA
HETATM   56  H   UNK     0      11.156   2.681  -2.612  0.00  0.00     0.167 HD
ENDBRANCH  53  55
ENDBRANCH  52  53
ENDBRANCH  51  52
ENDBRANCH  18  51
TORSDOF 16
ENDMDL
MODEL 4
REMARK VINA RESULT:      -7.9     20.459     23.038
REMARK  16 active torsions:
REMARK  status: ('A' for Active; 'I' for Inactive)
REMARK    1  A    between atoms: C_6  and  C_7 
REMARK    2  A    between atoms: C_7  and  C_8 
REMARK    3  A    between atoms: C_8  and  C_9 
REMARK    4  A    between atoms: C_9  and  O_11 
REMARK    5  A    between atoms: C_16  and  C_17 
REMARK    6  A    between atoms: C_17  and  C_18 
REMARK    7  A    between atoms: C_18  and  C_19 
REMARK    8  A    between atoms: C_19  and  O_21 
REMARK    9  A    between atoms: C_28  and  C_29 
REMARK   10  A    between atoms: C_29  and  C_30 
REMARK   11  A    between atoms: C_30  and  C_31 
REMARK   12  A    between atoms: C_31  and  O_33 
REMARK   13  A    between atoms: C_42  and  C_43 
REMARK   14  A    between atoms: C_43  and  C_44 
REMARK   15  A    between atoms: C_44  and  C_45 
REMARK   16  A    between atoms: C_45  and  O_47 
ROOT
HETATM    1  C   UNK     0      -9.003  21.523  -5.041  0.00  0.00     0.051 C 
HETATM    2  C   UNK     0      -8.921  22.491  -6.204  0.00  0.00    -0.031 A 
HETATM    3  C   UNK     0      -9.126  22.262  -7.555  0.00  0.00     0.021 A 
HETATM    4  N   UNK     0      -8.914  23.414  -8.235  0.00  0.00    -0.361 N 
HETATM    5  C   UNK     0      -8.588  24.374  -7.345  0.00  0.00     0.022 A 
HETATM    6  C   UNK     0      -8.579  23.830  -6.065  0.00  0.00    -0.027 A 
HETATM    7  C   UNK     0      -8.349  25.836  -7.566  0.00  0.00     0.115 C 
HETATM    8  C   UNK     0      -9.305  26.548  -8.506  0.00  0.00     0.021 A 
HETATM    9  N   UNK     0     -10.620  26.339  -8.678  0.00  0.00    -0.361 N 
HETATM   10  C   UNK     0     -11.043  27.136  -9.681  0.00  0.00     0.022 A 
HETATM   11  C   UNK     0      -9.974  27.886 -10.164  0.00  0.00    -0.027 A 
HETATM   12  C   UNK     0      -8.876  27.520  -9.427  0.00  0.00    -0.031 A 
HETATM   13  C   UNK     0      -7.483  28.082  -9.598  0.00  0.00     0.051 C 
HETATM   14  C   UNK     0     -12.455  27.185 -10.259  0.00  0.00     0.115 C 
HETATM   15  C   UNK     0     -12.920  25.867 -10.859  0.00  0.00     0.021 A 
HETATM   16  N   UNK     0     -13.023  24.675 -10.242  0.00  0.00    -0.361 N 
HETATM   17  C   UNK     0     -13.401  23.753 -11.131  0.00  0.00     0.022 A 
HETATM   18  C   UNK     0     -13.561  24.376 -12.384  0.00  0.00    -0.027 A 
HETATM   19  C   UNK     0     -13.258  25.701 -12.200  0.00  0.00    -0.031 A 
HETATM   20  C   UNK     0     -13.338  26.745 -13.299  0.00  0.00     0.051 C 
HETATM   21  C   UNK     0     -13.588  22.262 -10.964  0.00  0.00     0.115 C 
HETATM   22  C   UNK     0     -12.672  21.548  -9.999  0.00  0.00     0.022 A 
HETATM   23  N   UNK     0     -11.360  21.738  -9.804  0.00  0.00    -0.361 N 
HETATM   24  C   UNK     0     -10.977  20.991  -8.749  0.00  0.00     0.021 A 
HETATM   25  C   UNK     0     -12.065  20.296  -8.258  0.00  0.00    -0.031 A 
HETATM   26  C   UNK     0     -12.127  19.304  -7.115  0.00  0.00     0.051 C 
HETATM   27  C   UNK     0     -13.162  20.636  -9.042  0.00  0.00    -0.027 A 
HETATM   28  C   UNK     0      -9.608  20.944  -8.092  0.00  0.00     0.115 C 
HETATM   29  H   UNK     0      -8.959  23.532  -9.343  0.00  0.00     0.165 HD
HETATM   30  H   UNK     0     -11.262  25.667  -8.058  0.00  0.00     0.165 HD
HETATM   31  H   UNK     0     -12.873  24.488  -9.147  0.00  0.00     0.165 HD
HETATM   32  H   UNK     0     -10.683  22.368 -10.437  0.00  0.00     0.165 HD
ENDROOT
BRANCH   6  33
HETATM   33  C   UNK     0      -8.274  24.478  -4.738  0.00  0.00     0.051 C 
BRANCH  33  34
HETATM   34  C   UNK     0      -9.505  25.145  -4.172  0.00  0.00     0.114 C 
BRANCH  34  35
HETATM   35  C   UNK     0      -9.741  24.569  -2.817  0.00  0.00     0.139 C 
HETATM   36  O   UNK     0      -9.462  25.241  -1.782  0.00  0.00    -0.650 OA
BRANCH  35  37
HETATM   37  O   UNK     0     -10.269  23.298  -2.625  0.00  0.00    -0.776 OA
HETATM   38  H   UNK     0      -9.860  22.480  -3.045  0.00  0.00     0.167 HD
ENDBRANCH  35  37
ENDBRANCH  34  35
ENDBRANCH  33  34
ENDBRANCH   6  33
BRANCH  27  39
HETATM   39  C   UNK     0     -14.508  20.027  -8.860  0.00  0.00     0.051 C 
BRANCH  39  40
HETATM   40  C   UNK     0     -14.931  18.986  -9.796  0.00  0.00     0.114 C 
BRANCH  40  41
HETATM   41  C   UNK     0     -13.988  18.251 -10.609  0.00  0.00     0.139 C 
HETATM   42  O   UNK     0     -13.158  17.458 -10.145  0.00  0.00    -0.650 OA
BRANCH  41  43
HETATM   43  O   UNK     0     -14.000  18.437 -12.021  0.00  0.00    -0.776 OA
HETATM   44  H   UNK     0     -14.881  18.208 -12.466  0.00  0.00     0.167 HD
ENDBRANCH  41  43
ENDBRANCH  40  41
ENDBRANCH  39  40
ENDBRANCH  27  39
BRANCH  11  45
HETATM   45  C   UNK     0      -9.964  28.910 -11.267  0.00  0.00     0.051 C 
BRANCH  45  46
HETATM   46  C   UNK     0     -10.189  28.344 -12.621  0.00  0.00     0.114 C 
BRANCH  46  47
HETATM   47  C   UNK     0      -9.209  27.235 -12.806  0.00  0.00     0.139 C 
HETATM   48  O   UNK     0      -8.027  27.523 -13.036  0.00  0.00    -0.650 OA
BRANCH  47  49
HETATM   49  O   UNK     0      -9.607  25.925 -12.724  0.00  0.00    -0.776 OA
HETATM   50  H   UNK     0     -10.354  25.544 -13.317  0.00  0.00     0.167 HD
ENDBRANCH  47  49
ENDBRANCH  46  47
ENDBRANCH  45  46
ENDBRANCH  11  45
BRANCH  18  51
HETATM   51  C   UNK     0     -13.999  23.748 -13.682  0.00  0.00     0.051 C 
BRANCH  51  52
HETATM   52  C   UNK     0     -12.774  23.733 -14.583  0.00  0.00     0.114 C 
BRANCH  52  53
HETATM   53  C   UNK     0     -11.676  22.934 -14.006  0.00  0.00     0.139 C 
HETATM   54  O   UNK     0     -10.581  23.465 -13.764  0.00  0.00    -0.650 OA
BRANCH  53  55
HETATM   55  O   UNK     0     -11.873  21.600 -13.741  0.00  0.00    -0.776 OA
HETATM   56  H   UNK     0     -11.900  21.181 -12.842  0.00  0.00     0.167 HD
ENDBRANCH  53  55
ENDBRANCH  52  53
ENDBRANCH  51  52
ENDBRANCH  18  51
TORSDOF 16
ENDMDL
MODEL 5
REMARK VINA RESULT:      -7.8     15.511     20.902
REMARK  16 active torsions:
REMARK  status: ('A' for Active; 'I' for Inactive)
REMARK    1  A    between atoms: C_6  and  C_7 
REMARK    2  A    between atoms: C_7  and  C_8 
REMARK    3  A    between atoms: C_8  and  C_9 
REMARK    4  A    between atoms: C_9  and  O_11 
REMARK    5  A    between atoms: C_16  and  C_17 
REMARK    6  A    between atoms: C_17  and  C_18 
REMARK    7  A    between atoms: C_18  and  C_19 
REMARK    8  A    between atoms: C_19  and  O_21 
REMARK    9  A    between atoms: C_28  and  C_29 
REMARK   10  A    between atoms: C_29  and  C_30 
REMARK   11  A    between atoms: C_30  and  C_31 
REMARK   12  A    between atoms: C_31  and  O_33 
REMARK   13  A    between atoms: C_42  and  C_43 
REMARK   14  A    between atoms: C_43  and  C_44 
REMARK   15  A    between atoms: C_44  and  C_45 
REMARK   16  A    between atoms: C_45  and  O_47 
ROOT
HETATM    1  C   UNK     0      -5.617   1.632 -22.421  0.00  0.00     0.051 C 
HETATM    2  C   UNK     0      -5.247   2.354 -21.142  0.00  0.00    -0.031 A 
HETATM    3  C   UNK     0      -4.354   1.984 -20.150  0.00  0.00     0.021 A 
HETATM    4  N   UNK     0      -4.365   2.922 -19.173  0.00  0.00    -0.361 N 
HETATM    5  C   UNK     0      -5.240   3.886 -19.526  0.00  0.00     0.022 A 
HETATM    6  C   UNK     0      -5.812   3.562 -20.751  0.00  0.00    -0.027 A 
HETATM    7  C   UNK     0      -5.555   5.181 -18.845  0.00  0.00     0.115 C 
HETATM    8  C   UNK     0      -4.376   5.968 -18.298  0.00  0.00     0.021 A 
HETATM    9  N   UNK     0      -3.142   6.089 -18.811  0.00  0.00    -0.361 N 
HETATM   10  C   UNK     0      -2.396   6.806 -17.943  0.00  0.00     0.022 A 
HETATM   11  C   UNK     0      -3.174   7.165 -16.847  0.00  0.00    -0.027 A 
HETATM   12  C   UNK     0      -4.423   6.640 -17.064  0.00  0.00    -0.031 A 
HETATM   13  C   UNK     0      -5.605   6.783 -16.132  0.00  0.00     0.051 C 
HETATM   14  C   UNK     0      -0.913   7.135 -18.088  0.00  0.00     0.115 C 
HETATM   15  C   UNK     0      -0.013   5.911 -18.139  0.00  0.00     0.021 A 
HETATM   16  N   UNK     0      -0.055   4.897 -19.022  0.00  0.00    -0.361 N 
HETATM   17  C   UNK     0       0.856   3.982 -18.684  0.00  0.00     0.022 A 
HETATM   18  C   UNK     0       1.531   4.426 -17.530  0.00  0.00    -0.027 A 
HETATM   19  C   UNK     0       0.978   5.636 -17.199  0.00  0.00    -0.031 A 
HETATM   20  C   UNK     0       1.442   6.484 -16.029  0.00  0.00     0.051 C 
HETATM   21  C   UNK     0       1.159   2.637 -19.303  0.00  0.00     0.115 C 
HETATM   22  C   UNK     0       0.002   1.863 -19.890  0.00  0.00     0.022 A 
HETATM   23  N   UNK     0      -1.238   1.728 -19.404  0.00  0.00    -0.361 N 
HETATM   24  C   UNK     0      -1.984   1.077 -20.320  0.00  0.00     0.021 A 
HETATM   25  C   UNK     0      -1.202   0.777 -21.418  0.00  0.00    -0.031 A 
HETATM   26  C   UNK     0      -1.576   0.022 -22.677  0.00  0.00     0.051 C 
HETATM   27  C   UNK     0       0.074   1.269 -21.167  0.00  0.00    -0.027 A 
HETATM   28  C   UNK     0      -3.471   0.773 -20.261  0.00  0.00     0.115 C 
HETATM   29  H   UNK     0      -3.785   2.876 -18.222  0.00  0.00     0.165 HD
HETATM   30  H   UNK     0      -2.807   5.712 -19.808  0.00  0.00     0.165 HD
HETATM   31  H   UNK     0      -0.709   4.847 -19.932  0.00  0.00     0.165 HD
HETATM   32  H   UNK     0      -1.589   2.054 -18.390  0.00  0.00     0.165 HD
ENDROOT
BRANCH   6  33
HETATM   33  C   UNK     0      -6.842   4.300 -21.567  0.00  0.00     0.051 C 
BRANCH  33  34
HETATM   34  C   UNK     0      -8.235   4.001 -21.068  0.00  0.00     0.114 C 
BRANCH  34  35
HETATM   35  C   UNK     0      -9.008   3.435 -22.211  0.00  0.00     0.139 C 
HETATM   36  O   UNK     0      -9.143   2.183 -22.331  0.00  0.00    -0.650 OA
BRANCH  35  37
HETATM   37  O   UNK     0      -9.606   4.233 -23.179  0.00  0.00    -0.776 OA
HETATM   38  H   UNK     0      -9.066   4.754 -23.851  0.00  0.00     0.167 HD
ENDBRANCH  35  37
ENDBRANCH  34  35
ENDBRANCH  33  34
ENDBRANCH   6  33
BRANCH  27  39
HETATM   39  C   UNK     0       1.217   1.071 -22.099  0.00  0.00     0.051 C 
BRANCH  39  40
HETATM   40  C   UNK     0       2.129  -0.046 -21.851  0.00  0.00     0.114 C 
BRANCH  40  41
HETATM   41  C   UNK     0       3.352   0.111 -21.096  0.00  0.00     0.139 C 
HETATM   42  O   UNK     0       3.946   1.191 -20.974  0.00  0.00    -0.650 OA
BRANCH  41  43
HETATM   43  O   UNK     0       3.918  -1.026 -20.453  0.00  0.00    -0.776 OA
HETATM   44  H   UNK     0       4.094  -1.811 -21.068  0.00  0.00     0.167 HD
ENDBRANCH  41  43
ENDBRANCH  40  41
ENDBRANCH  39  40
ENDBRANCH  27  39
BRANCH  11  45
HETATM   45  C   UNK     0      -2.782   7.969 -15.636  0.00  0.00     0.051 C 
BRANCH  45  46
HETATM   46  C   UNK     0      -3.066   9.422 -15.756  0.00  0.00     0.114 C 
BRANCH  46  47
HETATM   47  C   UNK     0      -3.766   9.839 -14.507  0.00  0.00     0.139 C 
HETATM   48  O   UNK     0      -4.997   9.971 -14.534  0.00  0.00    -0.650 OA
BRANCH  47  49
HETATM   49  O   UNK     0      -3.062  10.073 -13.352  0.00  0.00    -0.776 OA
HETATM   50  H   UNK     0      -2.062  10.306 -13.361  0.00  0.00     0.167 HD
ENDBRANCH  47  49
ENDBRANCH  46  47
ENDBRANCH  45  46
ENDBRANCH  11  45
BRANCH  18  51
HETATM   51  C   UNK     0       2.656   3.745 -16.795  0.00  0.00     0.051 C 
BRANCH  51  52
HETATM   52  C   UNK     0       2.008   2.923 -15.691  0.00  0.00     0.114 C 
BRANCH  52  53
HETATM   53  C   UNK     0       2.440   1.512 -15.731  0.00  0.00     0.139 C 
HETATM   54  O   UNK     0       3.475   1.196 -16.338  0.00  0.00    -0.650 OA
BRANCH  53  55
HETATM   55  O   UNK     0       1.688   0.553 -15.096  0.00  0.00    -0.776 OA
HETATM   56  H   UNK     0       1.976   0.003 -14.321  0.00  0.00     0.167 HD
ENDBRANCH  53  55
ENDBRANCH  52  53
ENDBRANCH  51  52
ENDBRANCH  18  51
TORSDOF 16
ENDMDL
MODEL 6
REMARK VINA RESULT:      -7.8     14.332     19.371
REMARK  16 active torsions:
REMARK  status: ('A' for Active; 'I' for Inactive)
REMARK    1  A    between atoms: C_6  and  C_7 
REMARK    2  A    between atoms: C_7  and  C_8 
REMARK    3  A    between atoms: C_8  and  C_9 
REMARK    4  A    between atoms: C_9  and  O_11 
REMARK    5  A    between atoms: C_16  and  C_17 
REMARK    6  A    between atoms: C_17  and  C_18 
REMARK    7  A    between atoms: C_18  and  C_19 
REMARK    8  A    between atoms: C_19  and  O_21 
REMARK    9  A    between atoms: C_28  and  C_29 
REMARK   10  A    between atoms: C_29  and  C_30 
REMARK   11  A    between atoms: C_30  and  C_31 
REMARK   12  A    between atoms: C_31  and  O_33 
REMARK   13  A    between atoms: C_42  and  C_43 
REMARK   14  A    between atoms: C_43  and  C_44 
REMARK   15  A    between atoms: C_44  and  C_45 
REMARK   16  A    between atoms: C_45  and  O_47 
ROOT
HETATM    1  C   UNK     0       2.245   4.678 -17.978  0.00  0.00     0.051 C 
HETATM    2  C   UNK     0       1.140   5.699 -17.797  0.00  0.00    -0.031 A 
HETATM    3  C   UNK     0       0.251   6.208 -18.731  0.00  0.00     0.021 A 
HETATM    4  N   UNK     0      -0.544   7.125 -18.129  0.00  0.00    -0.361 N 
HETATM    5  C   UNK     0      -0.186   7.205 -16.831  0.00  0.00     0.022 A 
HETATM    6  C   UNK     0       0.867   6.329 -16.590  0.00  0.00    -0.027 A 
HETATM    7  C   UNK     0      -0.805   7.994 -15.720  0.00  0.00     0.115 C 
HETATM    8  C   UNK     0      -2.323   8.011 -15.660  0.00  0.00     0.021 A 
HETATM    9  N   UNK     0      -3.183   7.027 -15.964  0.00  0.00    -0.361 N 
HETATM   10  C   UNK     0      -4.436   7.517 -15.854  0.00  0.00     0.022 A 
HETATM   11  C   UNK     0      -4.382   8.850 -15.459  0.00  0.00    -0.027 A 
HETATM   12  C   UNK     0      -3.053   9.168 -15.335  0.00  0.00    -0.031 A 
HETATM   13  C   UNK     0      -2.512  10.518 -14.919  0.00  0.00     0.051 C 
HETATM   14  C   UNK     0      -5.727   6.766 -16.166  0.00  0.00     0.115 C 
HETATM   15  C   UNK     0      -5.836   6.302 -17.609  0.00  0.00     0.021 A 
HETATM   16  N   UNK     0      -4.995   5.489 -18.276  0.00  0.00    -0.361 N 
HETATM   17  C   UNK     0      -5.401   5.381 -19.543  0.00  0.00     0.022 A 
HETATM   18  C   UNK     0      -6.569   6.153 -19.707  0.00  0.00    -0.027 A 
HETATM   19  C   UNK     0      -6.831   6.723 -18.489  0.00  0.00    -0.031 A 
HETATM   20  C   UNK     0      -8.032   7.610 -18.213  0.00  0.00     0.051 C 
HETATM   21  C   UNK     0      -4.770   4.652 -20.707  0.00  0.00     0.115 C 
HETATM   22  C   UNK     0      -3.262   4.589 -20.756  0.00  0.00     0.022 A 
HETATM   23  N   UNK     0      -2.380   5.552 -20.455  0.00  0.00    -0.361 N 
HETATM   24  C   UNK     0      -1.142   5.020 -20.496  0.00  0.00     0.021 A 
HETATM   25  C   UNK     0      -1.227   3.685 -20.842  0.00  0.00    -0.031 A 
HETATM   26  C   UNK     0      -0.112   2.683 -21.053  0.00  0.00     0.051 C 
HETATM   27  C   UNK     0      -2.574   3.386 -21.014  0.00  0.00    -0.027 A 
HETATM   28  C   UNK     0       0.172   5.696 -20.141  0.00  0.00     0.115 C 
HETATM   29  H   UNK     0      -1.326   7.737 -18.635  0.00  0.00     0.165 HD
HETATM   30  H   UNK     0      -2.910   5.971 -16.208  0.00  0.00     0.165 HD
HETATM   31  H   UNK     0      -4.122   4.942 -17.833  0.00  0.00     0.165 HD
HETATM   32  H   UNK     0      -2.622   6.628 -20.253  0.00  0.00     0.165 HD
ENDROOT
BRANCH   6  33
HETATM   33  C   UNK     0       1.625   6.050 -15.317  0.00  0.00     0.051 C 
BRANCH  33  34
HETATM   34  C   UNK     0       2.687   7.099 -15.085  0.00  0.00     0.114 C 
BRANCH  34  35
HETATM   35  C   UNK     0       3.965   6.385 -14.802  0.00  0.00     0.139 C 
HETATM   36  O   UNK     0       4.724   6.037 -15.753  0.00  0.00    -0.650 OA
BRANCH  35  37
HETATM   37  O   UNK     0       4.381   6.076 -13.513  0.00  0.00    -0.776 OA
HETATM   38  H   UNK     0       3.904   6.428 -12.699  0.00  0.00     0.167 HD
ENDBRANCH  35  37
ENDBRANCH  34  35
ENDBRANCH  33  34
ENDBRANCH   6  33
BRANCH  27  39
HETATM   39  C   UNK     0      -3.057   2.052 -21.461  0.00  0.00     0.051 C 
BRANCH  39  40
HETATM   40  C   UNK     0      -3.861   1.257 -20.533  0.00  0.00     0.114 C 
BRANCH  40  41
HETATM   41  C   UNK     0      -3.583   1.214 -19.115  0.00  0.00     0.139 C 
HETATM   42  O   UNK     0      -4.208   1.875 -18.275  0.00  0.00    -0.650 OA
BRANCH  41  43
HETATM   43  O   UNK     0      -2.538   0.370 -18.642  0.00  0.00    -0.776 OA
HETATM   44  H   UNK     0      -1.605   0.731 -18.799  0.00  0.00     0.167 HD
ENDBRANCH  41  43
ENDBRANCH  40  41
ENDBRANCH  39  40
ENDBRANCH  27  39
BRANCH  11  45
HETATM   45  C   UNK     0      -5.518   9.803 -15.200  0.00  0.00     0.051 C 
BRANCH  45  46
HETATM   46  C   UNK     0      -6.263   9.531 -13.944  0.00  0.00     0.114 C 
BRANCH  46  47
HETATM   47  C   UNK     0      -5.954  10.641 -12.998  0.00  0.00     0.139 C 
HETATM   48  O   UNK     0      -5.539  11.714 -13.460  0.00  0.00    -0.650 OA
BRANCH  47  49
HETATM   49  O   UNK     0      -6.123  10.480 -11.646  0.00  0.00    -0.776 OA
HETATM   50  H   UNK     0      -6.871   9.895 -11.256  0.00  0.00     0.167 HD
ENDBRANCH  47  49
ENDBRANCH  46  47
ENDBRANCH  45  46
ENDBRANCH  11  45
BRANCH  18  51
HETATM   51  C   UNK     0      -7.401   6.320 -20.952  0.00  0.00     0.051 C 
BRANCH  51  52
HETATM   52  C   UNK     0      -8.357   5.137 -20.988  0.00  0.00     0.114 C 
BRANCH  52  53
HETATM   53  C   UNK     0      -9.767   5.570 -21.011  0.00  0.00     0.139 C 
HETATM   54  O   UNK     0     -10.676   4.737 -20.869  0.00  0.00    -0.650 OA
BRANCH  53  55
HETATM   55  O   UNK     0     -10.067   6.898 -21.195  0.00  0.00    -0.776 OA
HETATM   56  H   UNK     0     -10.413   7.309 -22.030  0.00  0.00     0.167 HD
ENDBRANCH  53  55
ENDBRANCH  52  53
ENDBRANCH  51  52
ENDBRANCH  18  51
TORSDOF 16
ENDMDL
MODEL 7
REMARK VINA RESULT:      -7.7     15.865     20.133
REMARK  16 active torsions:
REMARK  status: ('A' for Active; 'I' for Inactive)
REMARK    1  A    between atoms: C_6  and  C_7 
REMARK    2  A    between atoms: C_7  and  C_8 
REMARK    3  A    between atoms: C_8  and  C_9 
REMARK    4  A    between atoms: C_9  and  O_11 
REMARK    5  A    between atoms: C_16  and  C_17 
REMARK    6  A    between atoms: C_17  and  C_18 
REMARK    7  A    between atoms: C_18  and  C_19 
REMARK    8  A    between atoms: C_19  and  O_21 
REMARK    9  A    between atoms: C_28  and  C_29 
REMARK   10  A    between atoms: C_29  and  C_30 
REMARK   11  A    between atoms: C_30  and  C_31 
REMARK   12  A    between atoms: C_31  and  O_33 
REMARK   13  A    between atoms: C_42  and  C_43 
REMARK   14  A    between atoms: C_43  and  C_44 
REMARK   15  A    between atoms: C_44  and  C_45 
REMARK   16  A    between atoms: C_45  and  O_47 
ROOT
HETATM    1  C   UNK     0      -2.359   8.201 -15.132  0.00  0.00     0.051 C 
HETATM    2  C   UNK     0      -2.933   7.546 -16.371  0.00  0.00    -0.031 A 
HETATM    3  C   UNK     0      -2.308   7.227 -17.567  0.00  0.00     0.021 A 
HETATM    4  N   UNK     0      -3.217   6.680 -18.408  0.00  0.00    -0.361 N 
HETATM    5  C   UNK     0      -4.406   6.634 -17.771  0.00  0.00     0.022 A 
HETATM    6  C   UNK     0      -4.264   7.170 -16.495  0.00  0.00    -0.027 A 
HETATM    7  C   UNK     0      -5.704   6.040 -18.220  0.00  0.00     0.115 C 
HETATM    8  C   UNK     0      -5.633   4.691 -18.914  0.00  0.00     0.021 A 
HETATM    9  N   UNK     0      -4.803   3.666 -18.666  0.00  0.00    -0.361 N 
HETATM   10  C   UNK     0      -5.035   2.707 -19.587  0.00  0.00     0.022 A 
HETATM   11  C   UNK     0      -6.049   3.121 -20.445  0.00  0.00    -0.027 A 
HETATM   12  C   UNK     0      -6.431   4.370 -20.027  0.00  0.00    -0.031 A 
HETATM   13  C   UNK     0      -7.513   5.212 -20.663  0.00  0.00     0.051 C 
HETATM   14  C   UNK     0      -4.277   1.389 -19.727  0.00  0.00     0.115 C 
HETATM   15  C   UNK     0      -2.793   1.559 -20.006  0.00  0.00     0.021 A 
HETATM   16  N   UNK     0      -1.884   2.206 -19.253  0.00  0.00    -0.361 N 
HETATM   17  C   UNK     0      -0.705   2.190 -19.878  0.00  0.00     0.022 A 
HETATM   18  C   UNK     0      -0.850   1.491 -21.093  0.00  0.00    -0.027 A 
HETATM   19  C   UNK     0      -2.162   1.100 -21.161  0.00  0.00    -0.031 A 
HETATM   20  C   UNK     0      -2.741   0.282 -22.300  0.00  0.00     0.051 C 
HETATM   21  C   UNK     0       0.609   2.832 -19.492  0.00  0.00     0.115 C 
HETATM   22  C   UNK     0       0.552   4.153 -18.762  0.00  0.00     0.022 A 
HETATM   23  N   UNK     0      -0.267   5.189 -18.984  0.00  0.00    -0.361 N 
HETATM   24  C   UNK     0      -0.072   6.100 -18.009  0.00  0.00     0.021 A 
HETATM   25  C   UNK     0       0.903   5.643 -17.143  0.00  0.00    -0.031 A 
HETATM   26  C   UNK     0       1.492   6.325 -15.926  0.00  0.00     0.051 C 
HETATM   27  C   UNK     0       1.318   4.399 -17.605  0.00  0.00    -0.027 A 
HETATM   28  C   UNK     0      -0.831   7.396 -17.782  0.00  0.00     0.115 C 
HETATM   29  H   UNK     0      -3.022   6.365 -19.459  0.00  0.00     0.165 HD
HETATM   30  H   UNK     0      -4.086   3.596 -17.812  0.00  0.00     0.165 HD
HETATM   31  H   UNK     0      -2.066   2.642 -18.236  0.00  0.00     0.165 HD
HETATM   32  H   UNK     0      -0.961   5.307 -19.857  0.00  0.00     0.165 HD
ENDROOT
BRANCH   6  33
HETATM   33  C   UNK     0      -5.285   7.353 -15.401  0.00  0.00     0.051 C 
BRANCH  33  34
HETATM   34  C   UNK     0      -5.942   8.709 -15.503  0.00  0.00     0.114 C 
BRANCH  34  35
HETATM   35  C   UNK     0      -7.250   8.626 -14.792  0.00  0.00     0.139 C 
HETATM   36  O   UNK     0      -7.346   9.008 -13.589  0.00  0.00    -0.650 OA
BRANCH  35  37
HETATM   37  O   UNK     0      -8.403   8.141 -15.397  0.00  0.00    -0.776 OA
HETATM   38  H   UNK     0      -9.274   8.646 -15.371  0.00  0.00     0.167 HD
ENDBRANCH  35  37
ENDBRANCH  34  35
ENDBRANCH  33  34
ENDBRANCH   6  33
BRANCH  27  39
HETATM   39  C   UNK     0       2.415   3.622 -16.966  0.00  0.00     0.051 C 
BRANCH  39  40
HETATM   40  C   UNK     0       2.087   2.764 -15.828  0.00  0.00     0.114 C 
BRANCH  40  41
HETATM   41  C   UNK     0       2.510   1.383 -15.758  0.00  0.00     0.139 C 
HETATM   42  O   UNK     0       3.541   0.956 -16.293  0.00  0.00    -0.650 OA
BRANCH  41  43
HETATM   43  O   UNK     0       1.709   0.452 -15.038  0.00  0.00    -0.776 OA
HETATM   44  H   UNK     0       2.172  -0.424 -14.827  0.00  0.00     0.167 HD
ENDBRANCH  41  43
ENDBRANCH  40  41
ENDBRANCH  39  40
ENDBRANCH  27  39
BRANCH  11  45
HETATM   45  C   UNK     0      -6.652   2.388 -21.614  0.00  0.00     0.051 C 
BRANCH  45  46
HETATM   46  C   UNK     0      -5.804   2.391 -22.833  0.00  0.00     0.114 C 
BRANCH  46  47
HETATM   47  C   UNK     0      -6.568   1.689 -23.904  0.00  0.00     0.139 C 
HETATM   48  O   UNK     0      -7.777   1.935 -24.027  0.00  0.00    -0.650 OA
BRANCH  47  49
HETATM   49  O   UNK     0      -5.950   0.790 -24.735  0.00  0.00    -0.776 OA
HETATM   50  H   UNK     0      -6.348   0.524 -25.644  0.00  0.00     0.167 HD
ENDBRANCH  47  49
ENDBRANCH  46  47
ENDBRANCH  45  46
ENDBRANCH  11  45
BRANCH  18  51
HETATM   51  C   UNK     0       0.209   1.193 -22.122  0.00  0.00     0.051 C 
BRANCH  51  52
HETATM   52  C   UNK     0       0.840  -0.130 -21.715  0.00  0.00     0.114 C 
BRANCH  52  53
HETATM   53  C   UNK     0       2.308  -0.028 -21.604  0.00  0.00     0.139 C 
HETATM   54  O   UNK     0       2.994  -1.055 -21.480  0.00  0.00    -0.650 OA
BRANCH  53  55
HETATM   55  O   UNK     0       2.907   1.208 -21.635  0.00  0.00    -0.776 OA
HETATM   56  H   UNK     0       3.630   1.521 -21.030  0.00  0.00     0.167 HD
ENDBRANCH  53  55
ENDBRANCH  52  53
ENDBRANCH  51  52
ENDBRANCH  18  51
TORSDOF 16
ENDMDL
MODEL 8
REMARK VINA RESULT:      -7.6     14.531     19.930
REMARK  16 active torsions:
REMARK  status: ('A' for Active; 'I' for Inactive)
REMARK    1  A    between atoms: C_6  and  C_7 
REMARK    2  A    between atoms: C_7  and  C_8 
REMARK    3  A    between atoms: C_8  and  C_9 
REMARK    4  A    between atoms: C_9  and  O_11 
REMARK    5  A    between atoms: C_16  and  C_17 
REMARK    6  A    between atoms: C_17  and  C_18 
REMARK    7  A    between atoms: C_18  and  C_19 
REMARK    8  A    between atoms: C_19  and  O_21 
REMARK    9  A    between atoms: C_28  and  C_29 
REMARK   10  A    between atoms: C_29  and  C_30 
REMARK   11  A    between atoms: C_30  and  C_31 
REMARK   12  A    between atoms: C_31  and  O_33 
REMARK   13  A    between atoms: C_42  and  C_43 
REMARK   14  A    between atoms: C_43  and  C_44 
REMARK   15  A    between atoms: C_44  and  C_45 
REMARK   16  A    between atoms: C_45  and  O_47 
ROOT
HETATM    1  C   UNK     0      -5.981  10.217 -16.419  0.00  0.00     0.051 C 
HETATM    2  C   UNK     0      -4.836   9.245 -16.217  0.00  0.00    -0.031 A 
HETATM    3  C   UNK     0      -4.858   7.860 -16.166  0.00  0.00     0.021 A 
HETATM    4  N   UNK     0      -3.602   7.407 -15.936  0.00  0.00    -0.361 N 
HETATM    5  C   UNK     0      -2.780   8.473 -15.849  0.00  0.00     0.022 A 
HETATM    6  C   UNK     0      -3.520   9.639 -16.017  0.00  0.00    -0.027 A 
HETATM    7  C   UNK     0      -1.291   8.517 -15.698  0.00  0.00     0.115 C 
HETATM    8  C   UNK     0      -0.492   7.533 -16.533  0.00  0.00     0.021 A 
HETATM    9  N   UNK     0      -0.743   7.094 -17.776  0.00  0.00    -0.361 N 
HETATM   10  C   UNK     0       0.180   6.158 -18.085  0.00  0.00     0.022 A 
HETATM   11  C   UNK     0       1.054   5.996 -17.014  0.00  0.00    -0.027 A 
HETATM   12  C   UNK     0       0.637   6.859 -16.033  0.00  0.00    -0.031 A 
HETATM   13  C   UNK     0       1.295   7.031 -14.683  0.00  0.00     0.051 C 
HETATM   14  C   UNK     0       0.242   5.344 -19.374  0.00  0.00     0.115 C 
HETATM   15  C   UNK     0      -0.987   4.482 -19.618  0.00  0.00     0.021 A 
HETATM   16  N   UNK     0      -2.266   4.887 -19.727  0.00  0.00    -0.361 N 
HETATM   17  C   UNK     0      -3.054   3.819 -19.867  0.00  0.00     0.022 A 
HETATM   18  C   UNK     0      -2.248   2.663 -19.859  0.00  0.00    -0.027 A 
HETATM   19  C   UNK     0      -0.956   3.092 -19.704  0.00  0.00    -0.031 A 
HETATM   20  C   UNK     0       0.244   2.163 -19.679  0.00  0.00     0.051 C 
HETATM   21  C   UNK     0      -4.560   3.727 -19.956  0.00  0.00     0.115 C 
HETATM   22  C   UNK     0      -5.368   4.729 -19.165  0.00  0.00     0.022 A 
HETATM   23  N   UNK     0      -5.139   5.187 -17.927  0.00  0.00    -0.361 N 
HETATM   24  C   UNK     0      -6.022   6.173 -17.671  0.00  0.00     0.021 A 
HETATM   25  C   UNK     0      -6.846   6.348 -18.766  0.00  0.00    -0.031 A 
HETATM   26  C   UNK     0      -8.009   7.301 -18.942  0.00  0.00     0.051 C 
HETATM   27  C   UNK     0      -6.447   5.434 -19.735  0.00  0.00    -0.027 A 
HETATM   28  C   UNK     0      -6.098   7.056 -16.437  0.00  0.00     0.115 C 
HETATM   29  H   UNK     0      -3.312   6.340 -15.798  0.00  0.00     0.165 HD
HETATM   30  H   UNK     0      -1.540   7.479 -18.458  0.00  0.00     0.165 HD
HETATM   31  H   UNK     0      -2.616   5.952 -19.753  0.00  0.00     0.165 HD
HETATM   32  H   UNK     0      -4.380   4.788 -17.205  0.00  0.00     0.165 HD
ENDROOT
BRANCH   6  33
HETATM   33  C   UNK     0      -3.077  11.080 -16.000  0.00  0.00     0.051 C 
BRANCH  33  34
HETATM   34  C   UNK     0      -3.565  11.775 -14.752  0.00  0.00     0.114 C 
BRANCH  34  35
HETATM   35  C   UNK     0      -2.641  11.402 -13.642  0.00  0.00     0.139 C 
HETATM   36  O   UNK     0      -1.529  11.993 -13.513  0.00  0.00    -0.650 OA
BRANCH  35  37
HETATM   37  O   UNK     0      -2.944  10.413 -12.715  0.00  0.00    -0.776 OA
HETATM   38  H   UNK     0      -3.645  10.545 -12.003  0.00  0.00     0.167 HD
ENDBRANCH  35  37
ENDBRANCH  34  35
ENDBRANCH  33  34
ENDBRANCH   6  33
BRANCH  27  39
HETATM   39  C   UNK     0      -7.150   5.275 -21.037  0.00  0.00     0.051 C 
BRANCH  39  40
HETATM   40  C   UNK     0      -8.193   4.255 -21.142  0.00  0.00     0.114 C 
BRANCH  40  41
HETATM   41  C   UNK     0      -8.011   3.041 -21.906  0.00  0.00     0.139 C 
HETATM   42  O   UNK     0      -6.906   2.635 -22.291  0.00  0.00    -0.650 OA
BRANCH  41  43
HETATM   43  O   UNK     0      -9.151   2.259 -22.243  0.00  0.00    -0.776 OA
HETATM   44  H   UNK     0      -9.915   2.785 -22.651  0.00  0.00     0.167 HD
ENDBRANCH  41  43
ENDBRANCH  40  41
ENDBRANCH  39  40
ENDBRANCH  27  39
BRANCH  11  45
HETATM   45  C   UNK     0       2.240   5.076 -16.898  0.00  0.00     0.051 C 
BRANCH  45  46
HETATM   46  C   UNK     0       3.361   5.414 -17.812  0.00  0.00     0.114 C 
BRANCH  46  47
HETATM   47  C   UNK     0       4.248   6.369 -17.088  0.00  0.00     0.139 C 
HETATM   48  O   UNK     0       4.638   6.070 -15.951  0.00  0.00    -0.650 OA
BRANCH  47  49
HETATM   49  O   UNK     0       4.624   7.555 -17.667  0.00  0.00    -0.776 OA
HETATM   50  H   UNK     0       5.535   7.990 -17.476  0.00  0.00     0.167 HD
ENDBRANCH  47  49
ENDBRANCH  46  47
ENDBRANCH  45  46
ENDBRANCH  11  45
BRANCH  18  51
HETATM   51  C   UNK     0      -2.685   1.229 -20.013  0.00  0.00     0.051 C 
BRANCH  51  52
HETATM   52  C   UNK     0      -2.491   0.879 -21.481  0.00  0.00     0.114 C 
BRANCH  52  53
HETATM   53  C   UNK     0      -3.692   0.246 -22.059  0.00  0.00     0.139 C 
HETATM   54  O   UNK     0      -3.575  -0.633 -22.927  0.00  0.00    -0.650 OA
BRANCH  53  55
HETATM   55  O   UNK     0      -4.938   0.639 -21.633  0.00  0.00    -0.776 OA
HETATM   56  H   UNK     0      -5.805   0.358 -22.028  0.00  0.00     0.167 HD
ENDBRANCH  53  55
ENDBRANCH  52  53
ENDBRANCH  51  52
ENDBRANCH  18  51
TORSDOF 16
ENDMDL
MODEL 9
REMARK VINA RESULT:      -7.6     14.695     20.027
REMARK  16 active torsions:
REMARK  status: ('A' for Active; 'I' for Inactive)
REMARK    1  A    between atoms: C_6  and  C_7 
REMARK    2  A    between atoms: C_7  and  C_8 
REMARK    3  A    between atoms: C_8  and  C_9 
REMARK    4  A    between atoms: C_9  and  O_11 
REMARK    5  A    between atoms: C_16  and  C_17 
REMARK    6  A    between atoms: C_17  and  C_18 
REMARK    7  A    between atoms: C_18  and  C_19 
REMARK    8  A    between atoms: C_19  and  O_21 
REMARK    9  A    between atoms: C_28  and  C_29 
REMARK   10  A    between atoms: C_29  and  C_30 
REMARK   11  A    between atoms: C_30  and  C_31 
REMARK   12  A    between atoms: C_31  and  O_33 
REMARK   13  A    between atoms: C_42  and  C_43 
REMARK   14  A    between atoms: C_43  and  C_44 
REMARK   15  A    between atoms: C_44  and  C_45 
REMARK   16  A    between atoms: C_45  and  O_47 
ROOT
HETATM    1  C   UNK     0       1.203   4.168 -18.305  0.00  0.00     0.051 C 
HETATM    2  C   UNK     0       0.355   5.404 -18.089  0.00  0.00    -0.031 A 
HETATM    3  C   UNK     0      -0.572   5.995 -18.934  0.00  0.00     0.021 A 
HETATM    4  N   UNK     0      -1.068   7.105 -18.338  0.00  0.00    -0.361 N 
HETATM    5  C   UNK     0      -0.484   7.230 -17.129  0.00  0.00     0.022 A 
HETATM    6  C   UNK     0       0.413   6.185 -16.941  0.00  0.00    -0.027 A 
HETATM    7  C   UNK     0      -0.748   8.227 -16.043  0.00  0.00     0.115 C 
HETATM    8  C   UNK     0      -2.203   8.557 -15.760  0.00  0.00     0.021 A 
HETATM    9  N   UNK     0      -3.270   7.744 -15.808  0.00  0.00    -0.361 N 
HETATM   10  C   UNK     0      -4.373   8.486 -15.573  0.00  0.00     0.022 A 
HETATM   11  C   UNK     0      -4.006   9.811 -15.358  0.00  0.00    -0.027 A 
HETATM   12  C   UNK     0      -2.640   9.863 -15.475  0.00  0.00    -0.031 A 
HETATM   13  C   UNK     0      -1.796  11.107 -15.314  0.00  0.00     0.051 C 
HETATM   14  C   UNK     0      -5.815   7.988 -15.593  0.00  0.00     0.115 C 
HETATM   15  C   UNK     0      -6.253   7.424 -16.936  0.00  0.00     0.021 A 
HETATM   16  N   UNK     0      -5.703   6.400 -17.615  0.00  0.00    -0.361 N 
HETATM   17  C   UNK     0      -6.333   6.261 -18.784  0.00  0.00     0.022 A 
HETATM   18  C   UNK     0      -7.348   7.234 -18.866  0.00  0.00    -0.027 A 
HETATM   19  C   UNK     0      -7.288   7.955 -17.702  0.00  0.00    -0.031 A 
HETATM   20  C   UNK     0      -8.238   9.089 -17.361  0.00  0.00     0.051 C 
HETATM   21  C   UNK     0      -6.056   5.315 -19.931  0.00  0.00     0.115 C 
HETATM   22  C   UNK     0      -4.616   4.943 -20.196  0.00  0.00     0.022 A 
HETATM   23  N   UNK     0      -3.534   5.730 -20.151  0.00  0.00    -0.361 N 
HETATM   24  C   UNK     0      -2.441   4.957 -20.311  0.00  0.00     0.021 A 
HETATM   25  C   UNK     0      -2.829   3.641 -20.472  0.00  0.00    -0.031 A 
HETATM   26  C   UNK     0      -1.972   2.418 -20.722  0.00  0.00     0.051 C 
HETATM   27  C   UNK     0      -4.217   3.607 -20.403  0.00  0.00    -0.027 A 
HETATM   28  C   UNK     0      -0.984   5.382 -20.243  0.00  0.00     0.115 C 
HETATM   29  H   UNK     0      -1.798   7.814 -18.793  0.00  0.00     0.165 HD
HETATM   30  H   UNK     0      -3.243   6.637 -15.958  0.00  0.00     0.165 HD
HETATM   31  H   UNK     0      -4.884   5.730 -17.243  0.00  0.00     0.165 HD
HETATM   32  H   UNK     0      -3.533   6.847 -20.050  0.00  0.00     0.165 HD
ENDROOT
BRANCH   6  33
HETATM   33  C   UNK     0       1.313   5.876 -15.771  0.00  0.00     0.051 C 
BRANCH  33  34
HETATM   34  C   UNK     0       2.567   6.716 -15.824  0.00  0.00     0.114 C 
BRANCH  34  35
HETATM   35  C   UNK     0       3.715   5.791 -16.049  0.00  0.00     0.139 C 
HETATM   36  O   UNK     0       4.826   6.241 -16.452  0.00  0.00    -0.650 OA
BRANCH  35  37
HETATM   37  O   UNK     0       3.627   4.421 -15.832  0.00  0.00    -0.776 OA
HETATM   38  H   UNK     0       3.334   3.783 -16.555  0.00  0.00     0.167 HD
ENDBRANCH  35  37
ENDBRANCH  34  35
ENDBRANCH  33  34
ENDBRANCH   6  33
BRANCH  27  39
HETATM   39  C   UNK     0      -5.008   2.363 -20.605  0.00  0.00     0.051 C 
BRANCH  39  40
HETATM   40  C   UNK     0      -5.562   2.100 -21.933  0.00  0.00     0.114 C 
BRANCH  40  41
HETATM   41  C   UNK     0      -6.781   2.724 -22.396  0.00  0.00     0.139 C 
HETATM   42  O   UNK     0      -7.913   2.311 -22.108  0.00  0.00    -0.650 OA
BRANCH  41  43
HETATM   43  O   UNK     0      -6.695   3.875 -23.229  0.00  0.00    -0.776 OA
HETATM   44  H   UNK     0      -7.566   4.133 -23.679  0.00  0.00     0.167 HD
ENDBRANCH  41  43
ENDBRANCH  40  41
ENDBRANCH  39  40
ENDBRANCH  27  39
BRANCH  11  45
HETATM   45  C   UNK     0      -4.885  10.994 -15.053  0.00  0.00     0.051 C 
BRANCH  45  46
HETATM   46  C   UNK     0      -4.901  11.383 -13.619  0.00  0.00     0.114 C 
BRANCH  46  47
HETATM   47  C   UNK     0      -6.146  10.821 -13.023  0.00  0.00     0.139 C 
HETATM   48  O   UNK     0      -7.150  10.711 -13.742  0.00  0.00    -0.650 OA
BRANCH  47  49
HETATM   49  O   UNK     0      -6.183  10.434 -11.707  0.00  0.00    -0.776 OA
HETATM   50  H   UNK     0      -5.337  10.397 -11.126  0.00  0.00     0.167 HD
ENDBRANCH  47  49
ENDBRANCH  46  47
ENDBRANCH  45  46
ENDBRANCH  11  45
BRANCH  18  51
HETATM   51  C   UNK     0      -8.335   7.452 -19.983  0.00  0.00     0.051 C 
BRANCH  51  52
HETATM   52  C   UNK     0      -9.425   6.406 -19.799  0.00  0.00     0.114 C 
BRANCH  52  53
HETATM   53  C   UNK     0      -9.935   5.910 -21.091  0.00  0.00     0.139 C 
HETATM   54  O   UNK     0     -11.092   6.184 -21.450  0.00  0.00    -0.650 OA
BRANCH  53  55
HETATM   55  O   UNK     0      -9.125   5.142 -21.892  0.00  0.00    -0.776 OA
HETATM   56  H   UNK     0      -8.134   5.102 -21.853  0.00  0.00     0.167 HD
ENDBRANCH  53  55
ENDBRANCH  52  53
ENDBRANCH  51  52
ENDBRANCH  18  51
TORSDOF 16
ENDMDL
MODEL 10
REMARK VINA RESULT:      -7.5     14.379     19.494
REMARK  16 active torsions:
REMARK  status: ('A' for Active; 'I' for Inactive)
REMARK    1  A    between atoms: C_6  and  C_7 
REMARK    2  A    between atoms: C_7  and  C_8 
REMARK    3  A    between atoms: C_8  and  C_9 
REMARK    4  A    between atoms: C_9  and  O_11 
REMARK    5  A    between atoms: C_16  and  C_17 
REMARK    6  A    between atoms: C_17  and  C_18 
REMARK    7  A    between atoms: C_18  and  C_19 
REMARK    8  A    between atoms: C_19  and  O_21 
REMARK    9  A    between atoms: C_28  and  C_29 
REMARK   10  A    between atoms: C_29  and  C_30 
REMARK   11  A    between atoms: C_30  and  C_31 
REMARK   12  A    between atoms: C_31  and  O_33 
REMARK   13  A    between atoms: C_42  and  C_43 
REMARK   14  A    between atoms: C_43  and  C_44 
REMARK   15  A    between atoms: C_44  and  C_45 
REMARK   16  A    between atoms: C_45  and  O_47 
ROOT
HETATM    1  C   UNK     0       1.674   4.248 -17.439  0.00  0.00     0.051 C 
HETATM    2  C   UNK     0       0.754   5.451 -17.373  0.00  0.00    -0.031 A 
HETATM    3  C   UNK     0      -0.116   5.946 -18.332  0.00  0.00     0.021 A 
HETATM    4  N   UNK     0      -0.714   7.062 -17.850  0.00  0.00    -0.361 N 
HETATM    5  C   UNK     0      -0.251   7.283 -16.603  0.00  0.00     0.022 A 
HETATM    6  C   UNK     0       0.672   6.296 -16.274  0.00  0.00    -0.027 A 
HETATM    7  C   UNK     0      -0.658   8.324 -15.607  0.00  0.00     0.115 C 
HETATM    8  C   UNK     0      -2.146   8.596 -15.475  0.00  0.00     0.021 A 
HETATM    9  N   UNK     0      -3.166   7.729 -15.569  0.00  0.00    -0.361 N 
HETATM   10  C   UNK     0      -4.318   8.427 -15.478  0.00  0.00     0.022 A 
HETATM   11  C   UNK     0      -4.032   9.778 -15.312  0.00  0.00    -0.027 A 
HETATM   12  C   UNK     0      -2.665   9.892 -15.309  0.00  0.00    -0.031 A 
HETATM   13  C   UNK     0      -1.896  11.184 -15.148  0.00  0.00     0.051 C 
HETATM   14  C   UNK     0      -5.729   7.856 -15.598  0.00  0.00     0.115 C 
HETATM   15  C   UNK     0      -6.015   7.198 -16.938  0.00  0.00     0.021 A 
HETATM   16  N   UNK     0      -5.360   6.167 -17.503  0.00  0.00    -0.361 N 
HETATM   17  C   UNK     0      -5.873   5.931 -18.713  0.00  0.00     0.022 A 
HETATM   18  C   UNK     0      -6.919   6.847 -18.943  0.00  0.00    -0.027 A 
HETATM   19  C   UNK     0      -6.998   7.634 -17.823  0.00  0.00    -0.031 A 
HETATM   20  C   UNK     0      -8.026   8.736 -17.638  0.00  0.00     0.051 C 
HETATM   21  C   UNK     0      -5.449   4.939 -19.771  0.00  0.00     0.115 C 
HETATM   22  C   UNK     0      -3.976   4.625 -19.884  0.00  0.00     0.022 A 
HETATM   23  N   UNK     0      -2.938   5.467 -19.791  0.00  0.00    -0.361 N 
HETATM   24  C   UNK     0      -1.802   4.742 -19.806  0.00  0.00     0.021 A 
HETATM   25  C   UNK     0      -2.115   3.401 -19.922  0.00  0.00    -0.031 A 
HETATM   26  C   UNK     0      -1.184   2.210 -20.021  0.00  0.00     0.051 C 
HETATM   27  C   UNK     0      -3.500   3.301 -19.974  0.00  0.00    -0.027 A 
HETATM   28  C   UNK     0      -0.378   5.242 -19.633  0.00  0.00     0.115 C 
HETATM   29  H   UNK     0      -1.430   7.707 -18.410  0.00  0.00     0.165 HD
HETATM   30  H   UNK     0      -3.076   6.618 -15.650  0.00  0.00     0.165 HD
HETATM   31  H   UNK     0      -4.550   5.561 -17.020  0.00  0.00     0.165 HD
HETATM   32  H   UNK     0      -2.997   6.586 -19.757  0.00  0.00     0.165 HD
ENDROOT
BRANCH   6  33
HETATM   33  C   UNK     0       1.473   6.098 -15.012  0.00  0.00     0.051 C 
BRANCH  33  34
HETATM   34  C   UNK     0       2.701   6.977 -15.013  0.00  0.00     0.114 C 
BRANCH  34  35
HETATM   35  C   UNK     0       3.863   6.122 -14.638  0.00  0.00     0.139 C 
HETATM   36  O   UNK     0       4.474   5.454 -15.522  0.00  0.00    -0.650 OA
BRANCH  35  37
HETATM   37  O   UNK     0       4.326   6.017 -13.332  0.00  0.00    -0.776 OA
HETATM   38  H   UNK     0       3.842   6.444 -12.558  0.00  0.00     0.167 HD
ENDBRANCH  35  37
ENDBRANCH  34  35
ENDBRANCH  33  34
ENDBRANCH   6  33
BRANCH  27  39
HETATM   39  C   UNK     0      -4.213   2.009 -20.172  0.00  0.00     0.051 C 
BRANCH  39  40
HETATM   40  C   UNK     0      -4.482   1.567 -21.539  0.00  0.00     0.114 C 
BRANCH  40  41
HETATM   41  C   UNK     0      -4.024   0.291 -22.041  0.00  0.00     0.139 C 
HETATM   42  O   UNK     0      -2.828  -0.005 -22.165  0.00  0.00    -0.650 OA
BRANCH  41  43
HETATM   43  O   UNK     0      -4.985  -0.689 -22.417  0.00  0.00    -0.776 OA
HETATM   44  H   UNK     0      -4.719  -1.253 -23.216  0.00  0.00     0.167 HD
ENDBRANCH  41  43
ENDBRANCH  40  41
ENDBRANCH  39  40
ENDBRANCH  27  39
BRANCH  11  45
HETATM   45  C   UNK     0      -4.988  10.931 -15.157  0.00  0.00     0.051 C 
BRANCH  45  46
HETATM   46  C   UNK     0      -5.059  11.478 -13.778  0.00  0.00     0.114 C 
BRANCH  46  47
HETATM   47  C   UNK     0      -6.179  10.780 -13.084  0.00  0.00     0.139 C 
HETATM   48  O   UNK     0      -7.194  10.495 -13.735  0.00  0.00    -0.650 OA
BRANCH  47  49
HETATM   49  O   UNK     0      -6.091  10.461 -11.752  0.00  0.00    -0.776 OA
HETATM   50  H   UNK     0      -6.642   9.701 -11.336  0.00  0.00     0.167 HD
ENDBRANCH  47  49
ENDBRANCH  46  47
ENDBRANCH  45  46
ENDBRANCH  11  45
BRANCH  18  51
HETATM   51  C   UNK     0      -7.807   6.952 -20.155  0.00  0.00     0.051 C 
BRANCH  51  52
HETATM   52  C   UNK     0      -9.073   6.177 -19.824  0.00  0.00     0.114 C 
BRANCH  52  53
HETATM   53  C   UNK     0      -9.446   5.245 -20.906  0.00  0.00     0.139 C 
HETATM   54  O   UNK     0     -10.420   5.495 -21.634  0.00  0.00    -0.650 OA
BRANCH  53  55
HETATM   55  O   UNK     0      -8.712   4.100 -21.099  0.00  0.00    -0.776 OA
HETATM   56  H   UNK     0      -9.060   3.171 -21.069  0.00  0.00     0.167 HD
ENDBRANCH  53  55
ENDBRANCH  52  53
ENDBRANCH  51  52
ENDBRANCH  18  51
TORSDOF 16
ENDMDL
MODEL 11
REMARK VINA RESULT:      -7.3     15.178     20.415
REMARK  16 active torsions:
REMARK  status: ('A' for Active; 'I' for Inactive)
REMARK    1  A    between atoms: C_6  and  C_7 
REMARK    2  A    between atoms: C_7  and  C_8 
REMARK    3  A    between atoms: C_8  and  C_9 
REMARK    4  A    between atoms: C_9  and  O_11 
REMARK    5  A    between atoms: C_16  and  C_17 
REMARK    6  A    between atoms: C_17  and  C_18 
REMARK    7  A    between atoms: C_18  and  C_19 
REMARK    8  A    between atoms: C_19  and  O_21 
REMARK    9  A    between atoms: C_28  and  C_29 
REMARK   10  A    between atoms: C_29  and  C_30 
REMARK   11  A    between atoms: C_30  and  C_31 
REMARK   12  A    between atoms: C_31  and  O_33 
REMARK   13  A    between atoms: C_42  and  C_43 
REMARK   14  A    between atoms: C_43  and  C_44 
REMARK   15  A    between atoms: C_44  and  C_45 
REMARK   16  A    between atoms: C_45  and  O_47 
ROOT
HETATM    1  C   UNK     0      -6.482   2.395 -21.753  0.00  0.00     0.051 C 
HETATM    2  C   UNK     0      -5.940   3.038 -20.493  0.00  0.00    -0.031 A 
HETATM    3  C   UNK     0      -4.951   2.590 -19.631  0.00  0.00     0.021 A 
HETATM    4  N   UNK     0      -4.817   3.475 -18.615  0.00  0.00    -0.361 N 
HETATM    5  C   UNK     0      -5.692   4.481 -18.815  0.00  0.00     0.022 A 
HETATM    6  C   UNK     0      -6.413   4.238 -19.979  0.00  0.00    -0.027 A 
HETATM    7  C   UNK     0      -5.881   5.747 -18.039  0.00  0.00     0.115 C 
HETATM    8  C   UNK     0      -4.620   6.470 -17.597  0.00  0.00     0.021 A 
HETATM    9  N   UNK     0      -3.450   6.582 -18.245  0.00  0.00    -0.361 N 
HETATM   10  C   UNK     0      -2.584   7.231 -17.437  0.00  0.00     0.022 A 
HETATM   11  C   UNK     0      -3.217   7.553 -16.240  0.00  0.00    -0.027 A 
HETATM   12  C   UNK     0      -4.500   7.077 -16.334  0.00  0.00    -0.031 A 
HETATM   13  C   UNK     0      -5.560   7.204 -15.263  0.00  0.00     0.051 C 
HETATM   14  C   UNK     0      -1.118   7.524 -17.739  0.00  0.00     0.115 C 
HETATM   15  C   UNK     0      -0.272   6.279 -17.956  0.00  0.00     0.021 A 
HETATM   16  N   UNK     0      -0.452   5.315 -18.877  0.00  0.00    -0.361 N 
HETATM   17  C   UNK     0       0.460   4.358 -18.694  0.00  0.00     0.022 A 
HETATM   18  C   UNK     0       1.280   4.721 -17.607  0.00  0.00    -0.027 A 
HETATM   19  C   UNK     0       0.811   5.927 -17.154  0.00  0.00    -0.031 A 
HETATM   20  C   UNK     0       1.437   6.698 -16.007  0.00  0.00     0.051 C 
HETATM   21  C   UNK     0       0.642   3.039 -19.410  0.00  0.00     0.115 C 
HETATM   22  C   UNK     0      -0.601   2.330 -19.894  0.00  0.00     0.022 A 
HETATM   23  N   UNK     0      -1.781   2.206 -19.272  0.00  0.00    -0.361 N 
HETATM   24  C   UNK     0      -2.650   1.626 -20.124  0.00  0.00     0.021 A 
HETATM   25  C   UNK     0      -2.012   1.361 -21.321  0.00  0.00    -0.031 A 
HETATM   26  C   UNK     0      -2.556   0.686 -22.562  0.00  0.00     0.051 C 
HETATM   27  C   UNK     0      -0.699   1.803 -21.197  0.00  0.00    -0.027 A 
HETATM   28  C   UNK     0      -4.130   1.362 -19.906  0.00  0.00     0.115 C 
HETATM   29  H   UNK     0      -4.132   3.362 -17.743  0.00  0.00     0.165 HD
HETATM   30  H   UNK     0      -3.247   6.249 -19.292  0.00  0.00     0.165 HD
HETATM   31  H   UNK     0      -1.208   5.332 -19.705  0.00  0.00     0.165 HD
HETATM   32  H   UNK     0      -2.000   2.487 -18.209  0.00  0.00     0.165 HD
ENDROOT
BRANCH   6  33
HETATM   33  C   UNK     0      -7.505   5.048 -20.631  0.00  0.00     0.051 C 
BRANCH  33  34
HETATM   34  C   UNK     0      -6.919   6.120 -21.518  0.00  0.00     0.114 C 
BRANCH  34  35
HETATM   35  C   UNK     0      -7.821   7.306 -21.442  0.00  0.00     0.139 C 
HETATM   36  O   UNK     0      -8.265   7.697 -20.324  0.00  0.00    -0.650 OA
BRANCH  35  37
HETATM   37  O   UNK     0      -8.209   8.025 -22.566  0.00  0.00    -0.776 OA
HETATM   38  H   UNK     0      -9.115   8.458 -22.637  0.00  0.00     0.167 HD
ENDBRANCH  35  37
ENDBRANCH  34  35
ENDBRANCH  33  34
ENDBRANCH   6  33
BRANCH  27  39
HETATM   39  C   UNK     0       0.321   1.622 -22.266  0.00  0.00     0.051 C 
BRANCH  39  40
HETATM   40  C   UNK     0       1.292   0.538 -22.122  0.00  0.00     0.114 C 
BRANCH  40  41
HETATM   41  C   UNK     0       2.658   0.777 -21.713  0.00  0.00     0.139 C 
HETATM   42  O   UNK     0       3.058   0.633 -20.550  0.00  0.00    -0.650 OA
BRANCH  41  43
HETATM   43  O   UNK     0       3.607   1.200 -22.687  0.00  0.00    -0.776 OA
HETATM   44  H   UNK     0       3.974   0.454 -23.265  0.00  0.00     0.167 HD
ENDBRANCH  41  43
ENDBRANCH  40  41
ENDBRANCH  39  40
ENDBRANCH  27  39
BRANCH  11  45
HETATM   45  C   UNK     0      -2.659   8.281 -15.047  0.00  0.00     0.051 C 
BRANCH  45  46
HETATM   46  C   UNK     0      -2.774   9.759 -15.129  0.00  0.00     0.114 C 
BRANCH  46  47
HETATM   47  C   UNK     0      -3.351  10.230 -13.838  0.00  0.00     0.139 C 
HETATM   48  O   UNK     0      -2.667  10.974 -13.120  0.00  0.00    -0.650 OA
BRANCH  47  49
HETATM   49  O   UNK     0      -4.610   9.848 -13.449  0.00  0.00    -0.776 OA
HETATM   50  H   UNK     0      -4.779   8.984 -12.921  0.00  0.00     0.167 HD
ENDBRANCH  47  49
ENDBRANCH  46  47
ENDBRANCH  45  46
ENDBRANCH  11  45
BRANCH  18  51
HETATM   51  C   UNK     0       2.458   3.970 -17.044  0.00  0.00     0.051 C 
BRANCH  51  52
HETATM   52  C   UNK     0       1.909   3.086 -15.933  0.00  0.00     0.114 C 
BRANCH  52  53
HETATM   53  C   UNK     0       2.500   1.734 -15.964  0.00  0.00     0.139 C 
HETATM   54  O   UNK     0       1.920   0.790 -15.405  0.00  0.00    -0.650 OA
BRANCH  53  55
HETATM   55  O   UNK     0       3.694   1.529 -16.612  0.00  0.00    -0.776 OA
HETATM   56  H   UNK     0       4.478   1.041 -16.249  0.00  0.00     0.167 HD
ENDBRANCH  53  55
ENDBRANCH  52  53
ENDBRANCH  51  52
ENDBRANCH  18  51
TORSDOF 16
ENDMDL
MODEL 12
REMARK VINA RESULT:      -7.2      6.947     11.992
REMARK  16 active torsions:
REMARK  status: ('A' for Active; 'I' for Inactive)
REMARK    1  A    between atoms: C_6  and  C_7 
REMARK    2  A    between atoms: C_7  and  C_8 
REMARK    3  A    between atoms: C_8  and  C_9 
REMARK    4  A    between atoms: C_9  and  O_11 
REMARK    5  A    between atoms: C_16  and  C_17 
REMARK    6  A    between atoms: C_17  and  C_18 
REMARK    7  A    between atoms: C_18  and  C_19 
REMARK    8  A    between atoms: C_19  and  O_21 
REMARK    9  A    between atoms: C_28  and  C_29 
REMARK   10  A    between atoms: C_29  and  C_30 
REMARK   11  A    between atoms: C_30  and  C_31 
REMARK   12  A    between atoms: C_31  and  O_33 
REMARK   13  A    between atoms: C_42  and  C_43 
REMARK   14  A    between atoms: C_43  and  C_44 
REMARK   15  A    between atoms: C_44  and  C_45 
REMARK   16  A    between atoms: C_45  and  O_47 
ROOT
HETATM    1  C   UNK     0      19.229   6.284 -11.880  0.00  0.00     0.051 C 
HETATM    2  C   UNK     0      18.046   7.091 -11.386  0.00  0.00    -0.031 A 
HETATM    3  C   UNK     0      16.803   6.655 -10.954  0.00  0.00     0.021 A 
HETATM    4  N   UNK     0      16.045   7.731 -10.634  0.00  0.00    -0.361 N 
HETATM    5  C   UNK     0      16.781   8.842 -10.844  0.00  0.00     0.022 A 
HETATM    6  C   UNK     0      18.037   8.478 -11.317  0.00  0.00    -0.027 A 
HETATM    7  C   UNK     0      16.447  10.273 -10.559  0.00  0.00     0.115 C 
HETATM    8  C   UNK     0      15.756  10.562  -9.238  0.00  0.00     0.021 A 
HETATM    9  N   UNK     0      15.937   9.962  -8.051  0.00  0.00    -0.361 N 
HETATM   10  C   UNK     0      15.044  10.479  -7.180  0.00  0.00     0.022 A 
HETATM   11  C   UNK     0      14.273  11.444  -7.822  0.00  0.00    -0.027 A 
HETATM   12  C   UNK     0      14.717  11.502  -9.118  0.00  0.00    -0.031 A 
HETATM   13  C   UNK     0      14.171  12.420 -10.189  0.00  0.00     0.051 C 
HETATM   14  C   UNK     0      14.846  10.047  -5.730  0.00  0.00     0.115 C 
HETATM   15  C   UNK     0      14.440   8.591  -5.571  0.00  0.00     0.021 A 
HETATM   16  N   UNK     0      15.111   7.501  -5.989  0.00  0.00    -0.361 N 
HETATM   17  C   UNK     0      14.387   6.412  -5.720  0.00  0.00     0.022 A 
HETATM   18  C   UNK     0      13.193   6.810  -5.088  0.00  0.00    -0.027 A 
HETATM   19  C   UNK     0      13.239   8.177  -4.999  0.00  0.00    -0.031 A 
HETATM   20  C   UNK     0      12.156   9.017  -4.347  0.00  0.00     0.051 C 
HETATM   21  C   UNK     0      14.657   4.961  -6.049  0.00  0.00     0.115 C 
HETATM   22  C   UNK     0      15.383   4.661  -7.339  0.00  0.00     0.022 A 
HETATM   23  N   UNK     0      15.227   5.245  -8.535  0.00  0.00    -0.361 N 
HETATM   24  C   UNK     0      16.177   4.771  -9.365  0.00  0.00     0.021 A 
HETATM   25  C   UNK     0      16.959   3.853  -8.691  0.00  0.00    -0.031 A 
HETATM   26  C   UNK     0      18.119   3.027  -9.207  0.00  0.00     0.051 C 
HETATM   27  C   UNK     0      16.470   3.765  -7.393  0.00  0.00    -0.027 A 
HETATM   28  C   UNK     0      16.462   5.201 -10.794  0.00  0.00     0.115 C 
HETATM   29  H   UNK     0      14.982   7.700 -10.299  0.00  0.00     0.165 HD
HETATM   30  H   UNK     0      16.727   9.210  -7.811  0.00  0.00     0.165 HD
HETATM   31  H   UNK     0      16.137   7.496  -6.440  0.00  0.00     0.165 HD
HETATM   32  H   UNK     0      14.415   5.966  -8.816  0.00  0.00     0.165 HD
ENDROOT
BRANCH   6  33
HETATM   33  C   UNK     0      19.214   9.337 -11.706  0.00  0.00     0.051 C 
BRANCH  33  34
HETATM   34  C   UNK     0      19.748  10.087 -10.509  0.00  0.00     0.114 C 
BRANCH  34  35
HETATM   35  C   UNK     0      21.021   9.428 -10.100  0.00  0.00     0.139 C 
HETATM   36  O   UNK     0      21.572   9.732  -9.002  0.00  0.00    -0.650 OA
BRANCH  35  37
HETATM   37  O   UNK     0      21.652   8.467 -10.881  0.00  0.00    -0.776 OA
HETATM   38  H   UNK     0      21.994   8.671 -11.806  0.00  0.00     0.167 HD
ENDBRANCH  35  37
ENDBRANCH  34  35
ENDBRANCH  33  34
ENDBRANCH   6  33
BRANCH  27  39
HETATM   39  C   UNK     0      17.016   2.818  -6.383  0.00  0.00     0.051 C 
BRANCH  39  40
HETATM   40  C   UNK     0      16.795   1.386  -6.584  0.00  0.00     0.114 C 
BRANCH  40  41
HETATM   41  C   UNK     0      15.717   0.674  -5.934  0.00  0.00     0.139 C 
HETATM   42  O   UNK     0      14.904   1.213  -5.172  0.00  0.00    -0.650 OA
BRANCH  41  43
HETATM   43  O   UNK     0      15.568  -0.722  -6.173  0.00  0.00    -0.776 OA
HETATM   44  H   UNK     0      15.575  -1.293  -5.336  0.00  0.00     0.167 HD
ENDBRANCH  41  43
ENDBRANCH  40  41
ENDBRANCH  39  40
ENDBRANCH  27  39
BRANCH  11  45
HETATM   45  C   UNK     0      13.163  12.291  -7.258  0.00  0.00     0.051 C 
BRANCH  45  46
HETATM   46  C   UNK     0      13.618  13.316  -6.284  0.00  0.00     0.114 C 
BRANCH  46  47
HETATM   47  C   UNK     0      14.381  14.343  -7.048  0.00  0.00     0.139 C 
HETATM   48  O   UNK     0      13.767  15.066  -7.845  0.00  0.00    -0.650 OA
BRANCH  47  49
HETATM   49  O   UNK     0      15.735  14.486  -6.875  0.00  0.00    -0.776 OA
HETATM   50  H   UNK     0      16.157  14.594  -5.946  0.00  0.00     0.167 HD
ENDBRANCH  47  49
ENDBRANCH  46  47
ENDBRANCH  45  46
ENDBRANCH  11  45
BRANCH  18  51
HETATM   51  C   UNK     0      12.078   5.934  -4.578  0.00  0.00     0.051 C 
BRANCH  51  52
HETATM   52  C   UNK     0      12.416   5.615  -3.130  0.00  0.00     0.114 C 
BRANCH  52  53
HETATM   53  C   UNK     0      11.567   4.534  -2.592  0.00  0.00     0.139 C 
HETATM   54  O   UNK     0      10.600   4.808  -1.864  0.00  0.00    -0.650 OA
BRANCH  53  55
HETATM   55  O   UNK     0      11.855   3.227  -2.901  0.00  0.00    -0.776 OA
HETATM   56  H   UNK     0      12.412   2.608  -2.359  0.00  0.00     0.167 HD
ENDBRANCH  53  55
ENDBRANCH  52  53
ENDBRANCH  51  52
ENDBRANCH  18  51
TORSDOF 16
ENDMDL
MODEL 13
REMARK VINA RESULT:      -7.0      2.046      7.269
REMARK  16 active torsions:
REMARK  status: ('A' for Active; 'I' for Inactive)
REMARK    1  A    between atoms: C_6  and  C_7 
REMARK    2  A    between atoms: C_7  and  C_8 
REMARK    3  A    between atoms: C_8  and  C_9 
REMARK    4  A    between atoms: C_9  and  O_11 
REMARK    5  A    between atoms: C_16  and  C_17 
REMARK    6  A    between atoms: C_17  and  C_18 
REMARK    7  A    between atoms: C_18  and  C_19 
REMARK    8  A    between atoms: C_19  and  O_21 
REMARK    9  A    between atoms: C_28  and  C_29 
REMARK   10  A    between atoms: C_29  and  C_30 
REMARK   11  A    between atoms: C_30  and  C_31 
REMARK   12  A    between atoms: C_31  and  O_33 
REMARK   13  A    between atoms: C_42  and  C_43 
REMARK   14  A    between atoms: C_43  and  C_44 
REMARK   15  A    between atoms: C_44  and  C_45 
REMARK   16  A    between atoms: C_45  and  O_47 
ROOT
HETATM    1  C   UNK     0       4.828  15.779  -8.639  0.00  0.00     0.051 C 
HETATM    2  C   UNK     0       6.009  16.087  -7.742  0.00  0.00    -0.031 A 
HETATM    3  C   UNK     0       6.911  15.219  -7.146  0.00  0.00     0.021 A 
HETATM    4  N   UNK     0       7.786  15.936  -6.401  0.00  0.00    -0.361 N 
HETATM    5  C   UNK     0       7.467  17.241  -6.516  0.00  0.00     0.022 A 
HETATM    6  C   UNK     0       6.358  17.371  -7.345  0.00  0.00    -0.027 A 
HETATM    7  C   UNK     0       8.171  18.445  -5.972  0.00  0.00     0.115 C 
HETATM    8  C   UNK     0       9.686  18.451  -6.070  0.00  0.00     0.021 A 
HETATM    9  N   UNK     0      10.463  17.956  -7.046  0.00  0.00    -0.361 N 
HETATM   10  C   UNK     0      11.751  18.100  -6.670  0.00  0.00     0.022 A 
HETATM   11  C   UNK     0      11.806  18.714  -5.422  0.00  0.00    -0.027 A 
HETATM   12  C   UNK     0      10.509  18.937  -5.038  0.00  0.00    -0.031 A 
HETATM   13  C   UNK     0      10.080  19.592  -3.744  0.00  0.00     0.051 C 
HETATM   14  C   UNK     0      12.975  17.620  -7.444  0.00  0.00     0.115 C 
HETATM   15  C   UNK     0      13.013  16.116  -7.665  0.00  0.00     0.021 A 
HETATM   16  N   UNK     0      12.098  15.355  -8.292  0.00  0.00    -0.361 N 
HETATM   17  C   UNK     0      12.464  14.074  -8.213  0.00  0.00     0.022 A 
HETATM   18  C   UNK     0      13.682  13.997  -7.508  0.00  0.00    -0.027 A 
HETATM   19  C   UNK     0      14.016  15.284  -7.171  0.00  0.00    -0.031 A 
HETATM   20  C   UNK     0      15.285  15.659  -6.429  0.00  0.00     0.051 C 
HETATM   21  C   UNK     0      11.752  12.828  -8.689  0.00  0.00     0.115 C 
HETATM   22  C   UNK     0      10.242  12.825  -8.639  0.00  0.00     0.022 A 
HETATM   23  N   UNK     0       9.443  13.314  -7.682  0.00  0.00    -0.361 N 
HETATM   24  C   UNK     0       8.168  13.231  -8.112  0.00  0.00     0.021 A 
HETATM   25  C   UNK     0       8.145  12.664  -9.372  0.00  0.00    -0.031 A 
HETATM   26  C   UNK     0       6.953  12.330 -10.245  0.00  0.00     0.051 C 
HETATM   27  C   UNK     0       9.461  12.396  -9.730  0.00  0.00    -0.027 A 
HETATM   28  C   UNK     0       6.917  13.741  -7.417  0.00  0.00     0.115 C 
HETATM   29  H   UNK     0       8.599  15.511  -5.768  0.00  0.00     0.165 HD
HETATM   30  H   UNK     0      10.106  17.549  -8.023  0.00  0.00     0.165 HD
HETATM   31  H   UNK     0      11.198  15.733  -8.845  0.00  0.00     0.165 HD
HETATM   32  H   UNK     0       9.769  13.684  -6.675  0.00  0.00     0.165 HD
ENDROOT
BRANCH   6  33
HETATM   33  C   UNK     0       5.613  18.607  -7.782  0.00  0.00     0.051 C 
BRANCH  33  34
HETATM   34  C   UNK     0       4.481  18.914  -6.831  0.00  0.00     0.114 C 
BRANCH  34  35
HETATM   35  C   UNK     0       4.843  20.157  -6.092  0.00  0.00     0.139 C 
HETATM   36  O   UNK     0       5.190  20.097  -4.876  0.00  0.00    -0.650 OA
BRANCH  35  37
HETATM   37  O   UNK     0       4.820  21.414  -6.683  0.00  0.00    -0.776 OA
HETATM   38  H   UNK     0       4.290  21.602  -7.519  0.00  0.00     0.167 HD
ENDBRANCH  35  37
ENDBRANCH  34  35
ENDBRANCH  33  34
ENDBRANCH   6  33
BRANCH  27  39
HETATM   39  C   UNK     0       9.832  11.715 -11.000  0.00  0.00     0.051 C 
BRANCH  39  40
HETATM   40  C   UNK     0      10.126  12.541 -12.171  0.00  0.00     0.114 C 
BRANCH  40  41
HETATM   41  C   UNK     0      11.092  13.615 -12.132  0.00  0.00     0.139 C 
HETATM   42  O   UNK     0      12.314  13.439 -12.232  0.00  0.00    -0.650 OA
BRANCH  41  43
HETATM   43  O   UNK     0      10.633  14.953 -11.972  0.00  0.00    -0.776 OA
HETATM   44  H   UNK     0      10.678  15.515 -12.813  0.00  0.00     0.167 HD
ENDBRANCH  41  43
ENDBRANCH  40  41
ENDBRANCH  39  40
ENDBRANCH  27  39
BRANCH  11  45
HETATM   45  C   UNK     0      13.016  19.085  -4.607  0.00  0.00     0.051 C 
BRANCH  45  46
HETATM   46  C   UNK     0      13.646  20.369  -5.008  0.00  0.00     0.114 C 
BRANCH  46  47
HETATM   47  C   UNK     0      13.604  21.271  -3.822  0.00  0.00     0.139 C 
HETATM   48  O   UNK     0      12.585  21.950  -3.629  0.00  0.00    -0.650 OA
BRANCH  47  49
HETATM   49  O   UNK     0      14.670  21.351  -2.962  0.00  0.00    -0.776 OA
HETATM   50  H   UNK     0      15.555  21.796  -3.230  0.00  0.00     0.167 HD
ENDBRANCH  47  49
ENDBRANCH  46  47
ENDBRANCH  45  46
ENDBRANCH  11  45
BRANCH  18  51
HETATM   51  C   UNK     0      14.493  12.768  -7.191  0.00  0.00     0.051 C 
BRANCH  51  52
HETATM   52  C   UNK     0      13.755  12.047  -6.072  0.00  0.00     0.114 C 
BRANCH  52  53
HETATM   53  C   UNK     0      14.079  10.608  -6.039  0.00  0.00     0.139 C 
HETATM   54  O   UNK     0      15.229  10.236  -5.757  0.00  0.00    -0.650 OA
BRANCH  53  55
HETATM   55  O   UNK     0      13.103   9.685  -6.325  0.00  0.00    -0.776 OA
HETATM   56  H   UNK     0      13.046   8.763  -5.962  0.00  0.00     0.167 HD
ENDBRANCH  53  55
ENDBRANCH  52  53
ENDBRANCH  51  52
ENDBRANCH  18  51
TORSDOF 16
ENDMDL
MODEL 14
REMARK VINA RESULT:      -7.0     16.693     22.881
REMARK  16 active torsions:
REMARK  status: ('A' for Active; 'I' for Inactive)
REMARK    1  A    between atoms: C_6  and  C_7 
REMARK    2  A    between atoms: C_7  and  C_8 
REMARK    3  A    between atoms: C_8  and  C_9 
REMARK    4  A    between atoms: C_9  and  O_11 
REMARK    5  A    between atoms: C_16  and  C_17 
REMARK    6  A    between atoms: C_17  and  C_18 
REMARK    7  A    between atoms: C_18  and  C_19 
REMARK    8  A    between atoms: C_19  and  O_21 
REMARK    9  A    between atoms: C_28  and  C_29 
REMARK   10  A    between atoms: C_29  and  C_30 
REMARK   11  A    between atoms: C_30  and  C_31 
REMARK   12  A    between atoms: C_31  and  O_33 
REMARK   13  A    between atoms: C_42  and  C_43 
REMARK   14  A    between atoms: C_43  and  C_44 
REMARK   15  A    between atoms: C_44  and  C_45 
REMARK   16  A    between atoms: C_45  and  O_47 
ROOT
HETATM    1  C   UNK     0      -5.483   1.744 -22.658  0.00  0.00     0.051 C 
HETATM    2  C   UNK     0      -4.759   2.959 -22.113  0.00  0.00    -0.031 A 
HETATM    3  C   UNK     0      -5.031   4.304 -22.306  0.00  0.00     0.021 A 
HETATM    4  N   UNK     0      -4.101   5.040 -21.652  0.00  0.00    -0.361 N 
HETATM    5  C   UNK     0      -3.249   4.193 -21.038  0.00  0.00     0.022 A 
HETATM    6  C   UNK     0      -3.630   2.883 -21.309  0.00  0.00    -0.027 A 
HETATM    7  C   UNK     0      -2.108   4.492 -20.116  0.00  0.00     0.115 C 
HETATM    8  C   UNK     0      -2.344   5.564 -19.067  0.00  0.00     0.021 A 
HETATM    9  N   UNK     0      -3.471   5.841 -18.393  0.00  0.00    -0.361 N 
HETATM   10  C   UNK     0      -3.246   6.933 -17.631  0.00  0.00     0.022 A 
HETATM   11  C   UNK     0      -1.935   7.365 -17.813  0.00  0.00    -0.027 A 
HETATM   12  C   UNK     0      -1.361   6.507 -18.716  0.00  0.00    -0.031 A 
HETATM   13  C   UNK     0       0.065   6.587 -19.213  0.00  0.00     0.051 C 
HETATM   14  C   UNK     0      -4.268   7.641 -16.747  0.00  0.00     0.115 C 
HETATM   15  C   UNK     0      -5.466   8.188 -17.507  0.00  0.00     0.021 A 
HETATM   16  N   UNK     0      -6.338   7.502 -18.270  0.00  0.00    -0.361 N 
HETATM   17  C   UNK     0      -7.204   8.355 -18.821  0.00  0.00     0.022 A 
HETATM   18  C   UNK     0      -6.887   9.659 -18.389  0.00  0.00    -0.027 A 
HETATM   19  C   UNK     0      -5.797   9.540 -17.566  0.00  0.00    -0.031 A 
HETATM   20  C   UNK     0      -5.148  10.711 -16.851  0.00  0.00     0.051 C 
HETATM   21  C   UNK     0      -8.323   8.103 -19.805  0.00  0.00     0.115 C 
HETATM   22  C   UNK     0      -8.121   7.009 -20.827  0.00  0.00     0.022 A 
HETATM   23  N   UNK     0      -7.009   6.708 -21.511  0.00  0.00    -0.361 N 
HETATM   24  C   UNK     0      -7.232   5.572 -22.202  0.00  0.00     0.021 A 
HETATM   25  C   UNK     0      -8.522   5.138 -21.966  0.00  0.00    -0.031 A 
HETATM   26  C   UNK     0      -9.245   3.939 -22.545  0.00  0.00     0.051 C 
HETATM   27  C   UNK     0      -9.111   6.041 -21.090  0.00  0.00    -0.027 A 
HETATM   28  C   UNK     0      -6.243   4.790 -23.049  0.00  0.00     0.115 C 
HETATM   29  H   UNK     0      -4.031   6.152 -21.660  0.00  0.00     0.165 HD
HETATM   30  H   UNK     0      -4.411   5.239 -18.414  0.00  0.00     0.165 HD
HETATM   31  H   UNK     0      -6.373   6.387 -18.384  0.00  0.00     0.165 HD
HETATM   32  H   UNK     0      -6.069   7.318 -21.545  0.00  0.00     0.165 HD
ENDROOT
BRANCH   6  33
HETATM   33  C   UNK     0      -3.009   1.581 -20.869  0.00  0.00     0.051 C 
BRANCH  33  34
HETATM   34  C   UNK     0      -2.786   1.573 -19.375  0.00  0.00     0.114 C 
BRANCH  34  35
HETATM   35  C   UNK     0      -4.124   1.674 -18.724  0.00  0.00     0.139 C 
HETATM   36  O   UNK     0      -4.482   2.754 -18.168  0.00  0.00    -0.650 OA
BRANCH  35  37
HETATM   37  O   UNK     0      -5.026   0.618 -18.696  0.00  0.00    -0.776 OA
HETATM   38  H   UNK     0      -5.476   0.321 -17.845  0.00  0.00     0.167 HD
ENDBRANCH  35  37
ENDBRANCH  34  35
ENDBRANCH  33  34
ENDBRANCH   6  33
BRANCH  27  39
HETATM   39  C   UNK     0     -10.532   5.943 -20.657  0.00  0.00     0.051 C 
BRANCH  39  40
HETATM   40  C   UNK     0     -11.538   6.696 -21.405  0.00  0.00     0.114 C 
BRANCH  40  41
HETATM   41  C   UNK     0     -11.221   7.409 -22.621  0.00  0.00     0.139 C 
HETATM   42  O   UNK     0     -10.969   8.621 -22.657  0.00  0.00    -0.650 OA
BRANCH  41  43
HETATM   43  O   UNK     0     -11.193   6.696 -23.853  0.00  0.00    -0.776 OA
HETATM   44  H   UNK     0     -10.587   5.884 -23.854  0.00  0.00     0.167 HD
ENDBRANCH  41  43
ENDBRANCH  40  41
ENDBRANCH  39  40
ENDBRANCH  27  39
BRANCH  11  45
HETATM   45  C   UNK     0      -1.231   8.531 -17.173  0.00  0.00     0.051 C 
BRANCH  45  46
HETATM   46  C   UNK     0      -0.698   8.246 -15.816  0.00  0.00     0.114 C 
BRANCH  46  47
HETATM   47  C   UNK     0       0.786   8.371 -15.890  0.00  0.00     0.139 C 
HETATM   48  O   UNK     0       1.464   7.944 -14.945  0.00  0.00    -0.650 OA
BRANCH  47  49
HETATM   49  O   UNK     0       1.390   8.947 -16.979  0.00  0.00    -0.776 OA
HETATM   50  H   UNK     0       1.011   9.788 -17.431  0.00  0.00     0.167 HD
ENDBRANCH  47  49
ENDBRANCH  46  47
ENDBRANCH  45  46
ENDBRANCH  11  45
BRANCH  18  51
HETATM   51  C   UNK     0      -7.597  10.944 -18.726  0.00  0.00     0.051 C 
BRANCH  51  52
HETATM   52  C   UNK     0      -7.012  11.420 -20.048  0.00  0.00     0.114 C 
BRANCH  52  53
HETATM   53  C   UNK     0      -8.044  11.530 -21.097  0.00  0.00     0.139 C 
HETATM   54  O   UNK     0      -7.886  10.957 -22.187  0.00  0.00    -0.650 OA
BRANCH  53  55
HETATM   55  O   UNK     0      -9.176  12.272 -20.862  0.00  0.00    -0.776 OA
HETATM   56  H   UNK     0      -9.283  12.969 -20.162  0.00  0.00     0.167 HD
ENDBRANCH  53  55
ENDBRANCH  52  53
ENDBRANCH  51  52
ENDBRANCH  18  51
TORSDOF 16
ENDMDL
MODEL 15
REMARK VINA RESULT:      -7.0     21.648     26.196
REMARK  16 active torsions:
REMARK  status: ('A' for Active; 'I' for Inactive)
REMARK    1  A    between atoms: C_6  and  C_7 
REMARK    2  A    between atoms: C_7  and  C_8 
REMARK    3  A    between atoms: C_8  and  C_9 
REMARK    4  A    between atoms: C_9  and  O_11 
REMARK    5  A    between atoms: C_16  and  C_17 
REMARK    6  A    between atoms: C_17  and  C_18 
REMARK    7  A    between atoms: C_18  and  C_19 
REMARK    8  A    between atoms: C_19  and  O_21 
REMARK    9  A    between atoms: C_28  and  C_29 
REMARK   10  A    between atoms: C_29  and  C_30 
REMARK   11  A    between atoms: C_30  and  C_31 
REMARK   12  A    between atoms: C_31  and  O_33 
REMARK   13  A    between atoms: C_42  and  C_43 
REMARK   14  A    between atoms: C_43  and  C_44 
REMARK   15  A    between atoms: C_44  and  C_45 
REMARK   16  A    between atoms: C_45  and  O_47 
ROOT
HETATM    1  C   UNK     0       7.422 -10.492 -13.847  0.00  0.00     0.051 C 
HETATM    2  C   UNK     0       7.246  -9.737 -12.545  0.00  0.00    -0.031 A 
HETATM    3  C   UNK     0       6.671 -10.157 -11.355  0.00  0.00     0.021 A 
HETATM    4  N   UNK     0       6.703  -9.137 -10.466  0.00  0.00    -0.361 N 
HETATM    5  C   UNK     0       7.292  -8.079 -11.059  0.00  0.00     0.022 A 
HETATM    6  C   UNK     0       7.642  -8.419 -12.362  0.00  0.00    -0.027 A 
HETATM    7  C   UNK     0       7.654  -6.744 -10.485  0.00  0.00     0.115 C 
HETATM    8  C   UNK     0       8.263  -6.743  -9.094  0.00  0.00     0.021 A 
HETATM    9  N   UNK     0       9.098  -7.640  -8.546  0.00  0.00    -0.361 N 
HETATM   10  C   UNK     0       9.307  -7.287  -7.260  0.00  0.00     0.022 A 
HETATM   11  C   UNK     0       8.596  -6.126  -6.975  0.00  0.00    -0.027 A 
HETATM   12  C   UNK     0       7.936  -5.778  -8.126  0.00  0.00    -0.031 A 
HETATM   13  C   UNK     0       7.038  -4.572  -8.288  0.00  0.00     0.051 C 
HETATM   14  C   UNK     0      10.140  -8.057  -6.239  0.00  0.00     0.115 C 
HETATM   15  C   UNK     0       9.634  -9.464  -5.965  0.00  0.00     0.021 A 
HETATM   16  N   UNK     0       9.472 -10.465  -6.850  0.00  0.00    -0.361 N 
HETATM   17  C   UNK     0       8.939 -11.518  -6.228  0.00  0.00     0.022 A 
HETATM   18  C   UNK     0       8.753 -11.191  -4.870  0.00  0.00    -0.027 A 
HETATM   19  C   UNK     0       9.193  -9.902  -4.718  0.00  0.00    -0.031 A 
HETATM   20  C   UNK     0       9.205  -9.165  -3.392  0.00  0.00     0.051 C 
HETATM   21  C   UNK     0       8.499 -12.855  -6.782  0.00  0.00     0.115 C 
HETATM   22  C   UNK     0       7.931 -12.877  -8.182  0.00  0.00     0.022 A 
HETATM   23  N   UNK     0       7.102 -11.995  -8.755  0.00  0.00    -0.361 N 
HETATM   24  C   UNK     0       6.969 -12.323 -10.056  0.00  0.00     0.021 A 
HETATM   25  C   UNK     0       7.724 -13.448 -10.325  0.00  0.00    -0.031 A 
HETATM   26  C   UNK     0       7.864 -14.214 -11.624  0.00  0.00     0.051 C 
HETATM   27  C   UNK     0       8.349 -13.822  -9.141  0.00  0.00    -0.027 A 
HETATM   28  C   UNK     0       6.206 -11.568 -11.131  0.00  0.00     0.115 C 
HETATM   29  H   UNK     0       6.272  -9.159  -9.438  0.00  0.00     0.165 HD
HETATM   30  H   UNK     0       9.581  -8.496  -9.079  0.00  0.00     0.165 HD
HETATM   31  H   UNK     0       9.784 -10.445  -7.927  0.00  0.00     0.165 HD
HETATM   32  H   UNK     0       6.567 -11.158  -8.236  0.00  0.00     0.165 HD
ENDROOT
BRANCH   6  33
HETATM   33  C   UNK     0       8.313  -7.596 -13.432  0.00  0.00     0.051 C 
BRANCH  33  34
HETATM   34  C   UNK     0       7.312  -6.707 -14.130  0.00  0.00     0.114 C 
BRANCH  34  35
HETATM   35  C   UNK     0       7.817  -5.307 -14.037  0.00  0.00     0.139 C 
HETATM   36  O   UNK     0       7.247  -4.379 -14.682  0.00  0.00    -0.650 OA
BRANCH  35  37
HETATM   37  O   UNK     0       8.911  -4.955 -13.255  0.00  0.00    -0.776 OA
HETATM   38  H   UNK     0       8.871  -4.201 -12.589  0.00  0.00     0.167 HD
ENDBRANCH  35  37
ENDBRANCH  34  35
ENDBRANCH  33  34
ENDBRANCH   6  33
BRANCH  27  39
HETATM   39  C   UNK     0       9.195 -15.040  -9.020  0.00  0.00     0.051 C 
BRANCH  39  40
HETATM   40  C   UNK     0       8.601 -16.242  -8.435  0.00  0.00     0.114 C 
BRANCH  40  41
HETATM   41  C   UNK     0       7.191 -16.540  -8.552  0.00  0.00     0.139 C 
HETATM   42  O   UNK     0       6.708 -17.208  -9.476  0.00  0.00    -0.650 OA
BRANCH  41  43
HETATM   43  O   UNK     0       6.296 -16.048  -7.560  0.00  0.00    -0.776 OA
HETATM   44  H   UNK     0       5.952 -16.753  -6.919  0.00  0.00     0.167 HD
ENDBRANCH  41  43
ENDBRANCH  40  41
ENDBRANCH  39  40
ENDBRANCH  27  39
BRANCH  11  45
HETATM   45  C   UNK     0       8.527  -5.358  -5.682  0.00  0.00     0.051 C 
BRANCH  45  46
HETATM   46  C   UNK     0       7.731  -6.027  -4.621  0.00  0.00     0.114 C 
BRANCH  46  47
HETATM   47  C   UNK     0       6.292  -5.829  -4.957  0.00  0.00     0.139 C 
HETATM   48  O   UNK     0       5.827  -4.682  -4.918  0.00  0.00    -0.650 OA
BRANCH  47  49
HETATM   49  O   UNK     0       5.498  -6.894  -5.302  0.00  0.00    -0.776 OA
HETATM   50  H   UNK     0       4.657  -7.142  -4.768  0.00  0.00     0.167 HD
ENDBRANCH  47  49
ENDBRANCH  46  47
ENDBRANCH  45  46
ENDBRANCH  11  45
BRANCH  18  51
HETATM   51  C   UNK     0       8.205 -12.067  -3.773  0.00  0.00     0.051 C 
BRANCH  51  52
HETATM   52  C   UNK     0       9.327 -12.230  -2.758  0.00  0.00     0.114 C 
BRANCH  52  53
HETATM   53  C   UNK     0       9.041 -13.307  -1.791  0.00  0.00     0.139 C 
HETATM   54  O   UNK     0       8.148 -14.136  -2.030  0.00  0.00    -0.650 OA
BRANCH  53  55
HETATM   55  O   UNK     0       9.766 -13.386  -0.627  0.00  0.00    -0.776 OA
HETATM   56  H   UNK     0       9.471 -13.069   0.267  0.00  0.00     0.167 HD
ENDBRANCH  53  55
ENDBRANCH  52  53
ENDBRANCH  51  52
ENDBRANCH  18  51
TORSDOF 16
ENDMDL
MODEL 16
REMARK VINA RESULT:      -6.9     14.938     20.511
REMARK  16 active torsions:
REMARK  status: ('A' for Active; 'I' for Inactive)
REMARK    1  A    between atoms: C_6  and  C_7 
REMARK    2  A    between atoms: C_7  and  C_8 
REMARK    3  A    between atoms: C_8  and  C_9 
REMARK    4  A    between atoms: C_9  and  O_11 
REMARK    5  A    between atoms: C_16  and  C_17 
REMARK    6  A    between atoms: C_17  and  C_18 
REMARK    7  A    between atoms: C_18  and  C_19 
REMARK    8  A    between atoms: C_19  and  O_21 
REMARK    9  A    between atoms: C_28  and  C_29 
REMARK   10  A    between atoms: C_29  and  C_30 
REMARK   11  A    between atoms: C_30  and  C_31 
REMARK   12  A    between atoms: C_31  and  O_33 
REMARK   13  A    between atoms: C_42  and  C_43 
REMARK   14  A    between atoms: C_43  and  C_44 
REMARK   15  A    between atoms: C_44  and  C_45 
REMARK   16  A    between atoms: C_45  and  O_47 
ROOT
HETATM    1  C   UNK     0      -7.295   4.131 -21.898  0.00  0.00     0.051 C 
HETATM    2  C   UNK     0      -6.731   4.603 -20.573  0.00  0.00    -0.031 A 
HETATM    3  C   UNK     0      -5.772   4.012 -19.766  0.00  0.00     0.021 A 
HETATM    4  N   UNK     0      -5.600   4.771 -18.657  0.00  0.00    -0.361 N 
HETATM    5  C   UNK     0      -6.423   5.836 -18.744  0.00  0.00     0.022 A 
HETATM    6  C   UNK     0      -7.148   5.761 -19.929  0.00  0.00    -0.027 A 
HETATM    7  C   UNK     0      -6.554   7.016 -17.832  0.00  0.00     0.115 C 
HETATM    8  C   UNK     0      -5.262   7.620 -17.311  0.00  0.00     0.021 A 
HETATM    9  N   UNK     0      -4.083   7.745 -17.941  0.00  0.00    -0.361 N 
HETATM   10  C   UNK     0      -3.192   8.255 -17.065  0.00  0.00     0.022 A 
HETATM   11  C   UNK     0      -3.816   8.474 -15.841  0.00  0.00    -0.027 A 
HETATM   12  C   UNK     0      -5.120   8.077 -15.989  0.00  0.00    -0.031 A 
HETATM   13  C   UNK     0      -6.180   8.137 -14.912  0.00  0.00     0.051 C 
HETATM   14  C   UNK     0      -1.710   8.506 -17.330  0.00  0.00     0.115 C 
HETATM   15  C   UNK     0      -0.927   7.252 -17.683  0.00  0.00     0.021 A 
HETATM   16  N   UNK     0      -1.148   6.406 -18.707  0.00  0.00    -0.361 N 
HETATM   17  C   UNK     0      -0.286   5.390 -18.630  0.00  0.00     0.022 A 
HETATM   18  C   UNK     0       0.544   5.588 -17.508  0.00  0.00    -0.027 A 
HETATM   19  C   UNK     0       0.133   6.759 -16.925  0.00  0.00    -0.031 A 
HETATM   20  C   UNK     0       0.788   7.365 -15.697  0.00  0.00     0.051 C 
HETATM   21  C   UNK     0      -0.165   4.151 -19.488  0.00  0.00     0.115 C 
HETATM   22  C   UNK     0      -1.439   3.565 -20.050  0.00  0.00     0.022 A 
HETATM   23  N   UNK     0      -2.627   3.432 -19.447  0.00  0.00    -0.361 N 
HETATM   24  C   UNK     0      -3.518   2.995 -20.360  0.00  0.00     0.021 A 
HETATM   25  C   UNK     0      -2.886   2.833 -21.577  0.00  0.00    -0.031 A 
HETATM   26  C   UNK     0      -3.454   2.328 -22.887  0.00  0.00     0.051 C 
HETATM   27  C   UNK     0      -1.554   3.191 -21.404  0.00  0.00    -0.027 A 
HETATM   28  C   UNK     0      -5.011   2.783 -20.174  0.00  0.00     0.115 C 
HETATM   29  H   UNK     0      -4.928   4.528 -17.802  0.00  0.00     0.165 HD
HETATM   30  H   UNK     0      -3.890   7.520 -19.019  0.00  0.00     0.165 HD
HETATM   31  H   UNK     0      -1.897   6.553 -19.528  0.00  0.00     0.165 HD
HETATM   32  H   UNK     0      -2.839   3.604 -18.360  0.00  0.00     0.165 HD
ENDROOT
BRANCH   6  33
HETATM   33  C   UNK     0      -8.193   6.692 -20.488  0.00  0.00     0.051 C 
BRANCH  33  34
HETATM   34  C   UNK     0      -9.582   6.202 -20.151  0.00  0.00     0.114 C 
BRANCH  34  35
HETATM   35  C   UNK     0     -10.403   6.299 -21.392  0.00  0.00     0.139 C 
HETATM   36  O   UNK     0     -11.666   6.263 -21.324  0.00  0.00    -0.650 OA
BRANCH  35  37
HETATM   37  O   UNK     0      -9.839   6.432 -22.655  0.00  0.00    -0.776 OA
HETATM   38  H   UNK     0      -9.611   5.634 -23.225  0.00  0.00     0.167 HD
ENDBRANCH  35  37
ENDBRANCH  34  35
ENDBRANCH  33  34
ENDBRANCH   6  33
BRANCH  27  39
HETATM   39  C   UNK     0      -0.537   3.079 -22.485  0.00  0.00     0.051 C 
BRANCH  39  40
HETATM   40  C   UNK     0       0.409   1.965 -22.435  0.00  0.00     0.114 C 
BRANCH  40  41
HETATM   41  C   UNK     0      -0.023   0.592 -22.299  0.00  0.00     0.139 C 
HETATM   42  O   UNK     0       0.255  -0.119 -21.324  0.00  0.00    -0.650 OA
BRANCH  41  43
HETATM   43  O   UNK     0      -0.811   0.010 -23.333  0.00  0.00    -0.776 OA
HETATM   44  H   UNK     0      -1.801   0.212 -23.269  0.00  0.00     0.167 HD
ENDBRANCH  41  43
ENDBRANCH  40  41
ENDBRANCH  39  40
ENDBRANCH  27  39
BRANCH  11  45
HETATM   45  C   UNK     0      -3.230   9.036 -14.572  0.00  0.00     0.051 C 
BRANCH  45  46
HETATM   46  C   UNK     0      -3.516  10.477 -14.359  0.00  0.00     0.114 C 
BRANCH  46  47
HETATM   47  C   UNK     0      -3.513  10.715 -12.887  0.00  0.00     0.139 C 
HETATM   48  O   UNK     0      -2.472  11.129 -12.357  0.00  0.00    -0.650 OA
BRANCH  47  49
HETATM   49  O   UNK     0      -4.636  10.480 -12.135  0.00  0.00    -0.776 OA
HETATM   50  H   UNK     0      -5.037   9.541 -12.034  0.00  0.00     0.167 HD
ENDBRANCH  47  49
ENDBRANCH  46  47
ENDBRANCH  45  46
ENDBRANCH  11  45
BRANCH  18  51
HETATM   51  C   UNK     0       1.679   4.721 -17.031  0.00  0.00     0.051 C 
BRANCH  51  52
HETATM   52  C   UNK     0       2.884   5.088 -17.885  0.00  0.00     0.114 C 
BRANCH  52  53
HETATM   53  C   UNK     0       3.873   5.879 -17.129  0.00  0.00     0.139 C 
HETATM   54  O   UNK     0       4.262   6.973 -17.570  0.00  0.00    -0.650 OA
BRANCH  53  55
HETATM   55  O   UNK     0       4.361   5.398 -15.938  0.00  0.00    -0.776 OA
HETATM   56  H   UNK     0       3.969   4.662 -15.401  0.00  0.00     0.167 HD
ENDBRANCH  53  55
ENDBRANCH  52  53
ENDBRANCH  51  52
ENDBRANCH  18  51
TORSDOF 16
ENDMDL
MODEL 17
REMARK VINA RESULT:      -6.8     11.771     16.978
REMARK  16 active torsions:
REMARK  status: ('A' for Active; 'I' for Inactive)
REMARK    1  A    between atoms: C_6  and  C_7 
REMARK    2  A    between atoms: C_7  and  C_8 
REMARK    3  A    between atoms: C_8  and  C_9 
REMARK    4  A    between atoms: C_9  and  O_11 
REMARK    5  A    between atoms: C_16  and  C_17 
REMARK    6  A    between atoms: C_17  and  C_18 
REMARK    7  A    between atoms: C_18  and  C_19 
REMARK    8  A    between atoms: C_19  and  O_21 
REMARK    9  A    between atoms: C_28  and  C_29 
REMARK   10  A    between atoms: C_29  and  C_30 
REMARK   11  A    between atoms: C_30  and  C_31 
REMARK   12  A    between atoms: C_31  and  O_33 
REMARK   13  A    between atoms: C_42  and  C_43 
REMARK   14  A    between atoms: C_43  and  C_44 
REMARK   15  A    between atoms: C_44  and  C_45 
REMARK   16  A    between atoms: C_45  and  O_47 
ROOT
HETATM    1  C   UNK     0      -7.613  12.612 -15.608  0.00  0.00     0.051 C 
HETATM    2  C   UNK     0      -6.116  12.762 -15.421  0.00  0.00    -0.031 A 
HETATM    3  C   UNK     0      -5.237  11.974 -14.695  0.00  0.00     0.021 A 
HETATM    4  N   UNK     0      -3.994  12.502 -14.785  0.00  0.00    -0.361 N 
HETATM    5  C   UNK     0      -4.060  13.605 -15.559  0.00  0.00     0.022 A 
HETATM    6  C   UNK     0      -5.374  13.798 -15.972  0.00  0.00    -0.027 A 
HETATM    7  C   UNK     0      -2.958  14.495 -16.044  0.00  0.00     0.115 C 
HETATM    8  C   UNK     0      -1.691  13.811 -16.526  0.00  0.00     0.021 A 
HETATM    9  N   UNK     0      -1.567  12.647 -17.183  0.00  0.00    -0.361 N 
HETATM   10  C   UNK     0      -0.250  12.384 -17.325  0.00  0.00     0.022 A 
HETATM   11  C   UNK     0       0.494  13.411 -16.752  0.00  0.00    -0.027 A 
HETATM   12  C   UNK     0      -0.407  14.313 -16.247  0.00  0.00    -0.031 A 
HETATM   13  C   UNK     0      -0.051  15.599 -15.535  0.00  0.00     0.051 C 
HETATM   14  C   UNK     0       0.356  11.134 -17.957  0.00  0.00     0.115 C 
HETATM   15  C   UNK     0      -0.016   9.843 -17.246  0.00  0.00     0.021 A 
HETATM   16  N   UNK     0      -1.250   9.350 -17.030  0.00  0.00    -0.361 N 
HETATM   17  C   UNK     0      -1.154   8.230 -16.309  0.00  0.00     0.022 A 
HETATM   18  C   UNK     0       0.207   7.976 -16.052  0.00  0.00    -0.027 A 
HETATM   19  C   UNK     0       0.910   8.993 -16.645  0.00  0.00    -0.031 A 
HETATM   20  C   UNK     0       2.425   9.086 -16.640  0.00  0.00     0.051 C 
HETATM   21  C   UNK     0      -2.240   7.342 -15.746  0.00  0.00     0.115 C 
HETATM   22  C   UNK     0      -3.524   8.005 -15.303  0.00  0.00     0.022 A 
HETATM   23  N   UNK     0      -3.677   9.165 -14.651  0.00  0.00    -0.361 N 
HETATM   24  C   UNK     0      -4.995   9.445 -14.589  0.00  0.00     0.021 A 
HETATM   25  C   UNK     0      -5.708   8.435 -15.208  0.00  0.00    -0.031 A 
HETATM   26  C   UNK     0      -7.207   8.281 -15.357  0.00  0.00     0.051 C 
HETATM   27  C   UNK     0      -4.788   7.502 -15.673  0.00  0.00    -0.027 A 
HETATM   28  C   UNK     0      -5.654  10.693 -14.029  0.00  0.00     0.115 C 
HETATM   29  H   UNK     0      -3.085  12.115 -14.268  0.00  0.00     0.165 HD
HETATM   30  H   UNK     0      -2.407  12.033 -17.592  0.00  0.00     0.165 HD
HETATM   31  H   UNK     0      -2.205   9.775 -17.434  0.00  0.00     0.165 HD
HETATM   32  H   UNK     0      -2.858   9.776 -14.190  0.00  0.00     0.165 HD
ENDROOT
BRANCH   6  33
HETATM   33  C   UNK     0      -5.970  14.880 -16.837  0.00  0.00     0.051 C 
BRANCH  33  34
HETATM   34  C   UNK     0      -6.099  14.411 -18.267  0.00  0.00     0.114 C 
BRANCH  34  35
HETATM   35  C   UNK     0      -7.439  14.842 -18.758  0.00  0.00     0.139 C 
HETATM   36  O   UNK     0      -7.785  14.609 -19.953  0.00  0.00    -0.650 OA
BRANCH  35  37
HETATM   37  O   UNK     0      -8.357  15.503 -17.950  0.00  0.00    -0.776 OA
HETATM   38  H   UNK     0      -9.204  15.904 -18.320  0.00  0.00     0.167 HD
ENDBRANCH  35  37
ENDBRANCH  34  35
ENDBRANCH  33  34
ENDBRANCH   6  33
BRANCH  27  39
HETATM   39  C   UNK     0      -5.188   6.231 -16.335  0.00  0.00     0.051 C 
BRANCH  39  40
HETATM   40  C   UNK     0      -5.123   6.159 -17.795  0.00  0.00     0.114 C 
BRANCH  40  41
HETATM   41  C   UNK     0      -4.898   7.329 -18.615  0.00  0.00     0.139 C 
HETATM   42  O   UNK     0      -5.813   8.011 -19.097  0.00  0.00    -0.650 OA
BRANCH  41  43
HETATM   43  O   UNK     0      -3.561   7.731 -18.893  0.00  0.00    -0.776 OA
HETATM   44  H   UNK     0      -3.409   8.732 -18.856  0.00  0.00     0.167 HD
ENDBRANCH  41  43
ENDBRANCH  40  41
ENDBRANCH  39  40
ENDBRANCH  27  39
BRANCH  11  45
HETATM   45  C   UNK     0       1.990  13.560 -16.675  0.00  0.00     0.051 C 
BRANCH  45  46
HETATM   46  C   UNK     0       2.671  12.459 -15.947  0.00  0.00     0.114 C 
BRANCH  46  47
HETATM   47  C   UNK     0       2.241  12.539 -14.521  0.00  0.00     0.139 C 
HETATM   48  O   UNK     0       1.628  11.580 -14.033  0.00  0.00    -0.650 OA
BRANCH  47  49
HETATM   49  O   UNK     0       2.516  13.651 -13.766  0.00  0.00    -0.776 OA
HETATM   50  H   UNK     0       3.424  13.787 -13.306  0.00  0.00     0.167 HD
ENDBRANCH  47  49
ENDBRANCH  46  47
ENDBRANCH  45  46
ENDBRANCH  11  45
BRANCH  18  51
HETATM   51  C   UNK     0       0.807   6.817 -15.300  0.00  0.00     0.051 C 
BRANCH  51  52
HETATM   52  C   UNK     0       1.036   5.716 -16.326  0.00  0.00     0.114 C 
BRANCH  52  53
HETATM   53  C   UNK     0       1.679   4.531 -15.726  0.00  0.00     0.139 C 
HETATM   54  O   UNK     0       2.634   3.985 -16.302  0.00  0.00    -0.650 OA
BRANCH  53  55
HETATM   55  O   UNK     0       1.214   4.036 -14.533  0.00  0.00    -0.776 OA
HETATM   56  H   UNK     0       0.529   3.326 -14.422  0.00  0.00     0.167 HD
ENDBRANCH  53  55
ENDBRANCH  52  53
ENDBRANCH  51  52
ENDBRANCH  18  51
TORSDOF 16
ENDMDL
MODEL 18
REMARK VINA RESULT:      -6.8     29.341     32.228
REMARK  16 active torsions:
REMARK  status: ('A' for Active; 'I' for Inactive)
REMARK    1  A    between atoms: C_6  and  C_7 
REMARK    2  A    between atoms: C_7  and  C_8 
REMARK    3  A    between atoms: C_8  and  C_9 
REMARK    4  A    between atoms: C_9  and  O_11 
REMARK    5  A    between atoms: C_16  and  C_17 
REMARK    6  A    between atoms: C_17  and  C_18 
REMARK    7  A    between atoms: C_18  and  C_19 
REMARK    8  A    between atoms: C_19  and  O_21 
REMARK    9  A    between atoms: C_28  and  C_29 
REMARK   10  A    between atoms: C_29  and  C_30 
REMARK   11  A    between atoms: C_30  and  C_31 
REMARK   12  A    between atoms: C_31  and  O_33 
REMARK   13  A    between atoms: C_42  and  C_43 
REMARK   14  A    between atoms: C_43  and  C_44 
REMARK   15  A    between atoms: C_44  and  C_45 
REMARK   16  A    between atoms: C_45  and  O_47 
ROOT
HETATM    1  C   UNK     0      -1.673  -2.574  15.412  0.00  0.00     0.051 C 
HETATM    2  C   UNK     0      -2.260  -3.730  14.628  0.00  0.00    -0.031 A 
HETATM    3  C   UNK     0      -3.551  -4.235  14.640  0.00  0.00     0.021 A 
HETATM    4  N   UNK     0      -3.617  -5.296  13.800  0.00  0.00    -0.361 N 
HETATM    5  C   UNK     0      -2.400  -5.472  13.247  0.00  0.00     0.022 A 
HETATM    6  C   UNK     0      -1.526  -4.511  13.745  0.00  0.00    -0.027 A 
HETATM    7  C   UNK     0      -1.965  -6.440  12.192  0.00  0.00     0.115 C 
HETATM    8  C   UNK     0      -2.908  -6.638  11.018  0.00  0.00     0.021 A 
HETATM    9  N   UNK     0      -3.694  -5.733  10.415  0.00  0.00    -0.361 N 
HETATM   10  C   UNK     0      -4.429  -6.372   9.481  0.00  0.00     0.022 A 
HETATM   11  C   UNK     0      -4.102  -7.725   9.476  0.00  0.00    -0.027 A 
HETATM   12  C   UNK     0      -3.144  -7.900  10.442  0.00  0.00    -0.031 A 
HETATM   13  C   UNK     0      -2.483  -9.214  10.791  0.00  0.00     0.051 C 
HETATM   14  C   UNK     0      -5.503  -5.747   8.596  0.00  0.00     0.115 C 
HETATM   15  C   UNK     0      -6.666  -5.147   9.370  0.00  0.00     0.021 A 
HETATM   16  N   UNK     0      -6.620  -4.177  10.302  0.00  0.00    -0.361 N 
HETATM   17  C   UNK     0      -7.845  -3.983  10.795  0.00  0.00     0.022 A 
HETATM   18  C   UNK     0      -8.735  -4.862  10.145  0.00  0.00    -0.027 A 
HETATM   19  C   UNK     0      -7.984  -5.585   9.254  0.00  0.00    -0.031 A 
HETATM   20  C   UNK     0      -8.562  -6.628   8.316  0.00  0.00     0.051 C 
HETATM   21  C   UNK     0      -8.313  -3.067  11.903  0.00  0.00     0.115 C 
HETATM   22  C   UNK     0      -7.367  -2.826  13.055  0.00  0.00     0.022 A 
HETATM   23  N   UNK     0      -6.570  -3.707  13.673  0.00  0.00    -0.361 N 
HETATM   24  C   UNK     0      -5.791  -3.036  14.545  0.00  0.00     0.021 A 
HETATM   25  C   UNK     0      -6.101  -1.690  14.494  0.00  0.00    -0.031 A 
HETATM   26  C   UNK     0      -5.529  -0.549  15.310  0.00  0.00     0.051 C 
HETATM   27  C   UNK     0      -7.107  -1.531  13.548  0.00  0.00    -0.027 A 
HETATM   28  C   UNK     0      -4.670  -3.589  15.407  0.00  0.00     0.115 C 
HETATM   29  H   UNK     0      -4.514  -5.937  13.635  0.00  0.00     0.165 HD
HETATM   30  H   UNK     0      -3.695  -4.633  10.611  0.00  0.00     0.165 HD
HETATM   31  H   UNK     0      -5.712  -3.584  10.585  0.00  0.00     0.165 HD
HETATM   32  H   UNK     0      -6.580  -4.819  13.530  0.00  0.00     0.165 HD
ENDROOT
BRANCH   6  33
HETATM   33  C   UNK     0      -0.065  -4.283  13.451  0.00  0.00     0.051 C 
BRANCH  33  34
HETATM   34  C   UNK     0       0.108  -3.489  12.178  0.00  0.00     0.114 C 
BRANCH  34  35
HETATM   35  C   UNK     0       1.232  -2.534  12.397  0.00  0.00     0.139 C 
HETATM   36  O   UNK     0       1.807  -2.474  13.522  0.00  0.00    -0.650 OA
BRANCH  35  37
HETATM   37  O   UNK     0       1.696  -1.683  11.401  0.00  0.00    -0.776 OA
HETATM   38  H   UNK     0       2.096  -2.031  10.544  0.00  0.00     0.167 HD
ENDBRANCH  35  37
ENDBRANCH  34  35
ENDBRANCH  33  34
ENDBRANCH   6  33
BRANCH  27  39
HETATM   39  C   UNK     0      -7.754  -0.221  13.265  0.00  0.00     0.051 C 
BRANCH  39  40
HETATM   40  C   UNK     0      -8.934   0.153  14.045  0.00  0.00     0.114 C 
BRANCH  40  41
HETATM   41  C   UNK     0     -10.196   0.484  13.422  0.00  0.00     0.139 C 
HETATM   42  O   UNK     0     -10.547   1.644  13.163  0.00  0.00    -0.650 OA
BRANCH  41  43
HETATM   43  O   UNK     0     -11.095  -0.566  13.081  0.00  0.00    -0.776 OA
HETATM   44  H   UNK     0     -10.649  -1.456  12.897  0.00  0.00     0.167 HD
ENDBRANCH  41  43
ENDBRANCH  40  41
ENDBRANCH  39  40
ENDBRANCH  27  39
BRANCH  11  45
HETATM   45  C   UNK     0      -4.651  -8.824   8.607  0.00  0.00     0.051 C 
BRANCH  45  46
HETATM   46  C   UNK     0      -5.891  -9.450   9.133  0.00  0.00     0.114 C 
BRANCH  46  47
HETATM   47  C   UNK     0      -6.504 -10.223   8.015  0.00  0.00     0.139 C 
HETATM   48  O   UNK     0      -6.943  -9.602   7.037  0.00  0.00    -0.650 OA
BRANCH  47  49
HETATM   49  O   UNK     0      -6.583 -11.592   8.067  0.00  0.00    -0.776 OA
HETATM   50  H   UNK     0      -6.986 -12.084   8.872  0.00  0.00     0.167 HD
ENDBRANCH  47  49
ENDBRANCH  46  47
ENDBRANCH  45  46
ENDBRANCH  11  45
BRANCH  18  51
HETATM   51  C   UNK     0     -10.222  -4.991  10.348  0.00  0.00     0.051 C 
BRANCH  51  52
HETATM   52  C   UNK     0     -10.864  -3.907   9.494  0.00  0.00     0.114 C 
BRANCH  52  53
HETATM   53  C   UNK     0     -11.968  -3.232  10.202  0.00  0.00     0.139 C 
HETATM   54  O   UNK     0     -11.722  -2.354  11.045  0.00  0.00    -0.650 OA
BRANCH  53  55
HETATM   55  O   UNK     0     -13.267  -3.582   9.926  0.00  0.00    -0.776 OA
HETATM   56  H   UNK     0     -13.560  -4.281   9.284  0.00  0.00     0.167 HD
ENDBRANCH  53  55
ENDBRANCH  52  53
ENDBRANCH  51  52
ENDBRANCH  18  51
TORSDOF 16
ENDMDL
MODEL 19
REMARK VINA RESULT:      -6.8     29.179     32.108
REMARK  16 active torsions:
REMARK  status: ('A' for Active; 'I' for Inactive)
REMARK    1  A    between atoms: C_6  and  C_7 
REMARK    2  A    between atoms: C_7  and  C_8 
REMARK    3  A    between atoms: C_8  and  C_9 
REMARK    4  A    between atoms: C_9  and  O_11 
REMARK    5  A    between atoms: C_16  and  C_17 
REMARK    6  A    between atoms: C_17  and  C_18 
REMARK    7  A    between atoms: C_18  and  C_19 
REMARK    8  A    between atoms: C_19  and  O_21 
REMARK    9  A    between atoms: C_28  and  C_29 
REMARK   10  A    between atoms: C_29  and  C_30 
REMARK   11  A    between atoms: C_30  and  C_31 
REMARK   12  A    between atoms: C_31  and  O_33 
REMARK   13  A    between atoms: C_42  and  C_43 
REMARK   14  A    between atoms: C_43  and  C_44 
REMARK   15  A    between atoms: C_44  and  C_45 
REMARK   16  A    between atoms: C_45  and  O_47 
ROOT
HETATM    1  C   UNK     0      -0.968  -2.468  15.579  0.00  0.00     0.051 C 
HETATM    2  C   UNK     0      -1.154  -3.893  15.097  0.00  0.00    -0.031 A 
HETATM    3  C   UNK     0      -2.301  -4.670  15.072  0.00  0.00     0.021 A 
HETATM    4  N   UNK     0      -1.993  -5.896  14.587  0.00  0.00    -0.361 N 
HETATM    5  C   UNK     0      -0.676  -5.914  14.294  0.00  0.00     0.022 A 
HETATM    6  C   UNK     0      -0.120  -4.678  14.604  0.00  0.00    -0.027 A 
HETATM    7  C   UNK     0       0.141  -6.990  13.650  0.00  0.00     0.115 C 
HETATM    8  C   UNK     0      -0.485  -7.704  12.465  0.00  0.00     0.021 A 
HETATM    9  N   UNK     0      -1.284  -7.200  11.512  0.00  0.00    -0.361 N 
HETATM   10  C   UNK     0      -1.677  -8.216  10.714  0.00  0.00     0.022 A 
HETATM   11  C   UNK     0      -1.109  -9.405  11.161  0.00  0.00    -0.027 A 
HETATM   12  C   UNK     0      -0.356  -9.090  12.263  0.00  0.00    -0.031 A 
HETATM   13  C   UNK     0       0.452 -10.073  13.080  0.00  0.00     0.051 C 
HETATM   14  C   UNK     0      -2.643  -8.116   9.537  0.00  0.00     0.115 C 
HETATM   15  C   UNK     0      -4.032  -7.631   9.920  0.00  0.00     0.021 A 
HETATM   16  N   UNK     0      -4.362  -6.471  10.517  0.00  0.00    -0.361 N 
HETATM   17  C   UNK     0      -5.677  -6.453  10.747  0.00  0.00     0.022 A 
HETATM   18  C   UNK     0      -6.232  -7.656  10.267  0.00  0.00    -0.027 A 
HETATM   19  C   UNK     0      -5.192  -8.384   9.750  0.00  0.00    -0.031 A 
HETATM   20  C   UNK     0      -5.358  -9.742   9.092  0.00  0.00     0.051 C 
HETATM   21  C   UNK     0      -6.527  -5.420  11.451  0.00  0.00     0.115 C 
HETATM   22  C   UNK     0      -5.901  -4.670  12.604  0.00  0.00     0.022 A 
HETATM   23  N   UNK     0      -5.099  -5.146  13.565  0.00  0.00    -0.361 N 
HETATM   24  C   UNK     0      -4.657  -4.105  14.300  0.00  0.00     0.021 A 
HETATM   25  C   UNK     0      -5.196  -2.933  13.807  0.00  0.00    -0.031 A 
HETATM   26  C   UNK     0      -5.029  -1.517  14.319  0.00  0.00     0.051 C 
HETATM   27  C   UNK     0      -5.997  -3.269  12.721  0.00  0.00    -0.027 A 
HETATM   28  C   UNK     0      -3.655  -4.133  15.441  0.00  0.00     0.115 C 
HETATM   29  H   UNK     0      -2.699  -6.753  14.492  0.00  0.00     0.165 HD
HETATM   30  H   UNK     0      -1.532  -6.120  11.369  0.00  0.00     0.165 HD
HETATM   31  H   UNK     0      -3.660  -5.625  10.740  0.00  0.00     0.165 HD
HETATM   32  H   UNK     0      -4.871  -6.226  13.760  0.00  0.00     0.165 HD
ENDROOT
BRANCH   6  33
HETATM   33  C   UNK     0       1.302  -4.193  14.471  0.00  0.00     0.051 C 
BRANCH  33  34
HETATM   34  C   UNK     0       1.741  -4.213  13.026  0.00  0.00     0.114 C 
BRANCH  34  35
HETATM   35  C   UNK     0       1.329  -2.917  12.416  0.00  0.00     0.139 C 
HETATM   36  O   UNK     0       2.045  -1.885  12.567  0.00  0.00    -0.650 OA
BRANCH  35  37
HETATM   37  O   UNK     0       0.168  -2.778  11.665  0.00  0.00    -0.776 OA
HETATM   38  H   UNK     0      -0.745  -2.953  12.054  0.00  0.00     0.167 HD
ENDBRANCH  35  37
ENDBRANCH  34  35
ENDBRANCH  33  34
ENDBRANCH   6  33
BRANCH  27  39
HETATM   39  C   UNK     0      -6.804  -2.270  11.969  0.00  0.00     0.051 C 
BRANCH  39  40
HETATM   40  C   UNK     0      -6.183  -1.587  10.835  0.00  0.00     0.114 C 
BRANCH  40  41
HETATM   41  C   UNK     0      -5.795  -2.289   9.632  0.00  0.00     0.139 C 
HETATM   42  O   UNK     0      -6.525  -3.101   9.048  0.00  0.00    -0.650 OA
BRANCH  41  43
HETATM   43  O   UNK     0      -4.508  -2.044   9.075  0.00  0.00    -0.776 OA
HETATM   44  H   UNK     0      -3.754  -2.031   9.751  0.00  0.00     0.167 HD
ENDBRANCH  41  43
ENDBRANCH  40  41
ENDBRANCH  39  40
ENDBRANCH  27  39
BRANCH  11  45
HETATM   45  C   UNK     0      -1.251 -10.790  10.589  0.00  0.00     0.051 C 
BRANCH  45  46
HETATM   46  C   UNK     0      -0.704 -10.938   9.216  0.00  0.00     0.114 C 
BRANCH  46  47
HETATM   47  C   UNK     0       0.779 -11.034   9.340  0.00  0.00     0.139 C 
HETATM   48  O   UNK     0       1.481 -10.287   8.644  0.00  0.00    -0.650 OA
BRANCH  47  49
HETATM   49  O   UNK     0       1.356 -11.930  10.204  0.00  0.00    -0.776 OA
HETATM   50  H   UNK     0       1.704 -12.844   9.890  0.00  0.00     0.167 HD
ENDBRANCH  47  49
ENDBRANCH  46  47
ENDBRANCH  45  46
ENDBRANCH  11  45
BRANCH  18  51
HETATM   51  C   UNK     0      -7.678  -8.078  10.280  0.00  0.00     0.051 C 
BRANCH  51  52
HETATM   52  C   UNK     0      -8.188  -7.900   8.857  0.00  0.00     0.114 C 
BRANCH  52  53
HETATM   53  C   UNK     0      -8.924  -6.632   8.692  0.00  0.00     0.139 C 
HETATM   54  O   UNK     0     -10.132  -6.574   8.975  0.00  0.00    -0.650 OA
BRANCH  53  55
HETATM   55  O   UNK     0      -8.268  -5.521   8.222  0.00  0.00    -0.776 OA
HETATM   56  H   UNK     0      -8.523  -4.577   8.390  0.00  0.00     0.167 HD
ENDBRANCH  53  55
ENDBRANCH  52  53
ENDBRANCH  51  52
ENDBRANCH  18  51
TORSDOF 16
ENDMDL
MODEL 20
REMARK VINA RESULT:      -6.8     26.899     31.175
REMARK  16 active torsions:
REMARK  status: ('A' for Active; 'I' for Inactive)
REMARK    1  A    between atoms: C_6  and  C_7 
REMARK    2  A    between atoms: C_7  and  C_8 
REMARK    3  A    between atoms: C_8  and  C_9 
REMARK    4  A    between atoms: C_9  and  O_11 
REMARK    5  A    between atoms: C_16  and  C_17 
REMARK    6  A    between atoms: C_17  and  C_18 
REMARK    7  A    between atoms: C_18  and  C_19 
REMARK    8  A    between atoms: C_19  and  O_21 
REMARK    9  A    between atoms: C_28  and  C_29 
REMARK   10  A    between atoms: C_29  and  C_30 
REMARK   11  A    between atoms: C_30  and  C_31 
REMARK   12  A    between atoms: C_31  and  O_33 
REMARK   13  A    between atoms: C_42  and  C_43 
REMARK   14  A    between atoms: C_43  and  C_44 
REMARK   15  A    between atoms: C_44  and  C_45 
REMARK   16  A    between atoms: C_45  and  O_47 
ROOT
HETATM    1  C   UNK     0      30.902   2.187 -27.527  0.00  0.00     0.051 C 
HETATM    2  C   UNK     0      30.651   0.832 -26.898  0.00  0.00    -0.031 A 
HETATM    3  C   UNK     0      31.367   0.175 -25.909  0.00  0.00     0.021 A 
HETATM    4  N   UNK     0      30.797  -1.031 -25.679  0.00  0.00    -0.361 N 
HETATM    5  C   UNK     0      29.727  -1.154 -26.492  0.00  0.00     0.022 A 
HETATM    6  C   UNK     0      29.609  -0.007 -27.271  0.00  0.00    -0.027 A 
HETATM    7  C   UNK     0      28.708  -2.247 -26.566  0.00  0.00     0.115 C 
HETATM    8  C   UNK     0      28.201  -2.797 -25.245  0.00  0.00     0.021 A 
HETATM    9  N   UNK     0      27.982  -2.140 -24.095  0.00  0.00    -0.361 N 
HETATM   10  C   UNK     0      27.622  -3.044 -23.159  0.00  0.00     0.022 A 
HETATM   11  C   UNK     0      27.599  -4.316 -23.723  0.00  0.00    -0.027 A 
HETATM   12  C   UNK     0      27.962  -4.167 -25.037  0.00  0.00    -0.031 A 
HETATM   13  C   UNK     0      28.070  -5.289 -26.046  0.00  0.00     0.051 C 
HETATM   14  C   UNK     0      27.339  -2.753 -21.688  0.00  0.00     0.115 C 
HETATM   15  C   UNK     0      28.524  -2.168 -20.936  0.00  0.00     0.021 A 
HETATM   16  N   UNK     0      29.194  -1.034 -21.214  0.00  0.00    -0.361 N 
HETATM   17  C   UNK     0      30.213  -0.907 -20.361  0.00  0.00     0.022 A 
HETATM   18  C   UNK     0      30.201  -2.006 -19.480  0.00  0.00    -0.027 A 
HETATM   19  C   UNK     0      29.137  -2.787 -19.849  0.00  0.00    -0.031 A 
HETATM   20  C   UNK     0      28.737  -4.063 -19.131  0.00  0.00     0.051 C 
HETATM   21  C   UNK     0      31.299   0.143 -20.295  0.00  0.00     0.115 C 
HETATM   22  C   UNK     0      31.783   0.730 -21.600  0.00  0.00     0.022 A 
HETATM   23  N   UNK     0      32.005   0.101 -22.761  0.00  0.00    -0.361 N 
HETATM   24  C   UNK     0      32.287   1.029 -23.698  0.00  0.00     0.021 A 
HETATM   25  C   UNK     0      32.255   2.285 -23.124  0.00  0.00    -0.031 A 
HETATM   26  C   UNK     0      32.541   3.631 -23.757  0.00  0.00     0.051 C 
HETATM   27  C   UNK     0      31.934   2.120 -21.781  0.00  0.00    -0.027 A 
HETATM   28  C   UNK     0      32.519   0.810 -25.183  0.00  0.00     0.115 C 
HETATM   29  H   UNK     0      31.176  -1.804 -24.971  0.00  0.00     0.165 HD
HETATM   30  H   UNK     0      28.032  -1.033 -23.954  0.00  0.00     0.165 HD
HETATM   31  H   UNK     0      28.914  -0.282 -21.998  0.00  0.00     0.165 HD
HETATM   32  H   UNK     0      32.008  -1.008 -22.921  0.00  0.00     0.165 HD
ENDROOT
BRANCH   6  33
HETATM   33  C   UNK     0      28.595   0.346 -28.329  0.00  0.00     0.051 C 
BRANCH  33  34
HETATM   34  C   UNK     0      27.192   0.088 -27.834  0.00  0.00     0.114 C 
BRANCH  34  35
HETATM   35  C   UNK     0      26.932   1.037 -26.714  0.00  0.00     0.139 C 
HETATM   36  O   UNK     0      26.762   2.269 -26.948  0.00  0.00    -0.650 OA
BRANCH  35  37
HETATM   37  O   UNK     0      26.862   0.629 -25.387  0.00  0.00    -0.776 OA
HETATM   38  H   UNK     0      26.710  -0.334 -25.131  0.00  0.00     0.167 HD
ENDBRANCH  35  37
ENDBRANCH  34  35
ENDBRANCH  33  34
ENDBRANCH   6  33
BRANCH  27  39
HETATM   39  C   UNK     0      31.877   3.251 -20.816  0.00  0.00     0.051 C 
BRANCH  39  40
HETATM   40  C   UNK     0      30.612   3.970 -20.664  0.00  0.00     0.114 C 
BRANCH  40  41
HETATM   41  C   UNK     0      29.493   3.415 -19.936  0.00  0.00     0.139 C 
HETATM   42  O   UNK     0      28.836   2.442 -20.331  0.00  0.00    -0.650 OA
BRANCH  41  43
HETATM   43  O   UNK     0      29.112   4.005 -18.698  0.00  0.00    -0.776 OA
HETATM   44  H   UNK     0      28.635   3.376 -18.063  0.00  0.00     0.167 HD
ENDBRANCH  41  43
ENDBRANCH  40  41
ENDBRANCH  39  40
ENDBRANCH  27  39
BRANCH  11  45
HETATM   45  C   UNK     0      27.251  -5.628 -23.074  0.00  0.00     0.051 C 
BRANCH  45  46
HETATM   46  C   UNK     0      28.333  -6.191 -22.226  0.00  0.00     0.114 C 
BRANCH  46  47
HETATM   47  C   UNK     0      28.953  -7.312 -22.989  0.00  0.00     0.139 C 
HETATM   48  O   UNK     0      28.242  -7.964 -23.767  0.00  0.00    -0.650 OA
BRANCH  47  49
HETATM   49  O   UNK     0      30.281  -7.618 -22.833  0.00  0.00    -0.776 OA
HETATM   50  H   UNK     0      30.740  -8.351 -23.387  0.00  0.00     0.167 HD
ENDBRANCH  47  49
ENDBRANCH  46  47
ENDBRANCH  45  46
ENDBRANCH  11  45
BRANCH  18  51
HETATM   51  C   UNK     0      31.138  -2.285 -18.334  0.00  0.00     0.051 C 
BRANCH  51  52
HETATM   52  C   UNK     0      32.373  -2.933 -18.942  0.00  0.00     0.114 C 
BRANCH  52  53
HETATM   53  C   UNK     0      33.619  -2.376 -18.380  0.00  0.00     0.139 C 
HETATM   54  O   UNK     0      34.491  -1.919 -19.136  0.00  0.00    -0.650 OA
BRANCH  53  55
HETATM   55  O   UNK     0      33.808  -2.371 -17.019  0.00  0.00    -0.776 OA
HETATM   56  H   UNK     0      34.377  -3.003 -16.507  0.00  0.00     0.167 HD
ENDBRANCH  53  55
ENDBRANCH  52  53
ENDBRANCH  51  52
ENDBRANCH  18  51
TORSDOF 16
ENDMDL
