MODEL 1
REMARK VINA RESULT:      -9.4      0.000      0.000
REMARK  16 active torsions:
REMARK  status: ('A' for Active; 'I' for Inactive)
REMARK    1  A    between atoms: C_6  and  C_7 
REMARK    2  A    between atoms: C_7  and  C_8 
REMARK    3  A    between atoms: C_8  and  C_9 
REMARK    4  A    between atoms: C_9  and  O_11 
REMARK    5  A    between atoms: C_16  and  C_17 
REMARK    6  A    between atoms: C_17  and  C_18 
REMARK    7  A    between atoms: C_18  and  C_19 
REMARK    8  A    between atoms: C_19  and  O_21 
REMARK    9  A    between atoms: C_28  and  C_29 
REMARK   10  A    between atoms: C_29  and  C_30 
REMARK   11  A    between atoms: C_30  and  C_31 
REMARK   12  A    between atoms: C_31  and  O_33 
REMARK   13  A    between atoms: C_42  and  C_43 
REMARK   14  A    between atoms: C_43  and  C_44 
REMARK   15  A    between atoms: C_44  and  C_45 
REMARK   16  A    between atoms: C_45  and  O_47 
ROOT
HETATM    1  C   UNK     0     -23.584  -6.580   8.194  0.00  0.00     0.051 C 
HETATM    2  C   UNK     0     -24.405  -5.756   9.165  0.00  0.00    -0.031 A 
HETATM    3  C   UNK     0     -24.596  -4.384   9.211  0.00  0.00     0.021 A 
HETATM    4  N   UNK     0     -25.383  -4.083  10.271  0.00  0.00    -0.361 N 
HETATM    5  C   UNK     0     -25.704  -5.235  10.897  0.00  0.00     0.022 A 
HETATM    6  C   UNK     0     -25.106  -6.300  10.232  0.00  0.00    -0.027 A 
HETATM    7  C   UNK     0     -26.620  -5.464  12.058  0.00  0.00     0.115 C 
HETATM    8  C   UNK     0     -27.931  -4.696  12.054  0.00  0.00     0.021 A 
HETATM    9  N   UNK     0     -28.705  -4.369  11.008  0.00  0.00    -0.361 N 
HETATM   10  C   UNK     0     -29.723  -3.607  11.462  0.00  0.00     0.022 A 
HETATM   11  C   UNK     0     -29.606  -3.447  12.840  0.00  0.00    -0.027 A 
HETATM   12  C   UNK     0     -28.479  -4.131  13.219  0.00  0.00    -0.031 A 
HETATM   13  C   UNK     0     -27.958  -4.240  14.635  0.00  0.00     0.051 C 
HETATM   14  C   UNK     0     -30.812  -2.958  10.612  0.00  0.00     0.115 C 
HETATM   15  C   UNK     0     -30.283  -1.970   9.585  0.00  0.00     0.021 A 
HETATM   16  N   UNK     0     -29.404  -2.207   8.593  0.00  0.00    -0.361 N 
HETATM   17  C   UNK     0     -29.144  -1.064   7.955  0.00  0.00     0.022 A 
HETATM   18  C   UNK     0     -29.898  -0.034   8.553  0.00  0.00    -0.027 A 
HETATM   19  C   UNK     0     -30.608  -0.615   9.571  0.00  0.00    -0.031 A 
HETATM   20  C   UNK     0     -31.584   0.138  10.457  0.00  0.00     0.051 C 
HETATM   21  C   UNK     0     -28.181  -0.779   6.826  0.00  0.00     0.115 C 
HETATM   22  C   UNK     0     -26.892  -1.567   6.792  0.00  0.00     0.022 A 
HETATM   23  N   UNK     0     -26.103  -1.911   7.818  0.00  0.00    -0.361 N 
HETATM   24  C   UNK     0     -25.140  -2.733   7.355  0.00  0.00     0.021 A 
HETATM   25  C   UNK     0     -25.307  -2.915   5.996  0.00  0.00    -0.031 A 
HETATM   26  C   UNK     0     -24.459  -3.715   5.029  0.00  0.00     0.051 C 
HETATM   27  C   UNK     0     -26.422  -2.178   5.612  0.00  0.00    -0.027 A 
HETATM   28  C   UNK     0     -24.069  -3.454   8.155  0.00  0.00     0.115 C 
HETATM   29  H   UNK     0     -25.674  -3.057  10.594  0.00  0.00     0.165 HD
HETATM   30  H   UNK     0     -28.564  -4.716   9.955  0.00  0.00     0.165 HD
HETATM   31  H   UNK     0     -28.993  -3.210   8.307  0.00  0.00     0.165 HD
HETATM   32  H   UNK     0     -26.192  -1.541   8.873  0.00  0.00     0.165 HD
ENDROOT
BRANCH   6  33
HETATM   33  C   UNK     0     -25.149  -7.777  10.532  0.00  0.00     0.051 C 
BRANCH  33  34
HETATM   34  C   UNK     0     -26.574  -8.251  10.688  0.00  0.00     0.114 C 
BRANCH  34  35
HETATM   35  C   UNK     0     -27.271  -8.002   9.393  0.00  0.00     0.139 C 
HETATM   36  O   UNK     0     -28.309  -7.279   9.357  0.00  0.00    -0.650 OA
BRANCH  35  37
HETATM   37  O   UNK     0     -26.828  -8.535   8.189  0.00  0.00    -0.776 OA
HETATM   38  H   UNK     0     -27.135  -9.435   7.857  0.00  0.00     0.167 HD
ENDBRANCH  35  37
ENDBRANCH  34  35
ENDBRANCH  33  34
ENDBRANCH   6  33
BRANCH  27  39
HETATM   39  C   UNK     0     -26.876  -2.070   4.199  0.00  0.00     0.051 C 
BRANCH  39  40
HETATM   40  C   UNK     0     -26.334  -0.989   3.377  0.00  0.00     0.114 C 
BRANCH  40  41
HETATM   41  C   UNK     0     -27.182  -0.118   2.593  0.00  0.00     0.139 C 
HETATM   42  O   UNK     0     -27.412   1.061   2.891  0.00  0.00    -0.650 OA
BRANCH  41  43
HETATM   43  O   UNK     0     -27.792  -0.628   1.412  0.00  0.00    -0.776 OA
HETATM   44  H   UNK     0     -28.507  -1.327   1.578  0.00  0.00     0.167 HD
ENDBRANCH  41  43
ENDBRANCH  40  41
ENDBRANCH  39  40
ENDBRANCH  27  39
BRANCH  11  45
HETATM   45  C   UNK     0     -30.506  -2.690  13.779  0.00  0.00     0.051 C 
BRANCH  45  46
HETATM   46  C   UNK     0     -31.854  -3.292  13.944  0.00  0.00     0.114 C 
BRANCH  46  47
HETATM   47  C   UNK     0     -31.785  -4.218  15.110  0.00  0.00     0.139 C 
HETATM   48  O   UNK     0     -32.465  -5.253  15.085  0.00  0.00    -0.650 OA
BRANCH  47  49
HETATM   49  O   UNK     0     -30.988  -3.931  16.189  0.00  0.00    -0.776 OA
HETATM   50  H   UNK     0     -30.543  -3.013  16.310  0.00  0.00     0.167 HD
ENDBRANCH  47  49
ENDBRANCH  46  47
ENDBRANCH  45  46
ENDBRANCH  11  45
BRANCH  18  51
HETATM   51  C   UNK     0     -29.955   1.419   8.161  0.00  0.00     0.051 C 
BRANCH  51  52
HETATM   52  C   UNK     0     -29.221   2.184   9.252  0.00  0.00     0.114 C 
BRANCH  52  53
HETATM   53  C   UNK     0     -27.932   2.720   8.776  0.00  0.00     0.139 C 
HETATM   54  O   UNK     0     -27.046   1.946   8.379  0.00  0.00    -0.650 OA
BRANCH  53  55
HETATM   55  O   UNK     0     -27.717   4.077   8.778  0.00  0.00    -0.776 OA
HETATM   56  H   UNK     0     -28.096   4.727   9.426  0.00  0.00     0.167 HD
ENDBRANCH  53  55
ENDBRANCH  52  53
ENDBRANCH  51  52
ENDBRANCH  18  51
TORSDOF 16
ENDMDL
MODEL 2
REMARK VINA RESULT:      -9.0      1.469      6.961
REMARK  16 active torsions:
REMARK  status: ('A' for Active; 'I' for Inactive)
REMARK    1  A    between atoms: C_6  and  C_7 
REMARK    2  A    between atoms: C_7  and  C_8 
REMARK    3  A    between atoms: C_8  and  C_9 
REMARK    4  A    between atoms: C_9  and  O_11 
REMARK    5  A    between atoms: C_16  and  C_17 
REMARK    6  A    between atoms: C_17  and  C_18 
REMARK    7  A    between atoms: C_18  and  C_19 
REMARK    8  A    between atoms: C_19  and  O_21 
REMARK    9  A    between atoms: C_28  and  C_29 
REMARK   10  A    between atoms: C_29  and  C_30 
REMARK   11  A    between atoms: C_30  and  C_31 
REMARK   12  A    between atoms: C_31  and  O_33 
REMARK   13  A    between atoms: C_42  and  C_43 
REMARK   14  A    between atoms: C_43  and  C_44 
REMARK   15  A    between atoms: C_44  and  C_45 
REMARK   16  A    between atoms: C_45  and  O_47 
ROOT
HETATM    1  C   UNK     0     -31.633  -1.350  13.927  0.00  0.00     0.051 C 
HETATM    2  C   UNK     0     -30.790  -2.436  13.290  0.00  0.00    -0.031 A 
HETATM    3  C   UNK     0     -30.779  -2.887  11.979  0.00  0.00     0.021 A 
HETATM    4  N   UNK     0     -29.885  -3.898  11.867  0.00  0.00    -0.361 N 
HETATM    5  C   UNK     0     -29.319  -4.094  13.076  0.00  0.00     0.022 A 
HETATM    6  C   UNK     0     -29.864  -3.199  13.990  0.00  0.00    -0.027 A 
HETATM    7  C   UNK     0     -28.211  -5.021  13.468  0.00  0.00     0.115 C 
HETATM    8  C   UNK     0     -27.032  -5.117  12.516  0.00  0.00     0.021 A 
HETATM    9  N   UNK     0     -26.481  -4.149  11.768  0.00  0.00    -0.361 N 
HETATM   10  C   UNK     0     -25.517  -4.706  11.005  0.00  0.00     0.022 A 
HETATM   11  C   UNK     0     -25.438  -6.069  11.275  0.00  0.00    -0.027 A 
HETATM   12  C   UNK     0     -26.390  -6.334  12.227  0.00  0.00    -0.031 A 
HETATM   13  C   UNK     0     -26.666  -7.693  12.832  0.00  0.00     0.051 C 
HETATM   14  C   UNK     0     -24.671  -3.989   9.956  0.00  0.00     0.115 C 
HETATM   15  C   UNK     0     -25.480  -3.384   8.820  0.00  0.00     0.021 A 
HETATM   16  N   UNK     0     -26.463  -2.469   8.909  0.00  0.00    -0.361 N 
HETATM   17  C   UNK     0     -26.970  -2.250   7.694  0.00  0.00     0.022 A 
HETATM   18  C   UNK     0     -26.278  -3.055   6.767  0.00  0.00    -0.027 A 
HETATM   19  C   UNK     0     -25.346  -3.759   7.485  0.00  0.00    -0.031 A 
HETATM   20  C   UNK     0     -24.356  -4.726   6.863  0.00  0.00     0.051 C 
HETATM   21  C   UNK     0     -28.127  -1.376   7.266  0.00  0.00     0.115 C 
HETATM   22  C   UNK     0     -29.287  -1.237   8.223  0.00  0.00     0.022 A 
HETATM   23  N   UNK     0     -29.854  -2.183   8.984  0.00  0.00    -0.361 N 
HETATM   24  C   UNK     0     -30.758  -1.592   9.791  0.00  0.00     0.021 A 
HETATM   25  C   UNK     0     -30.780  -0.234   9.538  0.00  0.00    -0.031 A 
HETATM   26  C   UNK     0     -31.653   0.837  10.158  0.00  0.00     0.051 C 
HETATM   27  C   UNK     0     -29.848   0.017   8.538  0.00  0.00    -0.027 A 
HETATM   28  C   UNK     0     -31.585  -2.237  10.890  0.00  0.00     0.115 C 
HETATM   29  H   UNK     0     -29.689  -4.491  10.945  0.00  0.00     0.165 HD
HETATM   30  H   UNK     0     -26.736  -3.061  11.812  0.00  0.00     0.165 HD
HETATM   31  H   UNK     0     -26.774  -1.929   9.841  0.00  0.00     0.165 HD
HETATM   32  H   UNK     0     -29.652  -3.284   8.927  0.00  0.00     0.165 HD
ENDROOT
BRANCH   6  33
HETATM   33  C   UNK     0     -29.577  -3.016  15.459  0.00  0.00     0.051 C 
BRANCH  33  34
HETATM   34  C   UNK     0     -30.477  -3.897  16.293  0.00  0.00     0.114 C 
BRANCH  34  35
HETATM   35  C   UNK     0     -30.562  -3.288  17.652  0.00  0.00     0.139 C 
HETATM   36  O   UNK     0     -31.626  -2.717  18.029  0.00  0.00    -0.650 OA
BRANCH  35  37
HETATM   37  O   UNK     0     -29.505  -3.318  18.553  0.00  0.00    -0.776 OA
HETATM   38  H   UNK     0     -28.570  -3.568  18.273  0.00  0.00     0.167 HD
ENDBRANCH  35  37
ENDBRANCH  34  35
ENDBRANCH  33  34
ENDBRANCH   6  33
BRANCH  27  39
HETATM   39  C   UNK     0     -29.638   1.366   7.945  0.00  0.00     0.051 C 
BRANCH  39  40
HETATM   40  C   UNK     0     -28.407   2.085   8.274  0.00  0.00     0.114 C 
BRANCH  40  41
HETATM   41  C   UNK     0     -28.363   3.116   9.286  0.00  0.00     0.139 C 
HETATM   42  O   UNK     0     -28.890   3.003  10.401  0.00  0.00    -0.650 OA
BRANCH  41  43
HETATM   43  O   UNK     0     -27.682   4.334   9.002  0.00  0.00    -0.776 OA
HETATM   44  H   UNK     0     -28.292   5.116   8.791  0.00  0.00     0.167 HD
ENDBRANCH  41  43
ENDBRANCH  40  41
ENDBRANCH  39  40
ENDBRANCH  27  39
BRANCH  11  45
HETATM   45  C   UNK     0     -24.514  -7.096  10.679  0.00  0.00     0.051 C 
BRANCH  45  46
HETATM   46  C   UNK     0     -24.809  -7.427   9.262  0.00  0.00     0.114 C 
BRANCH  46  47
HETATM   47  C   UNK     0     -25.856  -8.490   9.266  0.00  0.00     0.139 C 
HETATM   48  O   UNK     0     -26.754  -8.439   8.414  0.00  0.00    -0.650 OA
BRANCH  47  49
HETATM   49  O   UNK     0     -25.826  -9.501  10.192  0.00  0.00    -0.776 OA
HETATM   50  H   UNK     0     -26.684  -9.933  10.555  0.00  0.00     0.167 HD
ENDBRANCH  47  49
ENDBRANCH  46  47
ENDBRANCH  45  46
ENDBRANCH  11  45
BRANCH  18  51
HETATM   51  C   UNK     0     -26.478  -3.133   5.276  0.00  0.00     0.051 C 
BRANCH  51  52
HETATM   52  C   UNK     0     -25.380  -2.284   4.653  0.00  0.00     0.114 C 
BRANCH  52  53
HETATM   53  C   UNK     0     -25.801  -0.880   4.482  0.00  0.00     0.139 C 
HETATM   54  O   UNK     0     -26.812  -0.611   3.812  0.00  0.00    -0.650 OA
BRANCH  53  55
HETATM   55  O   UNK     0     -25.068   0.126   5.064  0.00  0.00    -0.776 OA
HETATM   56  H   UNK     0     -24.173   0.440   4.772  0.00  0.00     0.167 HD
ENDBRANCH  53  55
ENDBRANCH  52  53
ENDBRANCH  51  52
ENDBRANCH  18  51
TORSDOF 16
ENDMDL
MODEL 3
REMARK VINA RESULT:      -8.7      2.233      6.733
REMARK  16 active torsions:
REMARK  status: ('A' for Active; 'I' for Inactive)
REMARK    1  A    between atoms: C_6  and  C_7 
REMARK    2  A    between atoms: C_7  and  C_8 
REMARK    3  A    between atoms: C_8  and  C_9 
REMARK    4  A    between atoms: C_9  and  O_11 
REMARK    5  A    between atoms: C_16  and  C_17 
REMARK    6  A    between atoms: C_17  and  C_18 
REMARK    7  A    between atoms: C_18  and  C_19 
REMARK    8  A    between atoms: C_19  and  O_21 
REMARK    9  A    between atoms: C_28  and  C_29 
REMARK   10  A    between atoms: C_29  and  C_30 
REMARK   11  A    between atoms: C_30  and  C_31 
REMARK   12  A    between atoms: C_31  and  O_33 
REMARK   13  A    between atoms: C_42  and  C_43 
REMARK   14  A    between atoms: C_43  and  C_44 
REMARK   15  A    between atoms: C_44  and  C_45 
REMARK   16  A    between atoms: C_45  and  O_47 
ROOT
HETATM    1  C   UNK     0     -26.245  -1.129   3.990  0.00  0.00     0.051 C 
HETATM    2  C   UNK     0     -25.806  -2.015   5.138  0.00  0.00    -0.031 A 
HETATM    3  C   UNK     0     -25.655  -1.705   6.480  0.00  0.00     0.021 A 
HETATM    4  N   UNK     0     -25.211  -2.802   7.139  0.00  0.00    -0.361 N 
HETATM    5  C   UNK     0     -25.084  -3.806   6.248  0.00  0.00     0.022 A 
HETATM    6  C   UNK     0     -25.446  -3.348   4.985  0.00  0.00    -0.027 A 
HETATM    7  C   UNK     0     -24.721  -5.240   6.475  0.00  0.00     0.115 C 
HETATM    8  C   UNK     0     -25.354  -5.922   7.675  0.00  0.00     0.021 A 
HETATM    9  N   UNK     0     -26.584  -5.749   8.182  0.00  0.00    -0.361 N 
HETATM   10  C   UNK     0     -26.683  -6.492   9.305  0.00  0.00     0.022 A 
HETATM   11  C   UNK     0     -25.487  -7.170   9.521  0.00  0.00    -0.027 A 
HETATM   12  C   UNK     0     -24.646  -6.816   8.498  0.00  0.00    -0.031 A 
HETATM   13  C   UNK     0     -23.230  -7.317   8.317  0.00  0.00     0.051 C 
HETATM   14  C   UNK     0     -27.885  -6.552  10.244  0.00  0.00     0.115 C 
HETATM   15  C   UNK     0     -28.240  -5.215  10.874  0.00  0.00     0.021 A 
HETATM   16  N   UNK     0     -28.565  -4.070  10.245  0.00  0.00    -0.361 N 
HETATM   17  C   UNK     0     -28.739  -3.105  11.151  0.00  0.00     0.022 A 
HETATM   18  C   UNK     0     -28.526  -3.650  12.433  0.00  0.00    -0.027 A 
HETATM   19  C   UNK     0     -28.216  -4.972  12.246  0.00  0.00    -0.031 A 
HETATM   20  C   UNK     0     -27.947  -5.944  13.380  0.00  0.00     0.051 C 
HETATM   21  C   UNK     0     -29.040  -1.636  10.960  0.00  0.00     0.115 C 
HETATM   22  C   UNK     0     -28.452  -0.955   9.746  0.00  0.00     0.022 A 
HETATM   23  N   UNK     0     -27.232  -1.112   9.216  0.00  0.00    -0.361 N 
HETATM   24  C   UNK     0     -27.183  -0.423   8.058  0.00  0.00     0.021 A 
HETATM   25  C   UNK     0     -28.397   0.200   7.842  0.00  0.00    -0.031 A 
HETATM   26  C   UNK     0     -28.812   1.112   6.706  0.00  0.00     0.051 C 
HETATM   27  C   UNK     0     -29.226  -0.125   8.910  0.00  0.00    -0.027 A 
HETATM   28  C   UNK     0     -26.043  -0.372   7.055  0.00  0.00     0.115 C 
HETATM   29  H   UNK     0     -24.952  -2.847   8.223  0.00  0.00     0.165 HD
HETATM   30  H   UNK     0     -27.402  -5.141   7.724  0.00  0.00     0.165 HD
HETATM   31  H   UNK     0     -28.722  -3.950   9.141  0.00  0.00     0.165 HD
HETATM   32  H   UNK     0     -26.379  -1.675   9.677  0.00  0.00     0.165 HD
ENDROOT
BRANCH   6  33
HETATM   33  C   UNK     0     -25.473  -4.070   3.662  0.00  0.00     0.051 C 
BRANCH  33  34
HETATM   34  C   UNK     0     -26.819  -4.714   3.431  0.00  0.00     0.114 C 
BRANCH  34  35
HETATM   35  C   UNK     0     -26.902  -5.069   1.985  0.00  0.00     0.139 C 
HETATM   36  O   UNK     0     -26.416  -4.295   1.110  0.00  0.00    -0.650 OA
BRANCH  35  37
HETATM   37  O   UNK     0     -27.500  -6.240   1.534  0.00  0.00    -0.776 OA
HETATM   38  H   UNK     0     -27.959  -6.881   2.161  0.00  0.00     0.167 HD
ENDBRANCH  35  37
ENDBRANCH  34  35
ENDBRANCH  33  34
ENDBRANCH   6  33
BRANCH  27  39
HETATM   39  C   UNK     0     -30.601   0.423   9.064  0.00  0.00     0.051 C 
BRANCH  39  40
HETATM   40  C   UNK     0     -30.787   1.602   9.910  0.00  0.00     0.114 C 
BRANCH  40  41
HETATM   41  C   UNK     0     -30.709   2.946   9.384  0.00  0.00     0.139 C 
HETATM   42  O   UNK     0     -29.647   3.574   9.267  0.00  0.00    -0.650 OA
BRANCH  41  43
HETATM   43  O   UNK     0     -31.906   3.599   8.975  0.00  0.00    -0.776 OA
HETATM   44  H   UNK     0     -32.679   3.500   9.622  0.00  0.00     0.167 HD
ENDBRANCH  41  43
ENDBRANCH  40  41
ENDBRANCH  39  40
ENDBRANCH  27  39
BRANCH  11  45
HETATM   45  C   UNK     0     -25.130  -8.119  10.634  0.00  0.00     0.051 C 
BRANCH  45  46
HETATM   46  C   UNK     0     -24.898  -7.457  11.943  0.00  0.00     0.114 C 
BRANCH  46  47
HETATM   47  C   UNK     0     -25.224  -8.451  13.005  0.00  0.00     0.139 C 
HETATM   48  O   UNK     0     -26.325  -9.019  12.966  0.00  0.00    -0.650 OA
BRANCH  47  49
HETATM   49  O   UNK     0     -24.328  -8.731  14.005  0.00  0.00    -0.776 OA
HETATM   50  H   UNK     0     -24.078  -9.694  14.259  0.00  0.00     0.167 HD
ENDBRANCH  47  49
ENDBRANCH  46  47
ENDBRANCH  45  46
ENDBRANCH  11  45
BRANCH  18  51
HETATM   51  C   UNK     0     -28.634  -2.953  13.765  0.00  0.00     0.051 C 
BRANCH  51  52
HETATM   52  C   UNK     0     -30.092  -3.061  14.185  0.00  0.00     0.114 C 
BRANCH  52  53
HETATM   53  C   UNK     0     -30.277  -4.026  15.286  0.00  0.00     0.139 C 
HETATM   54  O   UNK     0     -29.654  -3.882  16.350  0.00  0.00    -0.650 OA
BRANCH  53  55
HETATM   55  O   UNK     0     -31.137  -5.085  15.125  0.00  0.00    -0.776 OA
HETATM   56  H   UNK     0     -32.106  -5.024  14.917  0.00  0.00     0.167 HD
ENDBRANCH  53  55
ENDBRANCH  52  53
ENDBRANCH  51  52
ENDBRANCH  18  51
TORSDOF 16
ENDMDL
MODEL 4
REMARK VINA RESULT:      -8.6      1.809      2.176
REMARK  16 active torsions:
REMARK  status: ('A' for Active; 'I' for Inactive)
REMARK    1  A    between atoms: C_6  and  C_7 
REMARK    2  A    between atoms: C_7  and  C_8 
REMARK    3  A    between atoms: C_8  and  C_9 
REMARK    4  A    between atoms: C_9  and  O_11 
REMARK    5  A    between atoms: C_16  and  C_17 
REMARK    6  A    between atoms: C_17  and  C_18 
REMARK    7  A    between atoms: C_18  and  C_19 
REMARK    8  A    between atoms: C_19  and  O_21 
REMARK    9  A    between atoms: C_28  and  C_29 
REMARK   10  A    between atoms: C_29  and  C_30 
REMARK   11  A    between atoms: C_30  and  C_31 
REMARK   12  A    between atoms: C_31  and  O_33 
REMARK   13  A    between atoms: C_42  and  C_43 
REMARK   14  A    between atoms: C_43  and  C_44 
REMARK   15  A    between atoms: C_44  and  C_45 
REMARK   16  A    between atoms: C_45  and  O_47 
ROOT
HETATM    1  C   UNK     0     -23.396  -6.481   8.793  0.00  0.00     0.051 C 
HETATM    2  C   UNK     0     -24.264  -5.590   9.658  0.00  0.00    -0.031 A 
HETATM    3  C   UNK     0     -24.479  -4.224   9.575  0.00  0.00     0.021 A 
HETATM    4  N   UNK     0     -25.309  -3.846  10.576  0.00  0.00    -0.361 N 
HETATM    5  C   UNK     0     -25.634  -4.944  11.290  0.00  0.00     0.022 A 
HETATM    6  C   UNK     0     -24.995  -6.052  10.744  0.00  0.00    -0.027 A 
HETATM    7  C   UNK     0     -26.588  -5.087  12.435  0.00  0.00     0.115 C 
HETATM    8  C   UNK     0     -27.910  -4.348  12.317  0.00  0.00     0.021 A 
HETATM    9  N   UNK     0     -28.651  -4.130  11.219  0.00  0.00    -0.361 N 
HETATM   10  C   UNK     0     -29.697  -3.351  11.568  0.00  0.00     0.022 A 
HETATM   11  C   UNK     0     -29.633  -3.067  12.929  0.00  0.00    -0.027 A 
HETATM   12  C   UNK     0     -28.509  -3.693  13.407  0.00  0.00    -0.031 A 
HETATM   13  C   UNK     0     -28.038  -3.665  14.844  0.00  0.00     0.051 C 
HETATM   14  C   UNK     0     -30.764  -2.801  10.626  0.00  0.00     0.115 C 
HETATM   15  C   UNK     0     -30.215  -1.897   9.534  0.00  0.00     0.021 A 
HETATM   16  N   UNK     0     -29.296  -2.204   8.599  0.00  0.00    -0.361 N 
HETATM   17  C   UNK     0     -29.032  -1.117   7.870  0.00  0.00     0.022 A 
HETATM   18  C   UNK     0     -29.824  -0.054   8.347  0.00  0.00    -0.027 A 
HETATM   19  C   UNK     0     -30.561  -0.556   9.388  0.00  0.00    -0.031 A 
HETATM   20  C   UNK     0     -31.580   0.254  10.169  0.00  0.00     0.051 C 
HETATM   21  C   UNK     0     -28.033  -0.914   6.754  0.00  0.00     0.115 C 
HETATM   22  C   UNK     0     -26.731  -1.677   6.836  0.00  0.00     0.022 A 
HETATM   23  N   UNK     0     -25.974  -1.913   7.916  0.00  0.00    -0.361 N 
HETATM   24  C   UNK     0     -24.982  -2.755   7.561  0.00  0.00     0.021 A 
HETATM   25  C   UNK     0     -25.097  -3.059   6.218  0.00  0.00    -0.031 A 
HETATM   26  C   UNK     0     -24.201  -3.925   5.357  0.00  0.00     0.051 C 
HETATM   27  C   UNK     0     -26.209  -2.381   5.732  0.00  0.00    -0.027 A 
HETATM   28  C   UNK     0     -23.929  -3.381   8.459  0.00  0.00     0.115 C 
HETATM   29  H   UNK     0     -25.628  -2.801  10.795  0.00  0.00     0.165 HD
HETATM   30  H   UNK     0     -28.466  -4.566  10.207  0.00  0.00     0.165 HD
HETATM   31  H   UNK     0     -28.859  -3.221   8.418  0.00  0.00     0.165 HD
HETATM   32  H   UNK     0     -26.108  -1.454   8.929  0.00  0.00     0.165 HD
ENDROOT
BRANCH   6  33
HETATM   33  C   UNK     0     -25.025  -7.497  11.173  0.00  0.00     0.051 C 
BRANCH  33  34
HETATM   34  C   UNK     0     -26.428  -8.050  11.095  0.00  0.00     0.114 C 
BRANCH  34  35
HETATM   35  C   UNK     0     -26.704  -8.366   9.664  0.00  0.00     0.139 C 
HETATM   36  O   UNK     0     -25.800  -8.871   8.937  0.00  0.00    -0.650 OA
BRANCH  35  37
HETATM   37  O   UNK     0     -27.938  -8.132   9.070  0.00  0.00    -0.776 OA
HETATM   38  H   UNK     0     -28.795  -8.132   9.600  0.00  0.00     0.167 HD
ENDBRANCH  35  37
ENDBRANCH  34  35
ENDBRANCH  33  34
ENDBRANCH   6  33
BRANCH  27  39
HETATM   39  C   UNK     0     -26.613  -2.408   4.300  0.00  0.00     0.051 C 
BRANCH  39  40
HETATM   40  C   UNK     0     -27.380  -3.556   3.817  0.00  0.00     0.114 C 
BRANCH  40  41
HETATM   41  C   UNK     0     -26.927  -4.377   2.716  0.00  0.00     0.139 C 
HETATM   42  O   UNK     0     -25.865  -4.181   2.110  0.00  0.00    -0.650 OA
BRANCH  41  43
HETATM   43  O   UNK     0     -27.732  -5.472   2.294  0.00  0.00    -0.776 OA
HETATM   44  H   UNK     0     -28.701  -5.417   2.586  0.00  0.00     0.167 HD
ENDBRANCH  41  43
ENDBRANCH  40  41
ENDBRANCH  39  40
ENDBRANCH  27  39
BRANCH  11  45
HETATM   45  C   UNK     0     -30.578  -2.248  13.766  0.00  0.00     0.051 C 
BRANCH  45  46
HETATM   46  C   UNK     0     -30.693  -0.830  13.338  0.00  0.00     0.114 C 
BRANCH  46  47
HETATM   47  C   UNK     0     -29.338  -0.221  13.461  0.00  0.00     0.139 C 
HETATM   48  O   UNK     0     -28.795   0.228  12.441  0.00  0.00    -0.650 OA
BRANCH  47  49
HETATM   49  O   UNK     0     -28.703  -0.158  14.675  0.00  0.00    -0.776 OA
HETATM   50  H   UNK     0     -28.434  -1.003  15.194  0.00  0.00     0.167 HD
ENDBRANCH  47  49
ENDBRANCH  46  47
ENDBRANCH  45  46
ENDBRANCH  11  45
BRANCH  18  51
HETATM   51  C   UNK     0     -29.890   1.358   7.826  0.00  0.00     0.051 C 
BRANCH  51  52
HETATM   52  C   UNK     0     -28.764   2.119   8.511  0.00  0.00     0.114 C 
BRANCH  52  53
HETATM   53  C   UNK     0     -29.257   2.929   9.641  0.00  0.00     0.139 C 
HETATM   54  O   UNK     0     -30.115   3.805   9.451  0.00  0.00    -0.650 OA
BRANCH  53  55
HETATM   55  O   UNK     0     -28.758   2.710  10.902  0.00  0.00    -0.776 OA
HETATM   56  H   UNK     0     -28.253   1.909  11.200  0.00  0.00     0.167 HD
ENDBRANCH  53  55
ENDBRANCH  52  53
ENDBRANCH  51  52
ENDBRANCH  18  51
TORSDOF 16
ENDMDL
MODEL 5
REMARK VINA RESULT:      -8.5      2.334      7.048
REMARK  16 active torsions:
REMARK  status: ('A' for Active; 'I' for Inactive)
REMARK    1  A    between atoms: C_6  and  C_7 
REMARK    2  A    between atoms: C_7  and  C_8 
REMARK    3  A    between atoms: C_8  and  C_9 
REMARK    4  A    between atoms: C_9  and  O_11 
REMARK    5  A    between atoms: C_16  and  C_17 
REMARK    6  A    between atoms: C_17  and  C_18 
REMARK    7  A    between atoms: C_18  and  C_19 
REMARK    8  A    between atoms: C_19  and  O_21 
REMARK    9  A    between atoms: C_28  and  C_29 
REMARK   10  A    between atoms: C_29  and  C_30 
REMARK   11  A    between atoms: C_30  and  C_31 
REMARK   12  A    between atoms: C_31  and  O_33 
REMARK   13  A    between atoms: C_42  and  C_43 
REMARK   14  A    between atoms: C_43  and  C_44 
REMARK   15  A    between atoms: C_44  and  C_45 
REMARK   16  A    between atoms: C_45  and  O_47 
ROOT
HETATM    1  C   UNK     0     -29.433  -5.409  15.400  0.00  0.00     0.051 C 
HETATM    2  C   UNK     0     -29.239  -4.131  14.609  0.00  0.00    -0.031 A 
HETATM    3  C   UNK     0     -28.137  -3.702  13.888  0.00  0.00     0.021 A 
HETATM    4  N   UNK     0     -28.399  -2.479  13.367  0.00  0.00    -0.361 N 
HETATM    5  C   UNK     0     -29.648  -2.125  13.733  0.00  0.00     0.022 A 
HETATM    6  C   UNK     0     -30.202  -3.134  14.514  0.00  0.00    -0.027 A 
HETATM    7  C   UNK     0     -30.448  -0.920  13.347  0.00  0.00     0.115 C 
HETATM    8  C   UNK     0     -30.383  -0.499  11.889  0.00  0.00     0.021 A 
HETATM    9  N   UNK     0     -30.297  -1.274  10.797  0.00  0.00    -0.361 N 
HETATM   10  C   UNK     0     -30.172  -0.470   9.720  0.00  0.00     0.022 A 
HETATM   11  C   UNK     0     -30.186   0.860  10.129  0.00  0.00    -0.027 A 
HETATM   12  C   UNK     0     -30.320   0.850  11.494  0.00  0.00    -0.031 A 
HETATM   13  C   UNK     0     -30.388   2.076  12.375  0.00  0.00     0.051 C 
HETATM   14  C   UNK     0     -29.980  -0.922   8.275  0.00  0.00     0.115 C 
HETATM   15  C   UNK     0     -28.717  -1.736   8.048  0.00  0.00     0.021 A 
HETATM   16  N   UNK     0     -28.367  -2.893   8.642  0.00  0.00    -0.361 N 
HETATM   17  C   UNK     0     -27.151  -3.251   8.221  0.00  0.00     0.022 A 
HETATM   18  C   UNK     0     -26.691  -2.287   7.302  0.00  0.00    -0.027 A 
HETATM   19  C   UNK     0     -27.682  -1.345   7.201  0.00  0.00    -0.031 A 
HETATM   20  C   UNK     0     -27.609  -0.139   6.282  0.00  0.00     0.051 C 
HETATM   21  C   UNK     0     -26.285  -4.419   8.635  0.00  0.00     0.115 C 
HETATM   22  C   UNK     0     -26.372  -4.877  10.072  0.00  0.00     0.022 A 
HETATM   23  N   UNK     0     -26.463  -4.128  11.178  0.00  0.00    -0.361 N 
HETATM   24  C   UNK     0     -26.665  -4.947  12.230  0.00  0.00     0.021 A 
HETATM   25  C   UNK     0     -26.696  -6.257  11.791  0.00  0.00    -0.031 A 
HETATM   26  C   UNK     0     -26.856  -7.529  12.598  0.00  0.00     0.051 C 
HETATM   27  C   UNK     0     -26.510  -6.238  10.414  0.00  0.00    -0.027 A 
HETATM   28  C   UNK     0     -26.920  -4.558  13.676  0.00  0.00     0.115 C 
HETATM   29  H   UNK     0     -27.685  -1.859  12.777  0.00  0.00     0.165 HD
HETATM   30  H   UNK     0     -30.375  -2.389  10.778  0.00  0.00     0.165 HD
HETATM   31  H   UNK     0     -29.010  -3.494   9.336  0.00  0.00     0.165 HD
HETATM   32  H   UNK     0     -26.341  -3.014  11.233  0.00  0.00     0.165 HD
ENDROOT
BRANCH   6  33
HETATM   33  C   UNK     0     -31.557  -3.221  15.169  0.00  0.00     0.051 C 
BRANCH  33  34
HETATM   34  C   UNK     0     -32.631  -3.491  14.142  0.00  0.00     0.114 C 
BRANCH  34  35
HETATM   35  C   UNK     0     -32.903  -4.957  14.154  0.00  0.00     0.139 C 
HETATM   36  O   UNK     0     -32.612  -5.650  15.172  0.00  0.00    -0.650 OA
BRANCH  35  37
HETATM   37  O   UNK     0     -33.477  -5.621  13.077  0.00  0.00    -0.776 OA
HETATM   38  H   UNK     0     -34.469  -5.602  12.905  0.00  0.00     0.167 HD
ENDBRANCH  35  37
ENDBRANCH  34  35
ENDBRANCH  33  34
ENDBRANCH   6  33
BRANCH  27  39
HETATM   39  C   UNK     0     -26.412  -7.475   9.592  0.00  0.00     0.051 C 
BRANCH  39  40
HETATM   40  C   UNK     0     -25.084  -7.933   9.184  0.00  0.00     0.114 C 
BRANCH  40  41
HETATM   41  C   UNK     0     -24.567  -7.709   7.852  0.00  0.00     0.139 C 
HETATM   42  O   UNK     0     -23.369  -7.815   7.558  0.00  0.00    -0.650 OA
BRANCH  41  43
HETATM   43  O   UNK     0     -25.470  -7.346   6.813  0.00  0.00    -0.776 OA
HETATM   44  H   UNK     0     -26.432  -7.612   6.981  0.00  0.00     0.167 HD
ENDBRANCH  41  43
ENDBRANCH  40  41
ENDBRANCH  39  40
ENDBRANCH  27  39
BRANCH  11  45
HETATM   45  C   UNK     0     -30.084   2.105   9.288  0.00  0.00     0.051 C 
BRANCH  45  46
HETATM   46  C   UNK     0     -31.324   2.435   8.540  0.00  0.00     0.114 C 
BRANCH  46  47
HETATM   47  C   UNK     0     -32.140   3.330   9.411  0.00  0.00     0.139 C 
HETATM   48  O   UNK     0     -31.609   4.349   9.874  0.00  0.00    -0.650 OA
BRANCH  47  49
HETATM   49  O   UNK     0     -33.449   3.032   9.694  0.00  0.00    -0.776 OA
HETATM   50  H   UNK     0     -34.198   3.155   9.003  0.00  0.00     0.167 HD
ENDBRANCH  47  49
ENDBRANCH  46  47
ENDBRANCH  45  46
ENDBRANCH  11  45
BRANCH  18  51
HETATM   51  C   UNK     0     -25.389  -2.276   6.546  0.00  0.00     0.051 C 
BRANCH  51  52
HETATM   52  C   UNK     0     -25.694  -2.834   5.163  0.00  0.00     0.114 C 
BRANCH  52  53
HETATM   53  C   UNK     0     -25.204  -4.217   5.008  0.00  0.00     0.139 C 
HETATM   54  O   UNK     0     -23.987  -4.436   4.898  0.00  0.00    -0.650 OA
BRANCH  53  55
HETATM   55  O   UNK     0     -26.101  -5.257   4.983  0.00  0.00    -0.776 OA
HETATM   56  H   UNK     0     -26.242  -5.888   4.230  0.00  0.00     0.167 HD
ENDBRANCH  53  55
ENDBRANCH  52  53
ENDBRANCH  51  52
ENDBRANCH  18  51
TORSDOF 16
ENDMDL
MODEL 6
REMARK VINA RESULT:      -8.3      2.067      7.889
REMARK  16 active torsions:
REMARK  status: ('A' for Active; 'I' for Inactive)
REMARK    1  A    between atoms: C_6  and  C_7 
REMARK    2  A    between atoms: C_7  and  C_8 
REMARK    3  A    between atoms: C_8  and  C_9 
REMARK    4  A    between atoms: C_9  and  O_11 
REMARK    5  A    between atoms: C_16  and  C_17 
REMARK    6  A    between atoms: C_17  and  C_18 
REMARK    7  A    between atoms: C_18  and  C_19 
REMARK    8  A    between atoms: C_19  and  O_21 
REMARK    9  A    between atoms: C_28  and  C_29 
REMARK   10  A    between atoms: C_29  and  C_30 
REMARK   11  A    between atoms: C_30  and  C_31 
REMARK   12  A    between atoms: C_31  and  O_33 
REMARK   13  A    between atoms: C_42  and  C_43 
REMARK   14  A    between atoms: C_43  and  C_44 
REMARK   15  A    between atoms: C_44  and  C_45 
REMARK   16  A    between atoms: C_45  and  O_47 
ROOT
HETATM    1  C   UNK     0     -24.365  -3.847   6.510  0.00  0.00     0.051 C 
HETATM    2  C   UNK     0     -25.622  -3.228   7.085  0.00  0.00    -0.031 A 
HETATM    3  C   UNK     0     -26.634  -3.818   7.826  0.00  0.00     0.021 A 
HETATM    4  N   UNK     0     -27.579  -2.888   8.101  0.00  0.00    -0.361 N 
HETATM    5  C   UNK     0     -27.188  -1.717   7.558  0.00  0.00     0.022 A 
HETATM    6  C   UNK     0     -25.969  -1.894   6.912  0.00  0.00    -0.027 A 
HETATM    7  C   UNK     0     -27.824  -0.365   7.652  0.00  0.00     0.115 C 
HETATM    8  C   UNK     0     -28.353   0.047   9.014  0.00  0.00     0.021 A 
HETATM    9  N   UNK     0     -27.847  -0.229  10.226  0.00  0.00    -0.361 N 
HETATM   10  C   UNK     0     -28.696   0.258  11.156  0.00  0.00     0.022 A 
HETATM   11  C   UNK     0     -29.774   0.872  10.526  0.00  0.00    -0.027 A 
HETATM   12  C   UNK     0     -29.564   0.743   9.176  0.00  0.00    -0.031 A 
HETATM   13  C   UNK     0     -30.482   1.267   8.095  0.00  0.00     0.051 C 
HETATM   14  C   UNK     0     -28.552   0.119  12.669  0.00  0.00     0.115 C 
HETATM   15  C   UNK     0     -28.549  -1.321  13.156  0.00  0.00     0.021 A 
HETATM   16  N   UNK     0     -27.698  -2.305  12.807  0.00  0.00    -0.361 N 
HETATM   17  C   UNK     0     -28.073  -3.440  13.400  0.00  0.00     0.022 A 
HETATM   18  C   UNK     0     -29.218  -3.182  14.181  0.00  0.00    -0.027 A 
HETATM   19  C   UNK     0     -29.505  -1.852  14.021  0.00  0.00    -0.031 A 
HETATM   20  C   UNK     0     -30.650  -1.145  14.722  0.00  0.00     0.051 C 
HETATM   21  C   UNK     0     -27.501  -4.834  13.280  0.00  0.00     0.115 C 
HETATM   22  C   UNK     0     -26.931  -5.242  11.942  0.00  0.00     0.022 A 
HETATM   23  N   UNK     0     -27.411  -4.978  10.720  0.00  0.00    -0.361 N 
HETATM   24  C   UNK     0     -26.512  -5.403   9.811  0.00  0.00     0.021 A 
HETATM   25  C   UNK     0     -25.430  -5.963  10.462  0.00  0.00    -0.031 A 
HETATM   26  C   UNK     0     -24.193  -6.611   9.874  0.00  0.00     0.051 C 
HETATM   27  C   UNK     0     -25.675  -5.872  11.828  0.00  0.00    -0.027 A 
HETATM   28  C   UNK     0     -26.568  -5.242   8.301  0.00  0.00     0.115 C 
HETATM   29  H   UNK     0     -28.535  -3.075   8.643  0.00  0.00     0.165 HD
HETATM   30  H   UNK     0     -26.865  -0.723  10.429  0.00  0.00     0.165 HD
HETATM   31  H   UNK     0     -26.786  -2.185  12.167  0.00  0.00     0.165 HD
HETATM   32  H   UNK     0     -28.411  -4.528  10.487  0.00  0.00     0.165 HD
ENDROOT
BRANCH   6  33
HETATM   33  C   UNK     0     -25.121  -0.906   6.152  0.00  0.00     0.051 C 
BRANCH  33  34
HETATM   34  C   UNK     0     -25.365  -1.024   4.666  0.00  0.00     0.114 C 
BRANCH  34  35
HETATM   35  C   UNK     0     -25.648   0.346   4.150  0.00  0.00     0.139 C 
HETATM   36  O   UNK     0     -24.708   1.063   3.697  0.00  0.00    -0.650 OA
BRANCH  35  37
HETATM   37  O   UNK     0     -26.925   0.893   4.136  0.00  0.00    -0.776 OA
HETATM   38  H   UNK     0     -27.636   0.575   3.497  0.00  0.00     0.167 HD
ENDBRANCH  35  37
ENDBRANCH  34  35
ENDBRANCH  33  34
ENDBRANCH   6  33
BRANCH  27  39
HETATM   39  C   UNK     0     -24.759  -6.437  12.855  0.00  0.00     0.051 C 
BRANCH  39  40
HETATM   40  C   UNK     0     -24.840  -7.869  13.145  0.00  0.00     0.114 C 
BRANCH  40  41
HETATM   41  C   UNK     0     -25.950  -8.683  12.704  0.00  0.00     0.139 C 
HETATM   42  O   UNK     0     -26.991  -8.832  13.358  0.00  0.00    -0.650 OA
BRANCH  41  43
HETATM   43  O   UNK     0     -25.859  -9.356  11.453  0.00  0.00    -0.776 OA
HETATM   44  H   UNK     0     -24.914  -9.575  11.163  0.00  0.00     0.167 HD
ENDBRANCH  41  43
ENDBRANCH  40  41
ENDBRANCH  39  40
ENDBRANCH  27  39
BRANCH  11  45
HETATM   45  C   UNK     0     -30.960   1.560  11.146  0.00  0.00     0.051 C 
BRANCH  45  46
HETATM   46  C   UNK     0     -30.674   2.929  11.646  0.00  0.00     0.114 C 
BRANCH  46  47
HETATM   47  C   UNK     0     -30.763   3.853  10.480  0.00  0.00     0.139 C 
HETATM   48  O   UNK     0     -29.737   4.445  10.114  0.00  0.00    -0.650 OA
BRANCH  47  49
HETATM   49  O   UNK     0     -31.953   4.047   9.825  0.00  0.00    -0.776 OA
HETATM   50  H   UNK     0     -32.309   4.985   9.608  0.00  0.00     0.167 HD
ENDBRANCH  47  49
ENDBRANCH  46  47
ENDBRANCH  45  46
ENDBRANCH  11  45
BRANCH  18  51
HETATM   51  C   UNK     0     -29.984  -4.147  15.049  0.00  0.00     0.051 C 
BRANCH  51  52
HETATM   52  C   UNK     0     -31.084  -4.728  14.173  0.00  0.00     0.114 C 
BRANCH  52  53
HETATM   53  C   UNK     0     -32.421  -4.525  14.763  0.00  0.00     0.139 C 
HETATM   54  O   UNK     0     -32.574  -4.594  15.993  0.00  0.00    -0.650 OA
BRANCH  53  55
HETATM   55  O   UNK     0     -33.493  -4.265  13.944  0.00  0.00    -0.776 OA
HETATM   56  H   UNK     0     -33.753  -4.785  13.140  0.00  0.00     0.167 HD
ENDBRANCH  53  55
ENDBRANCH  52  53
ENDBRANCH  51  52
ENDBRANCH  18  51
TORSDOF 16
ENDMDL
MODEL 7
REMARK VINA RESULT:      -8.2      3.282      8.070
REMARK  16 active torsions:
REMARK  status: ('A' for Active; 'I' for Inactive)
REMARK    1  A    between atoms: C_6  and  C_7 
REMARK    2  A    between atoms: C_7  and  C_8 
REMARK    3  A    between atoms: C_8  and  C_9 
REMARK    4  A    between atoms: C_9  and  O_11 
REMARK    5  A    between atoms: C_16  and  C_17 
REMARK    6  A    between atoms: C_17  and  C_18 
REMARK    7  A    between atoms: C_18  and  C_19 
REMARK    8  A    between atoms: C_19  and  O_21 
REMARK    9  A    between atoms: C_28  and  C_29 
REMARK   10  A    between atoms: C_29  and  C_30 
REMARK   11  A    between atoms: C_30  and  C_31 
REMARK   12  A    between atoms: C_31  and  O_33 
REMARK   13  A    between atoms: C_42  and  C_43 
REMARK   14  A    between atoms: C_43  and  C_44 
REMARK   15  A    between atoms: C_44  and  C_45 
REMARK   16  A    between atoms: C_45  and  O_47 
ROOT
HETATM    1  C   UNK     0     -25.074  -1.963  17.361  0.00  0.00     0.051 C 
HETATM    2  C   UNK     0     -25.527  -1.317  16.068  0.00  0.00    -0.031 A 
HETATM    3  C   UNK     0     -24.944  -1.361  14.811  0.00  0.00     0.021 A 
HETATM    4  N   UNK     0     -25.678  -0.609  13.957  0.00  0.00    -0.361 N 
HETATM    5  C   UNK     0     -26.720  -0.093  14.640  0.00  0.00     0.022 A 
HETATM    6  C   UNK     0     -26.655  -0.513  15.964  0.00  0.00    -0.027 A 
HETATM    7  C   UNK     0     -27.872   0.726  14.145  0.00  0.00     0.115 C 
HETATM    8  C   UNK     0     -28.500   0.294  12.831  0.00  0.00     0.021 A 
HETATM    9  N   UNK     0     -28.675  -0.950  12.357  0.00  0.00    -0.361 N 
HETATM   10  C   UNK     0     -29.189  -0.855  11.113  0.00  0.00     0.022 A 
HETATM   11  C   UNK     0     -29.357   0.486  10.779  0.00  0.00    -0.027 A 
HETATM   12  C   UNK     0     -28.925   1.215  11.858  0.00  0.00    -0.031 A 
HETATM   13  C   UNK     0     -28.926   2.724  11.949  0.00  0.00     0.051 C 
HETATM   14  C   UNK     0     -29.490  -2.018  10.171  0.00  0.00     0.115 C 
HETATM   15  C   UNK     0     -28.269  -2.847   9.806  0.00  0.00     0.021 A 
HETATM   16  N   UNK     0     -27.444  -3.506  10.642  0.00  0.00    -0.361 N 
HETATM   17  C   UNK     0     -26.452  -4.054   9.936  0.00  0.00     0.022 A 
HETATM   18  C   UNK     0     -26.645  -3.745   8.575  0.00  0.00    -0.027 A 
HETATM   19  C   UNK     0     -27.787  -2.990   8.507  0.00  0.00    -0.031 A 
HETATM   20  C   UNK     0     -28.380  -2.472   7.209  0.00  0.00     0.051 C 
HETATM   21  C   UNK     0     -25.240  -4.828  10.403  0.00  0.00     0.115 C 
HETATM   22  C   UNK     0     -24.631  -4.437  11.729  0.00  0.00     0.022 A 
HETATM   23  N   UNK     0     -24.448  -3.208  12.229  0.00  0.00    -0.361 N 
HETATM   24  C   UNK     0     -24.009  -3.328  13.498  0.00  0.00     0.021 A 
HETATM   25  C   UNK     0     -23.898  -4.667  13.821  0.00  0.00    -0.031 A 
HETATM   26  C   UNK     0     -23.411  -5.300  15.107  0.00  0.00     0.051 C 
HETATM   27  C   UNK     0     -24.290  -5.397  12.704  0.00  0.00    -0.027 A 
HETATM   28  C   UNK     0     -23.748  -2.217  14.500  0.00  0.00     0.115 C 
HETATM   29  H   UNK     0     -25.432  -0.416  12.887  0.00  0.00     0.165 HD
HETATM   30  H   UNK     0     -28.485  -1.897  12.918  0.00  0.00     0.165 HD
HETATM   31  H   UNK     0     -27.590  -3.627  11.747  0.00  0.00     0.165 HD
HETATM   32  H   UNK     0     -24.585  -2.243  11.675  0.00  0.00     0.165 HD
ENDROOT
BRANCH   6  33
HETATM   33  C   UNK     0     -27.570  -0.211  17.124  0.00  0.00     0.051 C 
BRANCH  33  34
HETATM   34  C   UNK     0     -28.670  -1.241  17.220  0.00  0.00     0.114 C 
BRANCH  34  35
HETATM   35  C   UNK     0     -28.876  -1.542  18.666  0.00  0.00     0.139 C 
HETATM   36  O   UNK     0     -29.857  -1.040  19.288  0.00  0.00    -0.650 OA
BRANCH  35  37
HETATM   37  O   UNK     0     -28.025  -2.370  19.387  0.00  0.00    -0.776 OA
HETATM   38  H   UNK     0     -27.343  -2.005  20.033  0.00  0.00     0.167 HD
ENDBRANCH  35  37
ENDBRANCH  34  35
ENDBRANCH  33  34
ENDBRANCH   6  33
BRANCH  27  39
HETATM   39  C   UNK     0     -24.236  -6.883  12.648  0.00  0.00     0.051 C 
BRANCH  39  40
HETATM   40  C   UNK     0     -25.485  -7.629  12.802  0.00  0.00     0.114 C 
BRANCH  40  41
HETATM   41  C   UNK     0     -26.217  -8.149  11.670  0.00  0.00     0.139 C 
HETATM   42  O   UNK     0     -27.211  -7.591  11.184  0.00  0.00    -0.650 OA
BRANCH  41  43
HETATM   43  O   UNK     0     -25.788  -9.366  11.068  0.00  0.00    -0.776 OA
HETATM   44  H   UNK     0     -24.914  -9.727  11.432  0.00  0.00     0.167 HD
ENDBRANCH  41  43
ENDBRANCH  40  41
ENDBRANCH  39  40
ENDBRANCH  27  39
BRANCH  11  45
HETATM   45  C   UNK     0     -29.902   1.079   9.507  0.00  0.00     0.051 C 
BRANCH  45  46
HETATM   46  C   UNK     0     -29.088   0.778   8.302  0.00  0.00     0.114 C 
BRANCH  46  47
HETATM   47  C   UNK     0     -27.941   1.730   8.295  0.00  0.00     0.139 C 
HETATM   48  O   UNK     0     -26.815   1.299   8.009  0.00  0.00    -0.650 OA
BRANCH  47  49
HETATM   49  O   UNK     0     -28.125   3.055   8.599  0.00  0.00    -0.776 OA
HETATM   50  H   UNK     0     -28.732   3.665   8.038  0.00  0.00     0.167 HD
ENDBRANCH  47  49
ENDBRANCH  46  47
ENDBRANCH  45  46
ENDBRANCH  11  45
BRANCH  18  51
HETATM   51  C   UNK     0     -25.799  -4.165   7.401  0.00  0.00     0.051 C 
BRANCH  51  52
HETATM   52  C   UNK     0     -24.893  -2.984   7.085  0.00  0.00     0.114 C 
BRANCH  52  53
HETATM   53  C   UNK     0     -23.465  -3.342   7.194  0.00  0.00     0.139 C 
HETATM   54  O   UNK     0     -22.883  -3.873   6.236  0.00  0.00    -0.650 OA
BRANCH  53  55
HETATM   55  O   UNK     0     -22.788  -3.087   8.362  0.00  0.00    -0.776 OA
HETATM   56  H   UNK     0     -22.681  -3.715   9.124  0.00  0.00     0.167 HD
ENDBRANCH  53  55
ENDBRANCH  52  53
ENDBRANCH  51  52
ENDBRANCH  18  51
TORSDOF 16
ENDMDL
MODEL 8
REMARK VINA RESULT:      -8.1      2.032      7.612
REMARK  16 active torsions:
REMARK  status: ('A' for Active; 'I' for Inactive)
REMARK    1  A    between atoms: C_6  and  C_7 
REMARK    2  A    between atoms: C_7  and  C_8 
REMARK    3  A    between atoms: C_8  and  C_9 
REMARK    4  A    between atoms: C_9  and  O_11 
REMARK    5  A    between atoms: C_16  and  C_17 
REMARK    6  A    between atoms: C_17  and  C_18 
REMARK    7  A    between atoms: C_18  and  C_19 
REMARK    8  A    between atoms: C_19  and  O_21 
REMARK    9  A    between atoms: C_28  and  C_29 
REMARK   10  A    between atoms: C_29  and  C_30 
REMARK   11  A    between atoms: C_30  and  C_31 
REMARK   12  A    between atoms: C_31  and  O_33 
REMARK   13  A    between atoms: C_42  and  C_43 
REMARK   14  A    between atoms: C_43  and  C_44 
REMARK   15  A    between atoms: C_44  and  C_45 
REMARK   16  A    between atoms: C_45  and  O_47 
ROOT
HETATM    1  C   UNK     0     -25.107  -8.115  10.779  0.00  0.00     0.051 C 
HETATM    2  C   UNK     0     -25.628  -7.274   9.631  0.00  0.00    -0.031 A 
HETATM    3  C   UNK     0     -26.872  -6.687   9.465  0.00  0.00     0.021 A 
HETATM    4  N   UNK     0     -26.904  -6.053   8.268  0.00  0.00    -0.361 N 
HETATM    5  C   UNK     0     -25.704  -6.216   7.673  0.00  0.00     0.022 A 
HETATM    6  C   UNK     0     -24.883  -6.978   8.497  0.00  0.00    -0.027 A 
HETATM    7  C   UNK     0     -25.192  -5.641   6.389  0.00  0.00     0.115 C 
HETATM    8  C   UNK     0     -25.515  -4.182   6.120  0.00  0.00     0.021 A 
HETATM    9  N   UNK     0     -25.594  -3.168   6.995  0.00  0.00    -0.361 N 
HETATM   10  C   UNK     0     -25.998  -2.067   6.326  0.00  0.00     0.022 A 
HETATM   11  C   UNK     0     -26.175  -2.379   4.981  0.00  0.00    -0.027 A 
HETATM   12  C   UNK     0     -25.872  -3.709   4.844  0.00  0.00    -0.031 A 
HETATM   13  C   UNK     0     -25.918  -4.488   3.549  0.00  0.00     0.051 C 
HETATM   14  C   UNK     0     -26.284  -0.697   6.934  0.00  0.00     0.115 C 
HETATM   15  C   UNK     0     -27.396  -0.703   7.971  0.00  0.00     0.021 A 
HETATM   16  N   UNK     0     -27.453  -1.417   9.111  0.00  0.00    -0.361 N 
HETATM   17  C   UNK     0     -28.625  -1.196   9.709  0.00  0.00     0.022 A 
HETATM   18  C   UNK     0     -29.365  -0.287   8.926  0.00  0.00    -0.027 A 
HETATM   19  C   UNK     0     -28.583   0.015   7.841  0.00  0.00    -0.031 A 
HETATM   20  C   UNK     0     -28.989   0.995   6.755  0.00  0.00     0.051 C 
HETATM   21  C   UNK     0     -29.205  -1.804  10.965  0.00  0.00     0.115 C 
HETATM   22  C   UNK     0     -28.857  -3.243  11.269  0.00  0.00     0.022 A 
HETATM   23  N   UNK     0     -28.766  -4.272  10.417  0.00  0.00    -0.361 N 
HETATM   24  C   UNK     0     -28.288  -5.338  11.090  0.00  0.00     0.021 A 
HETATM   25  C   UNK     0     -28.074  -4.989  12.410  0.00  0.00    -0.031 A 
HETATM   26  C   UNK     0     -27.586  -5.849  13.556  0.00  0.00     0.051 C 
HETATM   27  C   UNK     0     -28.432  -3.653  12.549  0.00  0.00    -0.027 A 
HETATM   28  C   UNK     0     -27.928  -6.704  10.533  0.00  0.00     0.115 C 
HETATM   29  H   UNK     0     -27.787  -5.528   7.836  0.00  0.00     0.165 HD
HETATM   30  H   UNK     0     -25.317  -3.213   8.077  0.00  0.00     0.165 HD
HETATM   31  H   UNK     0     -26.629  -2.053   9.527  0.00  0.00     0.165 HD
HETATM   32  H   UNK     0     -29.081  -4.268   9.341  0.00  0.00     0.165 HD
ENDROOT
BRANCH   6  33
HETATM   33  C   UNK     0     -23.463  -7.442   8.290  0.00  0.00     0.051 C 
BRANCH  33  34
HETATM   34  C   UNK     0     -22.547  -6.267   8.039  0.00  0.00     0.114 C 
BRANCH  34  35
HETATM   35  C   UNK     0     -22.703  -5.327   9.186  0.00  0.00     0.139 C 
HETATM   36  O   UNK     0     -22.350  -5.676  10.349  0.00  0.00    -0.650 OA
BRANCH  35  37
HETATM   37  O   UNK     0     -23.229  -4.049   9.040  0.00  0.00    -0.776 OA
HETATM   38  H   UNK     0     -23.749  -3.598   9.775  0.00  0.00     0.167 HD
ENDBRANCH  35  37
ENDBRANCH  34  35
ENDBRANCH  33  34
ENDBRANCH   6  33
BRANCH  27  39
HETATM   39  C   UNK     0     -28.405  -2.938  13.854  0.00  0.00     0.051 C 
BRANCH  39  40
HETATM   40  C   UNK     0     -29.631  -2.903  14.651  0.00  0.00     0.114 C 
BRANCH  40  41
HETATM   41  C   UNK     0     -30.571  -4.001  14.668  0.00  0.00     0.139 C 
HETATM   42  O   UNK     0     -30.462  -4.982  15.416  0.00  0.00    -0.650 OA
BRANCH  41  43
HETATM   43  O   UNK     0     -31.687  -3.970  13.784  0.00  0.00    -0.776 OA
HETATM   44  H   UNK     0     -31.586  -3.330  13.005  0.00  0.00     0.167 HD
ENDBRANCH  41  43
ENDBRANCH  40  41
ENDBRANCH  39  40
ENDBRANCH  27  39
BRANCH  11  45
HETATM   45  C   UNK     0     -26.607  -1.479   3.855  0.00  0.00     0.051 C 
BRANCH  45  46
HETATM   46  C   UNK     0     -25.482  -0.861   3.107  0.00  0.00     0.114 C 
BRANCH  46  47
HETATM   47  C   UNK     0     -25.511   0.602   3.393  0.00  0.00     0.139 C 
HETATM   48  O   UNK     0     -24.439   1.222   3.416  0.00  0.00    -0.650 OA
BRANCH  47  49
HETATM   49  O   UNK     0     -26.699   1.248   3.627  0.00  0.00    -0.776 OA
HETATM   50  H   UNK     0     -26.957   1.593   4.559  0.00  0.00     0.167 HD
ENDBRANCH  47  49
ENDBRANCH  46  47
ENDBRANCH  45  46
ENDBRANCH  11  45
BRANCH  18  51
HETATM   51  C   UNK     0     -30.732   0.280   9.208  0.00  0.00     0.051 C 
BRANCH  51  52
HETATM   52  C   UNK     0     -30.518   1.470  10.131  0.00  0.00     0.114 C 
BRANCH  52  53
HETATM   53  C   UNK     0     -30.659   2.753   9.416  0.00  0.00     0.139 C 
HETATM   54  O   UNK     0     -29.725   3.570   9.415  0.00  0.00    -0.650 OA
BRANCH  53  55
HETATM   55  O   UNK     0     -31.829   3.038   8.755  0.00  0.00    -0.776 OA
HETATM   56  H   UNK     0     -32.744   2.798   9.058  0.00  0.00     0.167 HD
ENDBRANCH  53  55
ENDBRANCH  52  53
ENDBRANCH  51  52
ENDBRANCH  18  51
TORSDOF 16
ENDMDL
MODEL 9
REMARK VINA RESULT:      -8.1      2.883      9.332
REMARK  16 active torsions:
REMARK  status: ('A' for Active; 'I' for Inactive)
REMARK    1  A    between atoms: C_6  and  C_7 
REMARK    2  A    between atoms: C_7  and  C_8 
REMARK    3  A    between atoms: C_8  and  C_9 
REMARK    4  A    between atoms: C_9  and  O_11 
REMARK    5  A    between atoms: C_16  and  C_17 
REMARK    6  A    between atoms: C_17  and  C_18 
REMARK    7  A    between atoms: C_18  and  C_19 
REMARK    8  A    between atoms: C_19  and  O_21 
REMARK    9  A    between atoms: C_28  and  C_29 
REMARK   10  A    between atoms: C_29  and  C_30 
REMARK   11  A    between atoms: C_30  and  C_31 
REMARK   12  A    between atoms: C_31  and  O_33 
REMARK   13  A    between atoms: C_42  and  C_43 
REMARK   14  A    between atoms: C_43  and  C_44 
REMARK   15  A    between atoms: C_44  and  C_45 
REMARK   16  A    between atoms: C_45  and  O_47 
ROOT
HETATM    1  C   UNK     0     -29.730   1.849  12.316  0.00  0.00     0.051 C 
HETATM    2  C   UNK     0     -28.676   1.045  11.584  0.00  0.00    -0.031 A 
HETATM    3  C   UNK     0     -27.687   0.218  12.094  0.00  0.00     0.021 A 
HETATM    4  N   UNK     0     -26.949  -0.273  11.070  0.00  0.00    -0.361 N 
HETATM    5  C   UNK     0     -27.451   0.216   9.917  0.00  0.00     0.022 A 
HETATM    6  C   UNK     0     -28.531   1.046  10.202  0.00  0.00    -0.027 A 
HETATM    7  C   UNK     0     -27.062  -0.088   8.505  0.00  0.00     0.115 C 
HETATM    8  C   UNK     0     -26.788  -1.544   8.171  0.00  0.00     0.021 A 
HETATM    9  N   UNK     0     -27.397  -2.640   8.650  0.00  0.00    -0.361 N 
HETATM   10  C   UNK     0     -26.766  -3.723   8.148  0.00  0.00     0.022 A 
HETATM   11  C   UNK     0     -25.729  -3.313   7.315  0.00  0.00    -0.027 A 
HETATM   12  C   UNK     0     -25.738  -1.942   7.325  0.00  0.00    -0.031 A 
HETATM   13  C   UNK     0     -24.784  -1.056   6.554  0.00  0.00     0.051 C 
HETATM   14  C   UNK     0     -27.081  -5.180   8.473  0.00  0.00     0.115 C 
HETATM   15  C   UNK     0     -26.914  -5.533   9.942  0.00  0.00     0.021 A 
HETATM   16  N   UNK     0     -27.541  -4.979  10.996  0.00  0.00    -0.361 N 
HETATM   17  C   UNK     0     -27.067  -5.518  12.122  0.00  0.00     0.022 A 
HETATM   18  C   UNK     0     -26.091  -6.477  11.784  0.00  0.00    -0.027 A 
HETATM   19  C   UNK     0     -26.006  -6.478  10.416  0.00  0.00    -0.031 A 
HETATM   20  C   UNK     0     -25.092  -7.398   9.628  0.00  0.00     0.051 C 
HETATM   21  C   UNK     0     -27.384  -5.193  13.564  0.00  0.00     0.115 C 
HETATM   22  C   UNK     0     -27.702  -3.756  13.902  0.00  0.00     0.022 A 
HETATM   23  N   UNK     0     -27.115  -2.645  13.437  0.00  0.00    -0.361 N 
HETATM   24  C   UNK     0     -27.807  -1.580  13.889  0.00  0.00     0.021 A 
HETATM   25  C   UNK     0     -28.859  -2.015  14.672  0.00  0.00    -0.031 A 
HETATM   26  C   UNK     0     -29.887  -1.198  15.427  0.00  0.00     0.051 C 
HETATM   27  C   UNK     0     -28.812  -3.404  14.695  0.00  0.00    -0.027 A 
HETATM   28  C   UNK     0     -27.581  -0.115  13.556  0.00  0.00     0.115 C 
HETATM   29  H   UNK     0     -26.054  -0.929  11.172  0.00  0.00     0.165 HD
HETATM   30  H   UNK     0     -28.303  -2.653   9.304  0.00  0.00     0.165 HD
HETATM   31  H   UNK     0     -28.369  -4.225  10.944  0.00  0.00     0.165 HD
HETATM   32  H   UNK     0     -26.180  -2.601  12.820  0.00  0.00     0.165 HD
ENDROOT
BRANCH   6  33
HETATM   33  C   UNK     0     -29.421   1.832   9.274  0.00  0.00     0.051 C 
BRANCH  33  34
HETATM   34  C   UNK     0     -30.106   0.917   8.287  0.00  0.00     0.114 C 
BRANCH  34  35
HETATM   35  C   UNK     0     -30.789  -0.153   9.069  0.00  0.00     0.139 C 
HETATM   36  O   UNK     0     -31.756   0.136   9.833  0.00  0.00    -0.650 OA
BRANCH  35  37
HETATM   37  O   UNK     0     -30.412  -1.488   9.001  0.00  0.00    -0.776 OA
HETATM   38  H   UNK     0     -30.533  -2.118   9.778  0.00  0.00     0.167 HD
ENDBRANCH  35  37
ENDBRANCH  34  35
ENDBRANCH  33  34
ENDBRANCH   6  33
BRANCH  27  39
HETATM   39  C   UNK     0     -29.750  -4.233  15.500  0.00  0.00     0.051 C 
BRANCH  39  40
HETATM   40  C   UNK     0     -30.938  -4.776  14.840  0.00  0.00     0.114 C 
BRANCH  40  41
HETATM   41  C   UNK     0     -32.257  -4.225  15.054  0.00  0.00     0.139 C 
HETATM   42  O   UNK     0     -33.057  -4.670  15.888  0.00  0.00    -0.650 OA
BRANCH  41  43
HETATM   43  O   UNK     0     -32.676  -3.112  14.271  0.00  0.00    -0.776 OA
HETATM   44  H   UNK     0     -32.271  -3.075  13.343  0.00  0.00     0.167 HD
ENDBRANCH  41  43
ENDBRANCH  40  41
ENDBRANCH  39  40
ENDBRANCH  27  39
BRANCH  11  45
HETATM   45  C   UNK     0     -24.762  -4.158   6.531  0.00  0.00     0.051 C 
BRANCH  45  46
HETATM   46  C   UNK     0     -23.583  -4.613   7.312  0.00  0.00     0.114 C 
BRANCH  46  47
HETATM   47  C   UNK     0     -22.676  -5.327   6.367  0.00  0.00     0.139 C 
HETATM   48  O   UNK     0     -22.745  -5.055   5.161  0.00  0.00    -0.650 OA
BRANCH  47  49
HETATM   49  O   UNK     0     -21.785  -6.265   6.823  0.00  0.00    -0.776 OA
HETATM   50  H   UNK     0     -20.935  -6.005   7.336  0.00  0.00     0.167 HD
ENDBRANCH  47  49
ENDBRANCH  46  47
ENDBRANCH  45  46
ENDBRANCH  11  45
BRANCH  18  51
HETATM   51  C   UNK     0     -25.298  -7.359  12.713  0.00  0.00     0.051 C 
BRANCH  51  52
HETATM   52  C   UNK     0     -24.377  -6.434  13.495  0.00  0.00     0.114 C 
BRANCH  52  53
HETATM   53  C   UNK     0     -23.346  -5.827  12.632  0.00  0.00     0.139 C 
HETATM   54  O   UNK     0     -22.500  -6.545  12.074  0.00  0.00    -0.650 OA
BRANCH  53  55
HETATM   55  O   UNK     0     -23.325  -4.465  12.452  0.00  0.00    -0.776 OA
HETATM   56  H   UNK     0     -24.091  -3.847  12.586  0.00  0.00     0.167 HD
ENDBRANCH  53  55
ENDBRANCH  52  53
ENDBRANCH  51  52
ENDBRANCH  18  51
TORSDOF 16
ENDMDL
MODEL 10
REMARK VINA RESULT:      -8.0      2.753      7.754
REMARK  16 active torsions:
REMARK  status: ('A' for Active; 'I' for Inactive)
REMARK    1  A    between atoms: C_6  and  C_7 
REMARK    2  A    between atoms: C_7  and  C_8 
REMARK    3  A    between atoms: C_8  and  C_9 
REMARK    4  A    between atoms: C_9  and  O_11 
REMARK    5  A    between atoms: C_16  and  C_17 
REMARK    6  A    between atoms: C_17  and  C_18 
REMARK    7  A    between atoms: C_18  and  C_19 
REMARK    8  A    between atoms: C_19  and  O_21 
REMARK    9  A    between atoms: C_28  and  C_29 
REMARK   10  A    between atoms: C_29  and  C_30 
REMARK   11  A    between atoms: C_30  and  C_31 
REMARK   12  A    between atoms: C_31  and  O_33 
REMARK   13  A    between atoms: C_42  and  C_43 
REMARK   14  A    between atoms: C_43  and  C_44 
REMARK   15  A    between atoms: C_44  and  C_45 
REMARK   16  A    between atoms: C_45  and  O_47 
ROOT
HETATM    1  C   UNK     0     -25.514  -7.851  10.434  0.00  0.00     0.051 C 
HETATM    2  C   UNK     0     -26.036  -6.783   9.494  0.00  0.00    -0.031 A 
HETATM    3  C   UNK     0     -27.197  -6.032   9.574  0.00  0.00     0.021 A 
HETATM    4  N   UNK     0     -27.272  -5.218   8.493  0.00  0.00    -0.361 N 
HETATM    5  C   UNK     0     -26.179  -5.429   7.731  0.00  0.00     0.022 A 
HETATM    6  C   UNK     0     -25.386  -6.405   8.326  0.00  0.00    -0.027 A 
HETATM    7  C   UNK     0     -25.736  -4.725   6.487  0.00  0.00     0.115 C 
HETATM    8  C   UNK     0     -25.880  -3.214   6.471  0.00  0.00     0.021 A 
HETATM    9  N   UNK     0     -25.722  -2.348   7.484  0.00  0.00    -0.361 N 
HETATM   10  C   UNK     0     -26.041  -1.115   7.035  0.00  0.00     0.022 A 
HETATM   11  C   UNK     0     -26.405  -1.188   5.694  0.00  0.00    -0.027 A 
HETATM   12  C   UNK     0     -26.306  -2.507   5.332  0.00  0.00    -0.031 A 
HETATM   13  C   UNK     0     -26.602  -3.060   3.956  0.00  0.00     0.051 C 
HETATM   14  C   UNK     0     -26.066   0.167   7.863  0.00  0.00     0.115 C 
HETATM   15  C   UNK     0     -27.048   0.132   9.023  0.00  0.00     0.021 A 
HETATM   16  N   UNK     0     -27.078  -0.741  10.048  0.00  0.00    -0.361 N 
HETATM   17  C   UNK     0     -28.136  -0.477  10.817  0.00  0.00     0.022 A 
HETATM   18  C   UNK     0     -28.824   0.626  10.273  0.00  0.00    -0.027 A 
HETATM   19  C   UNK     0     -28.131   0.999   9.150  0.00  0.00    -0.031 A 
HETATM   20  C   UNK     0     -28.514   2.179   8.276  0.00  0.00     0.051 C 
HETATM   21  C   UNK     0     -28.654  -1.201  12.039  0.00  0.00     0.115 C 
HETATM   22  C   UNK     0     -28.477  -2.701  12.088  0.00  0.00     0.022 A 
HETATM   23  N   UNK     0     -28.624  -3.587  11.095  0.00  0.00    -0.361 N 
HETATM   24  C   UNK     0     -28.226  -4.795  11.543  0.00  0.00     0.021 A 
HETATM   25  C   UNK     0     -27.824  -4.686  12.860  0.00  0.00    -0.031 A 
HETATM   26  C   UNK     0     -27.336  -5.769  13.800  0.00  0.00     0.051 C 
HETATM   27  C   UNK     0     -27.975  -3.355  13.232  0.00  0.00    -0.027 A 
HETATM   28  C   UNK     0     -28.123  -6.090  10.756  0.00  0.00     0.115 C 
HETATM   29  H   UNK     0     -28.116  -4.529   8.257  0.00  0.00     0.165 HD
HETATM   30  H   UNK     0     -25.338  -2.596   8.503  0.00  0.00     0.165 HD
HETATM   31  H   UNK     0     -26.310  -1.529  10.260  0.00  0.00     0.165 HD
HETATM   32  H   UNK     0     -29.050  -3.376  10.080  0.00  0.00     0.165 HD
ENDROOT
BRANCH   6  33
HETATM   33  C   UNK     0     -24.075  -6.998   7.874  0.00  0.00     0.051 C 
BRANCH  33  34
HETATM   34  C   UNK     0     -23.052  -5.913   7.631  0.00  0.00     0.114 C 
BRANCH  34  35
HETATM   35  C   UNK     0     -22.915  -5.137   8.897  0.00  0.00     0.139 C 
HETATM   36  O   UNK     0     -22.493  -5.702   9.948  0.00  0.00    -0.650 OA
BRANCH  35  37
HETATM   37  O   UNK     0     -23.232  -3.788   8.987  0.00  0.00    -0.776 OA
HETATM   38  H   UNK     0     -22.668  -3.076   8.552  0.00  0.00     0.167 HD
ENDBRANCH  35  37
ENDBRANCH  34  35
ENDBRANCH  33  34
ENDBRANCH   6  33
BRANCH  27  39
HETATM   39  C   UNK     0     -27.707  -2.863  14.610  0.00  0.00     0.051 C 
BRANCH  39  40
HETATM   40  C   UNK     0     -26.414  -2.237  14.885  0.00  0.00     0.114 C 
BRANCH  40  41
HETATM   41  C   UNK     0     -25.196  -3.007  15.007  0.00  0.00     0.139 C 
HETATM   42  O   UNK     0     -24.491  -3.327  14.040  0.00  0.00    -0.650 OA
BRANCH  41  43
HETATM   43  O   UNK     0     -24.770  -3.426  16.299  0.00  0.00    -0.776 OA
HETATM   44  H   UNK     0     -24.439  -2.677  16.895  0.00  0.00     0.167 HD
ENDBRANCH  41  43
ENDBRANCH  40  41
ENDBRANCH  39  40
ENDBRANCH  27  39
BRANCH  11  45
HETATM   45  C   UNK     0     -26.829  -0.076   4.771  0.00  0.00     0.051 C 
BRANCH  45  46
HETATM   46  C   UNK     0     -25.704   0.588   4.066  0.00  0.00     0.114 C 
BRANCH  46  47
HETATM   47  C   UNK     0     -26.179   0.922   2.693  0.00  0.00     0.139 C 
HETATM   48  O   UNK     0     -27.138   0.291   2.228  0.00  0.00    -0.650 OA
BRANCH  47  49
HETATM   49  O   UNK     0     -25.567   1.906   1.957  0.00  0.00    -0.776 OA
HETATM   50  H   UNK     0     -25.580   2.891   2.246  0.00  0.00     0.167 HD
ENDBRANCH  47  49
ENDBRANCH  46  47
ENDBRANCH  45  46
ENDBRANCH  11  45
BRANCH  18  51
HETATM   51  C   UNK     0     -30.060   1.302  10.806  0.00  0.00     0.051 C 
BRANCH  51  52
HETATM   52  C   UNK     0     -31.244   0.584  10.175  0.00  0.00     0.114 C 
BRANCH  52  53
HETATM   53  C   UNK     0     -32.312   1.523   9.784  0.00  0.00     0.139 C 
HETATM   54  O   UNK     0     -32.050   2.494   9.056  0.00  0.00    -0.650 OA
BRANCH  53  55
HETATM   55  O   UNK     0     -33.594   1.319  10.232  0.00  0.00    -0.776 OA
HETATM   56  H   UNK     0     -33.857   0.792  11.031  0.00  0.00     0.167 HD
ENDBRANCH  53  55
ENDBRANCH  52  53
ENDBRANCH  51  52
ENDBRANCH  18  51
TORSDOF 16
ENDMDL
MODEL 11
REMARK VINA RESULT:      -8.0     21.523     25.429
REMARK  16 active torsions:
REMARK  status: ('A' for Active; 'I' for Inactive)
REMARK    1  A    between atoms: C_6  and  C_7 
REMARK    2  A    between atoms: C_7  and  C_8 
REMARK    3  A    between atoms: C_8  and  C_9 
REMARK    4  A    between atoms: C_9  and  O_11 
REMARK    5  A    between atoms: C_16  and  C_17 
REMARK    6  A    between atoms: C_17  and  C_18 
REMARK    7  A    between atoms: C_18  and  C_19 
REMARK    8  A    between atoms: C_19  and  O_21 
REMARK    9  A    between atoms: C_28  and  C_29 
REMARK   10  A    between atoms: C_29  and  C_30 
REMARK   11  A    between atoms: C_30  and  C_31 
REMARK   12  A    between atoms: C_31  and  O_33 
REMARK   13  A    between atoms: C_42  and  C_43 
REMARK   14  A    between atoms: C_43  and  C_44 
REMARK   15  A    between atoms: C_44  and  C_45 
REMARK   16  A    between atoms: C_45  and  O_47 
ROOT
HETATM    1  C   UNK     0     -11.640   2.075  -2.727  0.00  0.00     0.051 C 
HETATM    2  C   UNK     0     -10.919   0.754  -2.556  0.00  0.00    -0.031 A 
HETATM    3  C   UNK     0     -11.060  -0.424  -3.273  0.00  0.00     0.021 A 
HETATM    4  N   UNK     0     -10.233  -1.360  -2.750  0.00  0.00    -0.361 N 
HETATM    5  C   UNK     0      -9.562  -0.802  -1.721  0.00  0.00     0.022 A 
HETATM    6  C   UNK     0      -9.969   0.520  -1.570  0.00  0.00    -0.027 A 
HETATM    7  C   UNK     0      -8.469  -1.375  -0.873  0.00  0.00     0.115 C 
HETATM    8  C   UNK     0      -7.395  -2.172  -1.593  0.00  0.00     0.021 A 
HETATM    9  N   UNK     0      -6.872  -1.960  -2.810  0.00  0.00    -0.361 N 
HETATM   10  C   UNK     0      -6.016  -2.968  -3.080  0.00  0.00     0.022 A 
HETATM   11  C   UNK     0      -5.980  -3.849  -2.003  0.00  0.00    -0.027 A 
HETATM   12  C   UNK     0      -6.847  -3.353  -1.063  0.00  0.00    -0.031 A 
HETATM   13  C   UNK     0      -7.131  -3.982   0.283  0.00  0.00     0.051 C 
HETATM   14  C   UNK     0      -5.241  -3.170  -4.379  0.00  0.00     0.115 C 
HETATM   15  C   UNK     0      -6.125  -3.345  -5.603  0.00  0.00     0.021 A 
HETATM   16  N   UNK     0      -7.047  -2.487  -6.079  0.00  0.00    -0.361 N 
HETATM   17  C   UNK     0      -7.659  -3.040  -7.130  0.00  0.00     0.022 A 
HETATM   18  C   UNK     0      -7.101  -4.314  -7.354  0.00  0.00    -0.027 A 
HETATM   19  C   UNK     0      -6.141  -4.493  -6.392  0.00  0.00    -0.031 A 
HETATM   20  C   UNK     0      -5.266  -5.729  -6.293  0.00  0.00     0.051 C 
HETATM   21  C   UNK     0      -8.806  -2.524  -7.968  0.00  0.00     0.115 C 
HETATM   22  C   UNK     0      -9.859  -1.693  -7.273  0.00  0.00     0.022 A 
HETATM   23  N   UNK     0     -10.396  -1.878  -6.060  0.00  0.00    -0.361 N 
HETATM   24  C   UNK     0     -11.186  -0.822  -5.781  0.00  0.00     0.021 A 
HETATM   25  C   UNK     0     -11.165   0.061  -6.844  0.00  0.00    -0.031 A 
HETATM   26  C   UNK     0     -11.918   1.363  -7.017  0.00  0.00     0.051 C 
HETATM   27  C   UNK     0     -10.323  -0.475  -7.812  0.00  0.00    -0.027 A 
HETATM   28  C   UNK     0     -11.933  -0.536  -4.490  0.00  0.00     0.115 C 
HETATM   29  H   UNK     0     -10.157  -2.420  -3.086  0.00  0.00     0.165 HD
HETATM   30  H   UNK     0      -7.066  -1.073  -3.461  0.00  0.00     0.165 HD
HETATM   31  H   UNK     0      -7.239  -1.451  -5.696  0.00  0.00     0.165 HD
HETATM   32  H   UNK     0     -10.257  -2.779  -5.407  0.00  0.00     0.165 HD
ENDROOT
BRANCH   6  33
HETATM   33  C   UNK     0      -9.532   1.562  -0.573  0.00  0.00     0.051 C 
BRANCH  33  34
HETATM   34  C   UNK     0      -8.295   2.281  -1.057  0.00  0.00     0.114 C 
BRANCH  34  35
HETATM   35  C   UNK     0      -8.650   3.720  -1.218  0.00  0.00     0.139 C 
HETATM   36  O   UNK     0      -7.844   4.516  -1.783  0.00  0.00    -0.650 OA
BRANCH  35  37
HETATM   37  O   UNK     0      -9.855   4.250  -0.772  0.00  0.00    -0.776 OA
HETATM   38  H   UNK     0     -10.455   4.794  -1.371  0.00  0.00     0.167 HD
ENDBRANCH  35  37
ENDBRANCH  34  35
ENDBRANCH  33  34
ENDBRANCH   6  33
BRANCH  27  39
HETATM   39  C   UNK     0     -10.103   0.162  -9.139  0.00  0.00     0.051 C 
BRANCH  39  40
HETATM   40  C   UNK     0      -8.882   0.940  -9.341  0.00  0.00     0.114 C 
BRANCH  40  41
HETATM   41  C   UNK     0      -8.476   1.412 -10.646  0.00  0.00     0.139 C 
HETATM   42  O   UNK     0      -8.156   0.659 -11.576  0.00  0.00    -0.650 OA
BRANCH  41  43
HETATM   43  O   UNK     0      -8.437   2.813 -10.893  0.00  0.00    -0.776 OA
HETATM   44  H   UNK     0      -9.347   3.254 -10.952  0.00  0.00     0.167 HD
ENDBRANCH  41  43
ENDBRANCH  40  41
ENDBRANCH  39  40
ENDBRANCH  27  39
BRANCH  11  45
HETATM   45  C   UNK     0      -5.171  -5.108  -1.842  0.00  0.00     0.051 C 
BRANCH  45  46
HETATM   46  C   UNK     0      -3.856  -4.903  -1.182  0.00  0.00     0.114 C 
BRANCH  46  47
HETATM   47  C   UNK     0      -3.185  -6.233  -1.113  0.00  0.00     0.139 C 
HETATM   48  O   UNK     0      -2.770  -6.742  -2.164  0.00  0.00    -0.650 OA
BRANCH  47  49
HETATM   49  O   UNK     0      -3.030  -6.881   0.086  0.00  0.00    -0.776 OA
HETATM   50  H   UNK     0      -3.811  -7.356   0.554  0.00  0.00     0.167 HD
ENDBRANCH  47  49
ENDBRANCH  46  47
ENDBRANCH  45  46
ENDBRANCH  11  45
BRANCH  18  51
HETATM   51  C   UNK     0      -7.450  -5.299  -8.440  0.00  0.00     0.051 C 
BRANCH  51  52
HETATM   52  C   UNK     0      -6.726  -4.828  -9.692  0.00  0.00     0.114 C 
BRANCH  52  53
HETATM   53  C   UNK     0      -7.618  -4.808 -10.868  0.00  0.00     0.139 C 
HETATM   54  O   UNK     0      -8.833  -4.604 -10.722  0.00  0.00    -0.650 OA
BRANCH  53  55
HETATM   55  O   UNK     0      -7.095  -5.019 -12.120  0.00  0.00    -0.776 OA
HETATM   56  H   UNK     0      -6.141  -4.927 -12.378  0.00  0.00     0.167 HD
ENDBRANCH  53  55
ENDBRANCH  52  53
ENDBRANCH  51  52
ENDBRANCH  18  51
TORSDOF 16
ENDMDL
MODEL 12
REMARK VINA RESULT:      -7.9     34.538     38.438
REMARK  16 active torsions:
REMARK  status: ('A' for Active; 'I' for Inactive)
REMARK    1  A    between atoms: C_6  and  C_7 
REMARK    2  A    between atoms: C_7  and  C_8 
REMARK    3  A    between atoms: C_8  and  C_9 
REMARK    4  A    between atoms: C_9  and  O_11 
REMARK    5  A    between atoms: C_16  and  C_17 
REMARK    6  A    between atoms: C_17  and  C_18 
REMARK    7  A    between atoms: C_18  and  C_19 
REMARK    8  A    between atoms: C_19  and  O_21 
REMARK    9  A    between atoms: C_28  and  C_29 
REMARK   10  A    between atoms: C_29  and  C_30 
REMARK   11  A    between atoms: C_30  and  C_31 
REMARK   12  A    between atoms: C_31  and  O_33 
REMARK   13  A    between atoms: C_42  and  C_43 
REMARK   14  A    between atoms: C_43  and  C_44 
REMARK   15  A    between atoms: C_44  and  C_45 
REMARK   16  A    between atoms: C_45  and  O_47 
ROOT
HETATM    1  C   UNK     0      10.315   3.964   9.554  0.00  0.00     0.051 C 
HETATM    2  C   UNK     0      10.660   3.710   8.100  0.00  0.00    -0.031 A 
HETATM    3  C   UNK     0      10.439   2.580   7.328  0.00  0.00     0.021 A 
HETATM    4  N   UNK     0      10.941   2.788   6.088  0.00  0.00    -0.361 N 
HETATM    5  C   UNK     0      11.470   4.028   6.050  0.00  0.00     0.022 A 
HETATM    6  C   UNK     0      11.313   4.632   7.294  0.00  0.00    -0.027 A 
HETATM    7  C   UNK     0      12.063   4.776   4.897  0.00  0.00     0.115 C 
HETATM    8  C   UNK     0      11.333   4.672   3.570  0.00  0.00     0.021 A 
HETATM    9  N   UNK     0      10.012   4.598   3.346  0.00  0.00    -0.361 N 
HETATM   10  C   UNK     0       9.820   4.424   2.021  0.00  0.00     0.022 A 
HETATM   11  C   UNK     0      11.051   4.396   1.372  0.00  0.00    -0.027 A 
HETATM   12  C   UNK     0      12.009   4.551   2.342  0.00  0.00    -0.031 A 
HETATM   13  C   UNK     0      13.501   4.588   2.100  0.00  0.00     0.051 C 
HETATM   14  C   UNK     0       8.478   4.226   1.322  0.00  0.00     0.115 C 
HETATM   15  C   UNK     0       7.721   2.991   1.782  0.00  0.00     0.021 A 
HETATM   16  N   UNK     0       7.315   2.694   3.031  0.00  0.00    -0.361 N 
HETATM   17  C   UNK     0       6.746   1.486   3.032  0.00  0.00     0.022 A 
HETATM   18  C   UNK     0       6.774   0.976   1.719  0.00  0.00    -0.027 A 
HETATM   19  C   UNK     0       7.386   1.928   0.946  0.00  0.00    -0.031 A 
HETATM   20  C   UNK     0       7.590   1.795  -0.552  0.00  0.00     0.051 C 
HETATM   21  C   UNK     0       6.197   0.672   4.181  0.00  0.00     0.115 C 
HETATM   22  C   UNK     0       6.887   0.799   5.519  0.00  0.00     0.022 A 
HETATM   23  N   UNK     0       8.200   0.879   5.772  0.00  0.00    -0.361 N 
HETATM   24  C   UNK     0       8.364   1.130   7.086  0.00  0.00     0.021 A 
HETATM   25  C   UNK     0       7.127   1.202   7.697  0.00  0.00    -0.031 A 
HETATM   26  C   UNK     0       6.797   1.423   9.159  0.00  0.00     0.051 C 
HETATM   27  C   UNK     0       6.166   0.993   6.715  0.00  0.00    -0.027 A 
HETATM   28  C   UNK     0       9.664   1.393   7.827  0.00  0.00     0.115 C 
HETATM   29  H   UNK     0      10.955   2.042   5.260  0.00  0.00     0.165 HD
HETATM   30  H   UNK     0       9.209   4.717   4.114  0.00  0.00     0.165 HD
HETATM   31  H   UNK     0       7.388   3.370   3.922  0.00  0.00     0.165 HD
HETATM   32  H   UNK     0       9.026   0.717   5.031  0.00  0.00     0.165 HD
ENDROOT
BRANCH   6  33
HETATM   33  C   UNK     0      11.734   6.000   7.768  0.00  0.00     0.051 C 
BRANCH  33  34
HETATM   34  C   UNK     0      10.609   6.993   7.603  0.00  0.00     0.114 C 
BRANCH  34  35
HETATM   35  C   UNK     0      10.653   7.916   8.773  0.00  0.00     0.139 C 
HETATM   36  O   UNK     0       9.764   8.806   8.917  0.00  0.00    -0.650 OA
BRANCH  35  37
HETATM   37  O   UNK     0      11.644   7.848   9.745  0.00  0.00    -0.776 OA
HETATM   38  H   UNK     0      12.585   8.162   9.571  0.00  0.00     0.167 HD
ENDBRANCH  35  37
ENDBRANCH  34  35
ENDBRANCH  33  34
ENDBRANCH   6  33
BRANCH  27  39
HETATM   39  C   UNK     0       4.708   0.929   7.007  0.00  0.00     0.051 C 
BRANCH  39  40
HETATM   40  C   UNK     0       3.917   2.150   6.865  0.00  0.00     0.114 C 
BRANCH  40  41
HETATM   41  C   UNK     0       4.524   3.462   6.831  0.00  0.00     0.139 C 
HETATM   42  O   UNK     0       4.673   4.172   7.835  0.00  0.00    -0.650 OA
BRANCH  41  43
HETATM   43  O   UNK     0       4.979   3.981   5.586  0.00  0.00    -0.776 OA
HETATM   44  H   UNK     0       5.916   4.364   5.610  0.00  0.00     0.167 HD
ENDBRANCH  41  43
ENDBRANCH  40  41
ENDBRANCH  39  40
ENDBRANCH  27  39
BRANCH  11  45
HETATM   45  C   UNK     0      11.339   4.233  -0.096  0.00  0.00     0.051 C 
BRANCH  45  46
HETATM   46  C   UNK     0      11.214   5.488  -0.881  0.00  0.00     0.114 C 
BRANCH  46  47
HETATM   47  C   UNK     0      10.529   5.142  -2.159  0.00  0.00     0.139 C 
HETATM   48  O   UNK     0      11.129   5.339  -3.225  0.00  0.00    -0.650 OA
BRANCH  47  49
HETATM   49  O   UNK     0       9.260   4.619  -2.158  0.00  0.00    -0.776 OA
HETATM   50  H   UNK     0       8.590   4.812  -2.911  0.00  0.00     0.167 HD
ENDBRANCH  47  49
ENDBRANCH  46  47
ENDBRANCH  45  46
ENDBRANCH  11  45
BRANCH  18  51
HETATM   51  C   UNK     0       6.229  -0.339   1.225  0.00  0.00     0.051 C 
BRANCH  51  52
HETATM   52  C   UNK     0       7.415  -1.287   1.139  0.00  0.00     0.114 C 
BRANCH  52  53
HETATM   53  C   UNK     0       7.561  -2.098   2.363  0.00  0.00     0.139 C 
HETATM   54  O   UNK     0       6.753  -3.009   2.605  0.00  0.00    -0.650 OA
BRANCH  53  55
HETATM   55  O   UNK     0       8.592  -1.836   3.233  0.00  0.00    -0.776 OA
HETATM   56  H   UNK     0       8.705  -1.010   3.772  0.00  0.00     0.167 HD
ENDBRANCH  53  55
ENDBRANCH  52  53
ENDBRANCH  51  52
ENDBRANCH  18  51
TORSDOF 16
ENDMDL
MODEL 13
REMARK VINA RESULT:      -7.9      3.558      7.499
REMARK  16 active torsions:
REMARK  status: ('A' for Active; 'I' for Inactive)
REMARK    1  A    between atoms: C_6  and  C_7 
REMARK    2  A    between atoms: C_7  and  C_8 
REMARK    3  A    between atoms: C_8  and  C_9 
REMARK    4  A    between atoms: C_9  and  O_11 
REMARK    5  A    between atoms: C_16  and  C_17 
REMARK    6  A    between atoms: C_17  and  C_18 
REMARK    7  A    between atoms: C_18  and  C_19 
REMARK    8  A    between atoms: C_19  and  O_21 
REMARK    9  A    between atoms: C_28  and  C_29 
REMARK   10  A    between atoms: C_29  and  C_30 
REMARK   11  A    between atoms: C_30  and  C_31 
REMARK   12  A    between atoms: C_31  and  O_33 
REMARK   13  A    between atoms: C_42  and  C_43 
REMARK   14  A    between atoms: C_43  and  C_44 
REMARK   15  A    between atoms: C_44  and  C_45 
REMARK   16  A    between atoms: C_45  and  O_47 
ROOT
HETATM    1  C   UNK     0     -23.308  -4.440  15.351  0.00  0.00     0.051 C 
HETATM    2  C   UNK     0     -23.701  -4.744  13.919  0.00  0.00    -0.031 A 
HETATM    3  C   UNK     0     -24.954  -4.728  13.328  0.00  0.00     0.021 A 
HETATM    4  N   UNK     0     -24.835  -5.098  12.031  0.00  0.00    -0.361 N 
HETATM    5  C   UNK     0     -23.532  -5.340  11.780  0.00  0.00     0.022 A 
HETATM    6  C   UNK     0     -22.794  -5.131  12.940  0.00  0.00    -0.027 A 
HETATM    7  C   UNK     0     -22.859  -5.686  10.488  0.00  0.00     0.115 C 
HETATM    8  C   UNK     0     -23.310  -4.917   9.258  0.00  0.00     0.021 A 
HETATM    9  N   UNK     0     -23.689  -3.633   9.167  0.00  0.00    -0.361 N 
HETATM   10  C   UNK     0     -24.094  -3.404   7.900  0.00  0.00     0.022 A 
HETATM   11  C   UNK     0     -23.964  -4.571   7.152  0.00  0.00    -0.027 A 
HETATM   12  C   UNK     0     -23.470  -5.528   8.002  0.00  0.00    -0.031 A 
HETATM   13  C   UNK     0     -23.163  -6.959   7.622  0.00  0.00     0.051 C 
HETATM   14  C   UNK     0     -24.668  -2.098   7.359  0.00  0.00     0.115 C 
HETATM   15  C   UNK     0     -25.950  -1.657   8.047  0.00  0.00     0.021 A 
HETATM   16  N   UNK     0     -26.134  -1.402   9.356  0.00  0.00    -0.361 N 
HETATM   17  C   UNK     0     -27.419  -1.111   9.570  0.00  0.00     0.022 A 
HETATM   18  C   UNK     0     -28.104  -1.170   8.340  0.00  0.00    -0.027 A 
HETATM   19  C   UNK     0     -27.172  -1.512   7.394  0.00  0.00    -0.031 A 
HETATM   20  C   UNK     0     -27.483  -1.650   5.915  0.00  0.00     0.051 C 
HETATM   21  C   UNK     0     -28.148  -0.823  10.863  0.00  0.00     0.115 C 
HETATM   22  C   UNK     0     -27.682  -1.547  12.103  0.00  0.00     0.022 A 
HETATM   23  N   UNK     0     -27.295  -2.824  12.222  0.00  0.00    -0.361 N 
HETATM   24  C   UNK     0     -26.822  -3.008  13.471  0.00  0.00     0.021 A 
HETATM   25  C   UNK     0     -26.916  -1.824  14.177  0.00  0.00    -0.031 A 
HETATM   26  C   UNK     0     -26.552  -1.543  15.620  0.00  0.00     0.051 C 
HETATM   27  C   UNK     0     -27.464  -0.874  13.322  0.00  0.00    -0.027 A 
HETATM   28  C   UNK     0     -26.187  -4.261  14.049  0.00  0.00     0.115 C 
HETATM   29  H   UNK     0     -25.677  -5.223  11.312  0.00  0.00     0.165 HD
HETATM   30  H   UNK     0     -23.624  -2.872   9.983  0.00  0.00     0.165 HD
HETATM   31  H   UNK     0     -25.332  -1.379  10.139  0.00  0.00     0.165 HD
HETATM   32  H   UNK     0     -27.392  -3.619  11.438  0.00  0.00     0.165 HD
ENDROOT
BRANCH   6  33
HETATM   33  C   UNK     0     -21.313  -5.272  13.187  0.00  0.00     0.051 C 
BRANCH  33  34
HETATM   34  C   UNK     0     -20.927  -6.727  13.307  0.00  0.00     0.114 C 
BRANCH  34  35
HETATM   35  C   UNK     0     -19.451  -6.814  13.114  0.00  0.00     0.139 C 
HETATM   36  O   UNK     0     -18.963  -7.653  12.302  0.00  0.00    -0.650 OA
BRANCH  35  37
HETATM   37  O   UNK     0     -18.557  -5.998  13.796  0.00  0.00    -0.776 OA
HETATM   38  H   UNK     0     -17.621  -5.832  13.460  0.00  0.00     0.167 HD
ENDBRANCH  35  37
ENDBRANCH  34  35
ENDBRANCH  33  34
ENDBRANCH   6  33
BRANCH  27  39
HETATM   39  C   UNK     0     -27.784   0.514  13.752  0.00  0.00     0.051 C 
BRANCH  39  40
HETATM   40  C   UNK     0     -29.191   0.890  13.890  0.00  0.00     0.114 C 
BRANCH  40  41
HETATM   41  C   UNK     0     -29.954   1.438  12.791  0.00  0.00     0.139 C 
HETATM   42  O   UNK     0     -31.095   1.059  12.496  0.00  0.00    -0.650 OA
BRANCH  41  43
HETATM   43  O   UNK     0     -29.377   2.468  11.995  0.00  0.00    -0.776 OA
HETATM   44  H   UNK     0     -29.122   3.302  12.510  0.00  0.00     0.167 HD
ENDBRANCH  41  43
ENDBRANCH  40  41
ENDBRANCH  39  40
ENDBRANCH  27  39
BRANCH  11  45
HETATM   45  C   UNK     0     -24.282  -4.798   5.699  0.00  0.00     0.051 C 
BRANCH  45  46
HETATM   46  C   UNK     0     -25.677  -5.243   5.446  0.00  0.00     0.114 C 
BRANCH  46  47
HETATM   47  C   UNK     0     -26.097  -4.658   4.141  0.00  0.00     0.139 C 
HETATM   48  O   UNK     0     -25.392  -3.774   3.633  0.00  0.00    -0.650 OA
BRANCH  47  49
HETATM   49  O   UNK     0     -27.241  -5.085   3.514  0.00  0.00    -0.776 OA
HETATM   50  H   UNK     0     -27.825  -4.453   2.955  0.00  0.00     0.167 HD
ENDBRANCH  47  49
ENDBRANCH  46  47
ENDBRANCH  45  46
ENDBRANCH  11  45
BRANCH  18  51
HETATM   51  C   UNK     0     -29.562  -0.895   8.077  0.00  0.00     0.051 C 
BRANCH  51  52
HETATM   52  C   UNK     0     -29.686   0.611   7.897  0.00  0.00     0.114 C 
BRANCH  52  53
HETATM   53  C   UNK     0     -30.558   1.216   8.922  0.00  0.00     0.139 C 
HETATM   54  O   UNK     0     -30.471   2.429   9.173  0.00  0.00    -0.650 OA
BRANCH  53  55
HETATM   55  O   UNK     0     -31.461   0.431   9.596  0.00  0.00    -0.776 OA
HETATM   56  H   UNK     0     -32.131   0.748  10.257  0.00  0.00     0.167 HD
ENDBRANCH  53  55
ENDBRANCH  52  53
ENDBRANCH  51  52
ENDBRANCH  18  51
TORSDOF 16
ENDMDL
MODEL 14
REMARK VINA RESULT:      -7.9      2.536      7.459
REMARK  16 active torsions:
REMARK  status: ('A' for Active; 'I' for Inactive)
REMARK    1  A    between atoms: C_6  and  C_7 
REMARK    2  A    between atoms: C_7  and  C_8 
REMARK    3  A    between atoms: C_8  and  C_9 
REMARK    4  A    between atoms: C_9  and  O_11 
REMARK    5  A    between atoms: C_16  and  C_17 
REMARK    6  A    between atoms: C_17  and  C_18 
REMARK    7  A    between atoms: C_18  and  C_19 
REMARK    8  A    between atoms: C_19  and  O_21 
REMARK    9  A    between atoms: C_28  and  C_29 
REMARK   10  A    between atoms: C_29  and  C_30 
REMARK   11  A    between atoms: C_30  and  C_31 
REMARK   12  A    between atoms: C_31  and  O_33 
REMARK   13  A    between atoms: C_42  and  C_43 
REMARK   14  A    between atoms: C_43  and  C_44 
REMARK   15  A    between atoms: C_44  and  C_45 
REMARK   16  A    between atoms: C_45  and  O_47 
ROOT
HETATM    1  C   UNK     0     -24.862  -7.308  12.204  0.00  0.00     0.051 C 
HETATM    2  C   UNK     0     -25.191  -6.606  10.902  0.00  0.00    -0.031 A 
HETATM    3  C   UNK     0     -26.416  -6.166  10.425  0.00  0.00     0.021 A 
HETATM    4  N   UNK     0     -26.241  -5.621   9.197  0.00  0.00    -0.361 N 
HETATM    5  C   UNK     0     -24.931  -5.697   8.886  0.00  0.00     0.022 A 
HETATM    6  C   UNK     0     -24.246  -6.310   9.929  0.00  0.00    -0.027 A 
HETATM    7  C   UNK     0     -24.204  -5.158   7.694  0.00  0.00     0.115 C 
HETATM    8  C   UNK     0     -24.588  -3.762   7.234  0.00  0.00     0.021 A 
HETATM    9  N   UNK     0     -24.947  -2.706   7.979  0.00  0.00    -0.361 N 
HETATM   10  C   UNK     0     -25.291  -1.702   7.145  0.00  0.00     0.022 A 
HETATM   11  C   UNK     0     -25.140  -2.120   5.826  0.00  0.00    -0.027 A 
HETATM   12  C   UNK     0     -24.697  -3.417   5.875  0.00  0.00    -0.031 A 
HETATM   13  C   UNK     0     -24.390  -4.282   4.673  0.00  0.00     0.051 C 
HETATM   14  C   UNK     0     -25.823  -0.332   7.555  0.00  0.00     0.115 C 
HETATM   15  C   UNK     0     -27.131  -0.386   8.330  0.00  0.00     0.021 A 
HETATM   16  N   UNK     0     -27.372  -1.024   9.491  0.00  0.00    -0.361 N 
HETATM   17  C   UNK     0     -28.662  -0.888   9.806  0.00  0.00     0.022 A 
HETATM   18  C   UNK     0     -29.289  -0.117   8.807  0.00  0.00    -0.027 A 
HETATM   19  C   UNK     0     -28.319   0.192   7.889  0.00  0.00    -0.031 A 
HETATM   20  C   UNK     0     -28.563   1.048   6.659  0.00  0.00     0.051 C 
HETATM   21  C   UNK     0     -29.446  -1.469  10.960  0.00  0.00     0.115 C 
HETATM   22  C   UNK     0     -29.046  -2.838  11.456  0.00  0.00     0.022 A 
HETATM   23  N   UNK     0     -28.680  -3.908  10.737  0.00  0.00    -0.361 N 
HETATM   24  C   UNK     0     -28.268  -4.869  11.588  0.00  0.00     0.021 A 
HETATM   25  C   UNK     0     -28.381  -4.411  12.887  0.00  0.00    -0.031 A 
HETATM   26  C   UNK     0     -28.080  -5.136  14.183  0.00  0.00     0.051 C 
HETATM   27  C   UNK     0     -28.877  -3.114  12.828  0.00  0.00    -0.027 A 
HETATM   28  C   UNK     0     -27.675  -6.224  11.243  0.00  0.00     0.115 C 
HETATM   29  H   UNK     0     -27.051  -5.223   8.543  0.00  0.00     0.165 HD
HETATM   30  H   UNK     0     -24.911  -2.649   9.095  0.00  0.00     0.165 HD
HETATM   31  H   UNK     0     -26.606  -1.540  10.126  0.00  0.00     0.165 HD
HETATM   32  H   UNK     0     -28.751  -4.009   9.623  0.00  0.00     0.165 HD
ENDROOT
BRANCH   6  33
HETATM   33  C   UNK     0     -22.780  -6.634  10.069  0.00  0.00     0.051 C 
BRANCH  33  34
HETATM   34  C   UNK     0     -22.020  -5.450  10.619  0.00  0.00     0.114 C 
BRANCH  34  35
HETATM   35  C   UNK     0     -21.336  -5.898  11.866  0.00  0.00     0.139 C 
HETATM   36  O   UNK     0     -21.885  -5.724  12.992  0.00  0.00    -0.650 OA
BRANCH  35  37
HETATM   37  O   UNK     0     -20.092  -6.518  11.856  0.00  0.00    -0.776 OA
HETATM   38  H   UNK     0     -19.497  -6.535  12.669  0.00  0.00     0.167 HD
ENDBRANCH  35  37
ENDBRANCH  34  35
ENDBRANCH  33  34
ENDBRANCH   6  33
BRANCH  27  39
HETATM   39  C   UNK     0     -29.201  -2.314  14.041  0.00  0.00     0.051 C 
BRANCH  39  40
HETATM   40  C   UNK     0     -28.239  -1.305  14.484  0.00  0.00     0.114 C 
BRANCH  40  41
HETATM   41  C   UNK     0     -26.835  -1.601  14.655  0.00  0.00     0.139 C 
HETATM   42  O   UNK     0     -25.956  -1.231  13.865  0.00  0.00    -0.650 OA
BRANCH  41  43
HETATM   43  O   UNK     0     -26.421  -2.359  15.788  0.00  0.00    -0.776 OA
HETATM   44  H   UNK     0     -25.664  -1.943  16.316  0.00  0.00     0.167 HD
ENDBRANCH  41  43
ENDBRANCH  40  41
ENDBRANCH  39  40
ENDBRANCH  27  39
BRANCH  11  45
HETATM   45  C   UNK     0     -25.393  -1.349   4.559  0.00  0.00     0.051 C 
BRANCH  45  46
HETATM   46  C   UNK     0     -26.810  -1.361   4.115  0.00  0.00     0.114 C 
BRANCH  46  47
HETATM   47  C   UNK     0     -26.980  -0.238   3.148  0.00  0.00     0.139 C 
HETATM   48  O   UNK     0     -27.241  -0.508   1.968  0.00  0.00    -0.650 OA
BRANCH  47  49
HETATM   49  O   UNK     0     -26.848   1.065   3.555  0.00  0.00    -0.776 OA
HETATM   50  H   UNK     0     -26.473   1.794   2.937  0.00  0.00     0.167 HD
ENDBRANCH  47  49
ENDBRANCH  46  47
ENDBRANCH  45  46
ENDBRANCH  11  45
BRANCH  18  51
HETATM   51  C   UNK     0     -30.730   0.319   8.742  0.00  0.00     0.051 C 
BRANCH  51  52
HETATM   52  C   UNK     0     -30.900   1.388   9.811  0.00  0.00     0.114 C 
BRANCH  52  53
HETATM   53  C   UNK     0     -30.816   2.748   9.246  0.00  0.00     0.139 C 
HETATM   54  O   UNK     0     -31.838   3.308   8.817  0.00  0.00    -0.650 OA
BRANCH  53  55
HETATM   55  O   UNK     0     -29.602   3.389   9.194  0.00  0.00    -0.776 OA
HETATM   56  H   UNK     0     -29.457   4.351   8.996  0.00  0.00     0.167 HD
ENDBRANCH  53  55
ENDBRANCH  52  53
ENDBRANCH  51  52
ENDBRANCH  18  51
TORSDOF 16
ENDMDL
MODEL 15
REMARK VINA RESULT:      -7.8      2.840      9.666
REMARK  16 active torsions:
REMARK  status: ('A' for Active; 'I' for Inactive)
REMARK    1  A    between atoms: C_6  and  C_7 
REMARK    2  A    between atoms: C_7  and  C_8 
REMARK    3  A    between atoms: C_8  and  C_9 
REMARK    4  A    between atoms: C_9  and  O_11 
REMARK    5  A    between atoms: C_16  and  C_17 
REMARK    6  A    between atoms: C_17  and  C_18 
REMARK    7  A    between atoms: C_18  and  C_19 
REMARK    8  A    between atoms: C_19  and  O_21 
REMARK    9  A    between atoms: C_28  and  C_29 
REMARK   10  A    between atoms: C_29  and  C_30 
REMARK   11  A    between atoms: C_30  and  C_31 
REMARK   12  A    between atoms: C_31  and  O_33 
REMARK   13  A    between atoms: C_42  and  C_43 
REMARK   14  A    between atoms: C_43  and  C_44 
REMARK   15  A    between atoms: C_44  and  C_45 
REMARK   16  A    between atoms: C_45  and  O_47 
ROOT
HETATM    1  C   UNK     0     -32.154   1.384  11.852  0.00  0.00     0.051 C 
HETATM    2  C   UNK     0     -30.816   0.947  11.291  0.00  0.00    -0.031 A 
HETATM    3  C   UNK     0     -29.727   0.392  11.944  0.00  0.00     0.021 A 
HETATM    4  N   UNK     0     -28.733   0.188  11.048  0.00  0.00    -0.361 N 
HETATM    5  C   UNK     0     -29.167   0.591   9.837  0.00  0.00     0.022 A 
HETATM    6  C   UNK     0     -30.466   1.075   9.953  0.00  0.00    -0.027 A 
HETATM    7  C   UNK     0     -28.495   0.495   8.503  0.00  0.00     0.115 C 
HETATM    8  C   UNK     0     -27.776  -0.807   8.195  0.00  0.00     0.021 A 
HETATM    9  N   UNK     0     -28.119  -2.055   8.547  0.00  0.00    -0.361 N 
HETATM   10  C   UNK     0     -27.141  -2.891   8.138  0.00  0.00     0.022 A 
HETATM   11  C   UNK     0     -26.145  -2.161   7.495  0.00  0.00    -0.027 A 
HETATM   12  C   UNK     0     -26.539  -0.848   7.527  0.00  0.00    -0.031 A 
HETATM   13  C   UNK     0     -25.765   0.311   6.940  0.00  0.00     0.051 C 
HETATM   14  C   UNK     0     -27.081  -4.396   8.381  0.00  0.00     0.115 C 
HETATM   15  C   UNK     0     -27.050  -4.781   9.852  0.00  0.00     0.021 A 
HETATM   16  N   UNK     0     -27.962  -4.486  10.797  0.00  0.00    -0.361 N 
HETATM   17  C   UNK     0     -27.535  -4.944  11.976  0.00  0.00     0.022 A 
HETATM   18  C   UNK     0     -26.290  -5.576  11.788  0.00  0.00    -0.027 A 
HETATM   19  C   UNK     0     -25.998  -5.468  10.453  0.00  0.00    -0.031 A 
HETATM   20  C   UNK     0     -24.752  -6.052   9.812  0.00  0.00     0.051 C 
HETATM   21  C   UNK     0     -28.150  -4.810  13.351  0.00  0.00     0.115 C 
HETATM   22  C   UNK     0     -28.906  -3.538  13.656  0.00  0.00     0.022 A 
HETATM   23  N   UNK     0     -28.590  -2.283  13.314  0.00  0.00    -0.361 N 
HETATM   24  C   UNK     0     -29.614  -1.478  13.663  0.00  0.00     0.021 A 
HETATM   25  C   UNK     0     -30.610  -2.233  14.253  0.00  0.00    -0.031 A 
HETATM   26  C   UNK     0     -31.929  -1.778  14.842  0.00  0.00     0.051 C 
HETATM   27  C   UNK     0     -30.179  -3.555  14.260  0.00  0.00    -0.027 A 
HETATM   28  C   UNK     0     -29.759   0.010  13.397  0.00  0.00     0.115 C 
HETATM   29  H   UNK     0     -27.716  -0.204  11.285  0.00  0.00     0.165 HD
HETATM   30  H   UNK     0     -29.075  -2.357   9.042  0.00  0.00     0.165 HD
HETATM   31  H   UNK     0     -28.950  -3.987  10.621  0.00  0.00     0.165 HD
HETATM   32  H   UNK     0     -27.621  -1.946  12.862  0.00  0.00     0.165 HD
ENDROOT
BRANCH   6  33
HETATM   33  C   UNK     0     -31.387   1.643   8.903  0.00  0.00     0.051 C 
BRANCH  33  34
HETATM   34  C   UNK     0     -31.554   3.133   9.088  0.00  0.00     0.114 C 
BRANCH  34  35
HETATM   35  C   UNK     0     -32.951   3.478   8.698  0.00  0.00     0.139 C 
HETATM   36  O   UNK     0     -33.909   3.246   9.492  0.00  0.00    -0.650 OA
BRANCH  35  37
HETATM   37  O   UNK     0     -33.267   4.059   7.476  0.00  0.00    -0.776 OA
HETATM   38  H   UNK     0     -33.752   3.553   6.753  0.00  0.00     0.167 HD
ENDBRANCH  35  37
ENDBRANCH  34  35
ENDBRANCH  33  34
ENDBRANCH   6  33
BRANCH  27  39
HETATM   39  C   UNK     0     -30.959  -4.658  14.884  0.00  0.00     0.051 C 
BRANCH  39  40
HETATM   40  C   UNK     0     -32.349  -4.847  14.468  0.00  0.00     0.114 C 
BRANCH  40  41
HETATM   41  C   UNK     0     -32.705  -5.203  13.113  0.00  0.00     0.139 C 
HETATM   42  O   UNK     0     -32.309  -4.583  12.116  0.00  0.00    -0.650 OA
BRANCH  41  43
HETATM   43  O   UNK     0     -33.557  -6.323  12.894  0.00  0.00    -0.776 OA
HETATM   44  H   UNK     0     -34.479  -6.087  12.548  0.00  0.00     0.167 HD
ENDBRANCH  41  43
ENDBRANCH  40  41
ENDBRANCH  39  40
ENDBRANCH  27  39
BRANCH  11  45
HETATM   45  C   UNK     0     -24.870  -2.658   6.868  0.00  0.00     0.051 C 
BRANCH  45  46
HETATM   46  C   UNK     0     -24.974  -2.918   5.409  0.00  0.00     0.114 C 
BRANCH  46  47
HETATM   47  C   UNK     0     -24.736  -4.375   5.202  0.00  0.00     0.139 C 
HETATM   48  O   UNK     0     -23.573  -4.768   5.035  0.00  0.00    -0.650 OA
BRANCH  47  49
HETATM   49  O   UNK     0     -25.782  -5.263   5.195  0.00  0.00    -0.776 OA
HETATM   50  H   UNK     0     -25.783  -6.098   4.597  0.00  0.00     0.167 HD
ENDBRANCH  47  49
ENDBRANCH  46  47
ENDBRANCH  45  46
ENDBRANCH  11  45
BRANCH  18  51
HETATM   51  C   UNK     0     -25.435  -6.264  12.821  0.00  0.00     0.051 C 
BRANCH  51  52
HETATM   52  C   UNK     0     -24.544  -5.187  13.422  0.00  0.00     0.114 C 
BRANCH  52  53
HETATM   53  C   UNK     0     -23.119  -5.569  13.384  0.00  0.00     0.139 C 
HETATM   54  O   UNK     0     -22.741  -6.615  13.936  0.00  0.00    -0.650 OA
BRANCH  53  55
HETATM   55  O   UNK     0     -22.215  -4.760  12.740  0.00  0.00    -0.776 OA
HETATM   56  H   UNK     0     -22.398  -4.202  11.939  0.00  0.00     0.167 HD
ENDBRANCH  53  55
ENDBRANCH  52  53
ENDBRANCH  51  52
ENDBRANCH  18  51
TORSDOF 16
ENDMDL
MODEL 16
REMARK VINA RESULT:      -7.8      2.676      7.414
REMARK  16 active torsions:
REMARK  status: ('A' for Active; 'I' for Inactive)
REMARK    1  A    between atoms: C_6  and  C_7 
REMARK    2  A    between atoms: C_7  and  C_8 
REMARK    3  A    between atoms: C_8  and  C_9 
REMARK    4  A    between atoms: C_9  and  O_11 
REMARK    5  A    between atoms: C_16  and  C_17 
REMARK    6  A    between atoms: C_17  and  C_18 
REMARK    7  A    between atoms: C_18  and  C_19 
REMARK    8  A    between atoms: C_19  and  O_21 
REMARK    9  A    between atoms: C_28  and  C_29 
REMARK   10  A    between atoms: C_29  and  C_30 
REMARK   11  A    between atoms: C_30  and  C_31 
REMARK   12  A    between atoms: C_31  and  O_33 
REMARK   13  A    between atoms: C_42  and  C_43 
REMARK   14  A    between atoms: C_43  and  C_44 
REMARK   15  A    between atoms: C_44  and  C_45 
REMARK   16  A    between atoms: C_45  and  O_47 
ROOT
HETATM    1  C   UNK     0     -24.729  -4.610   6.706  0.00  0.00     0.051 C 
HETATM    2  C   UNK     0     -25.901  -3.867   7.314  0.00  0.00    -0.031 A 
HETATM    3  C   UNK     0     -26.934  -4.347   8.103  0.00  0.00     0.021 A 
HETATM    4  N   UNK     0     -27.777  -3.328   8.394  0.00  0.00    -0.361 N 
HETATM    5  C   UNK     0     -27.300  -2.208   7.814  0.00  0.00     0.022 A 
HETATM    6  C   UNK     0     -26.128  -2.509   7.128  0.00  0.00    -0.027 A 
HETATM    7  C   UNK     0     -27.803  -0.801   7.905  0.00  0.00     0.115 C 
HETATM    8  C   UNK     0     -28.240  -0.320   9.277  0.00  0.00     0.021 A 
HETATM    9  N   UNK     0     -27.715  -0.622  10.475  0.00  0.00    -0.361 N 
HETATM   10  C   UNK     0     -28.479  -0.043  11.425  0.00  0.00     0.022 A 
HETATM   11  C   UNK     0     -29.519   0.659  10.823  0.00  0.00    -0.027 A 
HETATM   12  C   UNK     0     -29.374   0.489   9.470  0.00  0.00    -0.031 A 
HETATM   13  C   UNK     0     -30.279   1.080   8.412  0.00  0.00     0.051 C 
HETATM   14  C   UNK     0     -28.292  -0.171  12.935  0.00  0.00     0.115 C 
HETATM   15  C   UNK     0     -28.404  -1.597  13.450  0.00  0.00     0.021 A 
HETATM   16  N   UNK     0     -27.663  -2.662  13.089  0.00  0.00    -0.361 N 
HETATM   17  C   UNK     0     -28.119  -3.747  13.717  0.00  0.00     0.022 A 
HETATM   18  C   UNK     0     -29.204  -3.371  14.534  0.00  0.00    -0.027 A 
HETATM   19  C   UNK     0     -29.372  -2.022  14.358  0.00  0.00    -0.031 A 
HETATM   20  C   UNK     0     -30.419  -1.199  15.087  0.00  0.00     0.051 C 
HETATM   21  C   UNK     0     -27.684  -5.191  13.604  0.00  0.00     0.115 C 
HETATM   22  C   UNK     0     -27.205  -5.671  12.254  0.00  0.00     0.022 A 
HETATM   23  N   UNK     0     -27.706  -5.383  11.045  0.00  0.00    -0.361 N 
HETATM   24  C   UNK     0     -26.884  -5.905  10.112  0.00  0.00     0.021 A 
HETATM   25  C   UNK     0     -25.836  -6.554  10.735  0.00  0.00    -0.031 A 
HETATM   26  C   UNK     0     -24.688  -7.324  10.115  0.00  0.00     0.051 C 
HETATM   27  C   UNK     0     -26.019  -6.418  12.106  0.00  0.00    -0.027 A 
HETATM   28  C   UNK     0     -26.983  -5.763   8.603  0.00  0.00     0.115 C 
HETATM   29  H   UNK     0     -28.725  -3.417   8.973  0.00  0.00     0.165 HD
HETATM   30  H   UNK     0     -26.777  -1.203  10.651  0.00  0.00     0.165 HD
HETATM   31  H   UNK     0     -26.768  -2.639  12.414  0.00  0.00     0.165 HD
HETATM   32  H   UNK     0     -28.667  -4.845  10.840  0.00  0.00     0.165 HD
ENDROOT
BRANCH   6  33
HETATM   33  C   UNK     0     -25.222  -1.617   6.318  0.00  0.00     0.051 C 
BRANCH  33  34
HETATM   34  C   UNK     0     -25.734  -1.476   4.904  0.00  0.00     0.114 C 
BRANCH  34  35
HETATM   35  C   UNK     0     -25.922  -0.020   4.641  0.00  0.00     0.139 C 
HETATM   36  O   UNK     0     -24.934   0.702   4.318  0.00  0.00    -0.650 OA
BRANCH  35  37
HETATM   37  O   UNK     0     -27.160   0.603   4.731  0.00  0.00    -0.776 OA
HETATM   38  H   UNK     0     -27.523   0.948   5.605  0.00  0.00     0.167 HD
ENDBRANCH  35  37
ENDBRANCH  34  35
ENDBRANCH  33  34
ENDBRANCH   6  33
BRANCH  27  39
HETATM   39  C   UNK     0     -25.121  -7.050  13.111  0.00  0.00     0.051 C 
BRANCH  39  40
HETATM   40  C   UNK     0     -23.943  -6.306  13.554  0.00  0.00     0.114 C 
BRANCH  40  41
HETATM   41  C   UNK     0     -23.679  -4.952  13.122  0.00  0.00     0.139 C 
HETATM   42  O   UNK     0     -24.138  -3.951  13.689  0.00  0.00    -0.650 OA
BRANCH  41  43
HETATM   43  O   UNK     0     -22.849  -4.739  11.985  0.00  0.00    -0.776 OA
HETATM   44  H   UNK     0     -23.348  -4.461  11.148  0.00  0.00     0.167 HD
ENDBRANCH  41  43
ENDBRANCH  40  41
ENDBRANCH  39  40
ENDBRANCH  27  39
BRANCH  11  45
HETATM   45  C   UNK     0     -30.612   1.465  11.472  0.00  0.00     0.051 C 
BRANCH  45  46
HETATM   46  C   UNK     0     -31.806   0.669  11.856  0.00  0.00     0.114 C 
BRANCH  46  47
HETATM   47  C   UNK     0     -32.504   1.416  12.941  0.00  0.00     0.139 C 
HETATM   48  O   UNK     0     -31.842   2.188  13.649  0.00  0.00    -0.650 OA
BRANCH  47  49
HETATM   49  O   UNK     0     -33.849   1.250  13.155  0.00  0.00    -0.776 OA
HETATM   50  H   UNK     0     -34.555   1.736  12.589  0.00  0.00     0.167 HD
ENDBRANCH  47  49
ENDBRANCH  46  47
ENDBRANCH  45  46
ENDBRANCH  11  45
BRANCH  18  51
HETATM   51  C   UNK     0     -30.023  -4.245  15.447  0.00  0.00     0.051 C 
BRANCH  51  52
HETATM   52  C   UNK     0     -31.163  -4.795  14.603  0.00  0.00     0.114 C 
BRANCH  52  53
HETATM   53  C   UNK     0     -32.467  -4.239  15.011  0.00  0.00     0.139 C 
HETATM   54  O   UNK     0     -32.969  -4.564  16.098  0.00  0.00    -0.650 OA
BRANCH  53  55
HETATM   55  O   UNK     0     -33.122  -3.363  14.179  0.00  0.00    -0.776 OA
HETATM   56  H   UNK     0     -32.890  -2.408  14.037  0.00  0.00     0.167 HD
ENDBRANCH  53  55
ENDBRANCH  52  53
ENDBRANCH  51  52
ENDBRANCH  18  51
TORSDOF 16
ENDMDL
MODEL 17
REMARK VINA RESULT:      -7.7     22.094     26.242
REMARK  16 active torsions:
REMARK  status: ('A' for Active; 'I' for Inactive)
REMARK    1  A    between atoms: C_6  and  C_7 
REMARK    2  A    between atoms: C_7  and  C_8 
REMARK    3  A    between atoms: C_8  and  C_9 
REMARK    4  A    between atoms: C_9  and  O_11 
REMARK    5  A    between atoms: C_16  and  C_17 
REMARK    6  A    between atoms: C_17  and  C_18 
REMARK    7  A    between atoms: C_18  and  C_19 
REMARK    8  A    between atoms: C_19  and  O_21 
REMARK    9  A    between atoms: C_28  and  C_29 
REMARK   10  A    between atoms: C_29  and  C_30 
REMARK   11  A    between atoms: C_30  and  C_31 
REMARK   12  A    between atoms: C_31  and  O_33 
REMARK   13  A    between atoms: C_42  and  C_43 
REMARK   14  A    between atoms: C_43  and  C_44 
REMARK   15  A    between atoms: C_44  and  C_45 
REMARK   16  A    between atoms: C_45  and  O_47 
ROOT
HETATM    1  C   UNK     0      -7.912  10.922   1.904  0.00  0.00     0.051 C 
HETATM    2  C   UNK     0      -8.236  12.386   1.688  0.00  0.00    -0.031 A 
HETATM    3  C   UNK     0      -9.186  12.964   0.860  0.00  0.00     0.021 A 
HETATM    4  N   UNK     0      -9.101  14.312   0.965  0.00  0.00    -0.361 N 
HETATM    5  C   UNK     0      -8.124  14.605   1.848  0.00  0.00     0.022 A 
HETATM    6  C   UNK     0      -7.560  13.423   2.318  0.00  0.00    -0.027 A 
HETATM    7  C   UNK     0      -7.694  15.934   2.386  0.00  0.00     0.115 C 
HETATM    8  C   UNK     0      -8.798  16.908   2.757  0.00  0.00     0.021 A 
HETATM    9  N   UNK     0     -10.001  16.644   3.290  0.00  0.00    -0.361 N 
HETATM   10  C   UNK     0     -10.690  17.803   3.366  0.00  0.00     0.022 A 
HETATM   11  C   UNK     0      -9.905  18.843   2.876  0.00  0.00    -0.027 A 
HETATM   12  C   UNK     0      -8.712  18.286   2.492  0.00  0.00    -0.031 A 
HETATM   13  C   UNK     0      -7.544  19.044   1.902  0.00  0.00     0.051 C 
HETATM   14  C   UNK     0     -12.128  17.968   3.850  0.00  0.00     0.115 C 
HETATM   15  C   UNK     0     -13.147  17.199   3.024  0.00  0.00     0.021 A 
HETATM   16  N   UNK     0     -13.188  15.873   2.797  0.00  0.00    -0.361 N 
HETATM   17  C   UNK     0     -14.196  15.602   1.965  0.00  0.00     0.022 A 
HETATM   18  C   UNK     0     -14.849  16.808   1.642  0.00  0.00    -0.027 A 
HETATM   19  C   UNK     0     -14.183  17.801   2.313  0.00  0.00    -0.031 A 
HETATM   20  C   UNK     0     -14.585  19.264   2.271  0.00  0.00     0.051 C 
HETATM   21  C   UNK     0     -14.621  14.288   1.349  0.00  0.00     0.115 C 
HETATM   22  C   UNK     0     -13.536  13.292   1.014  0.00  0.00     0.022 A 
HETATM   23  N   UNK     0     -12.327  13.526   0.487  0.00  0.00    -0.361 N 
HETATM   24  C   UNK     0     -11.631  12.372   0.494  0.00  0.00     0.021 A 
HETATM   25  C   UNK     0     -12.414  11.367   1.029  0.00  0.00    -0.031 A 
HETATM   26  C   UNK     0     -12.089   9.898   1.208  0.00  0.00     0.051 C 
HETATM   27  C   UNK     0     -13.638  11.931   1.369  0.00  0.00    -0.027 A 
HETATM   28  C   UNK     0     -10.185  12.156   0.082  0.00  0.00     0.115 C 
HETATM   29  H   UNK     0      -9.705  15.047   0.384  0.00  0.00     0.165 HD
HETATM   30  H   UNK     0     -10.350  15.649   3.661  0.00  0.00     0.165 HD
HETATM   31  H   UNK     0     -12.522  15.106   3.271  0.00  0.00     0.165 HD
HETATM   32  H   UNK     0     -11.969  14.501   0.065  0.00  0.00     0.165 HD
ENDROOT
BRANCH   6  33
HETATM   33  C   UNK     0      -6.440  13.208   3.304  0.00  0.00     0.051 C 
BRANCH  33  34
HETATM   34  C   UNK     0      -5.111  13.119   2.594  0.00  0.00     0.114 C 
BRANCH  34  35
HETATM   35  C   UNK     0      -4.359  11.980   3.195  0.00  0.00     0.139 C 
HETATM   36  O   UNK     0      -3.597  12.173   4.187  0.00  0.00    -0.650 OA
BRANCH  35  37
HETATM   37  O   UNK     0      -4.454  10.681   2.712  0.00  0.00    -0.776 OA
HETATM   38  H   UNK     0      -4.329   9.878   3.308  0.00  0.00     0.167 HD
ENDBRANCH  35  37
ENDBRANCH  34  35
ENDBRANCH  33  34
ENDBRANCH   6  33
BRANCH  27  39
HETATM   39  C   UNK     0     -14.773  11.138   1.913  0.00  0.00     0.051 C 
BRANCH  39  40
HETATM   40  C   UNK     0     -14.652  10.587   3.263  0.00  0.00     0.114 C 
BRANCH  40  41
HETATM   41  C   UNK     0     -15.784  10.480   4.156  0.00  0.00     0.139 C 
HETATM   42  O   UNK     0     -16.535   9.496   4.192  0.00  0.00    -0.650 OA
BRANCH  41  43
HETATM   43  O   UNK     0     -16.064  11.554   5.048  0.00  0.00    -0.776 OA
HETATM   44  H   UNK     0     -16.271  12.434   4.592  0.00  0.00     0.167 HD
ENDBRANCH  41  43
ENDBRANCH  40  41
ENDBRANCH  39  40
ENDBRANCH  27  39
BRANCH  11  45
HETATM   45  C   UNK     0     -10.241  20.306   2.768  0.00  0.00     0.051 C 
BRANCH  45  46
HETATM   46  C   UNK     0     -11.177  20.633   1.662  0.00  0.00     0.114 C 
BRANCH  46  47
HETATM   47  C   UNK     0     -11.983  21.809   2.099  0.00  0.00     0.139 C 
HETATM   48  O   UNK     0     -12.299  22.657   1.253  0.00  0.00    -0.650 OA
BRANCH  47  49
HETATM   49  O   UNK     0     -12.365  21.952   3.409  0.00  0.00    -0.776 OA
HETATM   50  H   UNK     0     -12.362  21.164   4.066  0.00  0.00     0.167 HD
ENDBRANCH  47  49
ENDBRANCH  46  47
ENDBRANCH  45  46
ENDBRANCH  11  45
BRANCH  18  51
HETATM   51  C   UNK     0     -16.055  17.001   0.760  0.00  0.00     0.051 C 
BRANCH  51  52
HETATM   52  C   UNK     0     -15.546  16.955  -0.673  0.00  0.00     0.114 C 
BRANCH  52  53
HETATM   53  C   UNK     0     -16.159  15.853  -1.439  0.00  0.00     0.139 C 
HETATM   54  O   UNK     0     -15.725  15.561  -2.565  0.00  0.00    -0.650 OA
BRANCH  53  55
HETATM   55  O   UNK     0     -17.212  15.154  -0.900  0.00  0.00    -0.776 OA
HETATM   56  H   UNK     0     -17.944  15.536  -0.349  0.00  0.00     0.167 HD
ENDBRANCH  53  55
ENDBRANCH  52  53
ENDBRANCH  51  52
ENDBRANCH  18  51
TORSDOF 16
ENDMDL
MODEL 18
REMARK VINA RESULT:      -7.7      2.752      7.514
REMARK  16 active torsions:
REMARK  status: ('A' for Active; 'I' for Inactive)
REMARK    1  A    between atoms: C_6  and  C_7 
REMARK    2  A    between atoms: C_7  and  C_8 
REMARK    3  A    between atoms: C_8  and  C_9 
REMARK    4  A    between atoms: C_9  and  O_11 
REMARK    5  A    between atoms: C_16  and  C_17 
REMARK    6  A    between atoms: C_17  and  C_18 
REMARK    7  A    between atoms: C_18  and  C_19 
REMARK    8  A    between atoms: C_19  and  O_21 
REMARK    9  A    between atoms: C_28  and  C_29 
REMARK   10  A    between atoms: C_29  and  C_30 
REMARK   11  A    between atoms: C_30  and  C_31 
REMARK   12  A    between atoms: C_31  and  O_33 
REMARK   13  A    between atoms: C_42  and  C_43 
REMARK   14  A    between atoms: C_43  and  C_44 
REMARK   15  A    between atoms: C_44  and  C_45 
REMARK   16  A    between atoms: C_45  and  O_47 
ROOT
HETATM    1  C   UNK     0     -25.036  -2.540   4.379  0.00  0.00     0.051 C 
HETATM    2  C   UNK     0     -26.095  -2.156   5.392  0.00  0.00    -0.031 A 
HETATM    3  C   UNK     0     -26.697  -2.931   6.371  0.00  0.00     0.021 A 
HETATM    4  N   UNK     0     -27.612  -2.179   7.027  0.00  0.00    -0.361 N 
HETATM    5  C   UNK     0     -27.600  -0.940   6.494  0.00  0.00     0.022 A 
HETATM    6  C   UNK     0     -26.664  -0.891   5.467  0.00  0.00    -0.027 A 
HETATM    7  C   UNK     0     -28.349   0.286   6.916  0.00  0.00     0.115 C 
HETATM    8  C   UNK     0     -28.433   0.554   8.408  0.00  0.00     0.021 A 
HETATM    9  N   UNK     0     -27.509   0.320   9.353  0.00  0.00    -0.361 N 
HETATM   10  C   UNK     0     -28.048   0.626  10.552  0.00  0.00     0.022 A 
HETATM   11  C   UNK     0     -29.352   1.079  10.374  0.00  0.00    -0.027 A 
HETATM   12  C   UNK     0     -29.601   1.036   9.025  0.00  0.00    -0.031 A 
HETATM   13  C   UNK     0     -30.898   1.444   8.362  0.00  0.00     0.051 C 
HETATM   14  C   UNK     0     -27.378   0.455  11.912  0.00  0.00     0.115 C 
HETATM   15  C   UNK     0     -27.004  -0.982  12.238  0.00  0.00     0.021 A 
HETATM   16  N   UNK     0     -26.195  -1.799  11.538  0.00  0.00    -0.361 N 
HETATM   17  C   UNK     0     -26.181  -3.002  12.117  0.00  0.00     0.022 A 
HETATM   18  C   UNK     0     -27.013  -2.964  13.253  0.00  0.00    -0.027 A 
HETATM   19  C   UNK     0     -27.522  -1.693  13.318  0.00  0.00    -0.031 A 
HETATM   20  C   UNK     0     -28.445  -1.210  14.422  0.00  0.00     0.051 C 
HETATM   21  C   UNK     0     -25.493  -4.279  11.688  0.00  0.00     0.115 C 
HETATM   22  C   UNK     0     -25.364  -4.537  10.205  0.00  0.00     0.022 A 
HETATM   23  N   UNK     0     -26.266  -4.310   9.241  0.00  0.00    -0.361 N 
HETATM   24  C   UNK     0     -25.681  -4.548   8.050  0.00  0.00     0.021 A 
HETATM   25  C   UNK     0     -24.374  -4.948   8.252  0.00  0.00    -0.031 A 
HETATM   26  C   UNK     0     -23.335  -5.362   7.230  0.00  0.00     0.051 C 
HETATM   27  C   UNK     0     -24.148  -4.949   9.623  0.00  0.00    -0.027 A 
HETATM   28  C   UNK     0     -26.273  -4.342   6.666  0.00  0.00     0.115 C 
HETATM   29  H   UNK     0     -28.289  -2.540   7.836  0.00  0.00     0.165 HD
HETATM   30  H   UNK     0     -26.458  -0.014   9.172  0.00  0.00     0.165 HD
HETATM   31  H   UNK     0     -25.583  -1.509  10.645  0.00  0.00     0.165 HD
HETATM   32  H   UNK     0     -27.338  -4.021   9.395  0.00  0.00     0.165 HD
ENDROOT
BRANCH   6  33
HETATM   33  C   UNK     0     -26.276   0.250   4.561  0.00  0.00     0.051 C 
BRANCH  33  34
HETATM   34  C   UNK     0     -27.373   0.538   3.564  0.00  0.00     0.114 C 
BRANCH  34  35
HETATM   35  C   UNK     0     -26.941  -0.020   2.250  0.00  0.00     0.139 C 
HETATM   36  O   UNK     0     -25.710  -0.097   1.964  0.00  0.00    -0.650 OA
BRANCH  35  37
HETATM   37  O   UNK     0     -27.842  -0.477   1.297  0.00  0.00    -0.776 OA
HETATM   38  H   UNK     0     -27.542  -0.835   0.405  0.00  0.00     0.167 HD
ENDBRANCH  35  37
ENDBRANCH  34  35
ENDBRANCH  33  34
ENDBRANCH   6  33
BRANCH  27  39
HETATM   39  C   UNK     0     -22.865  -5.395  10.233  0.00  0.00     0.051 C 
BRANCH  39  40
HETATM   40  C   UNK     0     -22.921  -6.268  11.405  0.00  0.00     0.114 C 
BRANCH  40  41
HETATM   41  C   UNK     0     -22.383  -5.871  12.687  0.00  0.00     0.139 C 
HETATM   42  O   UNK     0     -22.656  -6.445  13.750  0.00  0.00    -0.650 OA
BRANCH  41  43
HETATM   43  O   UNK     0     -21.491  -4.764  12.750  0.00  0.00    -0.776 OA
HETATM   44  H   UNK     0     -21.030  -4.547  11.874  0.00  0.00     0.167 HD
ENDBRANCH  41  43
ENDBRANCH  40  41
ENDBRANCH  39  40
ENDBRANCH  27  39
BRANCH  11  45
HETATM   45  C   UNK     0     -30.339   1.540  11.412  0.00  0.00     0.051 C 
BRANCH  45  46
HETATM   46  C   UNK     0     -30.978   0.436  12.173  0.00  0.00     0.114 C 
BRANCH  46  47
HETATM   47  C   UNK     0     -32.238   0.977  12.760  0.00  0.00     0.139 C 
HETATM   48  O   UNK     0     -32.363   0.979  13.993  0.00  0.00    -0.650 OA
BRANCH  47  49
HETATM   49  O   UNK     0     -33.238   1.460  11.955  0.00  0.00    -0.776 OA
HETATM   50  H   UNK     0     -33.876   0.837  11.445  0.00  0.00     0.167 HD
ENDBRANCH  47  49
ENDBRANCH  46  47
ENDBRANCH  45  46
ENDBRANCH  11  45
BRANCH  18  51
HETATM   51  C   UNK     0     -27.291  -4.073  14.235  0.00  0.00     0.051 C 
BRANCH  51  52
HETATM   52  C   UNK     0     -28.502  -4.822  13.699  0.00  0.00     0.114 C 
BRANCH  52  53
HETATM   53  C   UNK     0     -29.670  -4.690  14.592  0.00  0.00     0.139 C 
HETATM   54  O   UNK     0     -29.612  -5.114  15.758  0.00  0.00    -0.650 OA
BRANCH  53  55
HETATM   55  O   UNK     0     -30.819  -4.100  14.125  0.00  0.00    -0.776 OA
HETATM   56  H   UNK     0     -31.696  -4.549  14.000  0.00  0.00     0.167 HD
ENDBRANCH  53  55
ENDBRANCH  52  53
ENDBRANCH  51  52
ENDBRANCH  18  51
TORSDOF 16
ENDMDL
MODEL 19
REMARK VINA RESULT:      -7.6     33.922     37.773
REMARK  16 active torsions:
REMARK  status: ('A' for Active; 'I' for Inactive)
REMARK    1  A    between atoms: C_6  and  C_7 
REMARK    2  A    between atoms: C_7  and  C_8 
REMARK    3  A    between atoms: C_8  and  C_9 
REMARK    4  A    between atoms: C_9  and  O_11 
REMARK    5  A    between atoms: C_16  and  C_17 
REMARK    6  A    between atoms: C_17  and  C_18 
REMARK    7  A    between atoms: C_18  and  C_19 
REMARK    8  A    between atoms: C_19  and  O_21 
REMARK    9  A    between atoms: C_28  and  C_29 
REMARK   10  A    between atoms: C_29  and  C_30 
REMARK   11  A    between atoms: C_30  and  C_31 
REMARK   12  A    between atoms: C_31  and  O_33 
REMARK   13  A    between atoms: C_42  and  C_43 
REMARK   14  A    between atoms: C_43  and  C_44 
REMARK   15  A    between atoms: C_44  and  C_45 
REMARK   16  A    between atoms: C_45  and  O_47 
ROOT
HETATM    1  C   UNK     0       8.706   2.254   9.901  0.00  0.00     0.051 C 
HETATM    2  C   UNK     0       9.350   2.348   8.533  0.00  0.00    -0.031 A 
HETATM    3  C   UNK     0       9.378   1.414   7.508  0.00  0.00     0.021 A 
HETATM    4  N   UNK     0      10.098   1.915   6.475  0.00  0.00    -0.361 N 
HETATM    5  C   UNK     0      10.521   3.150   6.816  0.00  0.00     0.022 A 
HETATM    6  C   UNK     0      10.073   3.451   8.098  0.00  0.00    -0.027 A 
HETATM    7  C   UNK     0      11.267   4.159   6.000  0.00  0.00     0.115 C 
HETATM    8  C   UNK     0      10.824   4.332   4.558  0.00  0.00     0.021 A 
HETATM    9  N   UNK     0       9.584   4.263   4.050  0.00  0.00    -0.361 N 
HETATM   10  C   UNK     0       9.673   4.387   2.709  0.00  0.00     0.022 A 
HETATM   11  C   UNK     0      11.006   4.549   2.344  0.00  0.00    -0.027 A 
HETATM   12  C   UNK     0      11.737   4.516   3.504  0.00  0.00    -0.031 A 
HETATM   13  C   UNK     0      13.239   4.658   3.595  0.00  0.00     0.051 C 
HETATM   14  C   UNK     0       8.515   4.305   1.718  0.00  0.00     0.115 C 
HETATM   15  C   UNK     0       7.785   2.971   1.733  0.00  0.00     0.021 A 
HETATM   16  N   UNK     0       7.166   2.386   2.776  0.00  0.00    -0.361 N 
HETATM   17  C   UNK     0       6.708   1.190   2.399  0.00  0.00     0.022 A 
HETATM   18  C   UNK     0       7.036   0.991   1.043  0.00  0.00    -0.027 A 
HETATM   19  C   UNK     0       7.709   2.114   0.638  0.00  0.00    -0.031 A 
HETATM   20  C   UNK     0       8.216   2.330  -0.777  0.00  0.00     0.051 C 
HETATM   21  C   UNK     0       6.011   0.118   3.205  0.00  0.00     0.115 C 
HETATM   22  C   UNK     0       6.411  -0.036   4.654  0.00  0.00     0.022 A 
HETATM   23  N   UNK     0       7.637   0.032   5.188  0.00  0.00    -0.361 N 
HETATM   24  C   UNK     0       7.517  -0.016   6.530  0.00  0.00     0.021 A 
HETATM   25  C   UNK     0       6.182  -0.127   6.868  0.00  0.00    -0.031 A 
HETATM   26  C   UNK     0       5.553  -0.254   8.240  0.00  0.00     0.051 C 
HETATM   27  C   UNK     0       5.454  -0.142   5.684  0.00  0.00    -0.027 A 
HETATM   28  C   UNK     0       8.619   0.119   7.567  0.00  0.00     0.115 C 
HETATM   29  H   UNK     0      10.335   1.376   5.529  0.00  0.00     0.165 HD
HETATM   30  H   UNK     0       8.639   4.178   4.640  0.00  0.00     0.165 HD
HETATM   31  H   UNK     0       7.007   2.846   3.786  0.00  0.00     0.165 HD
HETATM   32  H   UNK     0       8.603   0.070   4.621  0.00  0.00     0.165 HD
ENDROOT
BRANCH   6  33
HETATM   33  C   UNK     0      10.280   4.690   8.931  0.00  0.00     0.051 C 
BRANCH  33  34
HETATM   34  C   UNK     0      11.605   4.635   9.652  0.00  0.00     0.114 C 
BRANCH  34  35
HETATM   35  C   UNK     0      12.050   6.041   9.877  0.00  0.00     0.139 C 
HETATM   36  O   UNK     0      12.067   6.865   8.917  0.00  0.00    -0.650 OA
BRANCH  35  37
HETATM   37  O   UNK     0      12.456   6.509  11.121  0.00  0.00    -0.776 OA
HETATM   38  H   UNK     0      11.993   7.276  11.581  0.00  0.00     0.167 HD
ENDBRANCH  35  37
ENDBRANCH  34  35
ENDBRANCH  33  34
ENDBRANCH   6  33
BRANCH  27  39
HETATM   39  C   UNK     0       3.978  -0.323   5.642  0.00  0.00     0.051 C 
BRANCH  39  40
HETATM   40  C   UNK     0       3.448  -1.590   5.139  0.00  0.00     0.114 C 
BRANCH  40  41
HETATM   41  C   UNK     0       2.029  -1.826   4.988  0.00  0.00     0.139 C 
HETATM   42  O   UNK     0       1.350  -1.346   4.071  0.00  0.00    -0.650 OA
BRANCH  41  43
HETATM   43  O   UNK     0       1.362  -2.652   5.937  0.00  0.00    -0.776 OA
HETATM   44  H   UNK     0       1.979  -3.217   6.508  0.00  0.00     0.167 HD
ENDBRANCH  41  43
ENDBRANCH  40  41
ENDBRANCH  39  40
ENDBRANCH  27  39
BRANCH  11  45
HETATM   45  C   UNK     0      11.590   4.733   0.969  0.00  0.00     0.051 C 
BRANCH  45  46
HETATM   46  C   UNK     0      11.852   6.149   0.606  0.00  0.00     0.114 C 
BRANCH  46  47
HETATM   47  C   UNK     0      10.687   6.622  -0.196  0.00  0.00     0.139 C 
HETATM   48  O   UNK     0      10.637   6.327  -1.398  0.00  0.00    -0.650 OA
BRANCH  47  49
HETATM   49  O   UNK     0       9.692   7.369   0.383  0.00  0.00    -0.776 OA
HETATM   50  H   UNK     0       8.832   7.615  -0.121  0.00  0.00     0.167 HD
ENDBRANCH  47  49
ENDBRANCH  46  47
ENDBRANCH  45  46
ENDBRANCH  11  45
BRANCH  18  51
HETATM   51  C   UNK     0       6.708  -0.196   0.175  0.00  0.00     0.051 C 
BRANCH  51  52
HETATM   52  C   UNK     0       5.342   0.085  -0.433  0.00  0.00     0.114 C 
BRANCH  52  53
HETATM   53  C   UNK     0       5.297  -0.259  -1.867  0.00  0.00     0.139 C 
HETATM   54  O   UNK     0       6.266   0.000  -2.599  0.00  0.00    -0.650 OA
BRANCH  53  55
HETATM   55  O   UNK     0       4.178  -0.862  -2.387  0.00  0.00    -0.776 OA
HETATM   56  H   UNK     0       3.840  -0.765  -3.315  0.00  0.00     0.167 HD
ENDBRANCH  53  55
ENDBRANCH  52  53
ENDBRANCH  51  52
ENDBRANCH  18  51
TORSDOF 16
ENDMDL
MODEL 20
REMARK VINA RESULT:      -7.6      3.718      8.732
REMARK  16 active torsions:
REMARK  status: ('A' for Active; 'I' for Inactive)
REMARK    1  A    between atoms: C_6  and  C_7 
REMARK    2  A    between atoms: C_7  and  C_8 
REMARK    3  A    between atoms: C_8  and  C_9 
REMARK    4  A    between atoms: C_9  and  O_11 
REMARK    5  A    between atoms: C_16  and  C_17 
REMARK    6  A    between atoms: C_17  and  C_18 
REMARK    7  A    between atoms: C_18  and  C_19 
REMARK    8  A    between atoms: C_19  and  O_21 
REMARK    9  A    between atoms: C_28  and  C_29 
REMARK   10  A    between atoms: C_29  and  C_30 
REMARK   11  A    between atoms: C_30  and  C_31 
REMARK   12  A    between atoms: C_31  and  O_33 
REMARK   13  A    between atoms: C_42  and  C_43 
REMARK   14  A    between atoms: C_43  and  C_44 
REMARK   15  A    between atoms: C_44  and  C_45 
REMARK   16  A    between atoms: C_45  and  O_47 
ROOT
HETATM    1  C   UNK     0     -26.626  -0.807  17.321  0.00  0.00     0.051 C 
HETATM    2  C   UNK     0     -26.896  -0.362  15.898  0.00  0.00    -0.031 A 
HETATM    3  C   UNK     0     -26.066  -0.407  14.789  0.00  0.00     0.021 A 
HETATM    4  N   UNK     0     -26.716   0.129  13.729  0.00  0.00    -0.361 N 
HETATM    5  C   UNK     0     -27.946   0.506  14.136  0.00  0.00     0.022 A 
HETATM    6  C   UNK     0     -28.091   0.216  15.488  0.00  0.00    -0.027 A 
HETATM    7  C   UNK     0     -29.083   1.062  13.337  0.00  0.00     0.115 C 
HETATM    8  C   UNK     0     -29.349   0.417  11.989  0.00  0.00     0.021 A 
HETATM    9  N   UNK     0     -29.225  -0.873  11.640  0.00  0.00    -0.361 N 
HETATM   10  C   UNK     0     -29.477  -0.976  10.318  0.00  0.00     0.022 A 
HETATM   11  C   UNK     0     -29.782   0.281   9.803  0.00  0.00    -0.027 A 
HETATM   12  C   UNK     0     -29.703   1.163  10.850  0.00  0.00    -0.031 A 
HETATM   13  C   UNK     0     -29.962   2.650  10.762  0.00  0.00     0.051 C 
HETATM   14  C   UNK     0     -29.389  -2.248   9.479  0.00  0.00     0.115 C 
HETATM   15  C   UNK     0     -28.004  -2.874   9.454  0.00  0.00     0.021 A 
HETATM   16  N   UNK     0     -27.277  -3.303  10.502  0.00  0.00    -0.361 N 
HETATM   17  C   UNK     0     -26.086  -3.722  10.068  0.00  0.00     0.022 A 
HETATM   18  C   UNK     0     -26.039  -3.568   8.668  0.00  0.00    -0.027 A 
HETATM   19  C   UNK     0     -27.246  -3.037   8.296  0.00  0.00    -0.031 A 
HETATM   20  C   UNK     0     -27.632  -2.743   6.857  0.00  0.00     0.051 C 
HETATM   21  C   UNK     0     -24.891  -4.227  10.844  0.00  0.00     0.115 C 
HETATM   22  C   UNK     0     -24.640  -3.625  12.207  0.00  0.00     0.022 A 
HETATM   23  N   UNK     0     -24.760  -2.345  12.584  0.00  0.00    -0.361 N 
HETATM   24  C   UNK     0     -24.581  -2.278  13.918  0.00  0.00     0.021 A 
HETATM   25  C   UNK     0     -24.329  -3.544  14.411  0.00  0.00    -0.031 A 
HETATM   26  C   UNK     0     -24.026  -3.971  15.833  0.00  0.00     0.051 C 
HETATM   27  C   UNK     0     -24.361  -4.423  13.335  0.00  0.00    -0.027 A 
HETATM   28  C   UNK     0     -24.712  -1.058  14.814  0.00  0.00     0.115 C 
HETATM   29  H   UNK     0     -26.287   0.272  12.710  0.00  0.00     0.165 HD
HETATM   30  H   UNK     0     -29.008  -1.721  12.334  0.00  0.00     0.165 HD
HETATM   31  H   UNK     0     -27.628  -3.356  11.565  0.00  0.00     0.165 HD
HETATM   32  H   UNK     0     -24.930  -1.470  11.904  0.00  0.00     0.165 HD
ENDROOT
BRANCH   6  33
HETATM   33  C   UNK     0     -29.262   0.446  16.409  0.00  0.00     0.051 C 
BRANCH  33  34
HETATM   34  C   UNK     0     -29.285   1.874  16.900  0.00  0.00     0.114 C 
BRANCH  34  35
HETATM   35  C   UNK     0     -30.683   2.373  16.760  0.00  0.00     0.139 C 
HETATM   36  O   UNK     0     -31.227   3.018  17.703  0.00  0.00    -0.650 OA
BRANCH  35  37
HETATM   37  O   UNK     0     -31.442   2.164  15.615  0.00  0.00    -0.776 OA
HETATM   38  H   UNK     0     -31.972   2.903  15.182  0.00  0.00     0.167 HD
ENDBRANCH  35  37
ENDBRANCH  34  35
ENDBRANCH  33  34
ENDBRANCH   6  33
BRANCH  27  39
HETATM   39  C   UNK     0     -24.063  -5.875  13.464  0.00  0.00     0.051 C 
BRANCH  39  40
HETATM   40  C   UNK     0     -22.694  -6.327  13.220  0.00  0.00     0.114 C 
BRANCH  40  41
HETATM   41  C   UNK     0     -21.765  -5.568  12.413  0.00  0.00     0.139 C 
HETATM   42  O   UNK     0     -21.661  -5.697  11.186  0.00  0.00    -0.650 OA
BRANCH  41  43
HETATM   43  O   UNK     0     -20.916  -4.617  13.047  0.00  0.00    -0.776 OA
HETATM   44  H   UNK     0     -21.389  -3.781  13.367  0.00  0.00     0.167 HD
ENDBRANCH  41  43
ENDBRANCH  40  41
ENDBRANCH  39  40
ENDBRANCH  27  39
BRANCH  11  45
HETATM   45  C   UNK     0     -30.137   0.659   8.390  0.00  0.00     0.051 C 
BRANCH  45  46
HETATM   46  C   UNK     0     -29.060   0.394   7.402  0.00  0.00     0.114 C 
BRANCH  46  47
HETATM   47  C   UNK     0     -27.861   1.165   7.838  0.00  0.00     0.139 C 
HETATM   48  O   UNK     0     -26.813   0.548   8.073  0.00  0.00    -0.650 OA
BRANCH  47  49
HETATM   49  O   UNK     0     -27.916   2.529   7.979  0.00  0.00    -0.776 OA
HETATM   50  H   UNK     0     -28.584   3.105   7.452  0.00  0.00     0.167 HD
ENDBRANCH  47  49
ENDBRANCH  46  47
ENDBRANCH  45  46
ENDBRANCH  11  45
BRANCH  18  51
HETATM   51  C   UNK     0     -24.912  -3.927   7.734  0.00  0.00     0.051 C 
BRANCH  51  52
HETATM   52  C   UNK     0     -25.030  -5.422   7.480  0.00  0.00     0.114 C 
BRANCH  52  53
HETATM   53  C   UNK     0     -23.778  -6.134   7.804  0.00  0.00     0.139 C 
HETATM   54  O   UNK     0     -23.684  -7.354   7.591  0.00  0.00    -0.650 OA
BRANCH  53  55
HETATM   55  O   UNK     0     -22.722  -5.441   8.344  0.00  0.00    -0.776 OA
HETATM   56  H   UNK     0     -22.148  -5.744   9.095  0.00  0.00     0.167 HD
ENDBRANCH  53  55
ENDBRANCH  52  53
ENDBRANCH  51  52
ENDBRANCH  18  51
TORSDOF 16
ENDMDL
