MODEL 1
REMARK VINA RESULT:     -10.0      0.000      0.000
REMARK  16 active torsions:
REMARK  status: ('A' for Active; 'I' for Inactive)
REMARK    1  A    between atoms: C_6  and  C_7 
REMARK    2  A    between atoms: C_7  and  C_8 
REMARK    3  A    between atoms: C_8  and  C_9 
REMARK    4  A    between atoms: C_9  and  O_11 
REMARK    5  A    between atoms: C_16  and  C_17 
REMARK    6  A    between atoms: C_17  and  C_18 
REMARK    7  A    between atoms: C_18  and  C_19 
REMARK    8  A    between atoms: C_19  and  O_21 
REMARK    9  A    between atoms: C_28  and  C_29 
REMARK   10  A    between atoms: C_29  and  C_30 
REMARK   11  A    between atoms: C_30  and  C_31 
REMARK   12  A    between atoms: C_31  and  O_33 
REMARK   13  A    between atoms: C_42  and  C_43 
REMARK   14  A    between atoms: C_43  and  C_44 
REMARK   15  A    between atoms: C_44  and  C_45 
REMARK   16  A    between atoms: C_45  and  O_47 
ROOT
HETATM    1  C   UNK     0      11.856  17.673 -10.129  0.00  0.00     0.051 C 
HETATM    2  C   UNK     0      12.407  19.021  -9.713  0.00  0.00    -0.031 A 
HETATM    3  C   UNK     0      11.734  20.204  -9.452  0.00  0.00     0.021 A 
HETATM    4  N   UNK     0      12.636  21.166  -9.143  0.00  0.00    -0.361 N 
HETATM    5  C   UNK     0      13.868  20.619  -9.193  0.00  0.00     0.022 A 
HETATM    6  C   UNK     0      13.762  19.279  -9.550  0.00  0.00    -0.027 A 
HETATM    7  C   UNK     0      15.193  21.225  -8.849  0.00  0.00     0.115 C 
HETATM    8  C   UNK     0      15.246  22.080  -7.595  0.00  0.00     0.021 A 
HETATM    9  N   UNK     0      14.584  21.913  -6.440  0.00  0.00    -0.361 N 
HETATM   10  C   UNK     0      14.866  22.962  -5.639  0.00  0.00     0.022 A 
HETATM   11  C   UNK     0      15.741  23.825  -6.293  0.00  0.00    -0.027 A 
HETATM   12  C   UNK     0      15.985  23.275  -7.526  0.00  0.00    -0.031 A 
HETATM   13  C   UNK     0      16.889  23.868  -8.583  0.00  0.00     0.051 C 
HETATM   14  C   UNK     0      14.283  23.220  -4.253  0.00  0.00     0.115 C 
HETATM   15  C   UNK     0      12.771  23.378  -4.240  0.00  0.00     0.021 A 
HETATM   16  N   UNK     0      11.849  22.489  -4.656  0.00  0.00    -0.361 N 
HETATM   17  C   UNK     0      10.635  23.033  -4.546  0.00  0.00     0.022 A 
HETATM   18  C   UNK     0      10.771  24.334  -4.023  0.00  0.00    -0.027 A 
HETATM   19  C   UNK     0      12.114  24.538  -3.835  0.00  0.00    -0.031 A 
HETATM   20  C   UNK     0      12.701  25.809  -3.249  0.00  0.00     0.051 C 
HETATM   21  C   UNK     0       9.284  22.483  -4.942  0.00  0.00     0.115 C 
HETATM   22  C   UNK     0       9.224  21.594  -6.163  0.00  0.00     0.022 A 
HETATM   23  N   UNK     0       9.875  21.734  -7.325  0.00  0.00    -0.361 N 
HETATM   24  C   UNK     0       9.641  20.640  -8.076  0.00  0.00     0.021 A 
HETATM   25  C   UNK     0       8.810  19.778  -7.385  0.00  0.00    -0.031 A 
HETATM   26  C   UNK     0       8.238  18.447  -7.827  0.00  0.00     0.051 C 
HETATM   27  C   UNK     0       8.529  20.367  -6.158  0.00  0.00    -0.027 A 
HETATM   28  C   UNK     0      10.235  20.299  -9.432  0.00  0.00     0.115 C 
HETATM   29  H   UNK     0      12.399  22.234  -8.931  0.00  0.00     0.165 HD
HETATM   30  H   UNK     0      13.956  21.029  -6.167  0.00  0.00     0.165 HD
HETATM   31  H   UNK     0      12.055  21.439  -4.991  0.00  0.00     0.165 HD
HETATM   32  H   UNK     0      10.472  22.628  -7.643  0.00  0.00     0.165 HD
ENDROOT
BRANCH   6  33
HETATM   33  C   UNK     0      14.836  18.240  -9.747  0.00  0.00     0.051 C 
BRANCH  33  34
HETATM   34  C   UNK     0      15.887  18.345  -8.667  0.00  0.00     0.114 C 
BRANCH  34  35
HETATM   35  C   UNK     0      17.220  18.269  -9.331  0.00  0.00     0.139 C 
HETATM   36  O   UNK     0      17.649  19.246 -10.010  0.00  0.00    -0.650 OA
BRANCH  35  37
HETATM   37  O   UNK     0      18.039  17.151  -9.241  0.00  0.00    -0.776 OA
HETATM   38  H   UNK     0      18.620  16.850 -10.007  0.00  0.00     0.167 HD
ENDBRANCH  35  37
ENDBRANCH  34  35
ENDBRANCH  33  34
ENDBRANCH   6  33
BRANCH  27  39
HETATM   39  C   UNK     0       7.603  19.764  -5.162  0.00  0.00     0.051 C 
BRANCH  39  40
HETATM   40  C   UNK     0       6.870  20.657  -4.265  0.00  0.00     0.114 C 
BRANCH  40  41
HETATM   41  C   UNK     0       5.458  20.920  -4.424  0.00  0.00     0.139 C 
HETATM   42  O   UNK     0       4.853  20.780  -5.495  0.00  0.00    -0.650 OA
BRANCH  41  43
HETATM   43  O   UNK     0       4.707  21.366  -3.299  0.00  0.00    -0.776 OA
HETATM   44  H   UNK     0       5.158  22.094  -2.757  0.00  0.00     0.167 HD
ENDBRANCH  41  43
ENDBRANCH  40  41
ENDBRANCH  39  40
ENDBRANCH  27  39
BRANCH  11  45
HETATM   45  C   UNK     0      16.338  25.115  -5.797  0.00  0.00     0.051 C 
BRANCH  45  46
HETATM   46  C   UNK     0      15.379  26.248  -5.754  0.00  0.00     0.114 C 
BRANCH  46  47
HETATM   47  C   UNK     0      15.532  27.005  -7.029  0.00  0.00     0.139 C 
HETATM   48  O   UNK     0      16.543  27.704  -7.186  0.00  0.00    -0.650 OA
BRANCH  47  49
HETATM   49  O   UNK     0      14.574  26.932  -8.009  0.00  0.00    -0.776 OA
HETATM   50  H   UNK     0      13.571  26.913  -7.790  0.00  0.00     0.167 HD
ENDBRANCH  47  49
ENDBRANCH  46  47
ENDBRANCH  45  46
ENDBRANCH  11  45
BRANCH  18  51
HETATM   51  C   UNK     0       9.680  25.322  -3.700  0.00  0.00     0.051 C 
BRANCH  51  52
HETATM   52  C   UNK     0       9.763  25.574  -2.202  0.00  0.00     0.114 C 
BRANCH  52  53
HETATM   53  C   UNK     0       9.543  26.996  -1.871  0.00  0.00     0.139 C 
HETATM   54  O   UNK     0       8.466  27.541  -2.159  0.00  0.00    -0.650 OA
BRANCH  53  55
HETATM   55  O   UNK     0      10.537  27.710  -1.247  0.00  0.00    -0.776 OA
HETATM   56  H   UNK     0      10.670  28.692  -1.297  0.00  0.00     0.167 HD
ENDBRANCH  53  55
ENDBRANCH  52  53
ENDBRANCH  51  52
ENDBRANCH  18  51
TORSDOF 16
ENDMDL
MODEL 2
REMARK VINA RESULT:      -9.4     28.907     32.292
REMARK  16 active torsions:
REMARK  status: ('A' for Active; 'I' for Inactive)
REMARK    1  A    between atoms: C_6  and  C_7 
REMARK    2  A    between atoms: C_7  and  C_8 
REMARK    3  A    between atoms: C_8  and  C_9 
REMARK    4  A    between atoms: C_9  and  O_11 
REMARK    5  A    between atoms: C_16  and  C_17 
REMARK    6  A    between atoms: C_17  and  C_18 
REMARK    7  A    between atoms: C_18  and  C_19 
REMARK    8  A    between atoms: C_19  and  O_21 
REMARK    9  A    between atoms: C_28  and  C_29 
REMARK   10  A    between atoms: C_29  and  C_30 
REMARK   11  A    between atoms: C_30  and  C_31 
REMARK   12  A    between atoms: C_31  and  O_33 
REMARK   13  A    between atoms: C_42  and  C_43 
REMARK   14  A    between atoms: C_43  and  C_44 
REMARK   15  A    between atoms: C_44  and  C_45 
REMARK   16  A    between atoms: C_45  and  O_47 
ROOT
HETATM    1  C   UNK     0      19.842   0.590   8.838  0.00  0.00     0.051 C 
HETATM    2  C   UNK     0      18.552  -0.203   8.788  0.00  0.00    -0.031 A 
HETATM    3  C   UNK     0      18.081  -1.055   7.801  0.00  0.00     0.021 A 
HETATM    4  N   UNK     0      16.863  -1.522   8.166  0.00  0.00    -0.361 N 
HETATM    5  C   UNK     0      16.551  -0.992   9.367  0.00  0.00     0.022 A 
HETATM    6  C   UNK     0      17.584  -0.160   9.784  0.00  0.00    -0.027 A 
HETATM    7  C   UNK     0      15.369  -1.257  10.245  0.00  0.00     0.115 C 
HETATM    8  C   UNK     0      14.932  -2.705  10.383  0.00  0.00     0.021 A 
HETATM    9  N   UNK     0      15.695  -3.808  10.417  0.00  0.00    -0.361 N 
HETATM   10  C   UNK     0      14.878  -4.882  10.456  0.00  0.00     0.022 A 
HETATM   11  C   UNK     0      13.552  -4.458  10.458  0.00  0.00    -0.027 A 
HETATM   12  C   UNK     0      13.579  -3.087  10.412  0.00  0.00    -0.031 A 
HETATM   13  C   UNK     0      12.363  -2.189  10.401  0.00  0.00     0.051 C 
HETATM   14  C   UNK     0      15.310  -6.345  10.441  0.00  0.00     0.115 C 
HETATM   15  C   UNK     0      16.083  -6.746   9.194  0.00  0.00     0.021 A 
HETATM   16  N   UNK     0      17.233  -6.217   8.735  0.00  0.00    -0.361 N 
HETATM   17  C   UNK     0      17.549  -6.796   7.575  0.00  0.00     0.022 A 
HETATM   18  C   UNK     0      16.563  -7.754   7.267  0.00  0.00    -0.027 A 
HETATM   19  C   UNK     0      15.651  -7.714   8.290  0.00  0.00    -0.031 A 
HETATM   20  C   UNK     0      14.436  -8.619   8.373  0.00  0.00     0.051 C 
HETATM   21  C   UNK     0      18.693  -6.512   6.628  0.00  0.00     0.115 C 
HETATM   22  C   UNK     0      19.167  -5.083   6.514  0.00  0.00     0.022 A 
HETATM   23  N   UNK     0      18.430  -3.964   6.482  0.00  0.00    -0.361 N 
HETATM   24  C   UNK     0      19.265  -2.906   6.522  0.00  0.00     0.021 A 
HETATM   25  C   UNK     0      20.571  -3.354   6.570  0.00  0.00    -0.031 A 
HETATM   26  C   UNK     0      21.855  -2.550   6.585  0.00  0.00     0.051 C 
HETATM   27  C   UNK     0      20.534  -4.744   6.565  0.00  0.00    -0.027 A 
HETATM   28  C   UNK     0      18.897  -1.434   6.598  0.00  0.00     0.115 C 
HETATM   29  H   UNK     0      16.215  -2.191   7.554  0.00  0.00     0.165 HD
HETATM   30  H   UNK     0      16.811  -3.832  10.464  0.00  0.00     0.165 HD
HETATM   31  H   UNK     0      17.860  -5.453   9.264  0.00  0.00     0.165 HD
HETATM   32  H   UNK     0      17.315  -3.911   6.387  0.00  0.00     0.165 HD
ENDROOT
BRANCH   6  33
HETATM   33  C   UNK     0      17.720   0.664  11.039  0.00  0.00     0.051 C 
BRANCH  33  34
HETATM   34  C   UNK     0      18.313  -0.158  12.158  0.00  0.00     0.114 C 
BRANCH  34  35
HETATM   35  C   UNK     0      19.613   0.469  12.532  0.00  0.00     0.139 C 
HETATM   36  O   UNK     0      20.703  -0.038  12.135  0.00  0.00    -0.650 OA
BRANCH  35  37
HETATM   37  O   UNK     0      19.695   1.615  13.313  0.00  0.00    -0.776 OA
HETATM   38  H   UNK     0      19.166   1.720  14.164  0.00  0.00     0.167 HD
ENDBRANCH  35  37
ENDBRANCH  34  35
ENDBRANCH  33  34
ENDBRANCH   6  33
BRANCH  27  39
HETATM   39  C   UNK     0      21.760  -5.587   6.538  0.00  0.00     0.051 C 
BRANCH  39  40
HETATM   40  C   UNK     0      22.028  -6.459   7.681  0.00  0.00     0.114 C 
BRANCH  40  41
HETATM   41  C   UNK     0      21.564  -6.146   9.014  0.00  0.00     0.139 C 
HETATM   42  O   UNK     0      20.532  -6.620   9.507  0.00  0.00    -0.650 OA
BRANCH  41  43
HETATM   43  O   UNK     0      22.322  -5.247   9.817  0.00  0.00    -0.776 OA
HETATM   44  H   UNK     0      21.845  -4.382  10.041  0.00  0.00     0.167 HD
ENDBRANCH  41  43
ENDBRANCH  40  41
ENDBRANCH  39  40
ENDBRANCH  27  39
BRANCH  11  45
HETATM   45  C   UNK     0      12.298  -5.289  10.502  0.00  0.00     0.051 C 
BRANCH  45  46
HETATM   46  C   UNK     0      11.179  -4.657  11.248  0.00  0.00     0.114 C 
BRANCH  46  47
HETATM   47  C   UNK     0       9.938  -5.408  10.902  0.00  0.00     0.139 C 
HETATM   48  O   UNK     0       8.853  -4.812  10.948  0.00  0.00    -0.650 OA
BRANCH  47  49
HETATM   49  O   UNK     0       9.995  -6.730  10.540  0.00  0.00    -0.776 OA
HETATM   50  H   UNK     0       9.488  -7.095   9.724  0.00  0.00     0.167 HD
ENDBRANCH  47  49
ENDBRANCH  46  47
ENDBRANCH  45  46
ENDBRANCH  11  45
BRANCH  18  51
HETATM   51  C   UNK     0      16.505  -8.673   6.075  0.00  0.00     0.051 C 
BRANCH  51  52
HETATM   52  C   UNK     0      15.651  -7.965   5.033  0.00  0.00     0.114 C 
BRANCH  52  53
HETATM   53  C   UNK     0      14.617  -8.856   4.473  0.00  0.00     0.139 C 
HETATM   54  O   UNK     0      13.559  -9.048   5.094  0.00  0.00    -0.650 OA
BRANCH  53  55
HETATM   55  O   UNK     0      14.833  -9.474   3.265  0.00  0.00    -0.776 OA
HETATM   56  H   UNK     0      15.671  -9.440   2.734  0.00  0.00     0.167 HD
ENDBRANCH  53  55
ENDBRANCH  52  53
ENDBRANCH  51  52
ENDBRANCH  18  51
TORSDOF 16
ENDMDL
MODEL 3
REMARK VINA RESULT:      -9.0     27.453     31.232
REMARK  16 active torsions:
REMARK  status: ('A' for Active; 'I' for Inactive)
REMARK    1  A    between atoms: C_6  and  C_7 
REMARK    2  A    between atoms: C_7  and  C_8 
REMARK    3  A    between atoms: C_8  and  C_9 
REMARK    4  A    between atoms: C_9  and  O_11 
REMARK    5  A    between atoms: C_16  and  C_17 
REMARK    6  A    between atoms: C_17  and  C_18 
REMARK    7  A    between atoms: C_18  and  C_19 
REMARK    8  A    between atoms: C_19  and  O_21 
REMARK    9  A    between atoms: C_28  and  C_29 
REMARK   10  A    between atoms: C_29  and  C_30 
REMARK   11  A    between atoms: C_30  and  C_31 
REMARK   12  A    between atoms: C_31  and  O_33 
REMARK   13  A    between atoms: C_42  and  C_43 
REMARK   14  A    between atoms: C_43  and  C_44 
REMARK   15  A    between atoms: C_44  and  C_45 
REMARK   16  A    between atoms: C_45  and  O_47 
ROOT
HETATM    1  C   UNK     0      20.721   2.709  10.477  0.00  0.00     0.051 C 
HETATM    2  C   UNK     0      19.790   1.598  10.035  0.00  0.00    -0.031 A 
HETATM    3  C   UNK     0      19.593   1.067   8.770  0.00  0.00     0.021 A 
HETATM    4  N   UNK     0      18.639   0.108   8.839  0.00  0.00    -0.361 N 
HETATM    5  C   UNK     0      18.231   0.010  10.121  0.00  0.00     0.022 A 
HETATM    6  C   UNK     0      18.929   0.930  10.896  0.00  0.00    -0.027 A 
HETATM    7  C   UNK     0      17.269  -0.953  10.743  0.00  0.00     0.115 C 
HETATM    8  C   UNK     0      17.377  -2.403  10.304  0.00  0.00     0.021 A 
HETATM    9  N   UNK     0      18.479  -3.102   9.992  0.00  0.00    -0.361 N 
HETATM   10  C   UNK     0      18.094  -4.325   9.569  0.00  0.00     0.022 A 
HETATM   11  C   UNK     0      16.707  -4.419   9.619  0.00  0.00    -0.027 A 
HETATM   12  C   UNK     0      16.248  -3.212  10.081  0.00  0.00    -0.031 A 
HETATM   13  C   UNK     0      14.796  -2.855  10.303  0.00  0.00     0.051 C 
HETATM   14  C   UNK     0      19.011  -5.430   9.052  0.00  0.00     0.115 C 
HETATM   15  C   UNK     0      19.802  -5.045   7.812  0.00  0.00     0.021 A 
HETATM   16  N   UNK     0      20.665  -4.021   7.674  0.00  0.00    -0.361 N 
HETATM   17  C   UNK     0      21.097  -3.979   6.412  0.00  0.00     0.022 A 
HETATM   18  C   UNK     0      20.494  -5.032   5.695  0.00  0.00    -0.027 A 
HETATM   19  C   UNK     0      19.686  -5.693   6.584  0.00  0.00    -0.031 A 
HETATM   20  C   UNK     0      18.873  -6.925   6.231  0.00  0.00     0.051 C 
HETATM   21  C   UNK     0      22.012  -2.987   5.730  0.00  0.00     0.115 C 
HETATM   22  C   UNK     0      21.946  -1.549   6.187  0.00  0.00     0.022 A 
HETATM   23  N   UNK     0      20.864  -0.829   6.508  0.00  0.00    -0.361 N 
HETATM   24  C   UNK     0      21.275   0.357   7.001  0.00  0.00     0.021 A 
HETATM   25  C   UNK     0      22.656   0.406   6.986  0.00  0.00    -0.031 A 
HETATM   26  C   UNK     0      23.574   1.537   7.399  0.00  0.00     0.051 C 
HETATM   27  C   UNK     0      23.108  -0.803   6.469  0.00  0.00    -0.027 A 
HETATM   28  C   UNK     0      20.419   1.469   7.582  0.00  0.00     0.115 C 
HETATM   29  H   UNK     0      18.233  -0.466   7.974  0.00  0.00     0.165 HD
HETATM   30  H   UNK     0      19.533  -2.753  10.117  0.00  0.00     0.165 HD
HETATM   31  H   UNK     0      21.014  -3.342   8.495  0.00  0.00     0.165 HD
HETATM   32  H   UNK     0      19.797  -1.135   6.350  0.00  0.00     0.165 HD
ENDROOT
BRANCH   6  33
HETATM   33  C   UNK     0      18.838   1.221  12.373  0.00  0.00     0.051 C 
BRANCH  33  34
HETATM   34  C   UNK     0      19.846   0.402  13.142  0.00  0.00     0.114 C 
BRANCH  34  35
HETATM   35  C   UNK     0      20.791   1.353  13.794  0.00  0.00     0.139 C 
HETATM   36  O   UNK     0      20.361   2.429  14.304  0.00  0.00    -0.650 OA
BRANCH  35  37
HETATM   37  O   UNK     0      22.158   1.115  13.876  0.00  0.00    -0.776 OA
HETATM   38  H   UNK     0      22.595   0.800  14.726  0.00  0.00     0.167 HD
ENDBRANCH  35  37
ENDBRANCH  34  35
ENDBRANCH  33  34
ENDBRANCH   6  33
BRANCH  27  39
HETATM   39  C   UNK     0      24.548  -1.095   6.233  0.00  0.00     0.051 C 
BRANCH  39  40
HETATM   40  C   UNK     0      25.128  -0.728   4.942  0.00  0.00     0.114 C 
BRANCH  40  41
HETATM   41  C   UNK     0      24.500  -1.079   3.688  0.00  0.00     0.139 C 
HETATM   42  O   UNK     0      23.917  -0.261   2.963  0.00  0.00    -0.650 OA
BRANCH  41  43
HETATM   43  O   UNK     0      24.545  -2.432   3.247  0.00  0.00    -0.776 OA
HETATM   44  H   UNK     0      25.297  -2.638   2.601  0.00  0.00     0.167 HD
ENDBRANCH  41  43
ENDBRANCH  40  41
ENDBRANCH  39  40
ENDBRANCH  27  39
BRANCH  11  45
HETATM   45  C   UNK     0      15.828  -5.586   9.254  0.00  0.00     0.051 C 
BRANCH  45  46
HETATM   46  C   UNK     0      15.228  -6.281  10.422  0.00  0.00     0.114 C 
BRANCH  46  47
HETATM   47  C   UNK     0      16.331  -6.996  11.125  0.00  0.00     0.139 C 
HETATM   48  O   UNK     0      16.939  -7.889  10.519  0.00  0.00    -0.650 OA
BRANCH  47  49
HETATM   49  O   UNK     0      16.667  -6.674  12.416  0.00  0.00    -0.776 OA
HETATM   50  H   UNK     0      17.446  -7.129  12.906  0.00  0.00     0.167 HD
ENDBRANCH  47  49
ENDBRANCH  46  47
ENDBRANCH  45  46
ENDBRANCH  11  45
BRANCH  18  51
HETATM   51  C   UNK     0      20.693  -5.401   4.248  0.00  0.00     0.051 C 
BRANCH  51  52
HETATM   52  C   UNK     0      19.496  -4.839   3.496  0.00  0.00     0.114 C 
BRANCH  52  53
HETATM   53  C   UNK     0      18.834  -5.866   2.669  0.00  0.00     0.139 C 
HETATM   54  O   UNK     0      17.707  -5.651   2.196  0.00  0.00    -0.650 OA
BRANCH  53  55
HETATM   55  O   UNK     0      19.470  -7.060   2.431  0.00  0.00    -0.776 OA
HETATM   56  H   UNK     0      20.130  -7.500   3.028  0.00  0.00     0.167 HD
ENDBRANCH  53  55
ENDBRANCH  52  53
ENDBRANCH  51  52
ENDBRANCH  18  51
TORSDOF 16
ENDMDL
MODEL 4
REMARK VINA RESULT:      -8.9      2.468      8.090
REMARK  16 active torsions:
REMARK  status: ('A' for Active; 'I' for Inactive)
REMARK    1  A    between atoms: C_6  and  C_7 
REMARK    2  A    between atoms: C_7  and  C_8 
REMARK    3  A    between atoms: C_8  and  C_9 
REMARK    4  A    between atoms: C_9  and  O_11 
REMARK    5  A    between atoms: C_16  and  C_17 
REMARK    6  A    between atoms: C_17  and  C_18 
REMARK    7  A    between atoms: C_18  and  C_19 
REMARK    8  A    between atoms: C_19  and  O_21 
REMARK    9  A    between atoms: C_28  and  C_29 
REMARK   10  A    between atoms: C_29  and  C_30 
REMARK   11  A    between atoms: C_30  and  C_31 
REMARK   12  A    between atoms: C_31  and  O_33 
REMARK   13  A    between atoms: C_42  and  C_43 
REMARK   14  A    between atoms: C_43  and  C_44 
REMARK   15  A    between atoms: C_44  and  C_45 
REMARK   16  A    between atoms: C_45  and  O_47 
ROOT
HETATM    1  C   UNK     0       8.822  24.571  -2.750  0.00  0.00     0.051 C 
HETATM    2  C   UNK     0      10.326  24.638  -2.924  0.00  0.00    -0.031 A 
HETATM    3  C   UNK     0      11.212  23.646  -3.313  0.00  0.00     0.021 A 
HETATM    4  N   UNK     0      12.469  24.147  -3.301  0.00  0.00    -0.361 N 
HETATM    5  C   UNK     0      12.404  25.440  -2.921  0.00  0.00     0.022 A 
HETATM    6  C   UNK     0      11.077  25.779  -2.674  0.00  0.00    -0.027 A 
HETATM    7  C   UNK     0      13.492  26.464  -2.838  0.00  0.00     0.115 C 
HETATM    8  C   UNK     0      14.492  26.491  -3.980  0.00  0.00     0.021 A 
HETATM    9  N   UNK     0      14.278  26.259  -5.284  0.00  0.00    -0.361 N 
HETATM   10  C   UNK     0      15.468  26.300  -5.919  0.00  0.00     0.022 A 
HETATM   11  C   UNK     0      16.476  26.576  -4.999  0.00  0.00    -0.027 A 
HETATM   12  C   UNK     0      15.868  26.698  -3.776  0.00  0.00    -0.031 A 
HETATM   13  C   UNK     0      16.575  27.003  -2.475  0.00  0.00     0.051 C 
HETATM   14  C   UNK     0      15.710  26.029  -7.401  0.00  0.00     0.115 C 
HETATM   15  C   UNK     0      15.311  24.630  -7.844  0.00  0.00     0.021 A 
HETATM   16  N   UNK     0      14.097  24.056  -7.756  0.00  0.00    -0.361 N 
HETATM   17  C   UNK     0      14.176  22.795  -8.189  0.00  0.00     0.022 A 
HETATM   18  C   UNK     0      15.503  22.540  -8.588  0.00  0.00    -0.027 A 
HETATM   19  C   UNK     0      16.204  23.697  -8.368  0.00  0.00    -0.031 A 
HETATM   20  C   UNK     0      17.675  23.869  -8.698  0.00  0.00     0.051 C 
HETATM   21  C   UNK     0      13.121  21.713  -8.227  0.00  0.00     0.115 C 
HETATM   22  C   UNK     0      12.093  21.701  -7.120  0.00  0.00     0.022 A 
HETATM   23  N   UNK     0      12.277  21.933  -5.814  0.00  0.00    -0.361 N 
HETATM   24  C   UNK     0      11.070  21.965  -5.215  0.00  0.00     0.021 A 
HETATM   25  C   UNK     0      10.085  21.737  -6.157  0.00  0.00    -0.031 A 
HETATM   26  C   UNK     0       8.586  21.638  -5.964  0.00  0.00     0.051 C 
HETATM   27  C   UNK     0      10.715  21.565  -7.384  0.00  0.00    -0.027 A 
HETATM   28  C   UNK     0      10.761  22.285  -3.763  0.00  0.00     0.115 C 
HETATM   29  H   UNK     0      13.399  23.574  -3.523  0.00  0.00     0.165 HD
HETATM   30  H   UNK     0      13.281  26.115  -5.769  0.00  0.00     0.165 HD
HETATM   31  H   UNK     0      13.154  24.564  -7.426  0.00  0.00     0.165 HD
HETATM   32  H   UNK     0      13.266  22.034  -5.295  0.00  0.00     0.165 HD
ENDROOT
BRANCH   6  33
HETATM   33  C   UNK     0      10.478  27.087  -2.224  0.00  0.00     0.051 C 
BRANCH  33  34
HETATM   34  C   UNK     0       9.151  27.330  -2.902  0.00  0.00     0.114 C 
BRANCH  34  35
HETATM   35  C   UNK     0       8.288  28.074  -1.940  0.00  0.00     0.139 C 
HETATM   36  O   UNK     0       8.092  29.316  -2.089  0.00  0.00    -0.650 OA
BRANCH  35  37
HETATM   37  O   UNK     0       7.666  27.459  -0.860  0.00  0.00    -0.776 OA
HETATM   38  H   UNK     0       7.397  27.972  -0.036  0.00  0.00     0.167 HD
ENDBRANCH  35  37
ENDBRANCH  34  35
ENDBRANCH  33  34
ENDBRANCH   6  33
BRANCH  27  39
HETATM   39  C   UNK     0       9.980  21.228  -8.633  0.00  0.00     0.051 C 
BRANCH  39  40
HETATM   40  C   UNK     0      10.440  20.087  -9.423  0.00  0.00     0.114 C 
BRANCH  40  41
HETATM   41  C   UNK     0      10.396  18.732  -8.919  0.00  0.00     0.139 C 
HETATM   42  O   UNK     0      11.207  17.855  -9.246  0.00  0.00    -0.650 OA
BRANCH  41  43
HETATM   43  O   UNK     0       9.373  18.371  -7.997  0.00  0.00    -0.776 OA
HETATM   44  H   UNK     0       8.469  18.785  -8.191  0.00  0.00     0.167 HD
ENDBRANCH  41  43
ENDBRANCH  40  41
ENDBRANCH  39  40
ENDBRANCH  27  39
BRANCH  11  45
HETATM   45  C   UNK     0      17.955  26.725  -5.239  0.00  0.00     0.051 C 
BRANCH  45  46
HETATM   46  C   UNK     0      18.720  25.459  -5.115  0.00  0.00     0.114 C 
BRANCH  46  47
HETATM   47  C   UNK     0      20.141  25.767  -5.446  0.00  0.00     0.139 C 
HETATM   48  O   UNK     0      21.015  24.952  -5.119  0.00  0.00    -0.650 OA
BRANCH  47  49
HETATM   49  O   UNK     0      20.475  26.928  -6.096  0.00  0.00    -0.776 OA
HETATM   50  H   UNK     0      20.098  27.840  -5.812  0.00  0.00     0.167 HD
ENDBRANCH  47  49
ENDBRANCH  46  47
ENDBRANCH  45  46
ENDBRANCH  11  45
BRANCH  18  51
HETATM   51  C   UNK     0      16.068  21.268  -9.166  0.00  0.00     0.051 C 
BRANCH  51  52
HETATM   52  C   UNK     0      15.835  20.185  -8.123  0.00  0.00     0.114 C 
BRANCH  52  53
HETATM   53  C   UNK     0      15.820  18.838  -8.724  0.00  0.00     0.139 C 
HETATM   54  O   UNK     0      16.560  17.948  -8.274  0.00  0.00    -0.650 OA
BRANCH  53  55
HETATM   55  O   UNK     0      14.987  18.576  -9.785  0.00  0.00    -0.776 OA
HETATM   56  H   UNK     0      14.202  17.968  -9.775  0.00  0.00     0.167 HD
ENDBRANCH  53  55
ENDBRANCH  52  53
ENDBRANCH  51  52
ENDBRANCH  18  51
TORSDOF 16
ENDMDL
MODEL 5
REMARK VINA RESULT:      -8.5     28.138     31.198
REMARK  16 active torsions:
REMARK  status: ('A' for Active; 'I' for Inactive)
REMARK    1  A    between atoms: C_6  and  C_7 
REMARK    2  A    between atoms: C_7  and  C_8 
REMARK    3  A    between atoms: C_8  and  C_9 
REMARK    4  A    between atoms: C_9  and  O_11 
REMARK    5  A    between atoms: C_16  and  C_17 
REMARK    6  A    between atoms: C_17  and  C_18 
REMARK    7  A    between atoms: C_18  and  C_19 
REMARK    8  A    between atoms: C_19  and  O_21 
REMARK    9  A    between atoms: C_28  and  C_29 
REMARK   10  A    between atoms: C_29  and  C_30 
REMARK   11  A    between atoms: C_30  and  C_31 
REMARK   12  A    between atoms: C_31  and  O_33 
REMARK   13  A    between atoms: C_42  and  C_43 
REMARK   14  A    between atoms: C_43  and  C_44 
REMARK   15  A    between atoms: C_44  and  C_45 
REMARK   16  A    between atoms: C_45  and  O_47 
ROOT
HETATM    1  C   UNK     0      12.742  -6.179  10.410  0.00  0.00     0.051 C 
HETATM    2  C   UNK     0      13.923  -5.247  10.226  0.00  0.00    -0.031 A 
HETATM    3  C   UNK     0      15.244  -5.548   9.933  0.00  0.00     0.021 A 
HETATM    4  N   UNK     0      15.960  -4.399   9.893  0.00  0.00    -0.361 N 
HETATM    5  C   UNK     0      15.123  -3.372  10.147  0.00  0.00     0.022 A 
HETATM    6  C   UNK     0      13.841  -3.867  10.363  0.00  0.00    -0.027 A 
HETATM    7  C   UNK     0      15.390  -1.900  10.129  0.00  0.00     0.115 C 
HETATM    8  C   UNK     0      16.243  -1.375   8.987  0.00  0.00     0.021 A 
HETATM    9  N   UNK     0      16.280  -1.792   7.712  0.00  0.00    -0.361 N 
HETATM   10  C   UNK     0      17.250  -1.103   7.074  0.00  0.00     0.022 A 
HETATM   11  C   UNK     0      17.847  -0.212   7.960  0.00  0.00    -0.027 A 
HETATM   12  C   UNK     0      17.218  -0.378   9.167  0.00  0.00    -0.031 A 
HETATM   13  C   UNK     0      17.535   0.389  10.431  0.00  0.00     0.051 C 
HETATM   14  C   UNK     0      17.686  -1.294   5.624  0.00  0.00     0.115 C 
HETATM   15  C   UNK     0      18.215  -2.686   5.318  0.00  0.00     0.021 A 
HETATM   16  N   UNK     0      17.572  -3.860   5.465  0.00  0.00    -0.361 N 
HETATM   17  C   UNK     0      18.403  -4.857   5.155  0.00  0.00     0.022 A 
HETATM   18  C   UNK     0      19.645  -4.307   4.780  0.00  0.00    -0.027 A 
HETATM   19  C   UNK     0      19.513  -2.946   4.885  0.00  0.00    -0.031 A 
HETATM   20  C   UNK     0      20.616  -1.963   4.537  0.00  0.00     0.051 C 
HETATM   21  C   UNK     0      18.195  -6.353   5.223  0.00  0.00     0.115 C 
HETATM   22  C   UNK     0      17.313  -6.885   6.329  0.00  0.00     0.022 A 
HETATM   23  N   UNK     0      17.252  -6.486   7.606  0.00  0.00    -0.361 N 
HETATM   24  C   UNK     0      16.227  -7.130   8.202  0.00  0.00     0.021 A 
HETATM   25  C   UNK     0      15.621  -7.970   7.289  0.00  0.00    -0.031 A 
HETATM   26  C   UNK     0      14.461  -8.923   7.494  0.00  0.00     0.051 C 
HETATM   27  C   UNK     0      16.298  -7.831   6.082  0.00  0.00    -0.027 A 
HETATM   28  C   UNK     0      15.709  -6.941   9.617  0.00  0.00     0.115 C 
HETATM   29  H   UNK     0      17.060  -4.326   9.726  0.00  0.00     0.165 HD
HETATM   30  H   UNK     0      15.589  -2.537   7.246  0.00  0.00     0.165 HD
HETATM   31  H   UNK     0      16.494  -3.986   5.746  0.00  0.00     0.165 HD
HETATM   32  H   UNK     0      17.959  -5.778   8.111  0.00  0.00     0.165 HD
ENDROOT
BRANCH   6  33
HETATM   33  C   UNK     0      12.561  -3.139  10.687  0.00  0.00     0.051 C 
BRANCH  33  34
HETATM   34  C   UNK     0      11.494  -4.107  11.137  0.00  0.00     0.114 C 
BRANCH  34  35
HETATM   35  C   UNK     0      10.175  -3.533  10.742  0.00  0.00     0.139 C 
HETATM   36  O   UNK     0       9.131  -4.247  10.783  0.00  0.00    -0.650 OA
BRANCH  35  37
HETATM   37  O   UNK     0      10.027  -2.217  10.321  0.00  0.00    -0.776 OA
HETATM   38  H   UNK     0       9.667  -1.499  10.929  0.00  0.00     0.167 HD
ENDBRANCH  35  37
ENDBRANCH  34  35
ENDBRANCH  33  34
ENDBRANCH   6  33
BRANCH  27  39
HETATM   39  C   UNK     0      15.974  -8.636   4.873  0.00  0.00     0.051 C 
BRANCH  39  40
HETATM   40  C   UNK     0      15.078  -8.056   3.873  0.00  0.00     0.114 C 
BRANCH  40  41
HETATM   41  C   UNK     0      13.783  -8.627   3.575  0.00  0.00     0.139 C 
HETATM   42  O   UNK     0      12.848  -8.660   4.386  0.00  0.00    -0.650 OA
BRANCH  41  43
HETATM   43  O   UNK     0      13.555  -9.185   2.285  0.00  0.00    -0.776 OA
HETATM   44  H   UNK     0      14.235  -9.880   2.003  0.00  0.00     0.167 HD
ENDBRANCH  41  43
ENDBRANCH  40  41
ENDBRANCH  39  40
ENDBRANCH  27  39
BRANCH  11  45
HETATM   45  C   UNK     0      18.963   0.766   7.703  0.00  0.00     0.051 C 
BRANCH  45  46
HETATM   46  C   UNK     0      20.293   0.132   7.515  0.00  0.00     0.114 C 
BRANCH  46  47
HETATM   47  C   UNK     0      20.767  -0.306   8.859  0.00  0.00     0.139 C 
HETATM   48  O   UNK     0      21.052   0.559   9.698  0.00  0.00    -0.650 OA
BRANCH  47  49
HETATM   49  O   UNK     0      20.887  -1.639   9.162  0.00  0.00    -0.776 OA
HETATM   50  H   UNK     0      20.848  -2.368   8.439  0.00  0.00     0.167 HD
ENDBRANCH  47  49
ENDBRANCH  46  47
ENDBRANCH  45  46
ENDBRANCH  11  45
BRANCH  18  51
HETATM   51  C   UNK     0      20.882  -5.036   4.325  0.00  0.00     0.051 C 
BRANCH  51  52
HETATM   52  C   UNK     0      21.961  -4.727   5.353  0.00  0.00     0.114 C 
BRANCH  52  53
HETATM   53  C   UNK     0      21.538  -5.087   6.720  0.00  0.00     0.139 C 
HETATM   54  O   UNK     0      21.246  -6.263   6.990  0.00  0.00    -0.650 OA
BRANCH  53  55
HETATM   55  O   UNK     0      21.467  -4.115   7.688  0.00  0.00    -0.776 OA
HETATM   56  H   UNK     0      20.650  -3.623   7.963  0.00  0.00     0.167 HD
ENDBRANCH  53  55
ENDBRANCH  52  53
ENDBRANCH  51  52
ENDBRANCH  18  51
TORSDOF 16
ENDMDL
MODEL 6
REMARK VINA RESULT:      -8.5     24.704     28.383
REMARK  16 active torsions:
REMARK  status: ('A' for Active; 'I' for Inactive)
REMARK    1  A    between atoms: C_6  and  C_7 
REMARK    2  A    between atoms: C_7  and  C_8 
REMARK    3  A    between atoms: C_8  and  C_9 
REMARK    4  A    between atoms: C_9  and  O_11 
REMARK    5  A    between atoms: C_16  and  C_17 
REMARK    6  A    between atoms: C_17  and  C_18 
REMARK    7  A    between atoms: C_18  and  C_19 
REMARK    8  A    between atoms: C_19  and  O_21 
REMARK    9  A    between atoms: C_28  and  C_29 
REMARK   10  A    between atoms: C_29  and  C_30 
REMARK   11  A    between atoms: C_30  and  C_31 
REMARK   12  A    between atoms: C_31  and  O_33 
REMARK   13  A    between atoms: C_42  and  C_43 
REMARK   14  A    between atoms: C_43  and  C_44 
REMARK   15  A    between atoms: C_44  and  C_45 
REMARK   16  A    between atoms: C_45  and  O_47 
ROOT
HETATM    1  C   UNK     0      16.169   3.056   2.124  0.00  0.00     0.051 C 
HETATM    2  C   UNK     0      16.001   1.974   3.171  0.00  0.00    -0.031 A 
HETATM    3  C   UNK     0      15.500   0.689   3.036  0.00  0.00     0.021 A 
HETATM    4  N   UNK     0      15.507   0.083   4.247  0.00  0.00    -0.361 N 
HETATM    5  C   UNK     0      16.010   0.951   5.149  0.00  0.00     0.022 A 
HETATM    6  C   UNK     0      16.327   2.145   4.510  0.00  0.00    -0.027 A 
HETATM    7  C   UNK     0      16.316   0.745   6.600  0.00  0.00     0.115 C 
HETATM    8  C   UNK     0      16.979  -0.568   6.977  0.00  0.00     0.021 A 
HETATM    9  N   UNK     0      17.885  -1.276   6.286  0.00  0.00    -0.361 N 
HETATM   10  C   UNK     0      18.125  -2.421   6.959  0.00  0.00     0.022 A 
HETATM   11  C   UNK     0      17.359  -2.448   8.120  0.00  0.00    -0.027 A 
HETATM   12  C   UNK     0      16.635  -1.283   8.138  0.00  0.00    -0.031 A 
HETATM   13  C   UNK     0      15.662  -0.875   9.222  0.00  0.00     0.051 C 
HETATM   14  C   UNK     0      19.041  -3.556   6.509  0.00  0.00     0.115 C 
HETATM   15  C   UNK     0      18.628  -4.196   5.193  0.00  0.00     0.021 A 
HETATM   16  N   UNK     0      18.490  -3.597   3.996  0.00  0.00    -0.361 N 
HETATM   17  C   UNK     0      18.044  -4.488   3.108  0.00  0.00     0.022 A 
HETATM   18  C   UNK     0      17.894  -5.730   3.756  0.00  0.00    -0.027 A 
HETATM   19  C   UNK     0      18.264  -5.534   5.061  0.00  0.00    -0.031 A 
HETATM   20  C   UNK     0      18.286  -6.635   6.106  0.00  0.00     0.051 C 
HETATM   21  C   UNK     0      17.662  -4.306   1.657  0.00  0.00     0.115 C 
HETATM   22  C   UNK     0      17.041  -2.988   1.259  0.00  0.00     0.022 A 
HETATM   23  N   UNK     0      16.140  -2.259   1.929  0.00  0.00    -0.361 N 
HETATM   24  C   UNK     0      15.975  -1.088   1.281  0.00  0.00     0.021 A 
HETATM   25  C   UNK     0      16.782  -1.067   0.160  0.00  0.00    -0.031 A 
HETATM   26  C   UNK     0      16.916   0.007  -0.899  0.00  0.00     0.051 C 
HETATM   27  C   UNK     0      17.474  -2.273   0.124  0.00  0.00    -0.027 A 
HETATM   28  C   UNK     0      15.127   0.098   1.706  0.00  0.00     0.115 C 
HETATM   29  H   UNK     0      15.120  -0.940   4.463  0.00  0.00     0.165 HD
HETATM   30  H   UNK     0      18.396  -0.947   5.347  0.00  0.00     0.165 HD
HETATM   31  H   UNK     0      18.758  -2.534   3.760  0.00  0.00     0.165 HD
HETATM   32  H   UNK     0      15.578  -2.582   2.844  0.00  0.00     0.165 HD
ENDROOT
BRANCH   6  33
HETATM   33  C   UNK     0      16.906   3.420   5.069  0.00  0.00     0.051 C 
BRANCH  33  34
HETATM   34  C   UNK     0      15.818   4.435   5.325  0.00  0.00     0.114 C 
BRANCH  34  35
HETATM   35  C   UNK     0      16.473   5.675   5.831  0.00  0.00     0.139 C 
HETATM   36  O   UNK     0      17.719   5.691   6.055  0.00  0.00    -0.650 OA
BRANCH  35  37
HETATM   37  O   UNK     0      15.770   6.849   6.074  0.00  0.00    -0.776 OA
HETATM   38  H   UNK     0      16.111   7.555   6.706  0.00  0.00     0.167 HD
ENDBRANCH  35  37
ENDBRANCH  34  35
ENDBRANCH  33  34
ENDBRANCH   6  33
BRANCH  27  39
HETATM   39  C   UNK     0      18.394  -2.647  -0.985  0.00  0.00     0.051 C 
BRANCH  39  40
HETATM   40  C   UNK     0      17.842  -2.766  -2.334  0.00  0.00     0.114 C 
BRANCH  40  41
HETATM   41  C   UNK     0      18.561  -2.313  -3.503  0.00  0.00     0.139 C 
HETATM   42  O   UNK     0      18.020  -1.744  -4.461  0.00  0.00    -0.650 OA
BRANCH  41  43
HETATM   43  O   UNK     0      19.968  -2.524  -3.574  0.00  0.00    -0.776 OA
HETATM   44  H   UNK     0      20.262  -3.468  -3.352  0.00  0.00     0.167 HD
ENDBRANCH  41  43
ENDBRANCH  40  41
ENDBRANCH  39  40
ENDBRANCH  27  39
BRANCH  11  45
HETATM   45  C   UNK     0      17.296  -3.511   9.183  0.00  0.00     0.051 C 
BRANCH  45  46
HETATM   46  C   UNK     0      16.178  -4.473   9.013  0.00  0.00     0.114 C 
BRANCH  46  47
HETATM   47  C   UNK     0      15.809  -4.967  10.371  0.00  0.00     0.139 C 
HETATM   48  O   UNK     0      14.649  -5.356  10.565  0.00  0.00    -0.650 OA
BRANCH  47  49
HETATM   49  O   UNK     0      16.733  -4.988  11.386  0.00  0.00    -0.776 OA
HETATM   50  H   UNK     0      16.603  -4.453  12.252  0.00  0.00     0.167 HD
ENDBRANCH  47  49
ENDBRANCH  46  47
ENDBRANCH  45  46
ENDBRANCH  11  45
BRANCH  18  51
HETATM   51  C   UNK     0      17.442  -7.038   3.158  0.00  0.00     0.051 C 
BRANCH  51  52
HETATM   52  C   UNK     0      15.972  -7.187   3.521  0.00  0.00     0.114 C 
BRANCH  52  53
HETATM   53  C   UNK     0      15.416  -8.469   3.046  0.00  0.00     0.139 C 
HETATM   54  O   UNK     0      15.197  -9.387   3.852  0.00  0.00    -0.650 OA
BRANCH  53  55
HETATM   55  O   UNK     0      15.147  -8.640   1.710  0.00  0.00    -0.776 OA
HETATM   56  H   UNK     0      15.471  -9.385   1.140  0.00  0.00     0.167 HD
ENDBRANCH  53  55
ENDBRANCH  52  53
ENDBRANCH  51  52
ENDBRANCH  18  51
TORSDOF 16
ENDMDL
MODEL 7
REMARK VINA RESULT:      -8.3     27.586     30.361
REMARK  16 active torsions:
REMARK  status: ('A' for Active; 'I' for Inactive)
REMARK    1  A    between atoms: C_6  and  C_7 
REMARK    2  A    between atoms: C_7  and  C_8 
REMARK    3  A    between atoms: C_8  and  C_9 
REMARK    4  A    between atoms: C_9  and  O_11 
REMARK    5  A    between atoms: C_16  and  C_17 
REMARK    6  A    between atoms: C_17  and  C_18 
REMARK    7  A    between atoms: C_18  and  C_19 
REMARK    8  A    between atoms: C_19  and  O_21 
REMARK    9  A    between atoms: C_28  and  C_29 
REMARK   10  A    between atoms: C_29  and  C_30 
REMARK   11  A    between atoms: C_30  and  C_31 
REMARK   12  A    between atoms: C_31  and  O_33 
REMARK   13  A    between atoms: C_42  and  C_43 
REMARK   14  A    between atoms: C_43  and  C_44 
REMARK   15  A    between atoms: C_44  and  C_45 
REMARK   16  A    between atoms: C_45  and  O_47 
ROOT
HETATM    1  C   UNK     0      18.028  -4.887   1.444  0.00  0.00     0.051 C 
HETATM    2  C   UNK     0      18.198  -5.116   2.932  0.00  0.00    -0.031 A 
HETATM    3  C   UNK     0      18.917  -4.378   3.859  0.00  0.00     0.021 A 
HETATM    4  N   UNK     0      18.812  -4.971   5.072  0.00  0.00    -0.361 N 
HETATM    5  C   UNK     0      18.034  -6.066   4.940  0.00  0.00     0.022 A 
HETATM    6  C   UNK     0      17.635  -6.187   3.613  0.00  0.00    -0.027 A 
HETATM    7  C   UNK     0      17.534  -7.010   5.988  0.00  0.00     0.115 C 
HETATM    8  C   UNK     0      17.041  -6.392   7.284  0.00  0.00     0.021 A 
HETATM    9  N   UNK     0      16.387  -5.234   7.463  0.00  0.00    -0.361 N 
HETATM   10  C   UNK     0      16.232  -5.040   8.789  0.00  0.00     0.022 A 
HETATM   11  C   UNK     0      16.793  -6.107   9.485  0.00  0.00    -0.027 A 
HETATM   12  C   UNK     0      17.304  -6.963   8.542  0.00  0.00    -0.031 A 
HETATM   13  C   UNK     0      18.008  -8.269   8.837  0.00  0.00     0.051 C 
HETATM   14  C   UNK     0      15.598  -3.821   9.454  0.00  0.00     0.115 C 
HETATM   15  C   UNK     0      16.318  -2.515   9.159  0.00  0.00     0.021 A 
HETATM   16  N   UNK     0      16.550  -1.959   7.955  0.00  0.00    -0.361 N 
HETATM   17  C   UNK     0      17.273  -0.849   8.117  0.00  0.00     0.022 A 
HETATM   18  C   UNK     0      17.517  -0.668   9.493  0.00  0.00    -0.027 A 
HETATM   19  C   UNK     0      16.913  -1.718  10.135  0.00  0.00    -0.031 A 
HETATM   20  C   UNK     0      16.901  -1.891  11.642  0.00  0.00     0.051 C 
HETATM   21  C   UNK     0      17.852   0.093   7.085  0.00  0.00     0.115 C 
HETATM   22  C   UNK     0      18.306  -0.503   5.773  0.00  0.00     0.022 A 
HETATM   23  N   UNK     0      18.955  -1.656   5.566  0.00  0.00    -0.361 N 
HETATM   24  C   UNK     0      19.030  -1.866   4.236  0.00  0.00     0.021 A 
HETATM   25  C   UNK     0      18.423  -0.818   3.571  0.00  0.00    -0.031 A 
HETATM   26  C   UNK     0      18.291  -0.584   2.081  0.00  0.00     0.051 C 
HETATM   27  C   UNK     0      17.952   0.067   4.534  0.00  0.00    -0.027 A 
HETATM   28  C   UNK     0      19.593  -3.081   3.518  0.00  0.00     0.115 C 
HETATM   29  H   UNK     0      19.320  -4.635   6.005  0.00  0.00     0.165 HD
HETATM   30  H   UNK     0      15.990  -4.575   6.652  0.00  0.00     0.165 HD
HETATM   31  H   UNK     0      16.154  -2.330   6.974  0.00  0.00     0.165 HD
HETATM   32  H   UNK     0      19.405  -2.311   6.356  0.00  0.00     0.165 HD
ENDROOT
BRANCH   6  33
HETATM   33  C   UNK     0      16.772  -7.232   2.952  0.00  0.00     0.051 C 
BRANCH  33  34
HETATM   34  C   UNK     0      15.387  -7.242   3.553  0.00  0.00     0.114 C 
BRANCH  34  35
HETATM   35  C   UNK     0      14.926  -8.660   3.591  0.00  0.00     0.139 C 
HETATM   36  O   UNK     0      14.454  -9.204   2.551  0.00  0.00    -0.650 OA
BRANCH  35  37
HETATM   37  O   UNK     0      14.992  -9.438   4.740  0.00  0.00    -0.776 OA
HETATM   38  H   UNK     0      15.613  -9.216   5.502  0.00  0.00     0.167 HD
ENDBRANCH  35  37
ENDBRANCH  34  35
ENDBRANCH  33  34
ENDBRANCH   6  33
BRANCH  27  39
HETATM   39  C   UNK     0      17.299   1.361   4.195  0.00  0.00     0.051 C 
BRANCH  39  40
HETATM   40  C   UNK     0      15.844   1.456   4.316  0.00  0.00     0.114 C 
BRANCH  40  41
HETATM   41  C   UNK     0      15.014   0.299   4.566  0.00  0.00     0.139 C 
HETATM   42  O   UNK     0      14.569  -0.429   3.669  0.00  0.00    -0.650 OA
BRANCH  41  43
HETATM   43  O   UNK     0      14.681  -0.036   5.909  0.00  0.00    -0.776 OA
HETATM   44  H   UNK     0      13.921   0.507   6.300  0.00  0.00     0.167 HD
ENDBRANCH  41  43
ENDBRANCH  40  41
ENDBRANCH  39  40
ENDBRANCH  27  39
BRANCH  11  45
HETATM   45  C   UNK     0      16.854  -6.335  10.971  0.00  0.00     0.051 C 
BRANCH  45  46
HETATM   46  C   UNK     0      15.817  -7.266  11.485  0.00  0.00     0.114 C 
BRANCH  46  47
HETATM   47  C   UNK     0      16.360  -7.892  12.724  0.00  0.00     0.139 C 
HETATM   48  O   UNK     0      16.264  -9.120  12.859  0.00  0.00    -0.650 OA
BRANCH  47  49
HETATM   49  O   UNK     0      16.952  -7.126  13.697  0.00  0.00    -0.776 OA
HETATM   50  H   UNK     0      17.134  -7.488  14.640  0.00  0.00     0.167 HD
ENDBRANCH  47  49
ENDBRANCH  46  47
ENDBRANCH  45  46
ENDBRANCH  11  45
BRANCH  18  51
HETATM   51  C   UNK     0      18.267   0.455  10.161  0.00  0.00     0.051 C 
BRANCH  51  52
HETATM   52  C   UNK     0      19.685  -0.051  10.381  0.00  0.00     0.114 C 
BRANCH  52  53
HETATM   53  C   UNK     0      20.210   0.342  11.703  0.00  0.00     0.139 C 
HETATM   54  O   UNK     0      20.942   1.339  11.809  0.00  0.00    -0.650 OA
BRANCH  53  55
HETATM   55  O   UNK     0      19.887  -0.402  12.811  0.00  0.00    -0.776 OA
HETATM   56  H   UNK     0      19.066  -0.306  13.361  0.00  0.00     0.167 HD
ENDBRANCH  53  55
ENDBRANCH  52  53
ENDBRANCH  51  52
ENDBRANCH  18  51
TORSDOF 16
ENDMDL
MODEL 8
REMARK VINA RESULT:      -8.2     12.123     16.762
REMARK  16 active torsions:
REMARK  status: ('A' for Active; 'I' for Inactive)
REMARK    1  A    between atoms: C_6  and  C_7 
REMARK    2  A    between atoms: C_7  and  C_8 
REMARK    3  A    between atoms: C_8  and  C_9 
REMARK    4  A    between atoms: C_9  and  O_11 
REMARK    5  A    between atoms: C_16  and  C_17 
REMARK    6  A    between atoms: C_17  and  C_18 
REMARK    7  A    between atoms: C_18  and  C_19 
REMARK    8  A    between atoms: C_19  and  O_21 
REMARK    9  A    between atoms: C_28  and  C_29 
REMARK   10  A    between atoms: C_29  and  C_30 
REMARK   11  A    between atoms: C_30  and  C_31 
REMARK   12  A    between atoms: C_31  and  O_33 
REMARK   13  A    between atoms: C_42  and  C_43 
REMARK   14  A    between atoms: C_43  and  C_44 
REMARK   15  A    between atoms: C_44  and  C_45 
REMARK   16  A    between atoms: C_45  and  O_47 
ROOT
HETATM    1  C   UNK     0      25.908  18.388   4.403  0.00  0.00     0.051 C 
HETATM    2  C   UNK     0      25.055  17.958   3.227  0.00  0.00    -0.031 A 
HETATM    3  C   UNK     0      24.442  18.732   2.255  0.00  0.00     0.021 A 
HETATM    4  N   UNK     0      23.753  17.923   1.416  0.00  0.00    -0.361 N 
HETATM    5  C   UNK     0      23.920  16.649   1.827  0.00  0.00     0.022 A 
HETATM    6  C   UNK     0      24.727  16.635   2.960  0.00  0.00    -0.027 A 
HETATM    7  C   UNK     0      23.449  15.375   1.197  0.00  0.00     0.115 C 
HETATM    8  C   UNK     0      23.584  15.271  -0.312  0.00  0.00     0.021 A 
HETATM    9  N   UNK     0      24.555  15.758  -1.100  0.00  0.00    -0.361 N 
HETATM   10  C   UNK     0      24.217  15.508  -2.383  0.00  0.00     0.022 A 
HETATM   11  C   UNK     0      23.001  14.833  -2.422  0.00  0.00    -0.027 A 
HETATM   12  C   UNK     0      22.596  14.681  -1.120  0.00  0.00    -0.031 A 
HETATM   13  C   UNK     0      21.323  13.996  -0.675  0.00  0.00     0.051 C 
HETATM   14  C   UNK     0      24.998  15.940  -3.621  0.00  0.00     0.115 C 
HETATM   15  C   UNK     0      25.150  17.447  -3.758  0.00  0.00     0.021 A 
HETATM   16  N   UNK     0      25.719  18.298  -2.885  0.00  0.00    -0.361 N 
HETATM   17  C   UNK     0      25.590  19.546  -3.341  0.00  0.00     0.022 A 
HETATM   18  C   UNK     0      24.912  19.505  -4.575  0.00  0.00    -0.027 A 
HETATM   19  C   UNK     0      24.643  18.184  -4.826  0.00  0.00    -0.031 A 
HETATM   20  C   UNK     0      23.950  17.688  -6.082  0.00  0.00     0.051 C 
HETATM   21  C   UNK     0      25.990  20.859  -2.707  0.00  0.00     0.115 C 
HETATM   22  C   UNK     0      25.903  20.962  -1.202  0.00  0.00     0.022 A 
HETATM   23  N   UNK     0      24.951  20.483  -0.391  0.00  0.00    -0.361 N 
HETATM   24  C   UNK     0      25.345  20.674   0.884  0.00  0.00     0.021 A 
HETATM   25  C   UNK     0      26.577  21.300   0.894  0.00  0.00    -0.031 A 
HETATM   26  C   UNK     0      27.404  21.757   2.078  0.00  0.00     0.051 C 
HETATM   27  C   UNK     0      26.954  21.495  -0.429  0.00  0.00    -0.027 A 
HETATM   28  C   UNK     0      24.644  20.218   2.152  0.00  0.00     0.115 C 
HETATM   29  H   UNK     0      23.120  18.261   0.562  0.00  0.00     0.165 HD
HETATM   30  H   UNK     0      25.504  16.234  -0.752  0.00  0.00     0.165 HD
HETATM   31  H   UNK     0      26.267  18.009  -1.950  0.00  0.00     0.165 HD
HETATM   32  H   UNK     0      23.970  20.045  -0.712  0.00  0.00     0.165 HD
ENDROOT
BRANCH   6  33
HETATM   33  C   UNK     0      25.202  15.475   3.798  0.00  0.00     0.051 C 
BRANCH  33  34
HETATM   34  C   UNK     0      26.613  15.087   3.423  0.00  0.00     0.114 C 
BRANCH  34  35
HETATM   35  C   UNK     0      26.539  14.300   2.159  0.00  0.00     0.139 C 
HETATM   36  O   UNK     0      26.084  13.119   2.169  0.00  0.00    -0.650 OA
BRANCH  35  37
HETATM   37  O   UNK     0      26.951  14.809   0.934  0.00  0.00    -0.776 OA
HETATM   38  H   UNK     0      27.754  14.444   0.446  0.00  0.00     0.167 HD
ENDBRANCH  35  37
ENDBRANCH  34  35
ENDBRANCH  33  34
ENDBRANCH   6  33
BRANCH  27  39
HETATM   39  C   UNK     0      28.200  22.209  -0.820  0.00  0.00     0.051 C 
BRANCH  39  40
HETATM   40  C   UNK     0      29.468  21.483  -0.751  0.00  0.00     0.114 C 
BRANCH  40  41
HETATM   41  C   UNK     0      29.533  20.040  -0.813  0.00  0.00     0.139 C 
HETATM   42  O   UNK     0      29.735  19.322   0.175  0.00  0.00    -0.650 OA
BRANCH  41  43
HETATM   43  O   UNK     0      29.357  19.393  -2.069  0.00  0.00    -0.776 OA
HETATM   44  H   UNK     0      29.845  19.834  -2.840  0.00  0.00     0.167 HD
ENDBRANCH  41  43
ENDBRANCH  40  41
ENDBRANCH  39  40
ENDBRANCH  27  39
BRANCH  11  45
HETATM   45  C   UNK     0      22.234  14.342  -3.620  0.00  0.00     0.051 C 
BRANCH  45  46
HETATM   46  C   UNK     0      22.755  13.075  -4.195  0.00  0.00     0.114 C 
BRANCH  46  47
HETATM   47  C   UNK     0      23.210  13.374  -5.583  0.00  0.00     0.139 C 
HETATM   48  O   UNK     0      24.097  12.667  -6.081  0.00  0.00    -0.650 OA
BRANCH  47  49
HETATM   49  O   UNK     0      22.660  14.410  -6.294  0.00  0.00    -0.776 OA
HETATM   50  H   UNK     0      21.764  14.317  -6.788  0.00  0.00     0.167 HD
ENDBRANCH  47  49
ENDBRANCH  46  47
ENDBRANCH  45  46
ENDBRANCH  11  45
BRANCH  18  51
HETATM   51  C   UNK     0      24.558  20.659  -5.477  0.00  0.00     0.051 C 
BRANCH  51  52
HETATM   52  C   UNK     0      23.058  20.869  -5.331  0.00  0.00     0.114 C 
BRANCH  52  53
HETATM   53  C   UNK     0      22.741  21.856  -4.281  0.00  0.00     0.139 C 
HETATM   54  O   UNK     0      22.675  23.064  -4.562  0.00  0.00    -0.650 OA
BRANCH  53  55
HETATM   55  O   UNK     0      22.522  21.432  -2.993  0.00  0.00    -0.776 OA
HETATM   56  H   UNK     0      22.733  21.940  -2.167  0.00  0.00     0.167 HD
ENDBRANCH  53  55
ENDBRANCH  52  53
ENDBRANCH  51  52
ENDBRANCH  18  51
TORSDOF 16
ENDMDL
MODEL 9
REMARK VINA RESULT:      -8.1     24.518     27.923
REMARK  16 active torsions:
REMARK  status: ('A' for Active; 'I' for Inactive)
REMARK    1  A    between atoms: C_6  and  C_7 
REMARK    2  A    between atoms: C_7  and  C_8 
REMARK    3  A    between atoms: C_8  and  C_9 
REMARK    4  A    between atoms: C_9  and  O_11 
REMARK    5  A    between atoms: C_16  and  C_17 
REMARK    6  A    between atoms: C_17  and  C_18 
REMARK    7  A    between atoms: C_18  and  C_19 
REMARK    8  A    between atoms: C_19  and  O_21 
REMARK    9  A    between atoms: C_28  and  C_29 
REMARK   10  A    between atoms: C_29  and  C_30 
REMARK   11  A    between atoms: C_30  and  C_31 
REMARK   12  A    between atoms: C_31  and  O_33 
REMARK   13  A    between atoms: C_42  and  C_43 
REMARK   14  A    between atoms: C_43  and  C_44 
REMARK   15  A    between atoms: C_44  and  C_45 
REMARK   16  A    between atoms: C_45  and  O_47 
ROOT
HETATM    1  C   UNK     0      16.472  -3.982   8.986  0.00  0.00     0.051 C 
HETATM    2  C   UNK     0      16.790  -2.876   8.001  0.00  0.00    -0.031 A 
HETATM    3  C   UNK     0      17.701  -2.863   6.956  0.00  0.00     0.021 A 
HETATM    4  N   UNK     0      17.671  -1.648   6.359  0.00  0.00    -0.361 N 
HETATM    5  C   UNK     0      16.755  -0.889   6.996  0.00  0.00     0.022 A 
HETATM    6  C   UNK     0      16.187  -1.625   8.030  0.00  0.00    -0.027 A 
HETATM    7  C   UNK     0      16.273   0.492   6.674  0.00  0.00     0.115 C 
HETATM    8  C   UNK     0      16.019   0.801   5.209  0.00  0.00     0.021 A 
HETATM    9  N   UNK     0      15.538  -0.010   4.255  0.00  0.00    -0.361 N 
HETATM   10  C   UNK     0      15.568   0.658   3.082  0.00  0.00     0.022 A 
HETATM   11  C   UNK     0      16.074   1.938   3.289  0.00  0.00    -0.027 A 
HETATM   12  C   UNK     0      16.360   2.035   4.627  0.00  0.00    -0.031 A 
HETATM   13  C   UNK     0      16.929   3.256   5.313  0.00  0.00     0.051 C 
HETATM   14  C   UNK     0      15.172   0.102   1.717  0.00  0.00     0.115 C 
HETATM   15  C   UNK     0      16.005  -1.090   1.273  0.00  0.00     0.021 A 
HETATM   16  N   UNK     0      16.156  -2.268   1.907  0.00  0.00    -0.361 N 
HETATM   17  C   UNK     0      17.024  -3.022   1.229  0.00  0.00     0.022 A 
HETATM   18  C   UNK     0      17.452  -2.305   0.094  0.00  0.00    -0.027 A 
HETATM   19  C   UNK     0      16.806  -1.097   0.133  0.00  0.00    -0.031 A 
HETATM   20  C   UNK     0      16.955  -0.025  -0.932  0.00  0.00     0.051 C 
HETATM   21  C   UNK     0      17.585  -4.388   1.553  0.00  0.00     0.115 C 
HETATM   22  C   UNK     0      17.802  -4.726   3.009  0.00  0.00     0.022 A 
HETATM   23  N   UNK     0      18.276  -3.937   3.982  0.00  0.00    -0.361 N 
HETATM   24  C   UNK     0      18.164  -4.596   5.154  0.00  0.00     0.021 A 
HETATM   25  C   UNK     0      17.614  -5.843   4.928  0.00  0.00    -0.031 A 
HETATM   26  C   UNK     0      17.332  -6.954   5.918  0.00  0.00     0.051 C 
HETATM   27  C   UNK     0      17.374  -5.950   3.563  0.00  0.00    -0.027 A 
HETATM   28  C   UNK     0      18.483  -4.078   6.545  0.00  0.00     0.115 C 
HETATM   29  H   UNK     0      18.325  -1.322   5.518  0.00  0.00     0.165 HD
HETATM   30  H   UNK     0      15.129  -1.038   4.414  0.00  0.00     0.165 HD
HETATM   31  H   UNK     0      15.603  -2.594   2.826  0.00  0.00     0.165 HD
HETATM   32  H   UNK     0      18.734  -2.923   3.846  0.00  0.00     0.165 HD
ENDROOT
BRANCH   6  33
HETATM   33  C   UNK     0      15.130  -1.235   9.032  0.00  0.00     0.051 C 
BRANCH  33  34
HETATM   34  C   UNK     0      15.760  -0.644  10.271  0.00  0.00     0.114 C 
BRANCH  34  35
HETATM   35  C   UNK     0      14.813  -0.862  11.401  0.00  0.00     0.139 C 
HETATM   36  O   UNK     0      13.666  -1.352  11.186  0.00  0.00    -0.650 OA
BRANCH  35  37
HETATM   37  O   UNK     0      15.132  -0.551  12.718  0.00  0.00    -0.776 OA
HETATM   38  H   UNK     0      15.143   0.398  13.055  0.00  0.00     0.167 HD
ENDBRANCH  35  37
ENDBRANCH  34  35
ENDBRANCH  33  34
ENDBRANCH   6  33
BRANCH  27  39
HETATM   39  C   UNK     0      16.847  -7.188   2.927  0.00  0.00     0.051 C 
BRANCH  39  40
HETATM   40  C   UNK     0      15.501  -7.635   3.287  0.00  0.00     0.114 C 
BRANCH  40  41
HETATM   41  C   UNK     0      14.730  -8.517   2.441  0.00  0.00     0.139 C 
HETATM   42  O   UNK     0      15.104  -8.889   1.320  0.00  0.00    -0.650 OA
BRANCH  41  43
HETATM   43  O   UNK     0      13.470  -8.992   2.904  0.00  0.00    -0.776 OA
HETATM   44  H   UNK     0      13.099  -9.775   2.379  0.00  0.00     0.167 HD
ENDBRANCH  41  43
ENDBRANCH  40  41
ENDBRANCH  39  40
ENDBRANCH  27  39
BRANCH  11  45
HETATM   45  C   UNK     0      16.285   3.040   2.286  0.00  0.00     0.051 C 
BRANCH  45  46
HETATM   46  C   UNK     0      17.493   2.866   1.439  0.00  0.00     0.114 C 
BRANCH  46  47
HETATM   47  C   UNK     0      18.610   3.591   2.110  0.00  0.00     0.139 C 
HETATM   48  O   UNK     0      18.488   4.806   2.318  0.00  0.00    -0.650 OA
BRANCH  47  49
HETATM   49  O   UNK     0      19.751   2.928   2.488  0.00  0.00    -0.776 OA
HETATM   50  H   UNK     0      20.676   3.185   2.125  0.00  0.00     0.167 HD
ENDBRANCH  47  49
ENDBRANCH  46  47
ENDBRANCH  45  46
ENDBRANCH  11  45
BRANCH  18  51
HETATM   51  C   UNK     0      18.408  -2.755  -0.980  0.00  0.00     0.051 C 
BRANCH  51  52
HETATM   52  C   UNK     0      17.563  -3.033  -2.214  0.00  0.00     0.114 C 
BRANCH  52  53
HETATM   53  C   UNK     0      18.150  -2.435  -3.429  0.00  0.00     0.139 C 
HETATM   54  O   UNK     0      17.428  -1.819  -4.229  0.00  0.00    -0.650 OA
BRANCH  53  55
HETATM   55  O   UNK     0      19.496  -2.569  -3.670  0.00  0.00    -0.776 OA
HETATM   56  H   UNK     0      20.226  -2.129  -3.160  0.00  0.00     0.167 HD
ENDBRANCH  53  55
ENDBRANCH  52  53
ENDBRANCH  51  52
ENDBRANCH  18  51
TORSDOF 16
ENDMDL
MODEL 10
REMARK VINA RESULT:      -8.1     26.919     30.065
REMARK  16 active torsions:
REMARK  status: ('A' for Active; 'I' for Inactive)
REMARK    1  A    between atoms: C_6  and  C_7 
REMARK    2  A    between atoms: C_7  and  C_8 
REMARK    3  A    between atoms: C_8  and  C_9 
REMARK    4  A    between atoms: C_9  and  O_11 
REMARK    5  A    between atoms: C_16  and  C_17 
REMARK    6  A    between atoms: C_17  and  C_18 
REMARK    7  A    between atoms: C_18  and  C_19 
REMARK    8  A    between atoms: C_19  and  O_21 
REMARK    9  A    between atoms: C_28  and  C_29 
REMARK   10  A    between atoms: C_29  and  C_30 
REMARK   11  A    between atoms: C_30  and  C_31 
REMARK   12  A    between atoms: C_31  and  O_33 
REMARK   13  A    between atoms: C_42  and  C_43 
REMARK   14  A    between atoms: C_43  and  C_44 
REMARK   15  A    between atoms: C_44  and  C_45 
REMARK   16  A    between atoms: C_45  and  O_47 
ROOT
HETATM    1  C   UNK     0      15.598  -7.521   8.486  0.00  0.00     0.051 C 
HETATM    2  C   UNK     0      16.395  -6.286   8.853  0.00  0.00    -0.031 A 
HETATM    3  C   UNK     0      17.700  -5.952   8.525  0.00  0.00     0.021 A 
HETATM    4  N   UNK     0      18.008  -4.764   9.097  0.00  0.00    -0.361 N 
HETATM    5  C   UNK     0      16.925  -4.329   9.774  0.00  0.00     0.022 A 
HETATM    6  C   UNK     0      15.899  -5.258   9.644  0.00  0.00    -0.027 A 
HETATM    7  C   UNK     0      16.710  -3.036  10.497  0.00  0.00     0.115 C 
HETATM    8  C   UNK     0      17.216  -1.779   9.811  0.00  0.00     0.021 A 
HETATM    9  N   UNK     0      17.234  -1.492   8.500  0.00  0.00    -0.361 N 
HETATM   10  C   UNK     0      17.857  -0.305   8.340  0.00  0.00     0.022 A 
HETATM   11  C   UNK     0      18.242   0.191   9.582  0.00  0.00    -0.027 A 
HETATM   12  C   UNK     0      17.841  -0.733  10.513  0.00  0.00    -0.031 A 
HETATM   13  C   UNK     0      18.044  -0.613  12.007  0.00  0.00     0.051 C 
HETATM   14  C   UNK     0      18.160   0.382   7.011  0.00  0.00     0.115 C 
HETATM   15  C   UNK     0      19.062  -0.427   6.092  0.00  0.00     0.021 A 
HETATM   16  N   UNK     0      18.843  -1.663   5.606  0.00  0.00    -0.361 N 
HETATM   17  C   UNK     0      19.904  -2.048   4.894  0.00  0.00     0.022 A 
HETATM   18  C   UNK     0      20.857  -1.010   4.910  0.00  0.00    -0.027 A 
HETATM   19  C   UNK     0      20.317   0.000   5.662  0.00  0.00    -0.031 A 
HETATM   20  C   UNK     0      21.004   1.331   5.906  0.00  0.00     0.051 C 
HETATM   21  C   UNK     0      20.187  -3.365   4.207  0.00  0.00     0.115 C 
HETATM   22  C   UNK     0      19.652  -4.620   4.855  0.00  0.00     0.022 A 
HETATM   23  N   UNK     0      19.617  -4.931   6.158  0.00  0.00    -0.361 N 
HETATM   24  C   UNK     0      18.924  -6.079   6.301  0.00  0.00     0.021 A 
HETATM   25  C   UNK     0      18.512  -6.523   5.059  0.00  0.00    -0.031 A 
HETATM   26  C   UNK     0      17.744  -7.779   4.703  0.00  0.00     0.051 C 
HETATM   27  C   UNK     0      18.966  -5.606   4.118  0.00  0.00    -0.027 A 
HETATM   28  C   UNK     0      18.541  -6.778   7.593  0.00  0.00     0.115 C 
HETATM   29  H   UNK     0      19.001  -4.259   9.051  0.00  0.00     0.165 HD
HETATM   30  H   UNK     0      16.764  -2.101   7.689  0.00  0.00     0.165 HD
HETATM   31  H   UNK     0      17.900  -2.257   5.726  0.00  0.00     0.165 HD
HETATM   32  H   UNK     0      20.119  -4.365   6.985  0.00  0.00     0.165 HD
ENDROOT
BRANCH   6  33
HETATM   33  C   UNK     0      14.501  -5.246  10.210  0.00  0.00     0.051 C 
BRANCH  33  34
HETATM   34  C   UNK     0      13.902  -3.862  10.126  0.00  0.00     0.114 C 
BRANCH  34  35
HETATM   35  C   UNK     0      12.586  -3.902  10.826  0.00  0.00     0.139 C 
HETATM   36  O   UNK     0      11.948  -4.990  10.921  0.00  0.00    -0.650 OA
BRANCH  35  37
HETATM   37  O   UNK     0      12.007  -2.776  11.398  0.00  0.00    -0.776 OA
HETATM   38  H   UNK     0      11.756  -1.968  10.851  0.00  0.00     0.167 HD
ENDBRANCH  35  37
ENDBRANCH  34  35
ENDBRANCH  33  34
ENDBRANCH   6  33
BRANCH  27  39
HETATM   39  C   UNK     0      18.775  -5.785   2.653  0.00  0.00     0.051 C 
BRANCH  39  40
HETATM   40  C   UNK     0      17.650  -5.104   2.012  0.00  0.00     0.114 C 
BRANCH  40  41
HETATM   41  C   UNK     0      17.382  -3.699   2.218  0.00  0.00     0.139 C 
HETATM   42  O   UNK     0      17.793  -2.806   1.465  0.00  0.00    -0.650 OA
BRANCH  41  43
HETATM   43  O   UNK     0      16.603  -3.302   3.343  0.00  0.00    -0.776 OA
HETATM   44  H   UNK     0      16.969  -3.611   4.235  0.00  0.00     0.167 HD
ENDBRANCH  41  43
ENDBRANCH  40  41
ENDBRANCH  39  40
ENDBRANCH  27  39
BRANCH  11  45
HETATM   45  C   UNK     0      18.954   1.477   9.904  0.00  0.00     0.051 C 
BRANCH  45  46
HETATM   46  C   UNK     0      20.419   1.435   9.662  0.00  0.00     0.114 C 
BRANCH  46  47
HETATM   47  C   UNK     0      20.902   2.845   9.630  0.00  0.00     0.139 C 
HETATM   48  O   UNK     0      20.416   3.619   8.793  0.00  0.00    -0.650 OA
BRANCH  47  49
HETATM   49  O   UNK     0      21.864   3.278  10.507  0.00  0.00    -0.776 OA
HETATM   50  H   UNK     0      21.627   3.675  11.425  0.00  0.00     0.167 HD
ENDBRANCH  47  49
ENDBRANCH  46  47
ENDBRANCH  45  46
ENDBRANCH  11  45
BRANCH  18  51
HETATM   51  C   UNK     0      22.200  -0.975   4.228  0.00  0.00     0.051 C 
BRANCH  51  52
HETATM   52  C   UNK     0      23.179  -1.645   5.180  0.00  0.00     0.114 C 
BRANCH  52  53
HETATM   53  C   UNK     0      24.490  -1.882   4.543  0.00  0.00     0.139 C 
HETATM   54  O   UNK     0      25.530  -1.499   5.102  0.00  0.00    -0.650 OA
BRANCH  53  55
HETATM   55  O   UNK     0      24.550  -2.523   3.330  0.00  0.00    -0.776 OA
HETATM   56  H   UNK     0      23.780  -2.723   2.736  0.00  0.00     0.167 HD
ENDBRANCH  53  55
ENDBRANCH  52  53
ENDBRANCH  51  52
ENDBRANCH  18  51
TORSDOF 16
ENDMDL
MODEL 11
REMARK VINA RESULT:      -8.1     26.781     29.809
REMARK  16 active torsions:
REMARK  status: ('A' for Active; 'I' for Inactive)
REMARK    1  A    between atoms: C_6  and  C_7 
REMARK    2  A    between atoms: C_7  and  C_8 
REMARK    3  A    between atoms: C_8  and  C_9 
REMARK    4  A    between atoms: C_9  and  O_11 
REMARK    5  A    between atoms: C_16  and  C_17 
REMARK    6  A    between atoms: C_17  and  C_18 
REMARK    7  A    between atoms: C_18  and  C_19 
REMARK    8  A    between atoms: C_19  and  O_21 
REMARK    9  A    between atoms: C_28  and  C_29 
REMARK   10  A    between atoms: C_29  and  C_30 
REMARK   11  A    between atoms: C_30  and  C_31 
REMARK   12  A    between atoms: C_31  and  O_33 
REMARK   13  A    between atoms: C_42  and  C_43 
REMARK   14  A    between atoms: C_43  and  C_44 
REMARK   15  A    between atoms: C_44  and  C_45 
REMARK   16  A    between atoms: C_45  and  O_47 
ROOT
HETATM    1  C   UNK     0     -10.805  17.726   6.874  0.00  0.00     0.051 C 
HETATM    2  C   UNK     0     -10.347  17.323   8.261  0.00  0.00    -0.031 A 
HETATM    3  C   UNK     0      -9.272  17.787   9.002  0.00  0.00     0.021 A 
HETATM    4  N   UNK     0      -9.226  17.118  10.179  0.00  0.00    -0.361 N 
HETATM    5  C   UNK     0     -10.253  16.245  10.208  0.00  0.00     0.022 A 
HETATM    6  C   UNK     0     -10.974  16.344   9.022  0.00  0.00    -0.027 A 
HETATM    7  C   UNK     0     -10.703  15.339  11.312  0.00  0.00     0.115 C 
HETATM    8  C   UNK     0     -10.709  15.924  12.713  0.00  0.00     0.021 A 
HETATM    9  N   UNK     0     -11.002  17.177  13.095  0.00  0.00    -0.361 N 
HETATM   10  C   UNK     0     -10.787  17.272  14.424  0.00  0.00     0.022 A 
HETATM   11  C   UNK     0     -10.351  16.044  14.913  0.00  0.00    -0.027 A 
HETATM   12  C   UNK     0     -10.300  15.190  13.841  0.00  0.00    -0.031 A 
HETATM   13  C   UNK     0      -9.884  13.738  13.899  0.00  0.00     0.051 C 
HETATM   14  C   UNK     0     -10.930  18.532  15.273  0.00  0.00     0.115 C 
HETATM   15  C   UNK     0     -10.008  19.665  14.854  0.00  0.00     0.021 A 
HETATM   16  N   UNK     0      -9.942  20.269  13.653  0.00  0.00    -0.361 N 
HETATM   17  C   UNK     0      -8.955  21.167  13.667  0.00  0.00     0.022 A 
HETATM   18  C   UNK     0      -8.355  21.155  14.942  0.00  0.00    -0.027 A 
HETATM   19  C   UNK     0      -9.024  20.211  15.676  0.00  0.00    -0.031 A 
HETATM   20  C   UNK     0      -8.719  19.900  17.130  0.00  0.00     0.051 C 
HETATM   21  C   UNK     0      -8.428  22.050  12.558  0.00  0.00     0.115 C 
HETATM   22  C   UNK     0      -8.457  21.497  11.153  0.00  0.00     0.022 A 
HETATM   23  N   UNK     0      -8.174  20.254  10.744  0.00  0.00    -0.361 N 
HETATM   24  C   UNK     0      -8.470  20.161   9.432  0.00  0.00     0.021 A 
HETATM   25  C   UNK     0      -8.946  21.378   8.983  0.00  0.00    -0.031 A 
HETATM   26  C   UNK     0      -9.368  21.778   7.584  0.00  0.00     0.051 C 
HETATM   27  C   UNK     0      -8.946  22.249  10.066  0.00  0.00    -0.027 A 
HETATM   28  C   UNK     0      -8.404  18.927   8.549  0.00  0.00     0.115 C 
HETATM   29  H   UNK     0      -8.444  17.241  10.965  0.00  0.00     0.165 HD
HETATM   30  H   UNK     0     -11.410  17.983  12.437  0.00  0.00     0.165 HD
HETATM   31  H   UNK     0     -10.637  20.092  12.791  0.00  0.00     0.165 HD
HETATM   32  H   UNK     0      -7.720  19.441  11.369  0.00  0.00     0.165 HD
ENDROOT
BRANCH   6  33
HETATM   33  C   UNK     0     -12.194  15.588   8.562  0.00  0.00     0.051 C 
BRANCH  33  34
HETATM   34  C   UNK     0     -13.447  16.398   8.801  0.00  0.00     0.114 C 
BRANCH  34  35
HETATM   35  C   UNK     0     -14.288  16.291   7.575  0.00  0.00     0.139 C 
HETATM   36  O   UNK     0     -15.219  15.436   7.513  0.00  0.00    -0.650 OA
BRANCH  35  37
HETATM   37  O   UNK     0     -14.102  17.106   6.465  0.00  0.00    -0.776 OA
HETATM   38  H   UNK     0     -13.540  16.819   5.679  0.00  0.00     0.167 HD
ENDBRANCH  35  37
ENDBRANCH  34  35
ENDBRANCH  33  34
ENDBRANCH   6  33
BRANCH  27  39
HETATM   39  C   UNK     0      -9.330  23.683   9.953  0.00  0.00     0.051 C 
BRANCH  39  40
HETATM   40  C   UNK     0     -10.718  24.053  10.225  0.00  0.00     0.114 C 
BRANCH  40  41
HETATM   41  C   UNK     0     -11.734  23.069  10.524  0.00  0.00     0.139 C 
HETATM   42  O   UNK     0     -12.008  22.697  11.673  0.00  0.00    -0.650 OA
BRANCH  41  43
HETATM   43  O   UNK     0     -12.468  22.486   9.452  0.00  0.00    -0.776 OA
HETATM   44  H   UNK     0     -13.389  22.150   9.709  0.00  0.00     0.167 HD
ENDBRANCH  41  43
ENDBRANCH  40  41
ENDBRANCH  39  40
ENDBRANCH  27  39
BRANCH  11  45
HETATM   45  C   UNK     0      -9.996  15.666  16.326  0.00  0.00     0.051 C 
BRANCH  45  46
HETATM   46  C   UNK     0      -8.771  16.330  16.842  0.00  0.00     0.114 C 
BRANCH  46  47
HETATM   47  C   UNK     0      -7.662  15.337  16.760  0.00  0.00     0.139 C 
HETATM   48  O   UNK     0      -7.300  14.944  15.642  0.00  0.00    -0.650 OA
BRANCH  47  49
HETATM   49  O   UNK     0      -7.055  14.867  17.897  0.00  0.00    -0.776 OA
HETATM   50  H   UNK     0      -6.227  15.321  18.301  0.00  0.00     0.167 HD
ENDBRANCH  47  49
ENDBRANCH  46  47
ENDBRANCH  45  46
ENDBRANCH  11  45
BRANCH  18  51
HETATM   51  C   UNK     0      -7.219  22.011  15.440  0.00  0.00     0.051 C 
BRANCH  51  52
HETATM   52  C   UNK     0      -7.787  23.412  15.612  0.00  0.00     0.114 C 
BRANCH  52  53
HETATM   53  C   UNK     0      -7.816  23.823  17.029  0.00  0.00     0.139 C 
HETATM   54  O   UNK     0      -7.931  25.022  17.327  0.00  0.00    -0.650 OA
BRANCH  53  55
HETATM   55  O   UNK     0      -7.712  22.871  18.015  0.00  0.00    -0.776 OA
HETATM   56  H   UNK     0      -6.917  22.708  18.588  0.00  0.00     0.167 HD
ENDBRANCH  53  55
ENDBRANCH  52  53
ENDBRANCH  51  52
ENDBRANCH  18  51
TORSDOF 16
ENDMDL
MODEL 12
REMARK VINA RESULT:      -8.1     11.582     14.958
REMARK  16 active torsions:
REMARK  status: ('A' for Active; 'I' for Inactive)
REMARK    1  A    between atoms: C_6  and  C_7 
REMARK    2  A    between atoms: C_7  and  C_8 
REMARK    3  A    between atoms: C_8  and  C_9 
REMARK    4  A    between atoms: C_9  and  O_11 
REMARK    5  A    between atoms: C_16  and  C_17 
REMARK    6  A    between atoms: C_17  and  C_18 
REMARK    7  A    between atoms: C_18  and  C_19 
REMARK    8  A    between atoms: C_19  and  O_21 
REMARK    9  A    between atoms: C_28  and  C_29 
REMARK   10  A    between atoms: C_29  and  C_30 
REMARK   11  A    between atoms: C_30  and  C_31 
REMARK   12  A    between atoms: C_31  and  O_33 
REMARK   13  A    between atoms: C_42  and  C_43 
REMARK   14  A    between atoms: C_43  and  C_44 
REMARK   15  A    between atoms: C_44  and  C_45 
REMARK   16  A    between atoms: C_45  and  O_47 
ROOT
HETATM    1  C   UNK     0      23.091  11.100  -4.861  0.00  0.00     0.051 C 
HETATM    2  C   UNK     0      22.958  12.608  -4.811  0.00  0.00    -0.031 A 
HETATM    3  C   UNK     0      22.469  13.415  -3.795  0.00  0.00     0.021 A 
HETATM    4  N   UNK     0      22.509  14.707  -4.200  0.00  0.00    -0.361 N 
HETATM    5  C   UNK     0      23.020  14.741  -5.448  0.00  0.00     0.022 A 
HETATM    6  C   UNK     0      23.309  13.446  -5.862  0.00  0.00    -0.027 A 
HETATM    7  C   UNK     0      23.357  15.921  -6.306  0.00  0.00     0.115 C 
HETATM    8  C   UNK     0      24.044  17.088  -5.620  0.00  0.00     0.021 A 
HETATM    9  N   UNK     0      24.945  17.062  -4.625  0.00  0.00    -0.361 N 
HETATM   10  C   UNK     0      25.212  18.335  -4.267  0.00  0.00     0.022 A 
HETATM   11  C   UNK     0      24.470  19.207  -5.059  0.00  0.00    -0.027 A 
HETATM   12  C   UNK     0      23.732  18.428  -5.913  0.00  0.00    -0.031 A 
HETATM   13  C   UNK     0      22.777  18.947  -6.965  0.00  0.00     0.051 C 
HETATM   14  C   UNK     0      26.132  18.779  -3.134  0.00  0.00     0.115 C 
HETATM   15  C   UNK     0      25.701  18.287  -1.761  0.00  0.00     0.021 A 
HETATM   16  N   UNK     0      25.531  17.013  -1.362  0.00  0.00    -0.361 N 
HETATM   17  C   UNK     0      25.078  17.003  -0.106  0.00  0.00     0.022 A 
HETATM   18  C   UNK     0      24.956  18.335   0.337  0.00  0.00    -0.027 A 
HETATM   19  C   UNK     0      25.350  19.129  -0.708  0.00  0.00    -0.031 A 
HETATM   20  C   UNK     0      25.407  20.645  -0.643  0.00  0.00     0.051 C 
HETATM   21  C   UNK     0      24.664  15.842   0.769  0.00  0.00     0.115 C 
HETATM   22  C   UNK     0      24.019  14.655   0.093  0.00  0.00     0.022 A 
HETATM   23  N   UNK     0      23.123  14.652  -0.902  0.00  0.00    -0.361 N 
HETATM   24  C   UNK     0      22.930  13.376  -1.294  0.00  0.00     0.021 A 
HETATM   25  C   UNK     0      23.714  12.537  -0.527  0.00  0.00    -0.031 A 
HETATM   26  C   UNK     0      23.813  11.026  -0.564  0.00  0.00     0.051 C 
HETATM   27  C   UNK     0      24.420  13.332   0.369  0.00  0.00    -0.027 A 
HETATM   28  C   UNK     0      22.077  12.877  -2.448  0.00  0.00     0.115 C 
HETATM   29  H   UNK     0      22.138  15.581  -3.616  0.00  0.00     0.165 HD
HETATM   30  H   UNK     0      25.432  16.147  -4.207  0.00  0.00     0.165 HD
HETATM   31  H   UNK     0      25.781  16.099  -1.961  0.00  0.00     0.165 HD
HETATM   32  H   UNK     0      22.584  15.547  -1.308  0.00  0.00     0.165 HD
ENDROOT
BRANCH   6  33
HETATM   33  C   UNK     0      23.884  12.949  -7.164  0.00  0.00     0.051 C 
BRANCH  33  34
HETATM   34  C   UNK     0      22.787  12.694  -8.170  0.00  0.00     0.114 C 
BRANCH  34  35
HETATM   35  C   UNK     0      23.151  13.419  -9.421  0.00  0.00     0.139 C 
HETATM   36  O   UNK     0      22.279  14.093 -10.044  0.00  0.00    -0.650 OA
BRANCH  35  37
HETATM   37  O   UNK     0      24.434  13.397  -9.954  0.00  0.00    -0.776 OA
HETATM   38  H   UNK     0      25.115  14.107  -9.739  0.00  0.00     0.167 HD
ENDBRANCH  35  37
ENDBRANCH  34  35
ENDBRANCH  33  34
ENDBRANCH   6  33
BRANCH  27  39
HETATM   39  C   UNK     0      25.321  12.773   1.413  0.00  0.00     0.051 C 
BRANCH  39  40
HETATM   40  C   UNK     0      26.765  12.929   1.239  0.00  0.00     0.114 C 
BRANCH  40  41
HETATM   41  C   UNK     0      27.363  13.181  -0.053  0.00  0.00     0.139 C 
HETATM   42  O   UNK     0      27.654  12.286  -0.858  0.00  0.00    -0.650 OA
BRANCH  41  43
HETATM   43  O   UNK     0      27.640  14.524  -0.436  0.00  0.00    -0.776 OA
HETATM   44  H   UNK     0      27.551  15.200   0.313  0.00  0.00     0.167 HD
ENDBRANCH  41  43
ENDBRANCH  40  41
ENDBRANCH  39  40
ENDBRANCH  27  39
BRANCH  11  45
HETATM   45  C   UNK     0      24.442  20.712  -5.033  0.00  0.00     0.051 C 
BRANCH  45  46
HETATM   46  C   UNK     0      23.816  21.285  -3.814  0.00  0.00     0.114 C 
BRANCH  46  47
HETATM   47  C   UNK     0      22.565  21.975  -4.244  0.00  0.00     0.139 C 
HETATM   48  O   UNK     0      21.502  21.679  -3.681  0.00  0.00    -0.650 OA
BRANCH  47  49
HETATM   49  O   UNK     0      22.590  22.916  -5.241  0.00  0.00    -0.776 OA
HETATM   50  H   UNK     0      21.745  23.420  -5.537  0.00  0.00     0.167 HD
ENDBRANCH  47  49
ENDBRANCH  46  47
ENDBRANCH  45  46
ENDBRANCH  11  45
BRANCH  18  51
HETATM   51  C   UNK     0      24.508  18.824   1.690  0.00  0.00     0.051 C 
BRANCH  51  52
HETATM   52  C   UNK     0      25.765  18.934   2.541  0.00  0.00     0.114 C 
BRANCH  52  53
HETATM   53  C   UNK     0      25.943  20.293   3.086  0.00  0.00     0.139 C 
HETATM   54  O   UNK     0      26.958  20.571   3.744  0.00  0.00    -0.650 OA
BRANCH  53  55
HETATM   55  O   UNK     0      24.978  21.246   2.863  0.00  0.00    -0.776 OA
HETATM   56  H   UNK     0      24.109  21.101   2.406  0.00  0.00     0.167 HD
ENDBRANCH  53  55
ENDBRANCH  52  53
ENDBRANCH  51  52
ENDBRANCH  18  51
TORSDOF 16
ENDMDL
MODEL 13
REMARK VINA RESULT:      -8.1     11.777     16.327
REMARK  16 active torsions:
REMARK  status: ('A' for Active; 'I' for Inactive)
REMARK    1  A    between atoms: C_6  and  C_7 
REMARK    2  A    between atoms: C_7  and  C_8 
REMARK    3  A    between atoms: C_8  and  C_9 
REMARK    4  A    between atoms: C_9  and  O_11 
REMARK    5  A    between atoms: C_16  and  C_17 
REMARK    6  A    between atoms: C_17  and  C_18 
REMARK    7  A    between atoms: C_18  and  C_19 
REMARK    8  A    between atoms: C_19  and  O_21 
REMARK    9  A    between atoms: C_28  and  C_29 
REMARK   10  A    between atoms: C_29  and  C_30 
REMARK   11  A    between atoms: C_30  and  C_31 
REMARK   12  A    between atoms: C_31  and  O_33 
REMARK   13  A    between atoms: C_42  and  C_43 
REMARK   14  A    between atoms: C_43  and  C_44 
REMARK   15  A    between atoms: C_44  and  C_45 
REMARK   16  A    between atoms: C_45  and  O_47 
ROOT
HETATM    1  C   UNK     0      24.000  20.978  -6.779  0.00  0.00     0.051 C 
HETATM    2  C   UNK     0      24.217  19.508  -6.486  0.00  0.00    -0.031 A 
HETATM    3  C   UNK     0      25.186  18.901  -5.702  0.00  0.00     0.021 A 
HETATM    4  N   UNK     0      25.017  17.558  -5.752  0.00  0.00    -0.361 N 
HETATM    5  C   UNK     0      23.956  17.297  -6.544  0.00  0.00     0.022 A 
HETATM    6  C   UNK     0      23.434  18.494  -7.022  0.00  0.00    -0.027 A 
HETATM    7  C   UNK     0      23.297  15.988  -6.852  0.00  0.00     0.115 C 
HETATM    8  C   UNK     0      23.103  15.033  -5.688  0.00  0.00     0.021 A 
HETATM    9  N   UNK     0      22.815  15.320  -4.409  0.00  0.00    -0.361 N 
HETATM   10  C   UNK     0      22.827  14.167  -3.707  0.00  0.00     0.022 A 
HETATM   11  C   UNK     0      23.121  13.107  -4.559  0.00  0.00    -0.027 A 
HETATM   12  C   UNK     0      23.296  13.645  -5.808  0.00  0.00    -0.031 A 
HETATM   13  C   UNK     0      23.627  12.862  -7.059  0.00  0.00     0.051 C 
HETATM   14  C   UNK     0      22.615  14.026  -2.202  0.00  0.00     0.115 C 
HETATM   15  C   UNK     0      23.645  14.765  -1.363  0.00  0.00     0.021 A 
HETATM   16  N   UNK     0      23.926  16.081  -1.378  0.00  0.00    -0.361 N 
HETATM   17  C   UNK     0      24.941  16.323  -0.547  0.00  0.00     0.022 A 
HETATM   18  C   UNK     0      25.335  15.107   0.046  0.00  0.00    -0.027 A 
HETATM   19  C   UNK     0      24.515  14.139  -0.472  0.00  0.00    -0.031 A 
HETATM   20  C   UNK     0      24.576  12.677  -0.071  0.00  0.00     0.051 C 
HETATM   21  C   UNK     0      25.676  17.612  -0.258  0.00  0.00     0.115 C 
HETATM   22  C   UNK     0      25.838  18.592  -1.397  0.00  0.00     0.022 A 
HETATM   23  N   UNK     0      26.120  18.334  -2.680  0.00  0.00    -0.361 N 
HETATM   24  C   UNK     0      26.027  19.486  -3.375  0.00  0.00     0.021 A 
HETATM   25  C   UNK     0      25.686  20.513  -2.516  0.00  0.00    -0.031 A 
HETATM   26  C   UNK     0      25.505  21.986  -2.816  0.00  0.00     0.051 C 
HETATM   27  C   UNK     0      25.560  19.966  -1.244  0.00  0.00    -0.027 A 
HETATM   28  C   UNK     0      26.168  19.681  -4.874  0.00  0.00     0.115 C 
HETATM   29  H   UNK     0      25.672  16.803  -5.260  0.00  0.00     0.165 HD
HETATM   30  H   UNK     0      22.554  16.330  -4.007  0.00  0.00     0.165 HD
HETATM   31  H   UNK     0      23.365  16.864  -1.952  0.00  0.00     0.165 HD
HETATM   32  H   UNK     0      26.431  17.342  -3.101  0.00  0.00     0.165 HD
ENDROOT
BRANCH   6  33
HETATM   33  C   UNK     0      22.263  18.744  -7.939  0.00  0.00     0.051 C 
BRANCH  33  34
HETATM   34  C   UNK     0      22.718  18.826  -9.377  0.00  0.00     0.114 C 
BRANCH  34  35
HETATM   35  C   UNK     0      21.533  19.202 -10.199  0.00  0.00     0.139 C 
HETATM   36  O   UNK     0      21.659  20.004 -11.170  0.00  0.00    -0.650 OA
BRANCH  35  37
HETATM   37  O   UNK     0      20.260  18.701  -9.952  0.00  0.00    -0.776 OA
HETATM   38  H   UNK     0      19.576  19.217  -9.423  0.00  0.00     0.167 HD
ENDBRANCH  35  37
ENDBRANCH  34  35
ENDBRANCH  33  34
ENDBRANCH   6  33
BRANCH  27  39
HETATM   39  C   UNK     0      25.269  20.783  -0.035  0.00  0.00     0.051 C 
BRANCH  39  40
HETATM   40  C   UNK     0      26.385  21.163   0.831  0.00  0.00     0.114 C 
BRANCH  40  41
HETATM   41  C   UNK     0      27.741  21.265   0.340  0.00  0.00     0.139 C 
HETATM   42  O   UNK     0      28.608  20.404   0.545  0.00  0.00    -0.650 OA
BRANCH  41  43
HETATM   43  O   UNK     0      28.117  22.408  -0.421  0.00  0.00    -0.776 OA
HETATM   44  H   UNK     0      28.824  22.988   0.015  0.00  0.00     0.167 HD
ENDBRANCH  41  43
ENDBRANCH  40  41
ENDBRANCH  39  40
ENDBRANCH  27  39
BRANCH  11  45
HETATM   45  C   UNK     0      23.234  11.642  -4.234  0.00  0.00     0.051 C 
BRANCH  45  46
HETATM   46  C   UNK     0      24.429  11.291  -3.424  0.00  0.00     0.114 C 
BRANCH  46  47
HETATM   47  C   UNK     0      25.630  11.661  -4.226  0.00  0.00     0.139 C 
HETATM   48  O   UNK     0      26.346  12.590  -3.826  0.00  0.00    -0.650 OA
BRANCH  47  49
HETATM   49  O   UNK     0      25.937  10.990  -5.382  0.00  0.00    -0.776 OA
HETATM   50  H   UNK     0      25.474  10.111  -5.642  0.00  0.00     0.167 HD
ENDBRANCH  47  49
ENDBRANCH  46  47
ENDBRANCH  45  46
ENDBRANCH  11  45
BRANCH  18  51
HETATM   51  C   UNK     0      26.420  14.883   1.068  0.00  0.00     0.051 C 
BRANCH  51  52
HETATM   52  C   UNK     0      27.722  14.774   0.289  0.00  0.00     0.114 C 
BRANCH  52  53
HETATM   53  C   UNK     0      28.099  13.368   0.041  0.00  0.00     0.139 C 
HETATM   54  O   UNK     0      28.564  12.678   0.962  0.00  0.00    -0.650 OA
BRANCH  53  55
HETATM   55  O   UNK     0      27.935  12.831  -1.212  0.00  0.00    -0.776 OA
HETATM   56  H   UNK     0      28.436  12.062  -1.588  0.00  0.00     0.167 HD
ENDBRANCH  53  55
ENDBRANCH  52  53
ENDBRANCH  51  52
ENDBRANCH  18  51
TORSDOF 16
ENDMDL
MODEL 14
REMARK VINA RESULT:      -8.0     24.162     28.115
REMARK  16 active torsions:
REMARK  status: ('A' for Active; 'I' for Inactive)
REMARK    1  A    between atoms: C_6  and  C_7 
REMARK    2  A    between atoms: C_7  and  C_8 
REMARK    3  A    between atoms: C_8  and  C_9 
REMARK    4  A    between atoms: C_9  and  O_11 
REMARK    5  A    between atoms: C_16  and  C_17 
REMARK    6  A    between atoms: C_17  and  C_18 
REMARK    7  A    between atoms: C_18  and  C_19 
REMARK    8  A    between atoms: C_19  and  O_21 
REMARK    9  A    between atoms: C_28  and  C_29 
REMARK   10  A    between atoms: C_29  and  C_30 
REMARK   11  A    between atoms: C_30  and  C_31 
REMARK   12  A    between atoms: C_31  and  O_33 
REMARK   13  A    between atoms: C_42  and  C_43 
REMARK   14  A    between atoms: C_43  and  C_44 
REMARK   15  A    between atoms: C_44  and  C_45 
REMARK   16  A    between atoms: C_45  and  O_47 
ROOT
HETATM    1  C   UNK     0      -9.148  18.617  14.278  0.00  0.00     0.051 C 
HETATM    2  C   UNK     0      -8.734  19.996  13.806  0.00  0.00    -0.031 A 
HETATM    3  C   UNK     0      -8.014  20.360  12.678  0.00  0.00     0.021 A 
HETATM    4  N   UNK     0      -7.851  21.704  12.674  0.00  0.00    -0.361 N 
HETATM    5  C   UNK     0      -8.458  22.206  13.770  0.00  0.00     0.022 A 
HETATM    6  C   UNK     0      -9.018  21.164  14.501  0.00  0.00    -0.027 A 
HETATM    7  C   UNK     0      -8.649  23.631  14.184  0.00  0.00     0.115 C 
HETATM    8  C   UNK     0      -9.042  24.611  13.093  0.00  0.00     0.021 A 
HETATM    9  N   UNK     0      -9.838  24.406  12.031  0.00  0.00    -0.361 N 
HETATM   10  C   UNK     0      -9.831  25.527  11.279  0.00  0.00     0.022 A 
HETATM   11  C   UNK     0      -9.016  26.484  11.877  0.00  0.00    -0.027 A 
HETATM   12  C   UNK     0      -8.516  25.913  13.020  0.00  0.00    -0.031 A 
HETATM   13  C   UNK     0      -7.582  26.590  13.998  0.00  0.00     0.051 C 
HETATM   14  C   UNK     0     -10.546  25.721   9.945  0.00  0.00     0.115 C 
HETATM   15  C   UNK     0     -10.089  24.764   8.856  0.00  0.00     0.021 A 
HETATM   16  N   UNK     0     -10.122  23.418   8.879  0.00  0.00    -0.361 N 
HETATM   17  C   UNK     0      -9.566  22.947   7.761  0.00  0.00     0.022 A 
HETATM   18  C   UNK     0      -9.160  24.038   6.967  0.00  0.00    -0.027 A 
HETATM   19  C   UNK     0      -9.494  25.170   7.664  0.00  0.00    -0.031 A 
HETATM   20  C   UNK     0      -9.263  26.578   7.147  0.00  0.00     0.051 C 
HETATM   21  C   UNK     0      -9.296  21.522   7.336  0.00  0.00     0.115 C 
HETATM   22  C   UNK     0      -8.946  20.526   8.417  0.00  0.00     0.022 A 
HETATM   23  N   UNK     0      -8.160  20.704   9.487  0.00  0.00    -0.361 N 
HETATM   24  C   UNK     0      -8.244  19.604  10.262  0.00  0.00     0.021 A 
HETATM   25  C   UNK     0      -9.096  18.691   9.671  0.00  0.00    -0.031 A 
HETATM   26  C   UNK     0      -9.475  17.300  10.138  0.00  0.00     0.051 C 
HETATM   27  C   UNK     0      -9.558  19.258   8.489  0.00  0.00    -0.027 A 
HETATM   28  C   UNK     0      -7.606  19.373  11.621  0.00  0.00     0.115 C 
HETATM   29  H   UNK     0      -7.273  22.285  11.919  0.00  0.00     0.165 HD
HETATM   30  H   UNK     0     -10.445  23.488  11.836  0.00  0.00     0.165 HD
HETATM   31  H   UNK     0     -10.591  22.787   9.679  0.00  0.00     0.165 HD
HETATM   32  H   UNK     0      -7.505  21.592   9.684  0.00  0.00     0.165 HD
ENDROOT
BRANCH   6  33
HETATM   33  C   UNK     0      -9.792  21.193  15.795  0.00  0.00     0.051 C 
BRANCH  33  34
HETATM   34  C   UNK     0      -8.875  20.955  16.972  0.00  0.00     0.114 C 
BRANCH  34  35
HETATM   35  C   UNK     0      -8.766  22.240  17.720  0.00  0.00     0.139 C 
HETATM   36  O   UNK     0      -9.769  22.706  18.335  0.00  0.00    -0.650 OA
BRANCH  35  37
HETATM   37  O   UNK     0      -7.587  22.974  17.781  0.00  0.00    -0.776 OA
HETATM   38  H   UNK     0      -7.055  23.060  18.632  0.00  0.00     0.167 HD
ENDBRANCH  35  37
ENDBRANCH  34  35
ENDBRANCH  33  34
ENDBRANCH   6  33
BRANCH  27  39
HETATM   39  C   UNK     0     -10.448  18.538   7.538  0.00  0.00     0.051 C 
BRANCH  39  40
HETATM   40  C   UNK     0     -11.895  18.664   7.711  0.00  0.00     0.114 C 
BRANCH  40  41
HETATM   41  C   UNK     0     -12.824  17.715   7.140  0.00  0.00     0.139 C 
HETATM   42  O   UNK     0     -12.525  16.544   6.868  0.00  0.00    -0.650 OA
BRANCH  41  43
HETATM   43  O   UNK     0     -14.158  18.132   6.870  0.00  0.00    -0.776 OA
HETATM   44  H   UNK     0     -14.547  18.766   7.557  0.00  0.00     0.167 HD
ENDBRANCH  41  43
ENDBRANCH  40  41
ENDBRANCH  39  40
ENDBRANCH  27  39
BRANCH  11  45
HETATM   45  C   UNK     0      -8.708  27.882  11.413  0.00  0.00     0.051 C 
BRANCH  45  46
HETATM   46  C   UNK     0      -7.599  27.963  10.428  0.00  0.00     0.114 C 
BRANCH  46  47
HETATM   47  C   UNK     0      -7.981  28.989   9.416  0.00  0.00     0.139 C 
HETATM   48  O   UNK     0      -9.033  29.622   9.583  0.00  0.00    -0.650 OA
BRANCH  47  49
HETATM   49  O   UNK     0      -7.188  29.228   8.323  0.00  0.00    -0.776 OA
HETATM   50  H   UNK     0      -7.559  29.211   7.366  0.00  0.00     0.167 HD
ENDBRANCH  47  49
ENDBRANCH  46  47
ENDBRANCH  45  46
ENDBRANCH  11  45
BRANCH  18  51
HETATM   51  C   UNK     0      -8.508  24.004   5.609  0.00  0.00     0.051 C 
BRANCH  51  52
HETATM   52  C   UNK     0      -9.638  24.064   4.592  0.00  0.00     0.114 C 
BRANCH  52  53
HETATM   53  C   UNK     0      -9.263  23.428   3.315  0.00  0.00     0.139 C 
HETATM   54  O   UNK     0      -9.553  22.239   3.104  0.00  0.00    -0.650 OA
BRANCH  53  55
HETATM   55  O   UNK     0      -8.588  24.156   2.365  0.00  0.00    -0.776 OA
HETATM   56  H   UNK     0      -8.733  24.111   1.384  0.00  0.00     0.167 HD
ENDBRANCH  53  55
ENDBRANCH  52  53
ENDBRANCH  51  52
ENDBRANCH  18  51
TORSDOF 16
ENDMDL
MODEL 15
REMARK VINA RESULT:      -7.9     27.223     30.192
REMARK  16 active torsions:
REMARK  status: ('A' for Active; 'I' for Inactive)
REMARK    1  A    between atoms: C_6  and  C_7 
REMARK    2  A    between atoms: C_7  and  C_8 
REMARK    3  A    between atoms: C_8  and  C_9 
REMARK    4  A    between atoms: C_9  and  O_11 
REMARK    5  A    between atoms: C_16  and  C_17 
REMARK    6  A    between atoms: C_17  and  C_18 
REMARK    7  A    between atoms: C_18  and  C_19 
REMARK    8  A    between atoms: C_19  and  O_21 
REMARK    9  A    between atoms: C_28  and  C_29 
REMARK   10  A    between atoms: C_29  and  C_30 
REMARK   11  A    between atoms: C_30  and  C_31 
REMARK   12  A    between atoms: C_31  and  O_33 
REMARK   13  A    between atoms: C_42  and  C_43 
REMARK   14  A    between atoms: C_43  and  C_44 
REMARK   15  A    between atoms: C_44  and  C_45 
REMARK   16  A    between atoms: C_45  and  O_47 
ROOT
HETATM    1  C   UNK     0      15.341  -6.107   9.319  0.00  0.00     0.051 C 
HETATM    2  C   UNK     0      16.316  -4.998   9.658  0.00  0.00    -0.031 A 
HETATM    3  C   UNK     0      17.697  -4.976   9.544  0.00  0.00     0.021 A 
HETATM    4  N   UNK     0      18.159  -3.786   9.995  0.00  0.00    -0.361 N 
HETATM    5  C   UNK     0      17.101  -3.045  10.386  0.00  0.00     0.022 A 
HETATM    6  C   UNK     0      15.933  -3.774  10.191  0.00  0.00    -0.027 A 
HETATM    7  C   UNK     0      17.057  -1.629  10.870  0.00  0.00     0.115 C 
HETATM    8  C   UNK     0      17.924  -0.628  10.127  0.00  0.00     0.021 A 
HETATM    9  N   UNK     0      18.213  -0.581   8.817  0.00  0.00    -0.361 N 
HETATM   10  C   UNK     0      19.093   0.422   8.617  0.00  0.00     0.022 A 
HETATM   11  C   UNK     0      19.373   1.045   9.830  0.00  0.00    -0.027 A 
HETATM   12  C   UNK     0      18.639   0.389  10.786  0.00  0.00    -0.031 A 
HETATM   13  C   UNK     0      18.623   0.726  12.260  0.00  0.00     0.051 C 
HETATM   14  C   UNK     0      19.745   0.799   7.290  0.00  0.00     0.115 C 
HETATM   15  C   UNK     0      20.586  -0.311   6.680  0.00  0.00     0.021 A 
HETATM   16  N   UNK     0      20.187  -1.550   6.336  0.00  0.00    -0.361 N 
HETATM   17  C   UNK     0      21.240  -2.245   5.901  0.00  0.00     0.022 A 
HETATM   18  C   UNK     0      22.379  -1.417   5.956  0.00  0.00    -0.027 A 
HETATM   19  C   UNK     0      21.956  -0.208   6.444  0.00  0.00    -0.031 A 
HETATM   20  C   UNK     0      22.866   0.992   6.630  0.00  0.00     0.051 C 
HETATM   21  C   UNK     0      21.339  -3.690   5.468  0.00  0.00     0.115 C 
HETATM   22  C   UNK     0      20.450  -4.691   6.168  0.00  0.00     0.022 A 
HETATM   23  N   UNK     0      20.142  -4.759   7.470  0.00  0.00    -0.361 N 
HETATM   24  C   UNK     0      19.205  -5.714   7.634  0.00  0.00     0.021 A 
HETATM   25  C   UNK     0      18.910  -6.282   6.409  0.00  0.00    -0.031 A 
HETATM   26  C   UNK     0      17.956  -7.414   6.089  0.00  0.00     0.051 C 
HETATM   27  C   UNK     0      19.694  -5.644   5.456  0.00  0.00    -0.027 A 
HETATM   28  C   UNK     0      18.478  -6.094   8.913  0.00  0.00     0.115 C 
HETATM   29  H   UNK     0      19.231  -3.492  10.071  0.00  0.00     0.165 HD
HETATM   30  H   UNK     0      17.758  -1.223   8.023  0.00  0.00     0.165 HD
HETATM   31  H   UNK     0      19.131  -1.927   6.354  0.00  0.00     0.165 HD
HETATM   32  H   UNK     0      20.615  -4.162   8.292  0.00  0.00     0.165 HD
ENDROOT
BRANCH   6  33
HETATM   33  C   UNK     0      14.499  -3.402  10.472  0.00  0.00     0.051 C 
BRANCH  33  34
HETATM   34  C   UNK     0      14.160  -2.070   9.847  0.00  0.00     0.114 C 
BRANCH  34  35
HETATM   35  C   UNK     0      13.532  -1.227  10.905  0.00  0.00     0.139 C 
HETATM   36  O   UNK     0      13.961  -0.057  11.125  0.00  0.00    -0.650 OA
BRANCH  35  37
HETATM   37  O   UNK     0      12.471  -1.670  11.684  0.00  0.00    -0.776 OA
HETATM   38  H   UNK     0      12.609  -2.070  12.598  0.00  0.00     0.167 HD
ENDBRANCH  35  37
ENDBRANCH  34  35
ENDBRANCH  33  34
ENDBRANCH   6  33
BRANCH  27  39
HETATM   39  C   UNK     0      19.705  -6.036   4.020  0.00  0.00     0.051 C 
BRANCH  39  40
HETATM   40  C   UNK     0      18.707  -5.441   3.131  0.00  0.00     0.114 C 
BRANCH  40  41
HETATM   41  C   UNK     0      17.993  -4.232   3.474  0.00  0.00     0.139 C 
HETATM   42  O   UNK     0      16.839  -4.224   3.923  0.00  0.00    -0.650 OA
BRANCH  41  43
HETATM   43  O   UNK     0      18.635  -2.974   3.291  0.00  0.00    -0.776 OA
HETATM   44  H   UNK     0      18.958  -2.802   2.347  0.00  0.00     0.167 HD
ENDBRANCH  41  43
ENDBRANCH  40  41
ENDBRANCH  39  40
ENDBRANCH  27  39
BRANCH  11  45
HETATM   45  C   UNK     0      20.285   2.211  10.102  0.00  0.00     0.051 C 
BRANCH  45  46
HETATM   46  C   UNK     0      21.719   1.844  10.218  0.00  0.00     0.114 C 
BRANCH  46  47
HETATM   47  C   UNK     0      22.072   1.891  11.666  0.00  0.00     0.139 C 
HETATM   48  O   UNK     0      22.169   2.997  12.216  0.00  0.00    -0.650 OA
BRANCH  47  49
HETATM   49  O   UNK     0      22.287   0.736  12.375  0.00  0.00    -0.776 OA
HETATM   50  H   UNK     0      22.004  -0.184  12.017  0.00  0.00     0.167 HD
ENDBRANCH  47  49
ENDBRANCH  46  47
ENDBRANCH  45  46
ENDBRANCH  11  45
BRANCH  18  51
HETATM   51  C   UNK     0      23.789  -1.752   5.545  0.00  0.00     0.051 C 
BRANCH  51  52
HETATM   52  C   UNK     0      23.806  -1.731   4.024  0.00  0.00     0.114 C 
BRANCH  52  53
HETATM   53  C   UNK     0      25.021  -1.080   3.497  0.00  0.00     0.139 C 
HETATM   54  O   UNK     0      24.930  -0.230   2.597  0.00  0.00    -0.650 OA
BRANCH  53  55
HETATM   55  O   UNK     0      26.250  -1.423   4.005  0.00  0.00    -0.776 OA
HETATM   56  H   UNK     0      26.564  -1.261   4.933  0.00  0.00     0.167 HD
ENDBRANCH  53  55
ENDBRANCH  52  53
ENDBRANCH  51  52
ENDBRANCH  18  51
TORSDOF 16
ENDMDL
MODEL 16
REMARK VINA RESULT:      -7.9     12.617     17.158
REMARK  16 active torsions:
REMARK  status: ('A' for Active; 'I' for Inactive)
REMARK    1  A    between atoms: C_6  and  C_7 
REMARK    2  A    between atoms: C_7  and  C_8 
REMARK    3  A    between atoms: C_8  and  C_9 
REMARK    4  A    between atoms: C_9  and  O_11 
REMARK    5  A    between atoms: C_16  and  C_17 
REMARK    6  A    between atoms: C_17  and  C_18 
REMARK    7  A    between atoms: C_18  and  C_19 
REMARK    8  A    between atoms: C_19  and  O_21 
REMARK    9  A    between atoms: C_28  and  C_29 
REMARK   10  A    between atoms: C_29  and  C_30 
REMARK   11  A    between atoms: C_30  and  C_31 
REMARK   12  A    between atoms: C_31  and  O_33 
REMARK   13  A    between atoms: C_42  and  C_43 
REMARK   14  A    between atoms: C_43  and  C_44 
REMARK   15  A    between atoms: C_44  and  C_45 
REMARK   16  A    between atoms: C_45  and  O_47 
ROOT
HETATM    1  C   UNK     0       8.950   5.775 -17.070  0.00  0.00     0.051 C 
HETATM    2  C   UNK     0       9.199   5.940 -15.584  0.00  0.00    -0.031 A 
HETATM    3  C   UNK     0      10.397   5.945 -14.888  0.00  0.00     0.021 A 
HETATM    4  N   UNK     0      10.139   6.091 -13.566  0.00  0.00    -0.361 N 
HETATM    5  C   UNK     0       8.803   6.190 -13.407  0.00  0.00     0.022 A 
HETATM    6  C   UNK     0       8.184   6.096 -14.649  0.00  0.00    -0.027 A 
HETATM    7  C   UNK     0       8.010   6.455 -12.165  0.00  0.00     0.115 C 
HETATM    8  C   UNK     0       8.549   7.520 -11.227  0.00  0.00     0.021 A 
HETATM    9  N   UNK     0       9.182   8.663 -11.534  0.00  0.00    -0.361 N 
HETATM   10  C   UNK     0       9.562   9.254 -10.382  0.00  0.00     0.022 A 
HETATM   11  C   UNK     0       9.155   8.476  -9.302  0.00  0.00    -0.027 A 
HETATM   12  C   UNK     0       8.516   7.382  -9.827  0.00  0.00    -0.031 A 
HETATM   13  C   UNK     0       7.899   6.260  -9.022  0.00  0.00     0.051 C 
HETATM   14  C   UNK     0      10.368  10.544 -10.254  0.00  0.00     0.115 C 
HETATM   15  C   UNK     0      11.746  10.475 -10.892  0.00  0.00     0.021 A 
HETATM   16  N   UNK     0      12.044  10.208 -12.177  0.00  0.00    -0.361 N 
HETATM   17  C   UNK     0      13.370  10.170 -12.321  0.00  0.00     0.022 A 
HETATM   18  C   UNK     0      13.966  10.435 -11.072  0.00  0.00    -0.027 A 
HETATM   19  C   UNK     0      12.937  10.626 -10.185  0.00  0.00    -0.031 A 
HETATM   20  C   UNK     0      13.139  10.974  -8.722  0.00  0.00     0.051 C 
HETATM   21  C   UNK     0      14.207   9.843 -13.537  0.00  0.00     0.115 C 
HETATM   22  C   UNK     0      13.662   8.816 -14.503  0.00  0.00     0.022 A 
HETATM   23  N   UNK     0      13.025   7.672 -14.225  0.00  0.00    -0.361 N 
HETATM   24  C   UNK     0      12.587   7.139 -15.383  0.00  0.00     0.021 A 
HETATM   25  C   UNK     0      12.960   7.955 -16.434  0.00  0.00    -0.031 A 
HETATM   26  C   UNK     0      12.735   7.761 -17.919  0.00  0.00     0.051 C 
HETATM   27  C   UNK     0      13.650   9.035 -15.895  0.00  0.00    -0.027 A 
HETATM   28  C   UNK     0      11.734   5.896 -15.571  0.00  0.00     0.115 C 
HETATM   29  H   UNK     0      10.900   6.085 -12.752  0.00  0.00     0.165 HD
HETATM   30  H   UNK     0       9.317   9.080 -12.562  0.00  0.00     0.165 HD
HETATM   31  H   UNK     0      11.304  10.090 -13.011  0.00  0.00     0.165 HD
HETATM   32  H   UNK     0      12.915   7.206 -13.211  0.00  0.00     0.165 HD
ENDROOT
BRANCH   6  33
HETATM   33  C   UNK     0       6.721   6.141 -15.009  0.00  0.00     0.051 C 
BRANCH  33  34
HETATM   34  C   UNK     0       6.051   4.826 -14.688  0.00  0.00     0.114 C 
BRANCH  34  35
HETATM   35  C   UNK     0       4.603   4.972 -15.014  0.00  0.00     0.139 C 
HETATM   36  O   UNK     0       4.241   5.265 -16.191  0.00  0.00    -0.650 OA
BRANCH  35  37
HETATM   37  O   UNK     0       3.600   4.794 -14.069  0.00  0.00    -0.776 OA
HETATM   38  H   UNK     0       2.624   4.875 -14.303  0.00  0.00     0.167 HD
ENDBRANCH  35  37
ENDBRANCH  34  35
ENDBRANCH  33  34
ENDBRANCH   6  33
BRANCH  27  39
HETATM   39  C   UNK     0      14.274  10.097 -16.731  0.00  0.00     0.051 C 
BRANCH  39  40
HETATM   40  C   UNK     0      15.734  10.165 -16.791  0.00  0.00     0.114 C 
BRANCH  40  41
HETATM   41  C   UNK     0      16.491  11.144 -16.044  0.00  0.00     0.139 C 
HETATM   42  O   UNK     0      17.442  10.855 -15.306  0.00  0.00    -0.650 OA
BRANCH  41  43
HETATM   43  O   UNK     0      16.138  12.520 -16.152  0.00  0.00    -0.776 OA
HETATM   44  H   UNK     0      16.801  13.157 -15.727  0.00  0.00     0.167 HD
ENDBRANCH  41  43
ENDBRANCH  40  41
ENDBRANCH  39  40
ENDBRANCH  27  39
BRANCH  11  45
HETATM   45  C   UNK     0       9.346   8.732  -7.832  0.00  0.00     0.051 C 
BRANCH  45  46
HETATM   46  C   UNK     0      10.757   8.633  -7.377  0.00  0.00     0.114 C 
BRANCH  46  47
HETATM   47  C   UNK     0      10.791   7.655  -6.252  0.00  0.00     0.139 C 
HETATM   48  O   UNK     0      10.320   6.524  -6.436  0.00  0.00    -0.650 OA
BRANCH  47  49
HETATM   49  O   UNK     0      11.330   7.999  -5.038  0.00  0.00    -0.776 OA
HETATM   50  H   UNK     0      11.917   7.351  -4.499  0.00  0.00     0.167 HD
ENDBRANCH  47  49
ENDBRANCH  46  47
ENDBRANCH  45  46
ENDBRANCH  11  45
BRANCH  18  51
HETATM   51  C   UNK     0      15.434  10.524 -10.745  0.00  0.00     0.051 C 
BRANCH  51  52
HETATM   52  C   UNK     0      15.827  11.981 -10.940  0.00  0.00     0.114 C 
BRANCH  52  53
HETATM   53  C   UNK     0      16.748  12.154 -12.079  0.00  0.00     0.139 C 
HETATM   54  O   UNK     0      17.884  11.656 -12.041  0.00  0.00    -0.650 OA
BRANCH  53  55
HETATM   55  O   UNK     0      16.341  12.871 -13.178  0.00  0.00    -0.776 OA
HETATM   56  H   UNK     0      15.588  12.639 -13.782  0.00  0.00     0.167 HD
ENDBRANCH  53  55
ENDBRANCH  52  53
ENDBRANCH  51  52
ENDBRANCH  18  51
TORSDOF 16
ENDMDL
MODEL 17
REMARK VINA RESULT:      -7.8     11.874     15.777
REMARK  16 active torsions:
REMARK  status: ('A' for Active; 'I' for Inactive)
REMARK    1  A    between atoms: C_6  and  C_7 
REMARK    2  A    between atoms: C_7  and  C_8 
REMARK    3  A    between atoms: C_8  and  C_9 
REMARK    4  A    between atoms: C_9  and  O_11 
REMARK    5  A    between atoms: C_16  and  C_17 
REMARK    6  A    between atoms: C_17  and  C_18 
REMARK    7  A    between atoms: C_18  and  C_19 
REMARK    8  A    between atoms: C_19  and  O_21 
REMARK    9  A    between atoms: C_28  and  C_29 
REMARK   10  A    between atoms: C_29  and  C_30 
REMARK   11  A    between atoms: C_30  and  C_31 
REMARK   12  A    between atoms: C_31  and  O_33 
REMARK   13  A    between atoms: C_42  and  C_43 
REMARK   14  A    between atoms: C_43  and  C_44 
REMARK   15  A    between atoms: C_44  and  C_45 
REMARK   16  A    between atoms: C_45  and  O_47 
ROOT
HETATM    1  C   UNK     0       8.384   6.366 -11.287  0.00  0.00     0.051 C 
HETATM    2  C   UNK     0       9.049   7.221 -12.346  0.00  0.00    -0.031 A 
HETATM    3  C   UNK     0       9.495   8.531 -12.267  0.00  0.00     0.021 A 
HETATM    4  N   UNK     0       9.996   8.900 -13.469  0.00  0.00    -0.361 N 
HETATM    5  C   UNK     0       9.887   7.851 -14.311  0.00  0.00     0.022 A 
HETATM    6  C   UNK     0       9.296   6.785 -13.642  0.00  0.00    -0.027 A 
HETATM    7  C   UNK     0      10.373   7.706 -15.719  0.00  0.00     0.115 C 
HETATM    8  C   UNK     0      11.760   8.247 -16.021  0.00  0.00     0.021 A 
HETATM    9  N   UNK     0      12.846   8.248 -15.233  0.00  0.00    -0.361 N 
HETATM   10  C   UNK     0      13.829   8.915 -15.875  0.00  0.00     0.022 A 
HETATM   11  C   UNK     0      13.365   9.348 -17.114  0.00  0.00    -0.027 A 
HETATM   12  C   UNK     0      12.062   8.930 -17.212  0.00  0.00    -0.031 A 
HETATM   13  C   UNK     0      11.154   9.172 -18.397  0.00  0.00     0.051 C 
HETATM   14  C   UNK     0      15.221   9.216 -15.327  0.00  0.00     0.115 C 
HETATM   15  C   UNK     0      15.216  10.063 -14.065  0.00  0.00     0.021 A 
HETATM   16  N   UNK     0      14.621   9.783 -12.890  0.00  0.00    -0.361 N 
HETATM   17  C   UNK     0      14.790  10.811 -12.056  0.00  0.00     0.022 A 
HETATM   18  C   UNK     0      15.539  11.806 -12.716  0.00  0.00    -0.027 A 
HETATM   19  C   UNK     0      15.801  11.324 -13.973  0.00  0.00    -0.031 A 
HETATM   20  C   UNK     0      16.620  12.071 -15.009  0.00  0.00     0.051 C 
HETATM   21  C   UNK     0      14.262  11.024 -10.656  0.00  0.00     0.115 C 
HETATM   22  C   UNK     0      12.902  10.453 -10.329  0.00  0.00     0.022 A 
HETATM   23  N   UNK     0      11.803  10.435 -11.095  0.00  0.00    -0.361 N 
HETATM   24  C   UNK     0      10.863   9.699 -10.469  0.00  0.00     0.021 A 
HETATM   25  C   UNK     0      11.365   9.240  -9.266  0.00  0.00    -0.031 A 
HETATM   26  C   UNK     0      10.677   8.414  -8.200  0.00  0.00     0.051 C 
HETATM   27  C   UNK     0      12.668   9.710  -9.154  0.00  0.00    -0.027 A 
HETATM   28  C   UNK     0       9.487   9.316 -10.985  0.00  0.00     0.115 C 
HETATM   29  H   UNK     0      10.388   9.912 -13.726  0.00  0.00     0.165 HD
HETATM   30  H   UNK     0      12.939   7.736 -14.245  0.00  0.00     0.165 HD
HETATM   31  H   UNK     0      14.112   8.819 -12.627  0.00  0.00     0.165 HD
HETATM   32  H   UNK     0      11.667  10.978 -12.066  0.00  0.00     0.165 HD
ENDROOT
BRANCH   6  33
HETATM   33  C   UNK     0       8.950   5.403 -14.134  0.00  0.00     0.051 C 
BRANCH  33  34
HETATM   34  C   UNK     0       7.456   5.183 -14.106  0.00  0.00     0.114 C 
BRANCH  34  35
HETATM   35  C   UNK     0       6.869   5.967 -15.230  0.00  0.00     0.139 C 
HETATM   36  O   UNK     0       5.776   6.585 -15.073  0.00  0.00    -0.650 OA
BRANCH  35  37
HETATM   37  O   UNK     0       7.476   6.060 -16.477  0.00  0.00    -0.776 OA
HETATM   38  H   UNK     0       6.960   6.305 -17.306  0.00  0.00     0.167 HD
ENDBRANCH  35  37
ENDBRANCH  34  35
ENDBRANCH  33  34
ENDBRANCH   6  33
BRANCH  27  39
HETATM   39  C   UNK     0      13.513   9.479  -7.951  0.00  0.00     0.051 C 
BRANCH  39  40
HETATM   40  C   UNK     0      13.935  10.638  -7.165  0.00  0.00     0.114 C 
BRANCH  40  41
HETATM   41  C   UNK     0      14.546  10.505  -5.862  0.00  0.00     0.139 C 
HETATM   42  O   UNK     0      15.438   9.685  -5.606  0.00  0.00    -0.650 OA
BRANCH  41  43
HETATM   43  O   UNK     0      14.110  11.354  -4.805  0.00  0.00    -0.776 OA
HETATM   44  H   UNK     0      14.381  11.043  -3.880  0.00  0.00     0.167 HD
ENDBRANCH  41  43
ENDBRANCH  40  41
ENDBRANCH  39  40
ENDBRANCH  27  39
BRANCH  11  45
HETATM   45  C   UNK     0      14.099  10.120 -18.177  0.00  0.00     0.051 C 
BRANCH  45  46
HETATM   46  C   UNK     0      14.181  11.580 -17.919  0.00  0.00     0.114 C 
BRANCH  46  47
HETATM   47  C   UNK     0      13.613  12.272 -19.111  0.00  0.00     0.139 C 
HETATM   48  O   UNK     0      13.146  11.583 -20.029  0.00  0.00    -0.650 OA
BRANCH  47  49
HETATM   49  O   UNK     0      13.607  13.642 -19.192  0.00  0.00    -0.776 OA
HETATM   50  H   UNK     0      12.848  14.208 -18.795  0.00  0.00     0.167 HD
ENDBRANCH  47  49
ENDBRANCH  46  47
ENDBRANCH  45  46
ENDBRANCH  11  45
BRANCH  18  51
HETATM   51  C   UNK     0      15.999  13.133 -12.172  0.00  0.00     0.051 C 
BRANCH  51  52
HETATM   52  C   UNK     0      17.384  12.898 -11.588  0.00  0.00     0.114 C 
BRANCH  52  53
HETATM   53  C   UNK     0      18.179  14.140 -11.539  0.00  0.00     0.139 C 
HETATM   54  O   UNK     0      18.707  14.499 -10.474  0.00  0.00    -0.650 OA
BRANCH  53  55
HETATM   55  O   UNK     0      18.326  14.898 -12.675  0.00  0.00    -0.776 OA
HETATM   56  H   UNK     0      18.347  14.555 -13.607  0.00  0.00     0.167 HD
ENDBRANCH  53  55
ENDBRANCH  52  53
ENDBRANCH  51  52
ENDBRANCH  18  51
TORSDOF 16
ENDMDL
MODEL 18
REMARK VINA RESULT:      -7.8     26.372     29.543
REMARK  16 active torsions:
REMARK  status: ('A' for Active; 'I' for Inactive)
REMARK    1  A    between atoms: C_6  and  C_7 
REMARK    2  A    between atoms: C_7  and  C_8 
REMARK    3  A    between atoms: C_8  and  C_9 
REMARK    4  A    between atoms: C_9  and  O_11 
REMARK    5  A    between atoms: C_16  and  C_17 
REMARK    6  A    between atoms: C_17  and  C_18 
REMARK    7  A    between atoms: C_18  and  C_19 
REMARK    8  A    between atoms: C_19  and  O_21 
REMARK    9  A    between atoms: C_28  and  C_29 
REMARK   10  A    between atoms: C_29  and  C_30 
REMARK   11  A    between atoms: C_30  and  C_31 
REMARK   12  A    between atoms: C_31  and  O_33 
REMARK   13  A    between atoms: C_42  and  C_43 
REMARK   14  A    between atoms: C_43  and  C_44 
REMARK   15  A    between atoms: C_44  and  C_45 
REMARK   16  A    between atoms: C_45  and  O_47 
ROOT
HETATM    1  C   UNK     0      17.183  -7.587   9.042  0.00  0.00     0.051 C 
HETATM    2  C   UNK     0      17.505  -6.180   8.582  0.00  0.00    -0.031 A 
HETATM    3  C   UNK     0      18.297  -5.759   7.525  0.00  0.00     0.021 A 
HETATM    4  N   UNK     0      18.326  -4.406   7.506  0.00  0.00    -0.361 N 
HETATM    5  C   UNK     0      17.564  -3.954   8.524  0.00  0.00     0.022 A 
HETATM    6  C   UNK     0      17.038  -5.037   9.219  0.00  0.00    -0.027 A 
HETATM    7  C   UNK     0      17.193  -2.549   8.884  0.00  0.00     0.115 C 
HETATM    8  C   UNK     0      16.818  -1.628   7.737  0.00  0.00     0.021 A 
HETATM    9  N   UNK     0      16.159  -1.925   6.607  0.00  0.00    -0.361 N 
HETATM   10  C   UNK     0      16.132  -0.819   5.833  0.00  0.00     0.022 A 
HETATM   11  C   UNK     0      16.783   0.222   6.488  0.00  0.00    -0.027 A 
HETATM   12  C   UNK     0      17.218  -0.280   7.688  0.00  0.00    -0.031 A 
HETATM   13  C   UNK     0      17.976   0.499   8.739  0.00  0.00     0.051 C 
HETATM   14  C   UNK     0      15.540  -0.714   4.431  0.00  0.00     0.115 C 
HETATM   15  C   UNK     0      16.197  -1.635   3.415  0.00  0.00     0.021 A 
HETATM   16  N   UNK     0      16.295  -2.976   3.465  0.00  0.00    -0.361 N 
HETATM   17  C   UNK     0      17.006  -3.404   2.419  0.00  0.00     0.022 A 
HETATM   18  C   UNK     0      17.381  -2.287   1.645  0.00  0.00    -0.027 A 
HETATM   19  C   UNK     0      16.868  -1.186   2.279  0.00  0.00    -0.031 A 
HETATM   20  C   UNK     0      17.010   0.232   1.756  0.00  0.00     0.051 C 
HETATM   21  C   UNK     0      17.457  -4.800   2.056  0.00  0.00     0.115 C 
HETATM   22  C   UNK     0      17.792  -5.742   3.189  0.00  0.00     0.022 A 
HETATM   23  N   UNK     0      18.443  -5.472   4.327  0.00  0.00    -0.361 N 
HETATM   24  C   UNK     0      18.390  -6.565   5.115  0.00  0.00     0.021 A 
HETATM   25  C   UNK     0      17.696  -7.567   4.463  0.00  0.00    -0.031 A 
HETATM   26  C   UNK     0      17.410  -8.982   4.921  0.00  0.00     0.051 C 
HETATM   27  C   UNK     0      17.303  -7.064   3.228  0.00  0.00    -0.027 A 
HETATM   28  C   UNK     0      18.905  -6.713   6.536  0.00  0.00     0.115 C 
HETATM   29  H   UNK     0      18.918  -3.779   6.799  0.00  0.00     0.165 HD
HETATM   30  H   UNK     0      15.668  -2.902   6.373  0.00  0.00     0.165 HD
HETATM   31  H   UNK     0      15.812  -3.641   4.228  0.00  0.00     0.165 HD
HETATM   32  H   UNK     0      18.984  -4.521   4.569  0.00  0.00     0.165 HD
ENDROOT
BRANCH   6  33
HETATM   33  C   UNK     0      16.137  -5.069  10.428  0.00  0.00     0.051 C 
BRANCH  33  34
HETATM   34  C   UNK     0      14.709  -5.347  10.025  0.00  0.00     0.114 C 
BRANCH  34  35
HETATM   35  C   UNK     0      13.895  -4.161  10.418  0.00  0.00     0.139 C 
HETATM   36  O   UNK     0      12.704  -4.310  10.819  0.00  0.00    -0.650 OA
BRANCH  35  37
HETATM   37  O   UNK     0      14.390  -2.863  10.368  0.00  0.00    -0.776 OA
HETATM   38  H   UNK     0      14.351  -2.308   9.528  0.00  0.00     0.167 HD
ENDBRANCH  35  37
ENDBRANCH  34  35
ENDBRANCH  33  34
ENDBRANCH   6  33
BRANCH  27  39
HETATM   39  C   UNK     0      16.590  -7.881   2.209  0.00  0.00     0.051 C 
BRANCH  39  40
HETATM   40  C   UNK     0      15.128  -7.869   2.210  0.00  0.00     0.114 C 
BRANCH  40  41
HETATM   41  C   UNK     0      14.348  -9.046   2.519  0.00  0.00     0.139 C 
HETATM   42  O   UNK     0      14.132  -9.440   3.673  0.00  0.00    -0.650 OA
BRANCH  41  43
HETATM   43  O   UNK     0      13.790  -9.806   1.452  0.00  0.00    -0.776 OA
HETATM   44  H   UNK     0      13.906 -10.808   1.545  0.00  0.00     0.167 HD
ENDBRANCH  41  43
ENDBRANCH  40  41
ENDBRANCH  39  40
ENDBRANCH  27  39
BRANCH  11  45
HETATM   45  C   UNK     0      16.997   1.638   6.025  0.00  0.00     0.051 C 
BRANCH  45  46
HETATM   46  C   UNK     0      15.753   2.333   5.605  0.00  0.00     0.114 C 
BRANCH  46  47
HETATM   47  C   UNK     0      16.155   3.452   4.705  0.00  0.00     0.139 C 
HETATM   48  O   UNK     0      15.481   4.491   4.715  0.00  0.00    -0.650 OA
BRANCH  47  49
HETATM   49  O   UNK     0      17.246   3.334   3.881  0.00  0.00    -0.776 OA
HETATM   50  H   UNK     0      18.206   3.328   4.246  0.00  0.00     0.167 HD
ENDBRANCH  47  49
ENDBRANCH  46  47
ENDBRANCH  45  46
ENDBRANCH  11  45
BRANCH  18  51
HETATM   51  C   UNK     0      18.168  -2.273   0.360  0.00  0.00     0.051 C 
BRANCH  51  52
HETATM   52  C   UNK     0      17.146  -2.315  -0.766  0.00  0.00     0.114 C 
BRANCH  52  53
HETATM   53  C   UNK     0      17.573  -3.206  -1.863  0.00  0.00     0.139 C 
HETATM   54  O   UNK     0      17.083  -4.342  -1.967  0.00  0.00    -0.650 OA
BRANCH  53  55
HETATM   55  O   UNK     0      18.516  -2.772  -2.762  0.00  0.00    -0.776 OA
HETATM   56  H   UNK     0      18.621  -1.843  -3.097  0.00  0.00     0.167 HD
ENDBRANCH  53  55
ENDBRANCH  52  53
ENDBRANCH  51  52
ENDBRANCH  18  51
TORSDOF 16
ENDMDL
MODEL 19
REMARK VINA RESULT:      -7.7     25.905     29.281
REMARK  16 active torsions:
REMARK  status: ('A' for Active; 'I' for Inactive)
REMARK    1  A    between atoms: C_6  and  C_7 
REMARK    2  A    between atoms: C_7  and  C_8 
REMARK    3  A    between atoms: C_8  and  C_9 
REMARK    4  A    between atoms: C_9  and  O_11 
REMARK    5  A    between atoms: C_16  and  C_17 
REMARK    6  A    between atoms: C_17  and  C_18 
REMARK    7  A    between atoms: C_18  and  C_19 
REMARK    8  A    between atoms: C_19  and  O_21 
REMARK    9  A    between atoms: C_28  and  C_29 
REMARK   10  A    between atoms: C_29  and  C_30 
REMARK   11  A    between atoms: C_30  and  C_31 
REMARK   12  A    between atoms: C_31  and  O_33 
REMARK   13  A    between atoms: C_42  and  C_43 
REMARK   14  A    between atoms: C_43  and  C_44 
REMARK   15  A    between atoms: C_44  and  C_45 
REMARK   16  A    between atoms: C_45  and  O_47 
ROOT
HETATM    1  C   UNK     0      21.910  -0.361  10.963  0.00  0.00     0.051 C 
HETATM    2  C   UNK     0      21.391   0.030   9.595  0.00  0.00    -0.031 A 
HETATM    3  C   UNK     0      21.591  -0.584   8.369  0.00  0.00     0.021 A 
HETATM    4  N   UNK     0      20.961   0.133   7.408  0.00  0.00    -0.361 N 
HETATM    5  C   UNK     0      20.356   1.186   7.996  0.00  0.00     0.022 A 
HETATM    6  C   UNK     0      20.607   1.154   9.364  0.00  0.00    -0.027 A 
HETATM    7  C   UNK     0      19.459   2.224   7.399  0.00  0.00     0.115 C 
HETATM    8  C   UNK     0      18.415   1.736   6.410  0.00  0.00     0.021 A 
HETATM    9  N   UNK     0      17.722   0.587   6.425  0.00  0.00    -0.361 N 
HETATM   10  C   UNK     0      16.975   0.533   5.302  0.00  0.00     0.022 A 
HETATM   11  C   UNK     0      17.186   1.683   4.547  0.00  0.00    -0.027 A 
HETATM   12  C   UNK     0      18.091   2.445   5.240  0.00  0.00    -0.031 A 
HETATM   13  C   UNK     0      18.617   3.793   4.800  0.00  0.00     0.051 C 
HETATM   14  C   UNK     0      16.078  -0.624   4.871  0.00  0.00     0.115 C 
HETATM   15  C   UNK     0      16.820  -1.935   4.664  0.00  0.00     0.021 A 
HETATM   16  N   UNK     0      17.559  -2.611   5.563  0.00  0.00    -0.361 N 
HETATM   17  C   UNK     0      18.101  -3.678   4.972  0.00  0.00     0.022 A 
HETATM   18  C   UNK     0      17.688  -3.703   3.625  0.00  0.00    -0.027 A 
HETATM   19  C   UNK     0      16.885  -2.607   3.445  0.00  0.00    -0.031 A 
HETATM   20  C   UNK     0      16.193  -2.273   2.136  0.00  0.00     0.051 C 
HETATM   21  C   UNK     0      19.061  -4.709   5.519  0.00  0.00     0.115 C 
HETATM   22  C   UNK     0      20.077  -4.246   6.537  0.00  0.00     0.022 A 
HETATM   23  N   UNK     0      20.779  -3.105   6.549  0.00  0.00    -0.361 N 
HETATM   24  C   UNK     0      21.456  -3.037   7.713  0.00  0.00     0.021 A 
HETATM   25  C   UNK     0      21.191  -4.166   8.465  0.00  0.00    -0.031 A 
HETATM   26  C   UNK     0      21.745  -4.562   9.817  0.00  0.00     0.051 C 
HETATM   27  C   UNK     0      20.312  -4.955   7.732  0.00  0.00    -0.027 A 
HETATM   28  C   UNK     0      22.314  -1.893   8.224  0.00  0.00     0.115 C 
HETATM   29  H   UNK     0      20.980  -0.088   6.315  0.00  0.00     0.165 HD
HETATM   30  H   UNK     0      17.720  -0.166   7.251  0.00  0.00     0.165 HD
HETATM   31  H   UNK     0      17.662  -2.357   6.650  0.00  0.00     0.165 HD
HETATM   32  H   UNK     0      20.837  -2.357   5.717  0.00  0.00     0.165 HD
ENDROOT
BRANCH   6  33
HETATM   33  C   UNK     0      20.167   2.099  10.453  0.00  0.00     0.051 C 
BRANCH  33  34
HETATM   34  C   UNK     0      18.806   1.709  10.982  0.00  0.00     0.114 C 
BRANCH  34  35
HETATM   35  C   UNK     0      19.019   0.962  12.255  0.00  0.00     0.139 C 
HETATM   36  O   UNK     0      19.522   1.545  13.259  0.00  0.00    -0.650 OA
BRANCH  35  37
HETATM   37  O   UNK     0      18.682  -0.378  12.402  0.00  0.00    -0.776 OA
HETATM   38  H   UNK     0      17.730  -0.700  12.336  0.00  0.00     0.167 HD
ENDBRANCH  35  37
ENDBRANCH  34  35
ENDBRANCH  33  34
ENDBRANCH   6  33
BRANCH  27  39
HETATM   39  C   UNK     0      19.851  -6.294   8.190  0.00  0.00     0.051 C 
BRANCH  39  40
HETATM   40  C   UNK     0      18.524  -6.402   8.797  0.00  0.00     0.114 C 
BRANCH  40  41
HETATM   41  C   UNK     0      18.311  -6.238  10.217  0.00  0.00     0.139 C 
HETATM   42  O   UNK     0      17.246  -5.837  10.707  0.00  0.00    -0.650 OA
BRANCH  41  43
HETATM   43  O   UNK     0      19.372  -6.548  11.115  0.00  0.00    -0.776 OA
HETATM   44  H   UNK     0      19.195  -7.346  11.713  0.00  0.00     0.167 HD
ENDBRANCH  41  43
ENDBRANCH  40  41
ENDBRANCH  39  40
ENDBRANCH  27  39
BRANCH  11  45
HETATM   45  C   UNK     0      16.570   2.071   3.230  0.00  0.00     0.051 C 
BRANCH  45  46
HETATM   46  C   UNK     0      17.212   1.437   2.050  0.00  0.00     0.114 C 
BRANCH  46  47
HETATM   47  C   UNK     0      16.179   1.346   0.980  0.00  0.00     0.139 C 
HETATM   48  O   UNK     0      15.086   0.831   1.254  0.00  0.00    -0.650 OA
BRANCH  47  49
HETATM   49  O   UNK     0      16.431   1.821  -0.283  0.00  0.00    -0.776 OA
HETATM   50  H   UNK     0      16.799   2.766  -0.446  0.00  0.00     0.167 HD
ENDBRANCH  47  49
ENDBRANCH  46  47
ENDBRANCH  45  46
ENDBRANCH  11  45
BRANCH  18  51
HETATM   51  C   UNK     0      18.023  -4.728   2.572  0.00  0.00     0.051 C 
BRANCH  51  52
HETATM   52  C   UNK     0      17.281  -5.997   2.962  0.00  0.00     0.114 C 
BRANCH  52  53
HETATM   53  C   UNK     0      18.160  -7.181   2.925  0.00  0.00     0.139 C 
HETATM   54  O   UNK     0      17.729  -8.287   3.288  0.00  0.00    -0.650 OA
BRANCH  53  55
HETATM   55  O   UNK     0      19.457  -7.051   2.491  0.00  0.00    -0.776 OA
HETATM   56  H   UNK     0      19.800  -7.297   1.593  0.00  0.00     0.167 HD
ENDBRANCH  53  55
ENDBRANCH  52  53
ENDBRANCH  51  52
ENDBRANCH  18  51
TORSDOF 16
ENDMDL
MODEL 20
REMARK VINA RESULT:      -7.7     26.297     29.070
REMARK  16 active torsions:
REMARK  status: ('A' for Active; 'I' for Inactive)
REMARK    1  A    between atoms: C_6  and  C_7 
REMARK    2  A    between atoms: C_7  and  C_8 
REMARK    3  A    between atoms: C_8  and  C_9 
REMARK    4  A    between atoms: C_9  and  O_11 
REMARK    5  A    between atoms: C_16  and  C_17 
REMARK    6  A    between atoms: C_17  and  C_18 
REMARK    7  A    between atoms: C_18  and  C_19 
REMARK    8  A    between atoms: C_19  and  O_21 
REMARK    9  A    between atoms: C_28  and  C_29 
REMARK   10  A    between atoms: C_29  and  C_30 
REMARK   11  A    between atoms: C_30  and  C_31 
REMARK   12  A    between atoms: C_31  and  O_33 
REMARK   13  A    between atoms: C_42  and  C_43 
REMARK   14  A    between atoms: C_43  and  C_44 
REMARK   15  A    between atoms: C_44  and  C_45 
REMARK   16  A    between atoms: C_45  and  O_47 
ROOT
HETATM    1  C   UNK     0      18.541  -7.430   6.460  0.00  0.00     0.051 C 
HETATM    2  C   UNK     0      19.326  -6.239   6.971  0.00  0.00    -0.031 A 
HETATM    3  C   UNK     0      20.016  -5.270   6.260  0.00  0.00     0.021 A 
HETATM    4  N   UNK     0      20.597  -4.413   7.132  0.00  0.00    -0.361 N 
HETATM    5  C   UNK     0      20.284  -4.809   8.383  0.00  0.00     0.022 A 
HETATM    6  C   UNK     0      19.493  -5.950   8.319  0.00  0.00    -0.027 A 
HETATM    7  C   UNK     0      20.596  -4.156   9.694  0.00  0.00     0.115 C 
HETATM    8  C   UNK     0      20.434  -2.647   9.759  0.00  0.00     0.021 A 
HETATM    9  N   UNK     0      19.520  -1.877   9.150  0.00  0.00    -0.361 N 
HETATM   10  C   UNK     0      19.813  -0.587   9.418  0.00  0.00     0.022 A 
HETATM   11  C   UNK     0      20.941  -0.525  10.231  0.00  0.00    -0.027 A 
HETATM   12  C   UNK     0      21.338  -1.820  10.450  0.00  0.00    -0.031 A 
HETATM   13  C   UNK     0      22.525  -2.241  11.286  0.00  0.00     0.051 C 
HETATM   14  C   UNK     0      19.076   0.636   8.879  0.00  0.00     0.115 C 
HETATM   15  C   UNK     0      19.102   0.751   7.363  0.00  0.00     0.021 A 
HETATM   16  N   UNK     0      18.645  -0.141   6.464  0.00  0.00    -0.361 N 
HETATM   17  C   UNK     0      18.917   0.300   5.233  0.00  0.00     0.022 A 
HETATM   18  C   UNK     0      19.573   1.542   5.335  0.00  0.00    -0.027 A 
HETATM   19  C   UNK     0      19.681   1.814   6.674  0.00  0.00    -0.031 A 
HETATM   20  C   UNK     0      20.299   3.085   7.230  0.00  0.00     0.051 C 
HETATM   21  C   UNK     0      18.680  -0.357   3.892  0.00  0.00     0.115 C 
HETATM   22  C   UNK     0      18.794  -1.861   3.822  0.00  0.00     0.022 A 
HETATM   23  N   UNK     0      19.691  -2.655   4.421  0.00  0.00    -0.361 N 
HETATM   24  C   UNK     0      19.335  -3.937   4.205  0.00  0.00     0.021 A 
HETATM   25  C   UNK     0      18.186  -3.970   3.438  0.00  0.00    -0.031 A 
HETATM   26  C   UNK     0      17.429  -5.169   2.905  0.00  0.00     0.051 C 
HETATM   27  C   UNK     0      17.820  -2.654   3.180  0.00  0.00    -0.027 A 
HETATM   28  C   UNK     0      19.989  -5.190   4.759  0.00  0.00     0.115 C 
HETATM   29  H   UNK     0      21.256  -3.556   6.858  0.00  0.00     0.165 HD
HETATM   30  H   UNK     0      18.637  -2.243   8.570  0.00  0.00     0.165 HD
HETATM   31  H   UNK     0      18.077  -1.078   6.700  0.00  0.00     0.165 HD
HETATM   32  H   UNK     0      20.610  -2.317   4.968  0.00  0.00     0.165 HD
ENDROOT
BRANCH   6  33
HETATM   33  C   UNK     0      18.892  -6.778   9.427  0.00  0.00     0.051 C 
BRANCH  33  34
HETATM   34  C   UNK     0      17.602  -6.163   9.916  0.00  0.00     0.114 C 
BRANCH  34  35
HETATM   35  C   UNK     0      17.088  -7.022  11.020  0.00  0.00     0.139 C 
HETATM   36  O   UNK     0      17.021  -8.277  10.873  0.00  0.00    -0.650 OA
BRANCH  35  37
HETATM   37  O   UNK     0      16.669  -6.504  12.240  0.00  0.00    -0.776 OA
HETATM   38  H   UNK     0      15.738  -6.145  12.376  0.00  0.00     0.167 HD
ENDBRANCH  35  37
ENDBRANCH  34  35
ENDBRANCH  33  34
ENDBRANCH   6  33
BRANCH  27  39
HETATM   39  C   UNK     0      16.664  -2.287   2.319  0.00  0.00     0.051 C 
BRANCH  39  40
HETATM   40  C   UNK     0      15.437  -1.822   2.965  0.00  0.00     0.114 C 
BRANCH  40  41
HETATM   41  C   UNK     0      14.979  -0.455   2.855  0.00  0.00     0.139 C 
HETATM   42  O   UNK     0      14.418  -0.000   1.849  0.00  0.00    -0.650 OA
BRANCH  41  43
HETATM   43  O   UNK     0      15.177   0.430   3.953  0.00  0.00    -0.776 OA
HETATM   44  H   UNK     0      14.681   0.169   4.796  0.00  0.00     0.167 HD
ENDBRANCH  41  43
ENDBRANCH  40  41
ENDBRANCH  39  40
ENDBRANCH  27  39
BRANCH  11  45
HETATM   45  C   UNK     0      21.633   0.689  10.792  0.00  0.00     0.051 C 
BRANCH  45  46
HETATM   46  C   UNK     0      20.858   1.395  11.844  0.00  0.00     0.114 C 
BRANCH  46  47
HETATM   47  C   UNK     0      21.137   0.705  13.136  0.00  0.00     0.139 C 
HETATM   48  O   UNK     0      22.034   1.153  13.865  0.00  0.00    -0.650 OA
BRANCH  47  49
HETATM   49  O   UNK     0      20.419  -0.402  13.510  0.00  0.00    -0.776 OA
HETATM   50  H   UNK     0      20.402  -1.258  12.944  0.00  0.00     0.167 HD
ENDBRANCH  47  49
ENDBRANCH  46  47
ENDBRANCH  45  46
ENDBRANCH  11  45
BRANCH  18  51
HETATM   51  C   UNK     0      20.051   2.432   4.217  0.00  0.00     0.051 C 
BRANCH  51  52
HETATM   52  C   UNK     0      18.922   3.413   3.941  0.00  0.00     0.114 C 
BRANCH  52  53
HETATM   53  C   UNK     0      18.183   3.068   2.711  0.00  0.00     0.139 C 
HETATM   54  O   UNK     0      18.701   3.263   1.599  0.00  0.00    -0.650 OA
BRANCH  53  55
HETATM   55  O   UNK     0      16.921   2.535   2.803  0.00  0.00    -0.776 OA
HETATM   56  H   UNK     0      16.691   1.570   2.773  0.00  0.00     0.167 HD
ENDBRANCH  53  55
ENDBRANCH  52  53
ENDBRANCH  51  52
ENDBRANCH  18  51
TORSDOF 16
ENDMDL
