MODEL 1
REMARK VINA RESULT:     -10.8      0.000      0.000
REMARK  16 active torsions:
REMARK  status: ('A' for Active; 'I' for Inactive)
REMARK    1  A    between atoms: C_6  and  C_7 
REMARK    2  A    between atoms: C_7  and  C_8 
REMARK    3  A    between atoms: C_8  and  C_9 
REMARK    4  A    between atoms: C_9  and  O_11 
REMARK    5  A    between atoms: C_16  and  C_17 
REMARK    6  A    between atoms: C_17  and  C_18 
REMARK    7  A    between atoms: C_18  and  C_19 
REMARK    8  A    between atoms: C_19  and  O_21 
REMARK    9  A    between atoms: C_28  and  C_29 
REMARK   10  A    between atoms: C_29  and  C_30 
REMARK   11  A    between atoms: C_30  and  C_31 
REMARK   12  A    between atoms: C_31  and  O_33 
REMARK   13  A    between atoms: C_42  and  C_43 
REMARK   14  A    between atoms: C_43  and  C_44 
REMARK   15  A    between atoms: C_44  and  C_45 
REMARK   16  A    between atoms: C_45  and  O_47 
ROOT
HETATM    1  C   UNK     0       1.895   5.004  -6.532  0.00  0.00     0.051 C 
HETATM    2  C   UNK     0       1.050   4.702  -7.752  0.00  0.00    -0.031 A 
HETATM    3  C   UNK     0       1.176   3.678  -8.678  0.00  0.00     0.021 A 
HETATM    4  N   UNK     0       0.215   3.817  -9.623  0.00  0.00    -0.361 N 
HETATM    5  C   UNK     0      -0.525   4.902  -9.314  0.00  0.00     0.022 A 
HETATM    6  C   UNK     0      -0.029   5.481  -8.151  0.00  0.00    -0.027 A 
HETATM    7  C   UNK     0      -1.757   5.434  -9.978  0.00  0.00     0.115 C 
HETATM    8  C   UNK     0      -2.799   4.414 -10.400  0.00  0.00     0.021 A 
HETATM    9  N   UNK     0      -3.152   3.276  -9.783  0.00  0.00    -0.361 N 
HETATM   10  C   UNK     0      -4.052   2.638 -10.562  0.00  0.00     0.022 A 
HETATM   11  C   UNK     0      -4.291   3.391 -11.708  0.00  0.00    -0.027 A 
HETATM   12  C   UNK     0      -3.505   4.511 -11.612  0.00  0.00    -0.031 A 
HETATM   13  C   UNK     0      -3.440   5.623 -12.635  0.00  0.00     0.051 C 
HETATM   14  C   UNK     0      -4.678   1.275 -10.284  0.00  0.00     0.115 C 
HETATM   15  C   UNK     0      -3.671   0.140 -10.197  0.00  0.00     0.021 A 
HETATM   16  N   UNK     0      -2.629   0.030  -9.352  0.00  0.00    -0.361 N 
HETATM   17  C   UNK     0      -1.944  -1.079  -9.641  0.00  0.00     0.022 A 
HETATM   18  C   UNK     0      -2.575  -1.727 -10.721  0.00  0.00    -0.027 A 
HETATM   19  C   UNK     0      -3.656  -0.955 -11.059  0.00  0.00    -0.031 A 
HETATM   20  C   UNK     0      -4.638  -1.313 -12.159  0.00  0.00     0.051 C 
HETATM   21  C   UNK     0      -0.664  -1.615  -9.041  0.00  0.00     0.115 C 
HETATM   22  C   UNK     0       0.364  -0.610  -8.577  0.00  0.00     0.022 A 
HETATM   23  N   UNK     0       0.733   0.534  -9.169  0.00  0.00    -0.361 N 
HETATM   24  C   UNK     0       1.569   1.189  -8.339  0.00  0.00     0.021 A 
HETATM   25  C   UNK     0       1.751   0.445  -7.190  0.00  0.00    -0.031 A 
HETATM   26  C   UNK     0       2.627   0.742  -5.990  0.00  0.00     0.051 C 
HETATM   27  C   UNK     0       0.990  -0.711  -7.318  0.00  0.00    -0.027 A 
HETATM   28  C   UNK     0       2.177   2.568  -8.531  0.00  0.00     0.115 C 
HETATM   29  H   UNK     0       0.092   3.171 -10.523  0.00  0.00     0.165 HD
HETATM   30  H   UNK     0      -2.807   2.944  -8.773  0.00  0.00     0.165 HD
HETATM   31  H   UNK     0      -2.398   0.724  -8.502  0.00  0.00     0.165 HD
HETATM   32  H   UNK     0       0.440   0.869 -10.198  0.00  0.00     0.165 HD
ENDROOT
BRANCH   6  33
HETATM   33  C   UNK     0      -0.494   6.703  -7.401  0.00  0.00     0.051 C 
BRANCH  33  34
HETATM   34  C   UNK     0      -1.623   6.356  -6.460  0.00  0.00     0.114 C 
BRANCH  34  35
HETATM   35  C   UNK     0      -2.528   7.540  -6.394  0.00  0.00     0.139 C 
HETATM   36  O   UNK     0      -3.192   7.892  -7.412  0.00  0.00    -0.650 OA
BRANCH  35  37
HETATM   37  O   UNK     0      -2.689   8.296  -5.240  0.00  0.00    -0.776 OA
HETATM   38  H   UNK     0      -3.584   8.400  -4.788  0.00  0.00     0.167 HD
ENDBRANCH  35  37
ENDBRANCH  34  35
ENDBRANCH  33  34
ENDBRANCH   6  33
BRANCH  27  39
HETATM   39  C   UNK     0       0.987  -1.797  -6.301  0.00  0.00     0.051 C 
BRANCH  39  40
HETATM   40  C   UNK     0      -0.289  -2.424  -5.959  0.00  0.00     0.114 C 
BRANCH  40  41
HETATM   41  C   UNK     0      -0.529  -3.837  -6.146  0.00  0.00     0.139 C 
HETATM   42  O   UNK     0      -0.026  -4.500  -7.063  0.00  0.00    -0.650 OA
BRANCH  41  43
HETATM   43  O   UNK     0      -1.386  -4.519  -5.236  0.00  0.00    -0.776 OA
HETATM   44  H   UNK     0      -1.990  -3.913  -4.695  0.00  0.00     0.167 HD
ENDBRANCH  41  43
ENDBRANCH  40  41
ENDBRANCH  39  40
ENDBRANCH  27  39
BRANCH  11  45
HETATM   45  C   UNK     0      -5.217   3.090 -12.856  0.00  0.00     0.051 C 
BRANCH  45  46
HETATM   46  C   UNK     0      -4.576   2.352 -13.974  0.00  0.00     0.114 C 
BRANCH  46  47
HETATM   47  C   UNK     0      -5.548   2.334 -15.105  0.00  0.00     0.139 C 
HETATM   48  O   UNK     0      -6.717   2.681 -14.887  0.00  0.00    -0.650 OA
BRANCH  47  49
HETATM   49  O   UNK     0      -5.159   1.939 -16.360  0.00  0.00    -0.776 OA
HETATM   50  H   UNK     0      -4.409   1.252 -16.507  0.00  0.00     0.167 HD
ENDBRANCH  47  49
ENDBRANCH  46  47
ENDBRANCH  45  46
ENDBRANCH  11  45
BRANCH  18  51
HETATM   51  C   UNK     0      -2.183  -3.024 -11.381  0.00  0.00     0.051 C 
BRANCH  51  52
HETATM   52  C   UNK     0      -3.334  -3.989 -11.141  0.00  0.00     0.114 C 
BRANCH  52  53
HETATM   53  C   UNK     0      -3.042  -4.931 -10.043  0.00  0.00     0.139 C 
HETATM   54  O   UNK     0      -3.824  -5.863  -9.799  0.00  0.00    -0.650 OA
BRANCH  53  55
HETATM   55  O   UNK     0      -1.904  -4.766  -9.291  0.00  0.00    -0.776 OA
HETATM   56  H   UNK     0      -0.974  -4.734  -9.638  0.00  0.00     0.167 HD
ENDBRANCH  53  55
ENDBRANCH  52  53
ENDBRANCH  51  52
ENDBRANCH  18  51
TORSDOF 16
ENDMDL
MODEL 2
REMARK VINA RESULT:     -10.5      2.939      8.079
REMARK  16 active torsions:
REMARK  status: ('A' for Active; 'I' for Inactive)
REMARK    1  A    between atoms: C_6  and  C_7 
REMARK    2  A    between atoms: C_7  and  C_8 
REMARK    3  A    between atoms: C_8  and  C_9 
REMARK    4  A    between atoms: C_9  and  O_11 
REMARK    5  A    between atoms: C_16  and  C_17 
REMARK    6  A    between atoms: C_17  and  C_18 
REMARK    7  A    between atoms: C_18  and  C_19 
REMARK    8  A    between atoms: C_19  and  O_21 
REMARK    9  A    between atoms: C_28  and  C_29 
REMARK   10  A    between atoms: C_29  and  C_30 
REMARK   11  A    between atoms: C_30  and  C_31 
REMARK   12  A    between atoms: C_31  and  O_33 
REMARK   13  A    between atoms: C_42  and  C_43 
REMARK   14  A    between atoms: C_43  and  C_44 
REMARK   15  A    between atoms: C_44  and  C_45 
REMARK   16  A    between atoms: C_45  and  O_47 
ROOT
HETATM    1  C   UNK     0       1.701   5.182  -7.177  0.00  0.00     0.051 C 
HETATM    2  C   UNK     0       0.801   4.105  -7.747  0.00  0.00    -0.031 A 
HETATM    3  C   UNK     0      -0.575   4.105  -7.913  0.00  0.00     0.021 A 
HETATM    4  N   UNK     0      -0.957   2.915  -8.434  0.00  0.00    -0.361 N 
HETATM    5  C   UNK     0       0.147   2.159  -8.611  0.00  0.00     0.022 A 
HETATM    6  C   UNK     0       1.264   2.872  -8.189  0.00  0.00    -0.027 A 
HETATM    7  C   UNK     0       0.284   0.807  -9.238  0.00  0.00     0.115 C 
HETATM    8  C   UNK     0      -0.510   0.561 -10.509  0.00  0.00     0.021 A 
HETATM    9  N   UNK     0      -0.789   1.422 -11.500  0.00  0.00    -0.361 N 
HETATM   10  C   UNK     0      -1.600   0.798 -12.381  0.00  0.00     0.022 A 
HETATM   11  C   UNK     0      -1.841  -0.504 -11.950  0.00  0.00    -0.027 A 
HETATM   12  C   UNK     0      -1.158  -0.659 -10.772  0.00  0.00    -0.031 A 
HETATM   13  C   UNK     0      -1.125  -1.922  -9.940  0.00  0.00     0.051 C 
HETATM   14  C   UNK     0      -2.219   1.417 -13.631  0.00  0.00     0.115 C 
HETATM   15  C   UNK     0      -3.131   2.599 -13.345  0.00  0.00     0.021 A 
HETATM   16  N   UNK     0      -2.814   3.748 -12.718  0.00  0.00    -0.361 N 
HETATM   17  C   UNK     0      -3.910   4.501 -12.604  0.00  0.00     0.022 A 
HETATM   18  C   UNK     0      -4.990   3.815 -13.193  0.00  0.00    -0.027 A 
HETATM   19  C   UNK     0      -4.489   2.626 -13.655  0.00  0.00    -0.031 A 
HETATM   20  C   UNK     0      -5.317   1.592 -14.396  0.00  0.00     0.051 C 
HETATM   21  C   UNK     0      -4.104   5.837 -11.923  0.00  0.00     0.115 C 
HETATM   22  C   UNK     0      -3.288   6.112 -10.682  0.00  0.00     0.022 A 
HETATM   23  N   UNK     0      -2.990   5.274  -9.681  0.00  0.00    -0.361 N 
HETATM   24  C   UNK     0      -2.120   5.891  -8.856  0.00  0.00     0.021 A 
HETATM   25  C   UNK     0      -1.859   7.161  -9.332  0.00  0.00    -0.031 A 
HETATM   26  C   UNK     0      -0.983   8.242  -8.734  0.00  0.00     0.051 C 
HETATM   27  C   UNK     0      -2.595   7.326 -10.500  0.00  0.00    -0.027 A 
HETATM   28  C   UNK     0      -1.427   5.311  -7.635  0.00  0.00     0.115 C 
HETATM   29  H   UNK     0      -2.007   2.602  -8.635  0.00  0.00     0.165 HD
HETATM   30  H   UNK     0      -0.376   2.454 -11.607  0.00  0.00     0.165 HD
HETATM   31  H   UNK     0      -1.786   4.054 -12.392  0.00  0.00     0.165 HD
HETATM   32  H   UNK     0      -3.426   4.253  -9.524  0.00  0.00     0.165 HD
ENDROOT
BRANCH   6  33
HETATM   33  C   UNK     0       2.719   2.476  -8.172  0.00  0.00     0.051 C 
BRANCH  33  34
HETATM   34  C   UNK     0       3.059   1.743  -6.896  0.00  0.00     0.114 C 
BRANCH  34  35
HETATM   35  C   UNK     0       4.538   1.558  -6.869  0.00  0.00     0.139 C 
HETATM   36  O   UNK     0       5.116   1.206  -5.799  0.00  0.00    -0.650 OA
BRANCH  35  37
HETATM   37  O   UNK     0       5.339   1.754  -7.987  0.00  0.00    -0.776 OA
HETATM   38  H   UNK     0       4.949   1.918  -8.901  0.00  0.00     0.167 HD
ENDBRANCH  35  37
ENDBRANCH  34  35
ENDBRANCH  33  34
ENDBRANCH   6  33
BRANCH  27  39
HETATM   39  C   UNK     0      -2.626   8.603 -11.265  0.00  0.00     0.051 C 
BRANCH  39  40
HETATM   40  C   UNK     0      -3.710   9.546 -10.997  0.00  0.00     0.114 C 
BRANCH  40  41
HETATM   41  C   UNK     0      -4.877   9.641 -11.845  0.00  0.00     0.139 C 
HETATM   42  O   UNK     0      -4.939   9.147 -12.980  0.00  0.00    -0.650 OA
BRANCH  41  43
HETATM   43  O   UNK     0      -6.025  10.334 -11.367  0.00  0.00    -0.776 OA
HETATM   44  H   UNK     0      -6.507  10.881 -12.071  0.00  0.00     0.167 HD
ENDBRANCH  41  43
ENDBRANCH  40  41
ENDBRANCH  39  40
ENDBRANCH  27  39
BRANCH  11  45
HETATM   45  C   UNK     0      -2.674  -1.573 -12.605  0.00  0.00     0.051 C 
BRANCH  45  46
HETATM   46  C   UNK     0      -4.138  -1.342 -12.514  0.00  0.00     0.114 C 
BRANCH  46  47
HETATM   47  C   UNK     0      -4.569  -1.769 -11.152  0.00  0.00     0.139 C 
HETATM   48  O   UNK     0      -4.635  -2.981 -10.905  0.00  0.00    -0.650 OA
BRANCH  47  49
HETATM   49  O   UNK     0      -4.888  -0.841 -10.193  0.00  0.00    -0.776 OA
HETATM   50  H   UNK     0      -5.855  -0.540 -10.026  0.00  0.00     0.167 HD
ENDBRANCH  47  49
ENDBRANCH  46  47
ENDBRANCH  45  46
ENDBRANCH  11  45
BRANCH  18  51
HETATM   51  C   UNK     0      -6.418   4.277 -13.328  0.00  0.00     0.051 C 
BRANCH  51  52
HETATM   52  C   UNK     0      -6.994   3.536 -14.526  0.00  0.00     0.114 C 
BRANCH  52  53
HETATM   53  C   UNK     0      -8.195   4.207 -15.061  0.00  0.00     0.139 C 
HETATM   54  O   UNK     0      -9.077   4.612 -14.288  0.00  0.00    -0.650 OA
BRANCH  53  55
HETATM   55  O   UNK     0      -8.330   4.377 -16.418  0.00  0.00    -0.776 OA
HETATM   56  H   UNK     0      -8.408   3.652 -17.092  0.00  0.00     0.167 HD
ENDBRANCH  53  55
ENDBRANCH  52  53
ENDBRANCH  51  52
ENDBRANCH  18  51
TORSDOF 16
ENDMDL
MODEL 3
REMARK VINA RESULT:     -10.3      1.951      6.951
REMARK  16 active torsions:
REMARK  status: ('A' for Active; 'I' for Inactive)
REMARK    1  A    between atoms: C_6  and  C_7 
REMARK    2  A    between atoms: C_7  and  C_8 
REMARK    3  A    between atoms: C_8  and  C_9 
REMARK    4  A    between atoms: C_9  and  O_11 
REMARK    5  A    between atoms: C_16  and  C_17 
REMARK    6  A    between atoms: C_17  and  C_18 
REMARK    7  A    between atoms: C_18  and  C_19 
REMARK    8  A    between atoms: C_19  and  O_21 
REMARK    9  A    between atoms: C_28  and  C_29 
REMARK   10  A    between atoms: C_29  and  C_30 
REMARK   11  A    between atoms: C_30  and  C_31 
REMARK   12  A    between atoms: C_31  and  O_33 
REMARK   13  A    between atoms: C_42  and  C_43 
REMARK   14  A    between atoms: C_43  and  C_44 
REMARK   15  A    between atoms: C_44  and  C_45 
REMARK   16  A    between atoms: C_45  and  O_47 
ROOT
HETATM    1  C   UNK     0      -4.939   3.291 -12.951  0.00  0.00     0.051 C 
HETATM    2  C   UNK     0      -4.119   3.522 -11.697  0.00  0.00    -0.031 A 
HETATM    3  C   UNK     0      -4.027   2.746 -10.552  0.00  0.00     0.021 A 
HETATM    4  N   UNK     0      -3.196   3.356  -9.673  0.00  0.00    -0.361 N 
HETATM    5  C   UNK     0      -2.751   4.498 -10.236  0.00  0.00     0.022 A 
HETATM    6  C   UNK     0      -3.311   4.634 -11.502  0.00  0.00    -0.027 A 
HETATM    7  C   UNK     0      -1.746   5.483  -9.725  0.00  0.00     0.115 C 
HETATM    8  C   UNK     0      -0.499   4.909  -9.075  0.00  0.00     0.021 A 
HETATM    9  N   UNK     0       0.179   3.798  -9.403  0.00  0.00    -0.361 N 
HETATM   10  C   UNK     0       1.165   3.627  -8.497  0.00  0.00     0.022 A 
HETATM   11  C   UNK     0       1.128   4.661  -7.567  0.00  0.00    -0.027 A 
HETATM   12  C   UNK     0       0.081   5.472  -7.925  0.00  0.00    -0.031 A 
HETATM   13  C   UNK     0      -0.336   6.732  -7.199  0.00  0.00     0.051 C 
HETATM   14  C   UNK     0       2.145   2.458  -8.442  0.00  0.00     0.115 C 
HETATM   15  C   UNK     0       1.479   1.105  -8.250  0.00  0.00     0.021 A 
HETATM   16  N   UNK     0       0.557   0.524  -9.040  0.00  0.00    -0.361 N 
HETATM   17  C   UNK     0       0.172  -0.630  -8.489  0.00  0.00     0.022 A 
HETATM   18  C   UNK     0       0.886  -0.814  -7.288  0.00  0.00    -0.027 A 
HETATM   19  C   UNK     0       1.702   0.279  -7.151  0.00  0.00    -0.031 A 
HETATM   20  C   UNK     0       2.675   0.466  -6.001  0.00  0.00     0.051 C 
HETATM   21  C   UNK     0      -0.882  -1.616  -8.937  0.00  0.00     0.115 C 
HETATM   22  C   UNK     0      -2.108  -1.063  -9.625  0.00  0.00     0.022 A 
HETATM   23  N   UNK     0      -2.801   0.042  -9.323  0.00  0.00    -0.361 N 
HETATM   24  C   UNK     0      -3.729   0.236 -10.282  0.00  0.00     0.021 A 
HETATM   25  C   UNK     0      -3.638  -0.776 -11.218  0.00  0.00    -0.031 A 
HETATM   26  C   UNK     0      -4.487  -1.013 -12.450  0.00  0.00     0.051 C 
HETATM   27  C   UNK     0      -2.608  -1.620 -10.819  0.00  0.00    -0.027 A 
HETATM   28  C   UNK     0      -4.689   1.404 -10.424  0.00  0.00     0.115 C 
HETATM   29  H   UNK     0      -2.962   2.994  -8.645  0.00  0.00     0.165 HD
HETATM   30  H   UNK     0      -0.005   3.160 -10.301  0.00  0.00     0.165 HD
HETATM   31  H   UNK     0       0.203   0.913 -10.030  0.00  0.00     0.165 HD
HETATM   32  H   UNK     0      -2.670   0.674  -8.406  0.00  0.00     0.165 HD
ENDROOT
BRANCH   6  33
HETATM   33  C   UNK     0      -3.140   5.728 -12.526  0.00  0.00     0.051 C 
BRANCH  33  34
HETATM   34  C   UNK     0      -3.892   6.970 -12.111  0.00  0.00     0.114 C 
BRANCH  34  35
HETATM   35  C   UNK     0      -4.888   7.267 -13.181  0.00  0.00     0.139 C 
HETATM   36  O   UNK     0      -5.789   6.425 -13.464  0.00  0.00    -0.650 OA
BRANCH  35  37
HETATM   37  O   UNK     0      -4.880   8.454 -13.904  0.00  0.00    -0.776 OA
HETATM   38  H   UNK     0      -5.188   9.325 -13.503  0.00  0.00     0.167 HD
ENDBRANCH  35  37
ENDBRANCH  34  35
ENDBRANCH  33  34
ENDBRANCH   6  33
BRANCH  27  39
HETATM   39  C   UNK     0      -2.257  -2.870 -11.546  0.00  0.00     0.051 C 
BRANCH  39  40
HETATM   40  C   UNK     0      -3.117  -4.040 -11.370  0.00  0.00     0.114 C 
BRANCH  40  41
HETATM   41  C   UNK     0      -3.132  -4.808 -10.145  0.00  0.00     0.139 C 
HETATM   42  O   UNK     0      -2.179  -4.854  -9.355  0.00  0.00    -0.650 OA
BRANCH  41  43
HETATM   43  O   UNK     0      -4.297  -5.556  -9.812  0.00  0.00    -0.776 OA
HETATM   44  H   UNK     0      -4.875  -5.805 -10.606  0.00  0.00     0.167 HD
ENDBRANCH  41  43
ENDBRANCH  40  41
ENDBRANCH  39  40
ENDBRANCH  27  39
BRANCH  11  45
HETATM   45  C   UNK     0       2.029   4.897  -6.384  0.00  0.00     0.051 C 
BRANCH  45  46
HETATM   46  C   UNK     0       3.452   5.121  -6.743  0.00  0.00     0.114 C 
BRANCH  46  47
HETATM   47  C   UNK     0       3.953   6.236  -5.888  0.00  0.00     0.139 C 
HETATM   48  O   UNK     0       4.976   6.053  -5.214  0.00  0.00    -0.650 OA
BRANCH  47  49
HETATM   49  O   UNK     0       3.294   7.439  -5.846  0.00  0.00    -0.776 OA
HETATM   50  H   UNK     0       2.750   7.734  -5.027  0.00  0.00     0.167 HD
ENDBRANCH  47  49
ENDBRANCH  46  47
ENDBRANCH  45  46
ENDBRANCH  11  45
BRANCH  18  51
HETATM   51  C   UNK     0       0.809  -1.978  -6.335  0.00  0.00     0.051 C 
BRANCH  51  52
HETATM   52  C   UNK     0       1.152  -3.218  -7.148  0.00  0.00     0.114 C 
BRANCH  52  53
HETATM   53  C   UNK     0       0.630  -4.448  -6.521  0.00  0.00     0.139 C 
HETATM   54  O   UNK     0       1.249  -4.979  -5.586  0.00  0.00    -0.650 OA
BRANCH  53  55
HETATM   55  O   UNK     0      -0.540  -5.001  -6.982  0.00  0.00    -0.776 OA
HETATM   56  H   UNK     0      -1.440  -4.883  -6.579  0.00  0.00     0.167 HD
ENDBRANCH  53  55
ENDBRANCH  52  53
ENDBRANCH  51  52
ENDBRANCH  18  51
TORSDOF 16
ENDMDL
MODEL 4
REMARK VINA RESULT:     -10.2      2.512      7.639
REMARK  16 active torsions:
REMARK  status: ('A' for Active; 'I' for Inactive)
REMARK    1  A    between atoms: C_6  and  C_7 
REMARK    2  A    between atoms: C_7  and  C_8 
REMARK    3  A    between atoms: C_8  and  C_9 
REMARK    4  A    between atoms: C_9  and  O_11 
REMARK    5  A    between atoms: C_16  and  C_17 
REMARK    6  A    between atoms: C_17  and  C_18 
REMARK    7  A    between atoms: C_18  and  C_19 
REMARK    8  A    between atoms: C_19  and  O_21 
REMARK    9  A    between atoms: C_28  and  C_29 
REMARK   10  A    between atoms: C_29  and  C_30 
REMARK   11  A    between atoms: C_30  and  C_31 
REMARK   12  A    between atoms: C_31  and  O_33 
REMARK   13  A    between atoms: C_42  and  C_43 
REMARK   14  A    between atoms: C_43  and  C_44 
REMARK   15  A    between atoms: C_44  and  C_45 
REMARK   16  A    between atoms: C_45  and  O_47 
ROOT
HETATM    1  C   UNK     0      -1.455  -3.427  -9.259  0.00  0.00     0.051 C 
HETATM    2  C   UNK     0      -2.019  -2.060  -9.591  0.00  0.00    -0.031 A 
HETATM    3  C   UNK     0      -2.208  -0.962  -8.767  0.00  0.00     0.021 A 
HETATM    4  N   UNK     0      -2.771   0.038  -9.486  0.00  0.00    -0.361 N 
HETATM    5  C   UNK     0      -2.937  -0.397 -10.752  0.00  0.00     0.022 A 
HETATM    6  C   UNK     0      -2.479  -1.706 -10.853  0.00  0.00    -0.027 A 
HETATM    7  C   UNK     0      -3.427   0.345 -11.956  0.00  0.00     0.115 C 
HETATM    8  C   UNK     0      -2.910   1.761 -12.142  0.00  0.00     0.021 A 
HETATM    9  N   UNK     0      -1.695   2.252 -11.852  0.00  0.00    -0.361 N 
HETATM   10  C   UNK     0      -1.710   3.580 -12.095  0.00  0.00     0.022 A 
HETATM   11  C   UNK     0      -2.967   3.953 -12.563  0.00  0.00    -0.027 A 
HETATM   12  C   UNK     0      -3.727   2.812 -12.596  0.00  0.00    -0.031 A 
HETATM   13  C   UNK     0      -5.169   2.734 -13.045  0.00  0.00     0.051 C 
HETATM   14  C   UNK     0      -0.563   4.555 -11.846  0.00  0.00     0.115 C 
HETATM   15  C   UNK     0      -0.129   4.637 -10.391  0.00  0.00     0.021 A 
HETATM   16  N   UNK     0       0.318   3.636  -9.610  0.00  0.00    -0.361 N 
HETATM   17  C   UNK     0       0.527   4.103  -8.377  0.00  0.00     0.022 A 
HETATM   18  C   UNK     0       0.210   5.476  -8.356  0.00  0.00    -0.027 A 
HETATM   19  C   UNK     0      -0.198   5.798  -9.624  0.00  0.00    -0.031 A 
HETATM   20  C   UNK     0      -0.600   7.198 -10.051  0.00  0.00     0.051 C 
HETATM   21  C   UNK     0       0.956   3.376  -7.123  0.00  0.00     0.115 C 
HETATM   22  C   UNK     0       0.485   1.952  -6.946  0.00  0.00     0.022 A 
HETATM   23  N   UNK     0      -0.717   1.434  -7.230  0.00  0.00    -0.361 N 
HETATM   24  C   UNK     0      -0.656   0.099  -7.055  0.00  0.00     0.021 A 
HETATM   25  C   UNK     0       0.614  -0.251  -6.638  0.00  0.00    -0.031 A 
HETATM   26  C   UNK     0       1.156  -1.618  -6.275  0.00  0.00     0.051 C 
HETATM   27  C   UNK     0       1.363   0.918  -6.561  0.00  0.00    -0.027 A 
HETATM   28  C   UNK     0      -1.739  -0.927  -7.340  0.00  0.00     0.115 C 
HETATM   29  H   UNK     0      -3.083   1.029  -9.084  0.00  0.00     0.165 HD
HETATM   30  H   UNK     0      -0.809   1.655 -11.523  0.00  0.00     0.165 HD
HETATM   31  H   UNK     0       0.536   2.589  -9.946  0.00  0.00     0.165 HD
HETATM   32  H   UNK     0      -1.634   2.012  -7.515  0.00  0.00     0.165 HD
ENDROOT
BRANCH   6  33
HETATM   33  C   UNK     0      -2.450  -2.635 -12.040  0.00  0.00     0.051 C 
BRANCH  33  34
HETATM   34  C   UNK     0      -3.851  -2.997 -12.472  0.00  0.00     0.114 C 
BRANCH  34  35
HETATM   35  C   UNK     0      -4.585  -3.463 -11.261  0.00  0.00     0.139 C 
HETATM   36  O   UNK     0      -4.299  -4.575 -10.731  0.00  0.00    -0.650 OA
BRANCH  35  37
HETATM   37  O   UNK     0      -5.596  -2.718 -10.664  0.00  0.00    -0.776 OA
HETATM   38  H   UNK     0      -6.475  -2.545 -11.124  0.00  0.00     0.167 HD
ENDBRANCH  35  37
ENDBRANCH  34  35
ENDBRANCH  33  34
ENDBRANCH   6  33
BRANCH  27  39
HETATM   39  C   UNK     0       2.769   0.950  -6.075  0.00  0.00     0.051 C 
BRANCH  39  40
HETATM   40  C   UNK     0       3.835   1.171  -7.052  0.00  0.00     0.114 C 
BRANCH  40  41
HETATM   41  C   UNK     0       5.218   1.327  -6.661  0.00  0.00     0.139 C 
HETATM   42  O   UNK     0       5.603   1.298  -5.484  0.00  0.00    -0.650 OA
BRANCH  41  43
HETATM   43  O   UNK     0       6.204   1.525  -7.669  0.00  0.00    -0.776 OA
HETATM   44  H   UNK     0       5.828   1.683  -8.596  0.00  0.00     0.167 HD
ENDBRANCH  41  43
ENDBRANCH  40  41
ENDBRANCH  39  40
ENDBRANCH  27  39
BRANCH  11  45
HETATM   45  C   UNK     0      -3.453   5.317 -12.971  0.00  0.00     0.051 C 
BRANCH  45  46
HETATM   46  C   UNK     0      -3.754   6.220 -11.831  0.00  0.00     0.114 C 
BRANCH  46  47
HETATM   47  C   UNK     0      -4.295   7.487 -12.401  0.00  0.00     0.139 C 
HETATM   48  O   UNK     0      -4.367   8.483 -11.667  0.00  0.00    -0.650 OA
BRANCH  47  49
HETATM   49  O   UNK     0      -4.706   7.550 -13.708  0.00  0.00    -0.776 OA
HETATM   50  H   UNK     0      -4.415   6.854 -14.405  0.00  0.00     0.167 HD
ENDBRANCH  47  49
ENDBRANCH  46  47
ENDBRANCH  45  46
ENDBRANCH  11  45
BRANCH  18  51
HETATM   51  C   UNK     0       0.312   6.433  -7.197  0.00  0.00     0.051 C 
BRANCH  51  52
HETATM   52  C   UNK     0      -1.082   6.520  -6.593  0.00  0.00     0.114 C 
BRANCH  52  53
HETATM   53  C   UNK     0      -1.502   7.918  -6.381  0.00  0.00     0.139 C 
HETATM   54  O   UNK     0      -0.949   8.835  -7.008  0.00  0.00    -0.650 OA
BRANCH  53  55
HETATM   55  O   UNK     0      -2.505   8.197  -5.484  0.00  0.00    -0.776 OA
HETATM   56  H   UNK     0      -2.527   8.963  -4.853  0.00  0.00     0.167 HD
ENDBRANCH  53  55
ENDBRANCH  52  53
ENDBRANCH  51  52
ENDBRANCH  18  51
TORSDOF 16
ENDMDL
MODEL 5
REMARK VINA RESULT:     -10.2      2.760      9.789
REMARK  16 active torsions:
REMARK  status: ('A' for Active; 'I' for Inactive)
REMARK    1  A    between atoms: C_6  and  C_7 
REMARK    2  A    between atoms: C_7  and  C_8 
REMARK    3  A    between atoms: C_8  and  C_9 
REMARK    4  A    between atoms: C_9  and  O_11 
REMARK    5  A    between atoms: C_16  and  C_17 
REMARK    6  A    between atoms: C_17  and  C_18 
REMARK    7  A    between atoms: C_18  and  C_19 
REMARK    8  A    between atoms: C_19  and  O_21 
REMARK    9  A    between atoms: C_28  and  C_29 
REMARK   10  A    between atoms: C_29  and  C_30 
REMARK   11  A    between atoms: C_30  and  C_31 
REMARK   12  A    between atoms: C_31  and  O_33 
REMARK   13  A    between atoms: C_42  and  C_43 
REMARK   14  A    between atoms: C_43  and  C_44 
REMARK   15  A    between atoms: C_44  and  C_45 
REMARK   16  A    between atoms: C_45  and  O_47 
ROOT
HETATM    1  C   UNK     0      -2.014  -1.362 -12.390  0.00  0.00     0.051 C 
HETATM    2  C   UNK     0      -1.328  -0.146 -11.802  0.00  0.00    -0.031 A 
HETATM    3  C   UNK     0      -1.168   1.121 -12.341  0.00  0.00     0.021 A 
HETATM    4  N   UNK     0      -0.460   1.883 -11.475  0.00  0.00    -0.361 N 
HETATM    5  C   UNK     0      -0.173   1.132 -10.391  0.00  0.00     0.022 A 
HETATM    6  C   UNK     0      -0.698  -0.144 -10.564  0.00  0.00    -0.027 A 
HETATM    7  C   UNK     0       0.505   1.523  -9.115  0.00  0.00     0.115 C 
HETATM    8  C   UNK     0       0.105   2.859  -8.513  0.00  0.00     0.021 A 
HETATM    9  N   UNK     0      -1.101   3.446  -8.507  0.00  0.00    -0.361 N 
HETATM   10  C   UNK     0      -0.971   4.665  -7.943  0.00  0.00     0.022 A 
HETATM   11  C   UNK     0       0.353   4.865  -7.565  0.00  0.00    -0.027 A 
HETATM   12  C   UNK     0       1.037   3.730  -7.921  0.00  0.00    -0.031 A 
HETATM   13  C   UNK     0       2.514   3.494  -7.699  0.00  0.00     0.051 C 
HETATM   14  C   UNK     0      -2.075   5.708  -7.785  0.00  0.00     0.115 C 
HETATM   15  C   UNK     0      -2.672   6.176  -9.102  0.00  0.00     0.021 A 
HETATM   16  N   UNK     0      -3.273   5.425 -10.045  0.00  0.00    -0.361 N 
HETATM   17  C   UNK     0      -3.597   6.200 -11.082  0.00  0.00     0.022 A 
HETATM   18  C   UNK     0      -3.197   7.521 -10.798  0.00  0.00    -0.027 A 
HETATM   19  C   UNK     0      -2.621   7.493  -9.555  0.00  0.00    -0.031 A 
HETATM   20  C   UNK     0      -2.081   8.722  -8.847  0.00  0.00     0.051 C 
HETATM   21  C   UNK     0      -4.219   5.835 -12.411  0.00  0.00     0.115 C 
HETATM   22  C   UNK     0      -3.864   4.490 -13.001  0.00  0.00     0.022 A 
HETATM   23  N   UNK     0      -2.673   3.878 -13.017  0.00  0.00    -0.361 N 
HETATM   24  C   UNK     0      -2.841   2.636 -13.512  0.00  0.00     0.021 A 
HETATM   25  C   UNK     0      -4.172   2.446 -13.832  0.00  0.00    -0.031 A 
HETATM   26  C   UNK     0      -4.840   1.236 -14.452  0.00  0.00     0.051 C 
HETATM   27  C   UNK     0      -4.847   3.619 -13.514  0.00  0.00    -0.027 A 
HETATM   28  C   UNK     0      -1.800   1.537 -13.639  0.00  0.00     0.115 C 
HETATM   29  H   UNK     0      -0.134   2.934 -11.652  0.00  0.00     0.165 HD
HETATM   30  H   UNK     0      -2.057   2.983  -8.856  0.00  0.00     0.165 HD
HETATM   31  H   UNK     0      -3.516   4.334  -9.957  0.00  0.00     0.165 HD
HETATM   32  H   UNK     0      -1.693   4.334 -12.718  0.00  0.00     0.165 HD
ENDROOT
BRANCH   6  33
HETATM   33  C   UNK     0      -0.646  -1.346  -9.656  0.00  0.00     0.051 C 
BRANCH  33  34
HETATM   34  C   UNK     0      -1.880  -1.413  -8.787  0.00  0.00     0.114 C 
BRANCH  34  35
HETATM   35  C   UNK     0      -1.517  -0.855  -7.452  0.00  0.00     0.139 C 
HETATM   36  O   UNK     0      -0.357  -1.035  -6.981  0.00  0.00    -0.650 OA
BRANCH  35  37
HETATM   37  O   UNK     0      -2.410  -0.124  -6.678  0.00  0.00    -0.776 OA
HETATM   38  H   UNK     0      -3.308   0.166  -7.029  0.00  0.00     0.167 HD
ENDBRANCH  35  37
ENDBRANCH  34  35
ENDBRANCH  33  34
ENDBRANCH   6  33
BRANCH  27  39
HETATM   39  C   UNK     0      -6.296   3.819 -13.786  0.00  0.00     0.051 C 
BRANCH  39  40
HETATM   40  C   UNK     0      -7.099   4.522 -12.786  0.00  0.00     0.114 C 
BRANCH  40  41
HETATM   41  C   UNK     0      -8.223   5.357 -13.148  0.00  0.00     0.139 C 
HETATM   42  O   UNK     0      -8.213   6.137 -14.109  0.00  0.00    -0.650 OA
BRANCH  41  43
HETATM   43  O   UNK     0      -9.412   5.291 -12.368  0.00  0.00    -0.776 OA
HETATM   44  H   UNK     0      -9.348   5.748 -11.466  0.00  0.00     0.167 HD
ENDBRANCH  41  43
ENDBRANCH  40  41
ENDBRANCH  39  40
ENDBRANCH  27  39
BRANCH  11  45
HETATM   45  C   UNK     0       0.972   6.062  -6.895  0.00  0.00     0.051 C 
BRANCH  45  46
HETATM   46  C   UNK     0      -0.010   6.965  -6.241  0.00  0.00     0.114 C 
BRANCH  46  47
HETATM   47  C   UNK     0       0.711   8.223  -5.892  0.00  0.00     0.139 C 
HETATM   48  O   UNK     0       0.688   9.162  -6.699  0.00  0.00    -0.650 OA
BRANCH  47  49
HETATM   49  O   UNK     0       1.386   8.338  -4.704  0.00  0.00    -0.776 OA
HETATM   50  H   UNK     0       1.089   7.839  -3.857  0.00  0.00     0.167 HD
ENDBRANCH  47  49
ENDBRANCH  46  47
ENDBRANCH  45  46
ENDBRANCH  11  45
BRANCH  18  51
HETATM   51  C   UNK     0      -3.374   8.747 -11.656  0.00  0.00     0.051 C 
BRANCH  51  52
HETATM   52  C   UNK     0      -4.756   9.296 -11.334  0.00  0.00     0.114 C 
BRANCH  52  53
HETATM   53  C   UNK     0      -4.753  10.768 -11.235  0.00  0.00     0.139 C 
HETATM   54  O   UNK     0      -3.719  11.406 -11.490  0.00  0.00    -0.650 OA
BRANCH  53  55
HETATM   55  O   UNK     0      -5.898  11.426 -10.857  0.00  0.00    -0.776 OA
HETATM   56  H   UNK     0      -6.154  12.350 -11.117  0.00  0.00     0.167 HD
ENDBRANCH  53  55
ENDBRANCH  52  53
ENDBRANCH  51  52
ENDBRANCH  18  51
TORSDOF 16
ENDMDL
MODEL 6
REMARK VINA RESULT:     -10.0      2.593      9.362
REMARK  16 active torsions:
REMARK  status: ('A' for Active; 'I' for Inactive)
REMARK    1  A    between atoms: C_6  and  C_7 
REMARK    2  A    between atoms: C_7  and  C_8 
REMARK    3  A    between atoms: C_8  and  C_9 
REMARK    4  A    between atoms: C_9  and  O_11 
REMARK    5  A    between atoms: C_16  and  C_17 
REMARK    6  A    between atoms: C_17  and  C_18 
REMARK    7  A    between atoms: C_18  and  C_19 
REMARK    8  A    between atoms: C_19  and  O_21 
REMARK    9  A    between atoms: C_28  and  C_29 
REMARK   10  A    between atoms: C_29  and  C_30 
REMARK   11  A    between atoms: C_30  and  C_31 
REMARK   12  A    between atoms: C_31  and  O_33 
REMARK   13  A    between atoms: C_42  and  C_43 
REMARK   14  A    between atoms: C_43  and  C_44 
REMARK   15  A    between atoms: C_44  and  C_45 
REMARK   16  A    between atoms: C_45  and  O_47 
ROOT
HETATM    1  C   UNK     0      -4.849   0.223 -13.347  0.00  0.00     0.051 C 
HETATM    2  C   UNK     0      -3.736  -0.385 -12.520  0.00  0.00    -0.031 A 
HETATM    3  C   UNK     0      -2.394  -0.041 -12.461  0.00  0.00     0.021 A 
HETATM    4  N   UNK     0      -1.761  -0.878 -11.606  0.00  0.00    -0.361 N 
HETATM    5  C   UNK     0      -2.671  -1.743 -11.111  0.00  0.00     0.022 A 
HETATM    6  C   UNK     0      -3.916  -1.464 -11.664  0.00  0.00    -0.027 A 
HETATM    7  C   UNK     0      -2.508  -2.801 -10.065  0.00  0.00     0.115 C 
HETATM    8  C   UNK     0      -1.684  -2.432  -8.844  0.00  0.00     0.021 A 
HETATM    9  N   UNK     0      -1.605  -1.250  -8.215  0.00  0.00    -0.361 N 
HETATM   10  C   UNK     0      -0.681  -1.356  -7.237  0.00  0.00     0.022 A 
HETATM   11  C   UNK     0      -0.156  -2.645  -7.231  0.00  0.00    -0.027 A 
HETATM   12  C   UNK     0      -0.784  -3.328  -8.241  0.00  0.00    -0.031 A 
HETATM   13  C   UNK     0      -0.534  -4.775  -8.604  0.00  0.00     0.051 C 
HETATM   14  C   UNK     0      -0.218  -0.236  -6.309  0.00  0.00     0.115 C 
HETATM   15  C   UNK     0       0.411   0.943  -7.033  0.00  0.00     0.021 A 
HETATM   16  N   UNK     0      -0.149   1.720  -7.979  0.00  0.00    -0.361 N 
HETATM   17  C   UNK     0       0.754   2.602  -8.413  0.00  0.00     0.022 A 
HETATM   18  C   UNK     0       1.957   2.397  -7.709  0.00  0.00    -0.027 A 
HETATM   19  C   UNK     0       1.729   1.356  -6.847  0.00  0.00    -0.031 A 
HETATM   20  C   UNK     0       2.762   0.830  -5.867  0.00  0.00     0.051 C 
HETATM   21  C   UNK     0       0.651   3.639  -9.509  0.00  0.00     0.115 C 
HETATM   22  C   UNK     0      -0.202   3.302 -10.709  0.00  0.00     0.022 A 
HETATM   23  N   UNK     0      -0.303   2.133 -11.354  0.00  0.00    -0.361 N 
HETATM   24  C   UNK     0      -1.285   2.239 -12.272  0.00  0.00     0.021 A 
HETATM   25  C   UNK     0      -1.822   3.511 -12.224  0.00  0.00    -0.031 A 
HETATM   26  C   UNK     0      -2.913   4.118 -13.082  0.00  0.00     0.051 C 
HETATM   27  C   UNK     0      -1.145   4.211 -11.232  0.00  0.00    -0.027 A 
HETATM   28  C   UNK     0      -1.829   1.150 -13.181  0.00  0.00     0.115 C 
HETATM   29  H   UNK     0      -0.668  -0.878 -11.388  0.00  0.00     0.165 HD
HETATM   30  H   UNK     0      -2.237  -0.352  -8.426  0.00  0.00     0.165 HD
HETATM   31  H   UNK     0      -1.218   1.676  -8.315  0.00  0.00     0.165 HD
HETATM   32  H   UNK     0       0.348   1.234 -11.197  0.00  0.00     0.165 HD
ENDROOT
BRANCH   6  33
HETATM   33  C   UNK     0      -5.247  -2.138 -11.445  0.00  0.00     0.051 C 
BRANCH  33  34
HETATM   34  C   UNK     0      -5.141  -3.625 -11.691  0.00  0.00     0.114 C 
BRANCH  34  35
HETATM   35  C   UNK     0      -5.839  -4.313 -10.567  0.00  0.00     0.139 C 
HETATM   36  O   UNK     0      -6.722  -3.704  -9.896  0.00  0.00    -0.650 OA
BRANCH  35  37
HETATM   37  O   UNK     0      -5.565  -5.627 -10.208  0.00  0.00    -0.776 OA
HETATM   38  H   UNK     0      -6.223  -6.373 -10.368  0.00  0.00     0.167 HD
ENDBRANCH  35  37
ENDBRANCH  34  35
ENDBRANCH  33  34
ENDBRANCH   6  33
BRANCH  27  39
HETATM   39  C   UNK     0      -1.399   5.646 -10.935  0.00  0.00     0.051 C 
BRANCH  39  40
HETATM   40  C   UNK     0      -2.265   5.978  -9.803  0.00  0.00     0.114 C 
BRANCH  40  41
HETATM   41  C   UNK     0      -1.740   6.483  -8.554  0.00  0.00     0.139 C 
HETATM   42  O   UNK     0      -2.411   6.570  -7.517  0.00  0.00    -0.650 OA
BRANCH  41  43
HETATM   43  O   UNK     0      -0.382   6.907  -8.496  0.00  0.00    -0.776 OA
HETATM   44  H   UNK     0       0.294   6.171  -8.658  0.00  0.00     0.167 HD
ENDBRANCH  41  43
ENDBRANCH  40  41
ENDBRANCH  39  40
ENDBRANCH  27  39
BRANCH  11  45
HETATM   45  C   UNK     0       0.890  -3.231  -6.321  0.00  0.00     0.051 C 
BRANCH  45  46
HETATM   46  C   UNK     0       0.406  -3.517  -4.946  0.00  0.00     0.114 C 
BRANCH  46  47
HETATM   47  C   UNK     0      -0.174  -4.890  -4.959  0.00  0.00     0.139 C 
HETATM   48  O   UNK     0       0.587  -5.856  -4.813  0.00  0.00    -0.650 OA
BRANCH  47  49
HETATM   49  O   UNK     0      -1.522  -5.082  -5.129  0.00  0.00    -0.776 OA
HETATM   50  H   UNK     0      -2.217  -4.410  -4.780  0.00  0.00     0.167 HD
ENDBRANCH  47  49
ENDBRANCH  46  47
ENDBRANCH  45  46
ENDBRANCH  11  45
BRANCH  18  51
HETATM   51  C   UNK     0       3.247   3.165  -7.836  0.00  0.00     0.051 C 
BRANCH  51  52
HETATM   52  C   UNK     0       4.061   2.455  -8.908  0.00  0.00     0.114 C 
BRANCH  52  53
HETATM   53  C   UNK     0       3.771   2.981 -10.256  0.00  0.00     0.139 C 
HETATM   54  O   UNK     0       3.295   2.233 -11.126  0.00  0.00    -0.650 OA
BRANCH  53  55
HETATM   55  O   UNK     0       4.033   4.299 -10.543  0.00  0.00    -0.776 OA
HETATM   56  H   UNK     0       3.912   4.740 -11.424  0.00  0.00     0.167 HD
ENDBRANCH  53  55
ENDBRANCH  52  53
ENDBRANCH  51  52
ENDBRANCH  18  51
TORSDOF 16
ENDMDL
MODEL 7
REMARK VINA RESULT:      -9.8      3.449      7.914
REMARK  16 active torsions:
REMARK  status: ('A' for Active; 'I' for Inactive)
REMARK    1  A    between atoms: C_6  and  C_7 
REMARK    2  A    between atoms: C_7  and  C_8 
REMARK    3  A    between atoms: C_8  and  C_9 
REMARK    4  A    between atoms: C_9  and  O_11 
REMARK    5  A    between atoms: C_16  and  C_17 
REMARK    6  A    between atoms: C_17  and  C_18 
REMARK    7  A    between atoms: C_18  and  C_19 
REMARK    8  A    between atoms: C_19  and  O_21 
REMARK    9  A    between atoms: C_28  and  C_29 
REMARK   10  A    between atoms: C_29  and  C_30 
REMARK   11  A    between atoms: C_30  and  C_31 
REMARK   12  A    between atoms: C_31  and  O_33 
REMARK   13  A    between atoms: C_42  and  C_43 
REMARK   14  A    between atoms: C_43  and  C_44 
REMARK   15  A    between atoms: C_44  and  C_45 
REMARK   16  A    between atoms: C_45  and  O_47 
ROOT
HETATM    1  C   UNK     0      -1.244  -1.360 -11.298  0.00  0.00     0.051 C 
HETATM    2  C   UNK     0      -2.166  -0.159 -11.267  0.00  0.00    -0.031 A 
HETATM    3  C   UNK     0      -2.519   0.652 -10.200  0.00  0.00     0.021 A 
HETATM    4  N   UNK     0      -3.397   1.589 -10.629  0.00  0.00    -0.361 N 
HETATM    5  C   UNK     0      -3.605   1.399 -11.949  0.00  0.00     0.022 A 
HETATM    6  C   UNK     0      -2.852   0.312 -12.380  0.00  0.00    -0.027 A 
HETATM    7  C   UNK     0      -4.408   2.214 -12.913  0.00  0.00     0.115 C 
HETATM    8  C   UNK     0      -4.286   3.724 -12.798  0.00  0.00     0.021 A 
HETATM    9  N   UNK     0      -3.205   4.453 -12.480  0.00  0.00    -0.361 N 
HETATM   10  C   UNK     0      -3.580   5.747 -12.405  0.00  0.00     0.022 A 
HETATM   11  C   UNK     0      -4.937   5.856 -12.693  0.00  0.00    -0.027 A 
HETATM   12  C   UNK     0      -5.388   4.585 -12.941  0.00  0.00    -0.031 A 
HETATM   13  C   UNK     0      -6.809   4.217 -13.303  0.00  0.00     0.051 C 
HETATM   14  C   UNK     0      -2.690   6.922 -12.011  0.00  0.00     0.115 C 
HETATM   15  C   UNK     0      -2.114   6.815 -10.607  0.00  0.00     0.021 A 
HETATM   16  N   UNK     0      -1.340   5.832 -10.110  0.00  0.00    -0.361 N 
HETATM   17  C   UNK     0      -1.103   6.071  -8.819  0.00  0.00     0.022 A 
HETATM   18  C   UNK     0      -1.746   7.273  -8.459  0.00  0.00    -0.027 A 
HETATM   19  C   UNK     0      -2.375   7.729  -9.589  0.00  0.00    -0.031 A 
HETATM   20  C   UNK     0      -3.162   9.025  -9.651  0.00  0.00     0.051 C 
HETATM   21  C   UNK     0      -0.356   5.244  -7.798  0.00  0.00     0.115 C 
HETATM   22  C   UNK     0      -0.433   3.740  -7.927  0.00  0.00     0.022 A 
HETATM   23  N   UNK     0      -1.495   2.988  -8.246  0.00  0.00    -0.361 N 
HETATM   24  C   UNK     0      -1.082   1.713  -8.391  0.00  0.00     0.021 A 
HETATM   25  C   UNK     0       0.277   1.640  -8.149  0.00  0.00    -0.031 A 
HETATM   26  C   UNK     0       1.182   0.426  -8.150  0.00  0.00     0.051 C 
HETATM   27  C   UNK     0       0.714   2.926  -7.850  0.00  0.00    -0.027 A 
HETATM   28  C   UNK     0      -1.902   0.515  -8.837  0.00  0.00     0.115 C 
HETATM   29  H   UNK     0      -3.895   2.354  -9.989  0.00  0.00     0.165 HD
HETATM   30  H   UNK     0      -2.165   4.063 -12.356  0.00  0.00     0.165 HD
HETATM   31  H   UNK     0      -0.912   4.976 -10.694  0.00  0.00     0.165 HD
HETATM   32  H   UNK     0      -2.554   3.344  -8.330  0.00  0.00     0.165 HD
ENDROOT
BRANCH   6  33
HETATM   33  C   UNK     0      -2.738  -0.307 -13.750  0.00  0.00     0.051 C 
BRANCH  33  34
HETATM   34  C   UNK     0      -2.022   0.623 -14.700  0.00  0.00     0.114 C 
BRANCH  34  35
HETATM   35  C   UNK     0      -0.671   0.890 -14.129  0.00  0.00     0.139 C 
HETATM   36  O   UNK     0       0.166  -0.051 -14.005  0.00  0.00    -0.650 OA
BRANCH  35  37
HETATM   37  O   UNK     0      -0.268   2.154 -13.716  0.00  0.00    -0.776 OA
HETATM   38  H   UNK     0       0.475   2.656 -14.176  0.00  0.00     0.167 HD
ENDBRANCH  35  37
ENDBRANCH  34  35
ENDBRANCH  33  34
ENDBRANCH   6  33
BRANCH  27  39
HETATM   39  C   UNK     0       2.117   3.234  -7.461  0.00  0.00     0.051 C 
BRANCH  39  40
HETATM   40  C   UNK     0       3.027   3.739  -8.490  0.00  0.00     0.114 C 
BRANCH  40  41
HETATM   41  C   UNK     0       3.884   2.863  -9.257  0.00  0.00     0.139 C 
HETATM   42  O   UNK     0       3.601   2.452 -10.391  0.00  0.00    -0.650 OA
BRANCH  41  43
HETATM   43  O   UNK     0       5.122   2.441  -8.695  0.00  0.00    -0.776 OA
HETATM   44  H   UNK     0       5.941   2.743  -9.210  0.00  0.00     0.167 HD
ENDBRANCH  41  43
ENDBRANCH  40  41
ENDBRANCH  39  40
ENDBRANCH  27  39
BRANCH  11  45
HETATM   45  C   UNK     0      -5.794   7.093 -12.740  0.00  0.00     0.051 C 
BRANCH  45  46
HETATM   46  C   UNK     0      -5.316   8.125 -13.696  0.00  0.00     0.114 C 
BRANCH  46  47
HETATM   47  C   UNK     0      -5.137   9.390 -12.927  0.00  0.00     0.139 C 
HETATM   48  O   UNK     0      -6.049   9.760 -12.176  0.00  0.00    -0.650 OA
BRANCH  47  49
HETATM   49  O   UNK     0      -3.987  10.129 -13.049  0.00  0.00    -0.776 OA
HETATM   50  H   UNK     0      -3.055   9.705 -12.972  0.00  0.00     0.167 HD
ENDBRANCH  47  49
ENDBRANCH  46  47
ENDBRANCH  45  46
ENDBRANCH  11  45
BRANCH  18  51
HETATM   51  C   UNK     0      -1.744   7.959  -7.118  0.00  0.00     0.051 C 
BRANCH  51  52
HETATM   52  C   UNK     0      -0.593   8.954  -7.150  0.00  0.00     0.114 C 
BRANCH  52  53
HETATM   53  C   UNK     0       0.497   8.563  -6.236  0.00  0.00     0.139 C 
HETATM   54  O   UNK     0       1.585   9.160  -6.275  0.00  0.00    -0.650 OA
BRANCH  53  55
HETATM   55  O   UNK     0       0.302   7.534  -5.347  0.00  0.00    -0.776 OA
HETATM   56  H   UNK     0       1.008   6.945  -4.973  0.00  0.00     0.167 HD
ENDBRANCH  53  55
ENDBRANCH  52  53
ENDBRANCH  51  52
ENDBRANCH  18  51
TORSDOF 16
ENDMDL
MODEL 8
REMARK VINA RESULT:      -9.8      1.696      2.164
REMARK  16 active torsions:
REMARK  status: ('A' for Active; 'I' for Inactive)
REMARK    1  A    between atoms: C_6  and  C_7 
REMARK    2  A    between atoms: C_7  and  C_8 
REMARK    3  A    between atoms: C_8  and  C_9 
REMARK    4  A    between atoms: C_9  and  O_11 
REMARK    5  A    between atoms: C_16  and  C_17 
REMARK    6  A    between atoms: C_17  and  C_18 
REMARK    7  A    between atoms: C_18  and  C_19 
REMARK    8  A    between atoms: C_19  and  O_21 
REMARK    9  A    between atoms: C_28  and  C_29 
REMARK   10  A    between atoms: C_29  and  C_30 
REMARK   11  A    between atoms: C_30  and  C_31 
REMARK   12  A    between atoms: C_31  and  O_33 
REMARK   13  A    between atoms: C_42  and  C_43 
REMARK   14  A    between atoms: C_43  and  C_44 
REMARK   15  A    between atoms: C_44  and  C_45 
REMARK   16  A    between atoms: C_45  and  O_47 
ROOT
HETATM    1  C   UNK     0       1.375   5.650  -6.253  0.00  0.00     0.051 C 
HETATM    2  C   UNK     0       0.603   5.387  -7.530  0.00  0.00    -0.031 A 
HETATM    3  C   UNK     0       0.879   4.500  -8.558  0.00  0.00     0.021 A 
HETATM    4  N   UNK     0      -0.069   4.626  -9.517  0.00  0.00    -0.361 N 
HETATM    5  C   UNK     0      -0.948   5.568  -9.118  0.00  0.00     0.022 A 
HETATM    6  C   UNK     0      -0.556   6.068  -7.881  0.00  0.00    -0.027 A 
HETATM    7  C   UNK     0      -2.222   6.017  -9.765  0.00  0.00     0.115 C 
HETATM    8  C   UNK     0      -3.116   4.930 -10.335  0.00  0.00     0.021 A 
HETATM    9  N   UNK     0      -3.336   3.694  -9.860  0.00  0.00    -0.361 N 
HETATM   10  C   UNK     0      -4.129   3.044 -10.738  0.00  0.00     0.022 A 
HETATM   11  C   UNK     0      -4.436   3.887 -11.802  0.00  0.00    -0.027 A 
HETATM   12  C   UNK     0      -3.801   5.077 -11.554  0.00  0.00    -0.031 A 
HETATM   13  C   UNK     0      -3.854   6.298 -12.445  0.00  0.00     0.051 C 
HETATM   14  C   UNK     0      -4.584   1.590 -10.636  0.00  0.00     0.115 C 
HETATM   15  C   UNK     0      -3.442   0.586 -10.637  0.00  0.00     0.021 A 
HETATM   16  N   UNK     0      -2.415   0.510  -9.771  0.00  0.00    -0.361 N 
HETATM   17  C   UNK     0      -1.588  -0.465 -10.155  0.00  0.00     0.022 A 
HETATM   18  C   UNK     0      -2.107  -1.059 -11.323  0.00  0.00    -0.027 A 
HETATM   19  C   UNK     0      -3.269  -0.393 -11.613  0.00  0.00    -0.031 A 
HETATM   20  C   UNK     0      -4.173  -0.741 -12.782  0.00  0.00     0.051 C 
HETATM   21  C   UNK     0      -0.265  -0.904  -9.571  0.00  0.00     0.115 C 
HETATM   22  C   UNK     0       0.616   0.161  -8.961  0.00  0.00     0.022 A 
HETATM   23  N   UNK     0       0.850   1.401  -9.409  0.00  0.00    -0.361 N 
HETATM   24  C   UNK     0       1.578   2.056  -8.482  0.00  0.00     0.021 A 
HETATM   25  C   UNK     0       1.826   1.214  -7.415  0.00  0.00    -0.031 A 
HETATM   26  C   UNK     0       2.629   1.478  -6.158  0.00  0.00     0.051 C 
HETATM   27  C   UNK     0       1.221  -0.005  -7.699  0.00  0.00    -0.027 A 
HETATM   28  C   UNK     0       2.010   3.512  -8.497  0.00  0.00     0.115 C 
HETATM   29  H   UNK     0      -0.089   4.076 -10.486  0.00  0.00     0.165 HD
HETATM   30  H   UNK     0      -2.974   3.294  -8.882  0.00  0.00     0.165 HD
HETATM   31  H   UNK     0      -2.294   1.126  -8.842  0.00  0.00     0.165 HD
HETATM   32  H   UNK     0       0.541   1.813 -10.405  0.00  0.00     0.165 HD
ENDROOT
BRANCH   6  33
HETATM   33  C   UNK     0      -1.190   7.130  -7.018  0.00  0.00     0.051 C 
BRANCH  33  34
HETATM   34  C   UNK     0      -0.947   8.504  -7.596  0.00  0.00     0.114 C 
BRANCH  34  35
HETATM   35  C   UNK     0      -2.066   9.381  -7.149  0.00  0.00     0.139 C 
HETATM   36  O   UNK     0      -2.691   9.120  -6.080  0.00  0.00    -0.650 OA
BRANCH  35  37
HETATM   37  O   UNK     0      -2.471  10.503  -7.862  0.00  0.00    -0.776 OA
HETATM   38  H   UNK     0      -2.906  11.293  -7.414  0.00  0.00     0.167 HD
ENDBRANCH  35  37
ENDBRANCH  34  35
ENDBRANCH  33  34
ENDBRANCH   6  33
BRANCH  27  39
HETATM   39  C   UNK     0       1.333  -1.192  -6.808  0.00  0.00     0.051 C 
BRANCH  39  40
HETATM   40  C   UNK     0       0.700  -2.441  -7.234  0.00  0.00     0.114 C 
BRANCH  40  41
HETATM   41  C   UNK     0       0.080  -3.349  -6.296  0.00  0.00     0.139 C 
HETATM   42  O   UNK     0      -0.616  -4.315  -6.638  0.00  0.00    -0.650 OA
BRANCH  41  43
HETATM   43  O   UNK     0       0.268  -3.136  -4.900  0.00  0.00    -0.776 OA
HETATM   44  H   UNK     0       0.726  -2.264  -4.668  0.00  0.00     0.167 HD
ENDBRANCH  41  43
ENDBRANCH  40  41
ENDBRANCH  39  40
ENDBRANCH  27  39
BRANCH  11  45
HETATM   45  C   UNK     0      -5.289   3.607 -13.010  0.00  0.00     0.051 C 
BRANCH  45  46
HETATM   46  C   UNK     0      -4.645   2.726 -14.017  0.00  0.00     0.114 C 
BRANCH  46  47
HETATM   47  C   UNK     0      -5.674   2.407 -15.047  0.00  0.00     0.139 C 
HETATM   48  O   UNK     0      -6.870   2.497 -14.738  0.00  0.00    -0.650 OA
BRANCH  47  49
HETATM   49  O   UNK     0      -5.306   2.019 -16.311  0.00  0.00    -0.776 OA
HETATM   50  H   UNK     0      -5.835   1.317 -16.842  0.00  0.00     0.167 HD
ENDBRANCH  47  49
ENDBRANCH  46  47
ENDBRANCH  45  46
ENDBRANCH  11  45
BRANCH  18  51
HETATM   51  C   UNK     0      -1.538  -2.213 -12.106  0.00  0.00     0.051 C 
BRANCH  51  52
HETATM   52  C   UNK     0      -0.126  -1.806 -12.499  0.00  0.00     0.114 C 
BRANCH  52  53
HETATM   53  C   UNK     0      -0.097  -0.484 -13.153  0.00  0.00     0.139 C 
HETATM   54  O   UNK     0       0.595   0.430 -12.677  0.00  0.00    -0.650 OA
BRANCH  53  55
HETATM   55  O   UNK     0      -0.841  -0.270 -14.288  0.00  0.00    -0.776 OA
HETATM   56  H   UNK     0      -1.777  -0.566 -14.436  0.00  0.00     0.167 HD
ENDBRANCH  53  55
ENDBRANCH  52  53
ENDBRANCH  51  52
ENDBRANCH  18  51
TORSDOF 16
ENDMDL
MODEL 9
REMARK VINA RESULT:      -9.5     29.672     33.634
REMARK  16 active torsions:
REMARK  status: ('A' for Active; 'I' for Inactive)
REMARK    1  A    between atoms: C_6  and  C_7 
REMARK    2  A    between atoms: C_7  and  C_8 
REMARK    3  A    between atoms: C_8  and  C_9 
REMARK    4  A    between atoms: C_9  and  O_11 
REMARK    5  A    between atoms: C_16  and  C_17 
REMARK    6  A    between atoms: C_17  and  C_18 
REMARK    7  A    between atoms: C_18  and  C_19 
REMARK    8  A    between atoms: C_19  and  O_21 
REMARK    9  A    between atoms: C_28  and  C_29 
REMARK   10  A    between atoms: C_29  and  C_30 
REMARK   11  A    between atoms: C_30  and  C_31 
REMARK   12  A    between atoms: C_31  and  O_33 
REMARK   13  A    between atoms: C_42  and  C_43 
REMARK   14  A    between atoms: C_43  and  C_44 
REMARK   15  A    between atoms: C_44  and  C_45 
REMARK   16  A    between atoms: C_45  and  O_47 
ROOT
HETATM    1  C   UNK     0     -19.407  15.463  12.041  0.00  0.00     0.051 C 
HETATM    2  C   UNK     0     -20.773  15.020  11.559  0.00  0.00    -0.031 A 
HETATM    3  C   UNK     0     -22.007  15.626  11.735  0.00  0.00     0.021 A 
HETATM    4  N   UNK     0     -22.962  14.858  11.158  0.00  0.00    -0.361 N 
HETATM    5  C   UNK     0     -22.362  13.781  10.611  0.00  0.00     0.022 A 
HETATM    6  C   UNK     0     -20.993  13.849  10.846  0.00  0.00    -0.027 A 
HETATM    7  C   UNK     0     -22.951  12.682   9.782  0.00  0.00     0.115 C 
HETATM    8  C   UNK     0     -23.957  13.093   8.721  0.00  0.00     0.021 A 
HETATM    9  N   UNK     0     -23.967  14.199   7.962  0.00  0.00    -0.361 N 
HETATM   10  C   UNK     0     -25.097  14.192   7.224  0.00  0.00     0.022 A 
HETATM   11  C   UNK     0     -25.831  13.045   7.510  0.00  0.00    -0.027 A 
HETATM   12  C   UNK     0     -25.119  12.348   8.452  0.00  0.00    -0.031 A 
HETATM   13  C   UNK     0     -25.532  11.026   9.060  0.00  0.00     0.051 C 
HETATM   14  C   UNK     0     -25.555  15.287   6.265  0.00  0.00     0.115 C 
HETATM   15  C   UNK     0     -25.776  16.636   6.930  0.00  0.00     0.021 A 
HETATM   16  N   UNK     0     -24.881  17.368   7.619  0.00  0.00    -0.361 N 
HETATM   17  C   UNK     0     -25.485  18.456   8.104  0.00  0.00     0.022 A 
HETATM   18  C   UNK     0     -26.835  18.436   7.703  0.00  0.00    -0.027 A 
HETATM   19  C   UNK     0     -27.005  17.292   6.968  0.00  0.00    -0.031 A 
HETATM   20  C   UNK     0     -28.314  16.897   6.310  0.00  0.00     0.051 C 
HETATM   21  C   UNK     0     -24.945  19.550   8.996  0.00  0.00     0.115 C 
HETATM   22  C   UNK     0     -23.911  19.164  10.027  0.00  0.00     0.022 A 
HETATM   23  N   UNK     0     -23.874  18.067  10.795  0.00  0.00    -0.361 N 
HETATM   24  C   UNK     0     -22.703  18.057  11.463  0.00  0.00     0.021 A 
HETATM   25  C   UNK     0     -21.972  19.180  11.125  0.00  0.00    -0.031 A 
HETATM   26  C   UNK     0     -20.621  19.629  11.641  0.00  0.00     0.051 C 
HETATM   27  C   UNK     0     -22.725  19.904  10.207  0.00  0.00    -0.027 A 
HETATM   28  C   UNK     0     -22.166  16.973  12.382  0.00  0.00     0.115 C 
HETATM   29  H   UNK     0     -24.058  15.063  11.176  0.00  0.00     0.165 HD
HETATM   30  H   UNK     0     -23.152  14.963   7.907  0.00  0.00     0.165 HD
HETATM   31  H   UNK     0     -23.789  17.138   7.727  0.00  0.00     0.165 HD
HETATM   32  H   UNK     0     -24.694  17.310  10.905  0.00  0.00     0.165 HD
ENDROOT
BRANCH   6  33
HETATM   33  C   UNK     0     -19.893  12.897  10.451  0.00  0.00     0.051 C 
BRANCH  33  34
HETATM   34  C   UNK     0     -19.458  12.062  11.632  0.00  0.00     0.114 C 
BRANCH  34  35
HETATM   35  C   UNK     0     -20.390  10.901  11.724  0.00  0.00     0.139 C 
HETATM   36  O   UNK     0     -21.297  10.880  12.606  0.00  0.00    -0.650 OA
BRANCH  35  37
HETATM   37  O   UNK     0     -20.313   9.809  10.868  0.00  0.00    -0.776 OA
HETATM   38  H   UNK     0     -20.887   9.735  10.043  0.00  0.00     0.167 HD
ENDBRANCH  35  37
ENDBRANCH  34  35
ENDBRANCH  33  34
ENDBRANCH   6  33
BRANCH  27  39
HETATM   39  C   UNK     0     -22.293  21.220   9.664  0.00  0.00     0.051 C 
BRANCH  39  40
HETATM   40  C   UNK     0     -22.737  22.434  10.350  0.00  0.00     0.114 C 
BRANCH  40  41
HETATM   41  C   UNK     0     -22.102  22.912  11.558  0.00  0.00     0.139 C 
HETATM   42  O   UNK     0     -21.174  23.731  11.564  0.00  0.00    -0.650 OA
BRANCH  41  43
HETATM   43  O   UNK     0     -22.557  22.425  12.816  0.00  0.00    -0.776 OA
HETATM   44  H   UNK     0     -23.124  21.587  12.762  0.00  0.00     0.167 HD
ENDBRANCH  41  43
ENDBRANCH  40  41
ENDBRANCH  39  40
ENDBRANCH  27  39
BRANCH  11  45
HETATM   45  C   UNK     0     -27.148  12.601   6.931  0.00  0.00     0.051 C 
BRANCH  45  46
HETATM   46  C   UNK     0     -27.053  12.063   5.550  0.00  0.00     0.114 C 
BRANCH  46  47
HETATM   47  C   UNK     0     -26.808  10.597   5.663  0.00  0.00     0.139 C 
HETATM   48  O   UNK     0     -27.764   9.856   5.931  0.00  0.00    -0.650 OA
BRANCH  47  49
HETATM   49  O   UNK     0     -25.552  10.077   5.475  0.00  0.00    -0.776 OA
HETATM   50  H   UNK     0     -24.736  10.423   5.994  0.00  0.00     0.167 HD
ENDBRANCH  47  49
ENDBRANCH  46  47
ENDBRANCH  45  46
ENDBRANCH  11  45
BRANCH  18  51
HETATM   51  C   UNK     0     -27.901  19.462   7.988  0.00  0.00     0.051 C 
BRANCH  51  52
HETATM   52  C   UNK     0     -28.604  19.005   9.257  0.00  0.00     0.114 C 
BRANCH  52  53
HETATM   53  C   UNK     0     -28.363  19.930  10.382  0.00  0.00     0.139 C 
HETATM   54  O   UNK     0     -27.467  19.686  11.205  0.00  0.00    -0.650 OA
BRANCH  53  55
HETATM   55  O   UNK     0     -29.138  21.056  10.514  0.00  0.00    -0.776 OA
HETATM   56  H   UNK     0     -29.460  21.448  11.368  0.00  0.00     0.167 HD
ENDBRANCH  53  55
ENDBRANCH  52  53
ENDBRANCH  51  52
ENDBRANCH  18  51
TORSDOF 16
ENDMDL
MODEL 10
REMARK VINA RESULT:      -9.3      2.460      7.403
REMARK  16 active torsions:
REMARK  status: ('A' for Active; 'I' for Inactive)
REMARK    1  A    between atoms: C_6  and  C_7 
REMARK    2  A    between atoms: C_7  and  C_8 
REMARK    3  A    between atoms: C_8  and  C_9 
REMARK    4  A    between atoms: C_9  and  O_11 
REMARK    5  A    between atoms: C_16  and  C_17 
REMARK    6  A    between atoms: C_17  and  C_18 
REMARK    7  A    between atoms: C_18  and  C_19 
REMARK    8  A    between atoms: C_19  and  O_21 
REMARK    9  A    between atoms: C_28  and  C_29 
REMARK   10  A    between atoms: C_29  and  C_30 
REMARK   11  A    between atoms: C_30  and  C_31 
REMARK   12  A    between atoms: C_31  and  O_33 
REMARK   13  A    between atoms: C_42  and  C_43 
REMARK   14  A    between atoms: C_43  and  C_44 
REMARK   15  A    between atoms: C_44  and  C_45 
REMARK   16  A    between atoms: C_45  and  O_47 
ROOT
HETATM    1  C   UNK     0       0.954  -2.956  -6.413  0.00  0.00     0.051 C 
HETATM    2  C   UNK     0      -0.116  -2.285  -7.250  0.00  0.00    -0.031 A 
HETATM    3  C   UNK     0      -0.634  -1.003  -7.152  0.00  0.00     0.021 A 
HETATM    4  N   UNK     0      -1.598  -0.844  -8.090  0.00  0.00    -0.361 N 
HETATM    5  C   UNK     0      -1.699  -1.994  -8.789  0.00  0.00     0.022 A 
HETATM    6  C   UNK     0      -0.788  -2.917  -8.287  0.00  0.00    -0.027 A 
HETATM    7  C   UNK     0      -2.542  -2.310  -9.985  0.00  0.00     0.115 C 
HETATM    8  C   UNK     0      -2.622  -1.243 -11.063  0.00  0.00     0.021 A 
HETATM    9  N   UNK     0      -1.665  -0.397 -11.475  0.00  0.00    -0.361 N 
HETATM   10  C   UNK     0      -2.207   0.437 -12.387  0.00  0.00     0.022 A 
HETATM   11  C   UNK     0      -3.548   0.113 -12.576  0.00  0.00    -0.027 A 
HETATM   12  C   UNK     0      -3.815  -0.945 -11.745  0.00  0.00    -0.031 A 
HETATM   13  C   UNK     0      -5.153  -1.638 -11.616  0.00  0.00     0.051 C 
HETATM   14  C   UNK     0      -1.501   1.602 -13.076  0.00  0.00     0.115 C 
HETATM   15  C   UNK     0      -1.002   2.672 -12.119  0.00  0.00     0.021 A 
HETATM   16  N   UNK     0      -0.139   2.523 -11.097  0.00  0.00    -0.361 N 
HETATM   17  C   UNK     0      -0.014   3.687 -10.455  0.00  0.00     0.022 A 
HETATM   18  C   UNK     0      -0.827   4.643 -11.096  0.00  0.00    -0.027 A 
HETATM   19  C   UNK     0      -1.439   3.995 -12.137  0.00  0.00    -0.031 A 
HETATM   20  C   UNK     0      -2.381   4.673 -13.115  0.00  0.00     0.051 C 
HETATM   21  C   UNK     0       0.771   4.030  -9.209  0.00  0.00     0.115 C 
HETATM   22  C   UNK     0       0.896   2.962  -8.147  0.00  0.00     0.022 A 
HETATM   23  N   UNK     0      -0.038   2.103  -7.720  0.00  0.00    -0.361 N 
HETATM   24  C   UNK     0       0.543   1.233  -6.870  0.00  0.00     0.021 A 
HETATM   25  C   UNK     0       1.883   1.546  -6.739  0.00  0.00    -0.031 A 
HETATM   26  C   UNK     0       2.935   0.887  -5.871  0.00  0.00     0.051 C 
HETATM   27  C   UNK     0       2.132   2.650  -7.547  0.00  0.00    -0.027 A 
HETATM   28  C   UNK     0      -0.088   0.024  -6.201  0.00  0.00     0.115 C 
HETATM   29  H   UNK     0      -2.228   0.066  -8.226  0.00  0.00     0.165 HD
HETATM   30  H   UNK     0      -0.593  -0.417 -11.160  0.00  0.00     0.165 HD
HETATM   31  H   UNK     0       0.430   1.589 -10.851  0.00  0.00     0.165 HD
HETATM   32  H   UNK     0      -1.128   2.130  -7.982  0.00  0.00     0.165 HD
ENDROOT
BRANCH   6  33
HETATM   33  C   UNK     0      -0.513  -4.338  -8.712  0.00  0.00     0.051 C 
BRANCH  33  34
HETATM   34  C   UNK     0      -1.182  -5.315  -7.775  0.00  0.00     0.114 C 
BRANCH  34  35
HETATM   35  C   UNK     0      -2.237  -6.028  -8.551  0.00  0.00     0.139 C 
HETATM   36  O   UNK     0      -2.747  -5.489  -9.576  0.00  0.00    -0.650 OA
BRANCH  35  37
HETATM   37  O   UNK     0      -2.701  -7.290  -8.201  0.00  0.00    -0.776 OA
HETATM   38  H   UNK     0      -3.612  -7.620  -8.475  0.00  0.00     0.167 HD
ENDBRANCH  35  37
ENDBRANCH  34  35
ENDBRANCH  33  34
ENDBRANCH   6  33
BRANCH  27  39
HETATM   39  C   UNK     0       3.458   3.323  -7.613  0.00  0.00     0.051 C 
BRANCH  39  40
HETATM   40  C   UNK     0       4.310   3.065  -8.773  0.00  0.00     0.114 C 
BRANCH  40  41
HETATM   41  C   UNK     0       3.799   3.085 -10.125  0.00  0.00     0.139 C 
HETATM   42  O   UNK     0       3.187   2.138 -10.638  0.00  0.00    -0.650 OA
BRANCH  41  43
HETATM   43  O   UNK     0       4.000   4.247 -10.923  0.00  0.00    -0.776 OA
HETATM   44  H   UNK     0       3.606   5.095 -10.534  0.00  0.00     0.167 HD
ENDBRANCH  41  43
ENDBRANCH  40  41
ENDBRANCH  39  40
ENDBRANCH  27  39
BRANCH  11  45
HETATM   45  C   UNK     0      -4.552   0.755 -13.495  0.00  0.00     0.051 C 
BRANCH  45  46
HETATM   46  C   UNK     0      -4.888   2.158 -13.139  0.00  0.00     0.114 C 
BRANCH  46  47
HETATM   47  C   UNK     0      -5.490   2.788 -14.349  0.00  0.00     0.139 C 
HETATM   48  O   UNK     0      -5.966   3.927 -14.249  0.00  0.00    -0.650 OA
BRANCH  47  49
HETATM   49  O   UNK     0      -5.518   2.121 -15.548  0.00  0.00    -0.776 OA
HETATM   50  H   UNK     0      -6.325   2.171 -16.181  0.00  0.00     0.167 HD
ENDBRANCH  47  49
ENDBRANCH  46  47
ENDBRANCH  45  46
ENDBRANCH  11  45
BRANCH  18  51
HETATM   51  C   UNK     0      -0.994   6.099 -10.748  0.00  0.00     0.051 C 
BRANCH  51  52
HETATM   52  C   UNK     0      -2.373   6.232 -10.120  0.00  0.00     0.114 C 
BRANCH  52  53
HETATM   53  C   UNK     0      -2.379   5.796  -8.710  0.00  0.00     0.139 C 
HETATM   54  O   UNK     0      -1.724   6.424  -7.863  0.00  0.00    -0.650 OA
BRANCH  53  55
HETATM   55  O   UNK     0      -3.110   4.692  -8.343  0.00  0.00    -0.776 OA
HETATM   56  H   UNK     0      -3.659   4.128  -8.948  0.00  0.00     0.167 HD
ENDBRANCH  53  55
ENDBRANCH  52  53
ENDBRANCH  51  52
ENDBRANCH  18  51
TORSDOF 16
ENDMDL
MODEL 11
REMARK VINA RESULT:      -9.2      2.158      7.319
REMARK  16 active torsions:
REMARK  status: ('A' for Active; 'I' for Inactive)
REMARK    1  A    between atoms: C_6  and  C_7 
REMARK    2  A    between atoms: C_7  and  C_8 
REMARK    3  A    between atoms: C_8  and  C_9 
REMARK    4  A    between atoms: C_9  and  O_11 
REMARK    5  A    between atoms: C_16  and  C_17 
REMARK    6  A    between atoms: C_17  and  C_18 
REMARK    7  A    between atoms: C_18  and  C_19 
REMARK    8  A    between atoms: C_19  and  O_21 
REMARK    9  A    between atoms: C_28  and  C_29 
REMARK   10  A    between atoms: C_29  and  C_30 
REMARK   11  A    between atoms: C_30  and  C_31 
REMARK   12  A    between atoms: C_31  and  O_33 
REMARK   13  A    between atoms: C_42  and  C_43 
REMARK   14  A    between atoms: C_43  and  C_44 
REMARK   15  A    between atoms: C_44  and  C_45 
REMARK   16  A    between atoms: C_45  and  O_47 
ROOT
HETATM    1  C   UNK     0      -4.756  -1.143 -13.102  0.00  0.00     0.051 C 
HETATM    2  C   UNK     0      -4.332   0.138 -12.412  0.00  0.00    -0.031 A 
HETATM    3  C   UNK     0      -4.021   0.358 -11.080  0.00  0.00     0.021 A 
HETATM    4  N   UNK     0      -3.726   1.668 -10.906  0.00  0.00    -0.361 N 
HETATM    5  C   UNK     0      -3.832   2.286 -12.101  0.00  0.00     0.022 A 
HETATM    6  C   UNK     0      -4.213   1.358 -13.065  0.00  0.00    -0.027 A 
HETATM    7  C   UNK     0      -3.524   3.703 -12.470  0.00  0.00     0.115 C 
HETATM    8  C   UNK     0      -2.255   4.299 -11.886  0.00  0.00     0.021 A 
HETATM    9  N   UNK     0      -1.080   3.696 -11.649  0.00  0.00    -0.361 N 
HETATM   10  C   UNK     0      -0.268   4.585 -11.038  0.00  0.00     0.022 A 
HETATM   11  C   UNK     0      -0.935   5.797 -10.888  0.00  0.00    -0.027 A 
HETATM   12  C   UNK     0      -2.187   5.624 -11.420  0.00  0.00    -0.031 A 
HETATM   13  C   UNK     0      -3.265   6.683 -11.481  0.00  0.00     0.051 C 
HETATM   14  C   UNK     0       1.144   4.313 -10.527  0.00  0.00     0.115 C 
HETATM   15  C   UNK     0       1.215   3.233  -9.460  0.00  0.00     0.021 A 
HETATM   16  N   UNK     0       0.814   1.952  -9.559  0.00  0.00    -0.361 N 
HETATM   17  C   UNK     0       0.981   1.347  -8.381  0.00  0.00     0.022 A 
HETATM   18  C   UNK     0       1.526   2.276  -7.472  0.00  0.00    -0.027 A 
HETATM   19  C   UNK     0       1.669   3.453  -8.161  0.00  0.00    -0.031 A 
HETATM   20  C   UNK     0       2.260   4.716  -7.560  0.00  0.00     0.051 C 
HETATM   21  C   UNK     0       0.622  -0.057  -7.949  0.00  0.00     0.115 C 
HETATM   22  C   UNK     0      -0.614  -0.679  -8.556  0.00  0.00     0.022 A 
HETATM   23  N   UNK     0      -1.795  -0.101  -8.808  0.00  0.00    -0.361 N 
HETATM   24  C   UNK     0      -2.561  -0.980  -9.486  0.00  0.00     0.021 A 
HETATM   25  C   UNK     0      -1.859  -2.156  -9.665  0.00  0.00    -0.031 A 
HETATM   26  C   UNK     0      -2.307  -3.443 -10.327  0.00  0.00     0.051 C 
HETATM   27  C   UNK     0      -0.610  -1.988  -9.079  0.00  0.00    -0.027 A 
HETATM   28  C   UNK     0      -3.944  -0.751 -10.069  0.00  0.00     0.115 C 
HETATM   29  H   UNK     0      -3.482   2.155  -9.933  0.00  0.00     0.165 HD
HETATM   30  H   UNK     0      -0.804   2.657 -11.955  0.00  0.00     0.165 HD
HETATM   31  H   UNK     0       0.450   1.449 -10.493  0.00  0.00     0.165 HD
HETATM   32  H   UNK     0      -2.116   0.919  -8.472  0.00  0.00     0.165 HD
ENDROOT
BRANCH   6  33
HETATM   33  C   UNK     0      -4.471   1.542 -14.539  0.00  0.00     0.051 C 
BRANCH  33  34
HETATM   34  C   UNK     0      -5.867   2.065 -14.777  0.00  0.00     0.114 C 
BRANCH  34  35
HETATM   35  C   UNK     0      -6.192   1.835 -16.214  0.00  0.00     0.139 C 
HETATM   36  O   UNK     0      -7.371   1.534 -16.561  0.00  0.00    -0.650 OA
BRANCH  35  37
HETATM   37  O   UNK     0      -5.241   1.938 -17.222  0.00  0.00    -0.776 OA
HETATM   38  H   UNK     0      -4.936   1.138 -17.753  0.00  0.00     0.167 HD
ENDBRANCH  35  37
ENDBRANCH  34  35
ENDBRANCH  33  34
ENDBRANCH   6  33
BRANCH  27  39
HETATM   39  C   UNK     0       0.406  -3.073  -9.009  0.00  0.00     0.051 C 
BRANCH  39  40
HETATM   40  C   UNK     0       0.607  -3.755  -7.730  0.00  0.00     0.114 C 
BRANCH  40  41
HETATM   41  C   UNK     0      -0.461  -4.457  -7.056  0.00  0.00     0.139 C 
HETATM   42  O   UNK     0      -0.855  -4.171  -5.917  0.00  0.00    -0.650 OA
BRANCH  41  43
HETATM   43  O   UNK     0      -1.106  -5.538  -7.721  0.00  0.00    -0.776 OA
HETATM   44  H   UNK     0      -1.328  -5.359  -8.693  0.00  0.00     0.167 HD
ENDBRANCH  41  43
ENDBRANCH  40  41
ENDBRANCH  39  40
ENDBRANCH  27  39
BRANCH  11  45
HETATM   45  C   UNK     0      -0.434   7.077 -10.275  0.00  0.00     0.051 C 
BRANCH  45  46
HETATM   46  C   UNK     0      -0.751   7.223  -8.831  0.00  0.00     0.114 C 
BRANCH  46  47
HETATM   47  C   UNK     0      -0.839   8.683  -8.543  0.00  0.00     0.139 C 
HETATM   48  O   UNK     0      -0.075   9.167  -7.696  0.00  0.00    -0.650 OA
BRANCH  47  49
HETATM   49  O   UNK     0      -1.747   9.475  -9.199  0.00  0.00    -0.776 OA
HETATM   50  H   UNK     0      -2.641   9.748  -8.774  0.00  0.00     0.167 HD
ENDBRANCH  47  49
ENDBRANCH  46  47
ENDBRANCH  45  46
ENDBRANCH  11  45
BRANCH  18  51
HETATM   51  C   UNK     0       1.909   2.049  -6.033  0.00  0.00     0.051 C 
BRANCH  51  52
HETATM   52  C   UNK     0       2.857   0.859  -6.027  0.00  0.00     0.114 C 
BRANCH  52  53
HETATM   53  C   UNK     0       4.213   1.235  -6.472  0.00  0.00     0.139 C 
HETATM   54  O   UNK     0       5.154   1.235  -5.663  0.00  0.00    -0.650 OA
BRANCH  53  55
HETATM   55  O   UNK     0       4.425   1.586  -7.783  0.00  0.00    -0.776 OA
HETATM   56  H   UNK     0       4.526   2.511  -8.131  0.00  0.00     0.167 HD
ENDBRANCH  53  55
ENDBRANCH  52  53
ENDBRANCH  51  52
ENDBRANCH  18  51
TORSDOF 16
ENDMDL
MODEL 12
REMARK VINA RESULT:      -9.2     31.868     34.456
REMARK  16 active torsions:
REMARK  status: ('A' for Active; 'I' for Inactive)
REMARK    1  A    between atoms: C_6  and  C_7 
REMARK    2  A    between atoms: C_7  and  C_8 
REMARK    3  A    between atoms: C_8  and  C_9 
REMARK    4  A    between atoms: C_9  and  O_11 
REMARK    5  A    between atoms: C_16  and  C_17 
REMARK    6  A    between atoms: C_17  and  C_18 
REMARK    7  A    between atoms: C_18  and  C_19 
REMARK    8  A    between atoms: C_19  and  O_21 
REMARK    9  A    between atoms: C_28  and  C_29 
REMARK   10  A    between atoms: C_29  and  C_30 
REMARK   11  A    between atoms: C_30  and  C_31 
REMARK   12  A    between atoms: C_31  and  O_33 
REMARK   13  A    between atoms: C_42  and  C_43 
REMARK   14  A    between atoms: C_43  and  C_44 
REMARK   15  A    between atoms: C_44  and  C_45 
REMARK   16  A    between atoms: C_45  and  O_47 
ROOT
HETATM    1  C   UNK     0     -24.986  15.862   9.600  0.00  0.00     0.051 C 
HETATM    2  C   UNK     0     -25.702  16.540   8.450  0.00  0.00    -0.031 A 
HETATM    3  C   UNK     0     -25.797  16.153   7.122  0.00  0.00     0.021 A 
HETATM    4  N   UNK     0     -26.511  17.082   6.442  0.00  0.00    -0.361 N 
HETATM    5  C   UNK     0     -26.880  18.047   7.309  0.00  0.00     0.022 A 
HETATM    6  C   UNK     0     -26.388  17.741   8.574  0.00  0.00    -0.027 A 
HETATM    7  C   UNK     0     -27.754  19.242   7.087  0.00  0.00     0.115 C 
HETATM    8  C   UNK     0     -29.008  19.025   6.258  0.00  0.00     0.021 A 
HETATM    9  N   UNK     0     -29.806  17.947   6.216  0.00  0.00    -0.361 N 
HETATM   10  C   UNK     0     -30.747  18.160   5.272  0.00  0.00     0.022 A 
HETATM   11  C   UNK     0     -30.555  19.412   4.697  0.00  0.00    -0.027 A 
HETATM   12  C   UNK     0     -29.461  19.963   5.314  0.00  0.00    -0.031 A 
HETATM   13  C   UNK     0     -28.883  21.328   5.013  0.00  0.00     0.051 C 
HETATM   14  C   UNK     0     -31.828  17.173   4.838  0.00  0.00     0.115 C 
HETATM   15  C   UNK     0     -31.282  15.874   4.269  0.00  0.00     0.021 A 
HETATM   16  N   UNK     0     -30.469  14.989   4.874  0.00  0.00    -0.361 N 
HETATM   17  C   UNK     0     -30.162  14.015   4.014  0.00  0.00     0.022 A 
HETATM   18  C   UNK     0     -30.815  14.273   2.793  0.00  0.00    -0.027 A 
HETATM   19  C   UNK     0     -31.514  15.439   2.965  0.00  0.00    -0.031 A 
HETATM   20  C   UNK     0     -32.393  16.062   1.896  0.00  0.00     0.051 C 
HETATM   21  C   UNK     0     -29.235  12.832   4.176  0.00  0.00     0.115 C 
HETATM   22  C   UNK     0     -28.007  13.020   5.035  0.00  0.00     0.022 A 
HETATM   23  N   UNK     0     -27.195  14.084   5.100  0.00  0.00    -0.361 N 
HETATM   24  C   UNK     0     -26.314  13.883   6.101  0.00  0.00     0.021 A 
HETATM   25  C   UNK     0     -26.557  12.656   6.687  0.00  0.00    -0.031 A 
HETATM   26  C   UNK     0     -25.811  11.974   7.815  0.00  0.00     0.051 C 
HETATM   27  C   UNK     0     -27.636  12.084   6.021  0.00  0.00    -0.027 A 
HETATM   28  C   UNK     0     -25.258  14.845   6.616  0.00  0.00     0.115 C 
HETATM   29  H   UNK     0     -26.715  17.069   5.346  0.00  0.00     0.165 HD
HETATM   30  H   UNK     0     -29.739  17.056   6.886  0.00  0.00     0.165 HD
HETATM   31  H   UNK     0     -30.142  15.026   5.946  0.00  0.00     0.165 HD
HETATM   32  H   UNK     0     -27.210  14.969   4.412  0.00  0.00     0.165 HD
ENDROOT
BRANCH   6  33
HETATM   33  C   UNK     0     -26.517  18.495   9.873  0.00  0.00     0.051 C 
BRANCH  33  34
HETATM   34  C   UNK     0     -27.908  18.344  10.443  0.00  0.00     0.114 C 
BRANCH  34  35
HETATM   35  C   UNK     0     -27.826  17.369  11.568  0.00  0.00     0.139 C 
HETATM   36  O   UNK     0     -26.737  17.206  12.192  0.00  0.00    -0.650 OA
BRANCH  35  37
HETATM   37  O   UNK     0     -28.913  16.609  11.981  0.00  0.00    -0.776 OA
HETATM   38  H   UNK     0     -29.137  16.481  12.955  0.00  0.00     0.167 HD
ENDBRANCH  35  37
ENDBRANCH  34  35
ENDBRANCH  33  34
ENDBRANCH   6  33
BRANCH  27  39
HETATM   39  C   UNK     0     -28.147  10.721   6.328  0.00  0.00     0.051 C 
BRANCH  39  40
HETATM   40  C   UNK     0     -29.138  10.574   7.393  0.00  0.00     0.114 C 
BRANCH  40  41
HETATM   41  C   UNK     0     -28.843   9.889   8.631  0.00  0.00     0.139 C 
HETATM   42  O   UNK     0     -29.288  10.243   9.731  0.00  0.00    -0.650 OA
BRANCH  41  43
HETATM   43  O   UNK     0     -27.998   8.744   8.603  0.00  0.00    -0.776 OA
HETATM   44  H   UNK     0     -27.114   8.887   8.130  0.00  0.00     0.167 HD
ENDBRANCH  41  43
ENDBRANCH  40  41
ENDBRANCH  39  40
ENDBRANCH  27  39
BRANCH  11  45
HETATM   45  C   UNK     0     -31.356  20.084   3.614  0.00  0.00     0.051 C 
BRANCH  45  46
HETATM   46  C   UNK     0     -30.925  19.735   2.236  0.00  0.00     0.114 C 
BRANCH  46  47
HETATM   47  C   UNK     0     -31.958  20.267   1.302  0.00  0.00     0.139 C 
HETATM   48  O   UNK     0     -31.825  21.418   0.864  0.00  0.00    -0.650 OA
BRANCH  47  49
HETATM   49  O   UNK     0     -33.035  19.500   0.935  0.00  0.00    -0.776 OA
HETATM   50  H   UNK     0     -33.673  19.781   0.181  0.00  0.00     0.167 HD
ENDBRANCH  47  49
ENDBRANCH  46  47
ENDBRANCH  45  46
ENDBRANCH  11  45
BRANCH  18  51
HETATM   51  C   UNK     0     -30.791  13.441   1.536  0.00  0.00     0.051 C 
BRANCH  51  52
HETATM   52  C   UNK     0     -32.087  12.645   1.527  0.00  0.00     0.114 C 
BRANCH  52  53
HETATM   53  C   UNK     0     -31.945  11.355   2.229  0.00  0.00     0.139 C 
HETATM   54  O   UNK     0     -32.189  11.279   3.444  0.00  0.00    -0.650 OA
BRANCH  53  55
HETATM   55  O   UNK     0     -31.538  10.243   1.532  0.00  0.00    -0.776 OA
HETATM   56  H   UNK     0     -32.099   9.455   1.311  0.00  0.00     0.167 HD
ENDBRANCH  53  55
ENDBRANCH  52  53
ENDBRANCH  51  52
ENDBRANCH  18  51
TORSDOF 16
ENDMDL
MODEL 13
REMARK VINA RESULT:      -9.1      3.919      8.825
REMARK  16 active torsions:
REMARK  status: ('A' for Active; 'I' for Inactive)
REMARK    1  A    between atoms: C_6  and  C_7 
REMARK    2  A    between atoms: C_7  and  C_8 
REMARK    3  A    between atoms: C_8  and  C_9 
REMARK    4  A    between atoms: C_9  and  O_11 
REMARK    5  A    between atoms: C_16  and  C_17 
REMARK    6  A    between atoms: C_17  and  C_18 
REMARK    7  A    between atoms: C_18  and  C_19 
REMARK    8  A    between atoms: C_19  and  O_21 
REMARK    9  A    between atoms: C_28  and  C_29 
REMARK   10  A    between atoms: C_29  and  C_30 
REMARK   11  A    between atoms: C_30  and  C_31 
REMARK   12  A    between atoms: C_31  and  O_33 
REMARK   13  A    between atoms: C_42  and  C_43 
REMARK   14  A    between atoms: C_43  and  C_44 
REMARK   15  A    between atoms: C_44  and  C_45 
REMARK   16  A    between atoms: C_45  and  O_47 
ROOT
HETATM    1  C   UNK     0      -3.858   0.420 -13.013  0.00  0.00     0.051 C 
HETATM    2  C   UNK     0      -4.415   1.780 -12.644  0.00  0.00    -0.031 A 
HETATM    3  C   UNK     0      -4.520   2.380 -11.399  0.00  0.00     0.021 A 
HETATM    4  N   UNK     0      -5.112   3.590 -11.540  0.00  0.00    -0.361 N 
HETATM    5  C   UNK     0      -5.378   3.778 -12.849  0.00  0.00     0.022 A 
HETATM    6  C   UNK     0      -4.957   2.664 -13.568  0.00  0.00    -0.027 A 
HETATM    7  C   UNK     0      -5.937   4.981 -13.543  0.00  0.00     0.115 C 
HETATM    8  C   UNK     0      -5.404   6.332 -13.102  0.00  0.00     0.021 A 
HETATM    9  N   UNK     0      -4.161   6.653 -12.710  0.00  0.00    -0.361 N 
HETATM   10  C   UNK     0      -4.165   7.946 -12.320  0.00  0.00     0.022 A 
HETATM   11  C   UNK     0      -5.444   8.474 -12.473  0.00  0.00    -0.027 A 
HETATM   12  C   UNK     0      -6.229   7.463 -12.965  0.00  0.00    -0.031 A 
HETATM   13  C   UNK     0      -7.701   7.580 -13.293  0.00  0.00     0.051 C 
HETATM   14  C   UNK     0      -2.983   8.716 -11.740  0.00  0.00     0.115 C 
HETATM   15  C   UNK     0      -2.444   8.132 -10.444  0.00  0.00     0.021 A 
HETATM   16  N   UNK     0      -1.964   6.891 -10.239  0.00  0.00    -0.361 N 
HETATM   17  C   UNK     0      -1.656   6.747  -8.948  0.00  0.00     0.022 A 
HETATM   18  C   UNK     0      -1.941   7.956  -8.281  0.00  0.00    -0.027 A 
HETATM   19  C   UNK     0      -2.432   8.815  -9.229  0.00  0.00    -0.031 A 
HETATM   20  C   UNK     0      -2.833  10.250  -8.941  0.00  0.00     0.051 C 
HETATM   21  C   UNK     0      -1.154   5.535  -8.198  0.00  0.00     0.115 C 
HETATM   22  C   UNK     0      -1.642   4.180  -8.655  0.00  0.00     0.022 A 
HETATM   23  N   UNK     0      -2.872   3.832  -9.054  0.00  0.00    -0.361 N 
HETATM   24  C   UNK     0      -2.827   2.565  -9.511  0.00  0.00     0.021 A 
HETATM   25  C   UNK     0      -1.538   2.081  -9.394  0.00  0.00    -0.031 A 
HETATM   26  C   UNK     0      -1.001   0.706  -9.735  0.00  0.00     0.051 C 
HETATM   27  C   UNK     0      -0.761   3.096  -8.848  0.00  0.00    -0.027 A 
HETATM   28  C   UNK     0      -3.950   1.767 -10.151  0.00  0.00     0.115 C 
HETATM   29  H   UNK     0      -5.373   4.285 -10.709  0.00  0.00     0.165 HD
HETATM   30  H   UNK     0      -3.267   5.984 -12.756  0.00  0.00     0.165 HD
HETATM   31  H   UNK     0      -1.793   6.115 -11.030  0.00  0.00     0.165 HD
HETATM   32  H   UNK     0      -3.795   4.465  -8.976  0.00  0.00     0.165 HD
ENDROOT
BRANCH   6  33
HETATM   33  C   UNK     0      -5.033   2.379 -15.046  0.00  0.00     0.051 C 
BRANCH  33  34
HETATM   34  C   UNK     0      -6.194   1.464 -15.356  0.00  0.00     0.114 C 
BRANCH  34  35
HETATM   35  C   UNK     0      -7.352   2.324 -15.735  0.00  0.00     0.139 C 
HETATM   36  O   UNK     0      -8.245   2.602 -14.883  0.00  0.00    -0.650 OA
BRANCH  35  37
HETATM   37  O   UNK     0      -7.505   2.854 -17.010  0.00  0.00    -0.776 OA
HETATM   38  H   UNK     0      -6.727   3.221 -17.534  0.00  0.00     0.167 HD
ENDBRANCH  35  37
ENDBRANCH  34  35
ENDBRANCH  33  34
ENDBRANCH   6  33
BRANCH  27  39
HETATM   39  C   UNK     0       0.677   2.923  -8.507  0.00  0.00     0.051 C 
BRANCH  39  40
HETATM   40  C   UNK     0       1.129   3.330  -7.177  0.00  0.00     0.114 C 
BRANCH  40  41
HETATM   41  C   UNK     0       2.409   3.964  -6.959  0.00  0.00     0.139 C 
HETATM   42  O   UNK     0       3.492   3.428  -7.230  0.00  0.00    -0.650 OA
BRANCH  41  43
HETATM   43  O   UNK     0       2.446   5.275  -6.403  0.00  0.00    -0.776 OA
HETATM   44  H   UNK     0       3.163   5.412  -5.701  0.00  0.00     0.167 HD
ENDBRANCH  41  43
ENDBRANCH  40  41
ENDBRANCH  39  40
ENDBRANCH  27  39
BRANCH  11  45
HETATM   45  C   UNK     0      -5.928   9.868 -12.178  0.00  0.00     0.051 C 
BRANCH  45  46
HETATM   46  C   UNK     0      -5.089  10.940 -12.771  0.00  0.00     0.114 C 
BRANCH  46  47
HETATM   47  C   UNK     0      -4.908  11.988 -11.727  0.00  0.00     0.139 C 
HETATM   48  O   UNK     0      -5.823  12.180 -10.915  0.00  0.00    -0.650 OA
BRANCH  47  49
HETATM   49  O   UNK     0      -3.753  12.727 -11.666  0.00  0.00    -0.776 OA
HETATM   50  H   UNK     0      -3.748  13.743 -11.816  0.00  0.00     0.167 HD
ENDBRANCH  47  49
ENDBRANCH  46  47
ENDBRANCH  45  46
ENDBRANCH  11  45
BRANCH  18  51
HETATM   51  C   UNK     0      -1.735   8.280  -6.824  0.00  0.00     0.051 C 
BRANCH  51  52
HETATM   52  C   UNK     0      -0.398   9.001  -6.733  0.00  0.00     0.114 C 
BRANCH  52  53
HETATM   53  C   UNK     0       0.579   8.245  -5.925  0.00  0.00     0.139 C 
HETATM   54  O   UNK     0       1.668   8.759  -5.626  0.00  0.00    -0.650 OA
BRANCH  53  55
HETATM   55  O   UNK     0       0.276   6.971  -5.510  0.00  0.00    -0.776 OA
HETATM   56  H   UNK     0      -0.631   6.572  -5.462  0.00  0.00     0.167 HD
ENDBRANCH  53  55
ENDBRANCH  52  53
ENDBRANCH  51  52
ENDBRANCH  18  51
TORSDOF 16
ENDMDL
MODEL 14
REMARK VINA RESULT:      -9.0     30.091     33.280
REMARK  16 active torsions:
REMARK  status: ('A' for Active; 'I' for Inactive)
REMARK    1  A    between atoms: C_6  and  C_7 
REMARK    2  A    between atoms: C_7  and  C_8 
REMARK    3  A    between atoms: C_8  and  C_9 
REMARK    4  A    between atoms: C_9  and  O_11 
REMARK    5  A    between atoms: C_16  and  C_17 
REMARK    6  A    between atoms: C_17  and  C_18 
REMARK    7  A    between atoms: C_18  and  C_19 
REMARK    8  A    between atoms: C_19  and  O_21 
REMARK    9  A    between atoms: C_28  and  C_29 
REMARK   10  A    between atoms: C_29  and  C_30 
REMARK   11  A    between atoms: C_30  and  C_31 
REMARK   12  A    between atoms: C_31  and  O_33 
REMARK   13  A    between atoms: C_42  and  C_43 
REMARK   14  A    between atoms: C_43  and  C_44 
REMARK   15  A    between atoms: C_44  and  C_45 
REMARK   16  A    between atoms: C_45  and  O_47 
ROOT
HETATM    1  C   UNK     0     -27.061  21.126   7.470  0.00  0.00     0.051 C 
HETATM    2  C   UNK     0     -26.109  20.282   8.293  0.00  0.00    -0.031 A 
HETATM    3  C   UNK     0     -26.363  19.137   9.031  0.00  0.00     0.021 A 
HETATM    4  N   UNK     0     -25.217  18.737   9.633  0.00  0.00    -0.361 N 
HETATM    5  C   UNK     0     -24.237  19.597   9.286  0.00  0.00     0.022 A 
HETATM    6  C   UNK     0     -24.761  20.578   8.451  0.00  0.00    -0.027 A 
HETATM    7  C   UNK     0     -22.775  19.552   9.604  0.00  0.00     0.115 C 
HETATM    8  C   UNK     0     -22.097  18.197   9.501  0.00  0.00     0.021 A 
HETATM    9  N   UNK     0     -22.335  17.207   8.627  0.00  0.00    -0.361 N 
HETATM   10  C   UNK     0     -21.562  16.153   8.967  0.00  0.00     0.022 A 
HETATM   11  C   UNK     0     -20.799  16.477  10.084  0.00  0.00    -0.027 A 
HETATM   12  C   UNK     0     -21.131  17.763  10.426  0.00  0.00    -0.031 A 
HETATM   13  C   UNK     0     -20.543  18.539  11.583  0.00  0.00     0.051 C 
HETATM   14  C   UNK     0     -21.552  14.787   8.287  0.00  0.00     0.115 C 
HETATM   15  C   UNK     0     -22.887  14.063   8.339  0.00  0.00     0.021 A 
HETATM   16  N   UNK     0     -24.072  14.488   7.861  0.00  0.00    -0.361 N 
HETATM   17  C   UNK     0     -25.014  13.595   8.168  0.00  0.00     0.022 A 
HETATM   18  C   UNK     0     -24.414  12.531   8.871  0.00  0.00    -0.027 A 
HETATM   19  C   UNK     0     -23.081  12.836   8.970  0.00  0.00    -0.031 A 
HETATM   20  C   UNK     0     -22.056  11.932   9.629  0.00  0.00     0.051 C 
HETATM   21  C   UNK     0     -26.506  13.634   7.925  0.00  0.00     0.115 C 
HETATM   22  C   UNK     0     -27.187  14.981   7.981  0.00  0.00     0.022 A 
HETATM   23  N   UNK     0     -26.967  15.987   8.837  0.00  0.00    -0.361 N 
HETATM   24  C   UNK     0     -27.690  17.052   8.434  0.00  0.00     0.021 A 
HETATM   25  C   UNK     0     -28.399  16.720   7.296  0.00  0.00    -0.031 A 
HETATM   26  C   UNK     0     -29.375  17.563   6.501  0.00  0.00     0.051 C 
HETATM   27  C   UNK     0     -28.094  15.400   6.986  0.00  0.00    -0.027 A 
HETATM   28  C   UNK     0     -27.699  18.449   9.030  0.00  0.00     0.115 C 
HETATM   29  H   UNK     0     -25.118  17.872  10.329  0.00  0.00     0.165 HD
HETATM   30  H   UNK     0     -23.011  17.266   7.739  0.00  0.00     0.165 HD
HETATM   31  H   UNK     0     -24.238  15.415   7.253  0.00  0.00     0.165 HD
HETATM   32  H   UNK     0     -26.333  15.942   9.761  0.00  0.00     0.165 HD
ENDROOT
BRANCH   6  33
HETATM   33  C   UNK     0     -24.088  21.761   7.802  0.00  0.00     0.051 C 
BRANCH  33  34
HETATM   34  C   UNK     0     -23.597  22.736   8.846  0.00  0.00     0.114 C 
BRANCH  34  35
HETATM   35  C   UNK     0     -22.300  23.292   8.363  0.00  0.00     0.139 C 
HETATM   36  O   UNK     0     -22.189  24.528   8.119  0.00  0.00    -0.650 OA
BRANCH  35  37
HETATM   37  O   UNK     0     -21.175  22.502   8.164  0.00  0.00    -0.776 OA
HETATM   38  H   UNK     0     -20.263  22.901   8.005  0.00  0.00     0.167 HD
ENDBRANCH  35  37
ENDBRANCH  34  35
ENDBRANCH  33  34
ENDBRANCH   6  33
BRANCH  27  39
HETATM   39  C   UNK     0     -28.727  14.664   5.858  0.00  0.00     0.051 C 
BRANCH  39  40
HETATM   40  C   UNK     0     -29.810  13.729   6.160  0.00  0.00     0.114 C 
BRANCH  40  41
HETATM   41  C   UNK     0     -29.561  12.398   6.666  0.00  0.00     0.139 C 
HETATM   42  O   UNK     0     -29.692  12.084   7.857  0.00  0.00    -0.650 OA
BRANCH  41  43
HETATM   43  O   UNK     0     -29.141  11.382   5.761  0.00  0.00    -0.776 OA
HETATM   44  H   UNK     0     -29.352  10.439   6.064  0.00  0.00     0.167 HD
ENDBRANCH  41  43
ENDBRANCH  40  41
ENDBRANCH  39  40
ENDBRANCH  27  39
BRANCH  11  45
HETATM   45  C   UNK     0     -19.792  15.630  10.815  0.00  0.00     0.051 C 
BRANCH  45  46
HETATM   46  C   UNK     0     -20.358  14.862  11.953  0.00  0.00     0.114 C 
BRANCH  46  47
HETATM   47  C   UNK     0     -19.722  13.513  11.936  0.00  0.00     0.139 C 
HETATM   48  O   UNK     0     -19.951  12.739  12.875  0.00  0.00    -0.650 OA
BRANCH  47  49
HETATM   49  O   UNK     0     -18.901  13.137  10.903  0.00  0.00    -0.776 OA
HETATM   50  H   UNK     0     -18.675  12.153  10.717  0.00  0.00     0.167 HD
ENDBRANCH  47  49
ENDBRANCH  46  47
ENDBRANCH  45  46
ENDBRANCH  11  45
BRANCH  18  51
HETATM   51  C   UNK     0     -25.071  11.283   9.401  0.00  0.00     0.051 C 
BRANCH  51  52
HETATM   52  C   UNK     0     -25.334  10.395   8.193  0.00  0.00     0.114 C 
BRANCH  52  53
HETATM   53  C   UNK     0     -26.711   9.865   8.191  0.00  0.00     0.139 C 
HETATM   54  O   UNK     0     -27.231   9.490   7.128  0.00  0.00    -0.650 OA
BRANCH  53  55
HETATM   55  O   UNK     0     -27.414   9.793   9.369  0.00  0.00    -0.776 OA
HETATM   56  H   UNK     0     -28.177   9.187   9.558  0.00  0.00     0.167 HD
ENDBRANCH  53  55
ENDBRANCH  52  53
ENDBRANCH  51  52
ENDBRANCH  18  51
TORSDOF 16
ENDMDL
MODEL 15
REMARK VINA RESULT:      -9.0     29.234     32.569
REMARK  16 active torsions:
REMARK  status: ('A' for Active; 'I' for Inactive)
REMARK    1  A    between atoms: C_6  and  C_7 
REMARK    2  A    between atoms: C_7  and  C_8 
REMARK    3  A    between atoms: C_8  and  C_9 
REMARK    4  A    between atoms: C_9  and  O_11 
REMARK    5  A    between atoms: C_16  and  C_17 
REMARK    6  A    between atoms: C_17  and  C_18 
REMARK    7  A    between atoms: C_18  and  C_19 
REMARK    8  A    between atoms: C_19  and  O_21 
REMARK    9  A    between atoms: C_28  and  C_29 
REMARK   10  A    between atoms: C_29  and  C_30 
REMARK   11  A    between atoms: C_30  and  C_31 
REMARK   12  A    between atoms: C_31  and  O_33 
REMARK   13  A    between atoms: C_42  and  C_43 
REMARK   14  A    between atoms: C_43  and  C_44 
REMARK   15  A    between atoms: C_44  and  C_45 
REMARK   16  A    between atoms: C_45  and  O_47 
ROOT
HETATM    1  C   UNK     0     -28.753  17.456   7.301  0.00  0.00     0.051 C 
HETATM    2  C   UNK     0     -28.027  16.168   6.974  0.00  0.00    -0.031 A 
HETATM    3  C   UNK     0     -26.665  15.909   6.940  0.00  0.00     0.021 A 
HETATM    4  N   UNK     0     -26.470  14.623   6.566  0.00  0.00    -0.361 N 
HETATM    5  C   UNK     0     -27.676  14.053   6.369  0.00  0.00     0.022 A 
HETATM    6  C   UNK     0     -28.673  14.992   6.613  0.00  0.00    -0.027 A 
HETATM    7  C   UNK     0     -28.017  12.633   6.040  0.00  0.00     0.115 C 
HETATM    8  C   UNK     0     -27.244  11.557   6.783  0.00  0.00     0.021 A 
HETATM    9  N   UNK     0     -26.808  11.567   8.052  0.00  0.00    -0.361 N 
HETATM   10  C   UNK     0     -26.090  10.443   8.257  0.00  0.00     0.022 A 
HETATM   11  C   UNK     0     -26.071   9.683   7.091  0.00  0.00    -0.027 A 
HETATM   12  C   UNK     0     -26.797  10.379   6.159  0.00  0.00    -0.031 A 
HETATM   13  C   UNK     0     -27.052   9.931   4.737  0.00  0.00     0.051 C 
HETATM   14  C   UNK     0     -25.351  10.066   9.538  0.00  0.00     0.115 C 
HETATM   15  C   UNK     0     -24.266  11.054   9.937  0.00  0.00     0.021 A 
HETATM   16  N   UNK     0     -24.407  12.368  10.194  0.00  0.00    -0.361 N 
HETATM   17  C   UNK     0     -23.206  12.898  10.440  0.00  0.00     0.022 A 
HETATM   18  C   UNK     0     -22.238  11.878  10.347  0.00  0.00    -0.027 A 
HETATM   19  C   UNK     0     -22.915  10.728  10.033  0.00  0.00    -0.031 A 
HETATM   20  C   UNK     0     -22.249   9.374   9.874  0.00  0.00     0.051 C 
HETATM   21  C   UNK     0     -22.814  14.332  10.710  0.00  0.00     0.115 C 
HETATM   22  C   UNK     0     -23.603  15.415  10.011  0.00  0.00     0.022 A 
HETATM   23  N   UNK     0     -24.054  15.430   8.750  0.00  0.00    -0.361 N 
HETATM   24  C   UNK     0     -24.831  16.520   8.591  0.00  0.00     0.021 A 
HETATM   25  C   UNK     0     -24.873  17.230   9.776  0.00  0.00    -0.031 A 
HETATM   26  C   UNK     0     -25.576  18.537  10.080  0.00  0.00     0.051 C 
HETATM   27  C   UNK     0     -24.094  16.542  10.700  0.00  0.00    -0.027 A 
HETATM   28  C   UNK     0     -25.636  16.918   7.366  0.00  0.00     0.115 C 
HETATM   29  H   UNK     0     -25.479  14.137   6.405  0.00  0.00     0.165 HD
HETATM   30  H   UNK     0     -27.046  12.342   8.821  0.00  0.00     0.165 HD
HETATM   31  H   UNK     0     -25.378  12.925  10.251  0.00  0.00     0.165 HD
HETATM   32  H   UNK     0     -23.793  14.693   7.946  0.00  0.00     0.165 HD
ENDROOT
BRANCH   6  33
HETATM   33  C   UNK     0     -30.172  14.860   6.528  0.00  0.00     0.051 C 
BRANCH  33  34
HETATM   34  C   UNK     0     -30.746  14.413   7.852  0.00  0.00     0.114 C 
BRANCH  34  35
HETATM   35  C   UNK     0     -31.159  12.988   7.700  0.00  0.00     0.139 C 
HETATM   36  O   UNK     0     -31.987  12.657   6.802  0.00  0.00    -0.650 OA
BRANCH  35  37
HETATM   37  O   UNK     0     -30.668  11.975   8.515  0.00  0.00    -0.776 OA
HETATM   38  H   UNK     0     -29.771  11.546   8.352  0.00  0.00     0.167 HD
ENDBRANCH  35  37
ENDBRANCH  34  35
ENDBRANCH  33  34
ENDBRANCH   6  33
BRANCH  27  39
HETATM   39  C   UNK     0     -23.840  17.042  12.078  0.00  0.00     0.051 C 
BRANCH  39  40
HETATM   40  C   UNK     0     -22.637  17.840  12.317  0.00  0.00     0.114 C 
BRANCH  40  41
HETATM   41  C   UNK     0     -21.322  17.246  12.399  0.00  0.00     0.139 C 
HETATM   42  O   UNK     0     -20.340  17.671  11.776  0.00  0.00    -0.650 OA
BRANCH  41  43
HETATM   43  O   UNK     0     -21.128  16.111  13.236  0.00  0.00    -0.776 OA
HETATM   44  H   UNK     0     -21.888  15.442  13.218  0.00  0.00     0.167 HD
ENDBRANCH  41  43
ENDBRANCH  40  41
ENDBRANCH  39  40
ENDBRANCH  27  39
BRANCH  11  45
HETATM   45  C   UNK     0     -25.408   8.355   6.843  0.00  0.00     0.051 C 
BRANCH  45  46
HETATM   46  C   UNK     0     -26.346   7.204   6.820  0.00  0.00     0.114 C 
BRANCH  46  47
HETATM   47  C   UNK     0     -26.218   6.555   5.484  0.00  0.00     0.139 C 
HETATM   48  O   UNK     0     -27.113   5.784   5.111  0.00  0.00    -0.650 OA
BRANCH  47  49
HETATM   49  O   UNK     0     -25.131   6.803   4.684  0.00  0.00    -0.776 OA
HETATM   50  H   UNK     0     -24.745   6.092   4.052  0.00  0.00     0.167 HD
ENDBRANCH  47  49
ENDBRANCH  46  47
ENDBRANCH  45  46
ENDBRANCH  11  45
BRANCH  18  51
HETATM   51  C   UNK     0     -20.752  11.989  10.567  0.00  0.00     0.051 C 
BRANCH  51  52
HETATM   52  C   UNK     0     -20.514  11.673  12.037  0.00  0.00     0.114 C 
BRANCH  52  53
HETATM   53  C   UNK     0     -19.376  10.752  12.223  0.00  0.00     0.139 C 
HETATM   54  O   UNK     0     -18.574  10.936  13.153  0.00  0.00    -0.650 OA
BRANCH  53  55
HETATM   55  O   UNK     0     -19.209   9.695  11.362  0.00  0.00    -0.776 OA
HETATM   56  H   UNK     0     -19.714   8.840  11.383  0.00  0.00     0.167 HD
ENDBRANCH  53  55
ENDBRANCH  52  53
ENDBRANCH  51  52
ENDBRANCH  18  51
TORSDOF 16
ENDMDL
MODEL 16
REMARK VINA RESULT:      -8.9      2.850      9.473
REMARK  16 active torsions:
REMARK  status: ('A' for Active; 'I' for Inactive)
REMARK    1  A    between atoms: C_6  and  C_7 
REMARK    2  A    between atoms: C_7  and  C_8 
REMARK    3  A    between atoms: C_8  and  C_9 
REMARK    4  A    between atoms: C_9  and  O_11 
REMARK    5  A    between atoms: C_16  and  C_17 
REMARK    6  A    between atoms: C_17  and  C_18 
REMARK    7  A    between atoms: C_18  and  C_19 
REMARK    8  A    between atoms: C_19  and  O_21 
REMARK    9  A    between atoms: C_28  and  C_29 
REMARK   10  A    between atoms: C_29  and  C_30 
REMARK   11  A    between atoms: C_30  and  C_31 
REMARK   12  A    between atoms: C_31  and  O_33 
REMARK   13  A    between atoms: C_42  and  C_43 
REMARK   14  A    between atoms: C_43  and  C_44 
REMARK   15  A    between atoms: C_44  and  C_45 
REMARK   16  A    between atoms: C_45  and  O_47 
ROOT
HETATM    1  C   UNK     0      -0.588  -0.811 -10.919  0.00  0.00     0.051 C 
HETATM    2  C   UNK     0      -0.183   0.582 -10.481  0.00  0.00    -0.031 A 
HETATM    3  C   UNK     0      -0.165   1.762 -11.207  0.00  0.00     0.021 A 
HETATM    4  N   UNK     0       0.300   2.759 -10.418  0.00  0.00    -0.361 N 
HETATM    5  C   UNK     0       0.570   2.242  -9.201  0.00  0.00     0.022 A 
HETATM    6  C   UNK     0       0.281   0.881  -9.207  0.00  0.00    -0.027 A 
HETATM    7  C   UNK     0       1.014   2.933  -7.950  0.00  0.00     0.115 C 
HETATM    8  C   UNK     0       0.334   4.251  -7.622  0.00  0.00     0.021 A 
HETATM    9  N   UNK     0      -0.942   4.608  -7.830  0.00  0.00    -0.361 N 
HETATM   10  C   UNK     0      -1.080   5.902  -7.468  0.00  0.00     0.022 A 
HETATM   11  C   UNK     0       0.139   6.388  -7.006  0.00  0.00    -0.027 A 
HETATM   12  C   UNK     0       1.035   5.353  -7.099  0.00  0.00    -0.031 A 
HETATM   13  C   UNK     0       2.492   5.420  -6.701  0.00  0.00     0.051 C 
HETATM   14  C   UNK     0      -2.347   6.742  -7.594  0.00  0.00     0.115 C 
HETATM   15  C   UNK     0      -2.847   6.894  -9.022  0.00  0.00     0.021 A 
HETATM   16  N   UNK     0      -3.199   5.916  -9.877  0.00  0.00    -0.361 N 
HETATM   17  C   UNK     0      -3.514   6.457 -11.056  0.00  0.00     0.022 A 
HETATM   18  C   UNK     0      -3.370   7.856 -10.961  0.00  0.00    -0.027 A 
HETATM   19  C   UNK     0      -2.952   8.116  -9.682  0.00  0.00    -0.031 A 
HETATM   20  C   UNK     0      -2.709   9.514  -9.142  0.00  0.00     0.051 C 
HETATM   21  C   UNK     0      -3.902   5.793 -12.357  0.00  0.00     0.115 C 
HETATM   22  C   UNK     0      -3.266   4.460 -12.676  0.00  0.00     0.022 A 
HETATM   23  N   UNK     0      -1.999   4.075 -12.476  0.00  0.00    -0.361 N 
HETATM   24  C   UNK     0      -1.903   2.763 -12.770  0.00  0.00     0.021 A 
HETATM   25  C   UNK     0      -3.137   2.293 -13.179  0.00  0.00    -0.031 A 
HETATM   26  C   UNK     0      -3.521   0.905 -13.647  0.00  0.00     0.051 C 
HETATM   27  C   UNK     0      -4.025   3.361 -13.128  0.00  0.00    -0.027 A 
HETATM   28  C   UNK     0      -0.692   1.861 -12.611  0.00  0.00     0.115 C 
HETATM   29  H   UNK     0       0.472   3.813 -10.737  0.00  0.00     0.165 HD
HETATM   30  H   UNK     0      -1.761   3.935  -8.185  0.00  0.00     0.165 HD
HETATM   31  H   UNK     0      -3.273   4.825  -9.631  0.00  0.00     0.165 HD
HETATM   32  H   UNK     0      -1.149   4.738 -12.167  0.00  0.00     0.165 HD
ENDROOT
BRANCH   6  33
HETATM   33  C   UNK     0       0.414  -0.143  -8.108  0.00  0.00     0.051 C 
BRANCH  33  34
HETATM   34  C   UNK     0      -0.841  -0.193  -7.269  0.00  0.00     0.114 C 
BRANCH  34  35
HETATM   35  C   UNK     0      -0.444  -0.623  -5.898  0.00  0.00     0.139 C 
HETATM   36  O   UNK     0      -0.523  -1.841  -5.564  0.00  0.00    -0.650 OA
BRANCH  35  37
HETATM   37  O   UNK     0       0.025   0.267  -4.939  0.00  0.00    -0.776 OA
HETATM   38  H   UNK     0       0.648  -0.020  -4.202  0.00  0.00     0.167 HD
ENDBRANCH  35  37
ENDBRANCH  34  35
ENDBRANCH  33  34
ENDBRANCH   6  33
BRANCH  27  39
HETATM   39  C   UNK     0      -5.444   3.257 -13.566  0.00  0.00     0.051 C 
BRANCH  39  40
HETATM   40  C   UNK     0      -5.718   2.768 -14.917  0.00  0.00     0.114 C 
BRANCH  40  41
HETATM   41  C   UNK     0      -7.006   2.230 -15.295  0.00  0.00     0.139 C 
HETATM   42  O   UNK     0      -7.147   1.283 -16.080  0.00  0.00    -0.650 OA
BRANCH  41  43
HETATM   43  O   UNK     0      -8.185   2.808 -14.744  0.00  0.00    -0.776 OA
HETATM   44  H   UNK     0      -8.613   3.520 -15.324  0.00  0.00     0.167 HD
ENDBRANCH  41  43
ENDBRANCH  40  41
ENDBRANCH  39  40
ENDBRANCH  27  39
BRANCH  11  45
HETATM   45  C   UNK     0       0.470   7.763  -6.490  0.00  0.00     0.051 C 
BRANCH  45  46
HETATM   46  C   UNK     0       1.353   7.766  -5.296  0.00  0.00     0.114 C 
BRANCH  46  47
HETATM   47  C   UNK     0       2.483   8.695  -5.585  0.00  0.00     0.139 C 
HETATM   48  O   UNK     0       3.623   8.224  -5.698  0.00  0.00    -0.650 OA
BRANCH  47  49
HETATM   49  O   UNK     0       2.266  10.044  -5.720  0.00  0.00    -0.776 OA
HETATM   50  H   UNK     0       1.722  10.580  -5.034  0.00  0.00     0.167 HD
ENDBRANCH  47  49
ENDBRANCH  46  47
ENDBRANCH  45  46
ENDBRANCH  11  45
BRANCH  18  51
HETATM   51  C   UNK     0      -3.635   8.888 -12.026  0.00  0.00     0.051 C 
BRANCH  51  52
HETATM   52  C   UNK     0      -5.123   9.197 -11.958  0.00  0.00     0.114 C 
BRANCH  52  53
HETATM   53  C   UNK     0      -5.804   8.903 -13.234  0.00  0.00     0.139 C 
HETATM   54  O   UNK     0      -7.040   8.986 -13.313  0.00  0.00    -0.650 OA
BRANCH  53  55
HETATM   55  O   UNK     0      -5.063   8.534 -14.331  0.00  0.00    -0.776 OA
HETATM   56  H   UNK     0      -5.392   8.474 -15.265  0.00  0.00     0.167 HD
ENDBRANCH  53  55
ENDBRANCH  52  53
ENDBRANCH  51  52
ENDBRANCH  18  51
TORSDOF 16
ENDMDL
MODEL 17
REMARK VINA RESULT:      -8.9     29.699     33.088
REMARK  16 active torsions:
REMARK  status: ('A' for Active; 'I' for Inactive)
REMARK    1  A    between atoms: C_6  and  C_7 
REMARK    2  A    between atoms: C_7  and  C_8 
REMARK    3  A    between atoms: C_8  and  C_9 
REMARK    4  A    between atoms: C_9  and  O_11 
REMARK    5  A    between atoms: C_16  and  C_17 
REMARK    6  A    between atoms: C_17  and  C_18 
REMARK    7  A    between atoms: C_18  and  C_19 
REMARK    8  A    between atoms: C_19  and  O_21 
REMARK    9  A    between atoms: C_28  and  C_29 
REMARK   10  A    between atoms: C_29  and  C_30 
REMARK   11  A    between atoms: C_30  and  C_31 
REMARK   12  A    between atoms: C_31  and  O_33 
REMARK   13  A    between atoms: C_42  and  C_43 
REMARK   14  A    between atoms: C_43  and  C_44 
REMARK   15  A    between atoms: C_44  and  C_45 
REMARK   16  A    between atoms: C_45  and  O_47 
ROOT
HETATM    1  C   UNK     0     -19.874  16.651  11.879  0.00  0.00     0.051 C 
HETATM    2  C   UNK     0     -20.866  17.219  10.884  0.00  0.00    -0.031 A 
HETATM    3  C   UNK     0     -21.312  16.687   9.685  0.00  0.00     0.021 A 
HETATM    4  N   UNK     0     -22.176  17.557   9.110  0.00  0.00    -0.361 N 
HETATM    5  C   UNK     0     -22.296  18.629   9.920  0.00  0.00     0.022 A 
HETATM    6  C   UNK     0     -21.488  18.451  11.038  0.00  0.00    -0.027 A 
HETATM    7  C   UNK     0     -23.190  19.822   9.794  0.00  0.00     0.115 C 
HETATM    8  C   UNK     0     -24.620  19.559   9.356  0.00  0.00     0.021 A 
HETATM    9  N   UNK     0     -25.408  18.514   9.655  0.00  0.00    -0.361 N 
HETATM   10  C   UNK     0     -26.564  18.652   8.973  0.00  0.00     0.022 A 
HETATM   11  C   UNK     0     -26.525  19.822   8.221  0.00  0.00    -0.027 A 
HETATM   12  C   UNK     0     -25.303  20.399   8.458  0.00  0.00    -0.031 A 
HETATM   13  C   UNK     0     -24.817  21.697   7.853  0.00  0.00     0.051 C 
HETATM   14  C   UNK     0     -27.727  17.663   8.961  0.00  0.00     0.115 C 
HETATM   15  C   UNK     0     -27.360  16.287   8.429  0.00  0.00     0.021 A 
HETATM   16  N   UNK     0     -26.420  15.448   8.901  0.00  0.00    -0.361 N 
HETATM   17  C   UNK     0     -26.358  14.371   8.115  0.00  0.00     0.022 A 
HETATM   18  C   UNK     0     -27.310  14.511   7.086  0.00  0.00    -0.027 A 
HETATM   19  C   UNK     0     -27.932  15.715   7.294  0.00  0.00    -0.031 A 
HETATM   20  C   UNK     0     -29.059  16.244   6.427  0.00  0.00     0.051 C 
HETATM   21  C   UNK     0     -25.428  13.180   8.169  0.00  0.00     0.115 C 
HETATM   22  C   UNK     0     -24.014  13.420   8.645  0.00  0.00     0.022 A 
HETATM   23  N   UNK     0     -23.209  14.453   8.366  0.00  0.00    -0.361 N 
HETATM   24  C   UNK     0     -22.094  14.335   9.116  0.00  0.00     0.021 A 
HETATM   25  C   UNK     0     -22.180  13.193   9.889  0.00  0.00    -0.031 A 
HETATM   26  C   UNK     0     -21.166  12.617  10.855  0.00  0.00     0.051 C 
HETATM   27  C   UNK     0     -23.400  12.590   9.605  0.00  0.00    -0.027 A 
HETATM   28  C   UNK     0     -20.934  15.310   9.216  0.00  0.00     0.115 C 
HETATM   29  H   UNK     0     -22.663  17.426   8.116  0.00  0.00     0.165 HD
HETATM   30  H   UNK     0     -25.170  17.703  10.387  0.00  0.00     0.165 HD
HETATM   31  H   UNK     0     -25.819  15.595   9.837  0.00  0.00     0.165 HD
HETATM   32  H   UNK     0     -23.400  15.253   7.604  0.00  0.00     0.165 HD
ENDROOT
BRANCH   6  33
HETATM   33  C   UNK     0     -21.263  19.353  12.225  0.00  0.00     0.051 C 
BRANCH  33  34
HETATM   34  C   UNK     0     -22.468  19.349  13.137  0.00  0.00     0.114 C 
BRANCH  34  35
HETATM   35  C   UNK     0     -22.659  20.743  13.630  0.00  0.00     0.139 C 
HETATM   36  O   UNK     0     -22.019  21.699  13.103  0.00  0.00    -0.650 OA
BRANCH  35  37
HETATM   37  O   UNK     0     -23.529  21.058  14.667  0.00  0.00    -0.776 OA
HETATM   38  H   UNK     0     -23.462  20.622  15.572  0.00  0.00     0.167 HD
ENDBRANCH  35  37
ENDBRANCH  34  35
ENDBRANCH  33  34
ENDBRANCH   6  33
BRANCH  27  39
HETATM   39  C   UNK     0     -23.820  11.291  10.196  0.00  0.00     0.051 C 
BRANCH  39  40
HETATM   40  C   UNK     0     -23.656  10.078   9.395  0.00  0.00     0.114 C 
BRANCH  40  41
HETATM   41  C   UNK     0     -22.708   9.045   9.745  0.00  0.00     0.139 C 
HETATM   42  O   UNK     0     -22.965   8.115  10.522  0.00  0.00    -0.650 OA
BRANCH  41  43
HETATM   43  O   UNK     0     -21.403   9.083   9.176  0.00  0.00    -0.776 OA
HETATM   44  H   UNK     0     -21.046   8.180   8.887  0.00  0.00     0.167 HD
ENDBRANCH  41  43
ENDBRANCH  40  41
ENDBRANCH  39  40
ENDBRANCH  27  39
BRANCH  11  45
HETATM   45  C   UNK     0     -27.580  20.395   7.314  0.00  0.00     0.051 C 
BRANCH  45  46
HETATM   46  C   UNK     0     -28.226  19.393   6.427  0.00  0.00     0.114 C 
BRANCH  46  47
HETATM   47  C   UNK     0     -28.899  20.144   5.329  0.00  0.00     0.139 C 
HETATM   48  O   UNK     0     -29.713  19.544   4.613  0.00  0.00    -0.650 OA
BRANCH  47  49
HETATM   49  O   UNK     0     -28.623  21.471   5.113  0.00  0.00    -0.776 OA
HETATM   50  H   UNK     0     -28.796  21.923   4.208  0.00  0.00     0.167 HD
ENDBRANCH  47  49
ENDBRANCH  46  47
ENDBRANCH  45  46
ENDBRANCH  11  45
BRANCH  18  51
HETATM   51  C   UNK     0     -27.625  13.541   5.977  0.00  0.00     0.051 C 
BRANCH  51  52
HETATM   52  C   UNK     0     -28.892  12.810   6.397  0.00  0.00     0.114 C 
BRANCH  52  53
HETATM   53  C   UNK     0     -28.598  11.473   6.947  0.00  0.00     0.139 C 
HETATM   54  O   UNK     0     -28.552  10.487   6.193  0.00  0.00    -0.650 OA
BRANCH  53  55
HETATM   55  O   UNK     0     -28.379  11.326   8.295  0.00  0.00    -0.776 OA
HETATM   56  H   UNK     0     -27.553  10.972   8.717  0.00  0.00     0.167 HD
ENDBRANCH  53  55
ENDBRANCH  52  53
ENDBRANCH  51  52
ENDBRANCH  18  51
TORSDOF 16
ENDMDL
MODEL 18
REMARK VINA RESULT:      -8.8     29.938     34.399
REMARK  16 active torsions:
REMARK  status: ('A' for Active; 'I' for Inactive)
REMARK    1  A    between atoms: C_6  and  C_7 
REMARK    2  A    between atoms: C_7  and  C_8 
REMARK    3  A    between atoms: C_8  and  C_9 
REMARK    4  A    between atoms: C_9  and  O_11 
REMARK    5  A    between atoms: C_16  and  C_17 
REMARK    6  A    between atoms: C_17  and  C_18 
REMARK    7  A    between atoms: C_18  and  C_19 
REMARK    8  A    between atoms: C_19  and  O_21 
REMARK    9  A    between atoms: C_28  and  C_29 
REMARK   10  A    between atoms: C_29  and  C_30 
REMARK   11  A    between atoms: C_30  and  C_31 
REMARK   12  A    between atoms: C_31  and  O_33 
REMARK   13  A    between atoms: C_42  and  C_43 
REMARK   14  A    between atoms: C_43  and  C_44 
REMARK   15  A    between atoms: C_44  and  C_45 
REMARK   16  A    between atoms: C_45  and  O_47 
ROOT
HETATM    1  C   UNK     0     -25.530   9.892   9.174  0.00  0.00     0.051 C 
HETATM    2  C   UNK     0     -25.130  11.312   8.827  0.00  0.00    -0.031 A 
HETATM    3  C   UNK     0     -25.505  12.091   7.744  0.00  0.00     0.021 A 
HETATM    4  N   UNK     0     -24.877  13.288   7.824  0.00  0.00    -0.361 N 
HETATM    5  C   UNK     0     -24.118  13.292   8.939  0.00  0.00     0.022 A 
HETATM    6  C   UNK     0     -24.250  12.070   9.588  0.00  0.00    -0.027 A 
HETATM    7  C   UNK     0     -23.304  14.399   9.533  0.00  0.00     0.115 C 
HETATM    8  C   UNK     0     -23.936  15.780   9.541  0.00  0.00     0.021 A 
HETATM    9  N   UNK     0     -25.225  16.109   9.717  0.00  0.00    -0.361 N 
HETATM   10  C   UNK     0     -25.344  17.443   9.555  0.00  0.00     0.022 A 
HETATM   11  C   UNK     0     -24.095  17.991   9.276  0.00  0.00    -0.027 A 
HETATM   12  C   UNK     0     -23.204  16.949   9.266  0.00  0.00    -0.031 A 
HETATM   13  C   UNK     0     -21.718  17.071   9.010  0.00  0.00     0.051 C 
HETATM   14  C   UNK     0     -26.641  18.246   9.603  0.00  0.00     0.115 C 
HETATM   15  C   UNK     0     -27.656  17.839   8.546  0.00  0.00     0.021 A 
HETATM   16  N   UNK     0     -28.207  16.625   8.361  0.00  0.00    -0.361 N 
HETATM   17  C   UNK     0     -28.996  16.661   7.285  0.00  0.00     0.022 A 
HETATM   18  C   UNK     0     -28.966  17.964   6.750  0.00  0.00    -0.027 A 
HETATM   19  C   UNK     0     -28.124  18.692   7.550  0.00  0.00    -0.031 A 
HETATM   20  C   UNK     0     -27.834  20.168   7.347  0.00  0.00     0.051 C 
HETATM   21  C   UNK     0     -29.779  15.554   6.617  0.00  0.00     0.115 C 
HETATM   22  C   UNK     0     -29.183  14.166   6.639  0.00  0.00     0.022 A 
HETATM   23  N   UNK     0     -27.903  13.810   6.471  0.00  0.00    -0.361 N 
HETATM   24  C   UNK     0     -27.796  12.488   6.714  0.00  0.00     0.021 A 
HETATM   25  C   UNK     0     -29.039  11.979   7.036  0.00  0.00    -0.031 A 
HETATM   26  C   UNK     0     -29.432  10.550   7.349  0.00  0.00     0.051 C 
HETATM   27  C   UNK     0     -29.943  13.034   6.995  0.00  0.00    -0.027 A 
HETATM   28  C   UNK     0     -26.531  11.648   6.740  0.00  0.00     0.115 C 
HETATM   29  H   UNK     0     -24.945  14.108   7.071  0.00  0.00     0.165 HD
HETATM   30  H   UNK     0     -26.046  15.407  10.006  0.00  0.00     0.165 HD
HETATM   31  H   UNK     0     -28.073  15.735   9.030  0.00  0.00     0.165 HD
HETATM   32  H   UNK     0     -27.069  14.481   6.136  0.00  0.00     0.165 HD
ENDROOT
BRANCH   6  33
HETATM   33  C   UNK     0     -23.611  11.573  10.860  0.00  0.00     0.051 C 
BRANCH  33  34
HETATM   34  C   UNK     0     -22.174  11.174  10.616  0.00  0.00     0.114 C 
BRANCH  34  35
HETATM   35  C   UNK     0     -22.158   9.707  10.348  0.00  0.00     0.139 C 
HETATM   36  O   UNK     0     -22.779   8.913  11.113  0.00  0.00    -0.650 OA
BRANCH  35  37
HETATM   37  O   UNK     0     -21.479   9.150   9.271  0.00  0.00    -0.776 OA
HETATM   38  H   UNK     0     -20.617   8.642   9.388  0.00  0.00     0.167 HD
ENDBRANCH  35  37
ENDBRANCH  34  35
ENDBRANCH  33  34
ENDBRANCH   6  33
BRANCH  27  39
HETATM   39  C   UNK     0     -31.404  12.858   7.217  0.00  0.00     0.051 C 
BRANCH  39  40
HETATM   40  C   UNK     0     -32.248  12.540   6.066  0.00  0.00     0.114 C 
BRANCH  40  41
HETATM   41  C   UNK     0     -31.793  12.714   4.705  0.00  0.00     0.139 C 
HETATM   42  O   UNK     0     -31.354  11.790   4.007  0.00  0.00    -0.650 OA
BRANCH  41  43
HETATM   43  O   UNK     0     -31.846  14.011   4.120  0.00  0.00    -0.776 OA
HETATM   44  H   UNK     0     -31.359  14.728   4.645  0.00  0.00     0.167 HD
ENDBRANCH  41  43
ENDBRANCH  40  41
ENDBRANCH  39  40
ENDBRANCH  27  39
BRANCH  11  45
HETATM   45  C   UNK     0     -23.732  19.431   9.028  0.00  0.00     0.051 C 
BRANCH  45  46
HETATM   46  C   UNK     0     -23.634  20.252  10.262  0.00  0.00     0.114 C 
BRANCH  46  47
HETATM   47  C   UNK     0     -22.341  20.991  10.199  0.00  0.00     0.139 C 
HETATM   48  O   UNK     0     -22.177  21.962  10.951  0.00  0.00    -0.650 OA
BRANCH  47  49
HETATM   49  O   UNK     0     -21.353  20.606   9.328  0.00  0.00    -0.776 OA
HETATM   50  H   UNK     0     -20.373  20.885   9.457  0.00  0.00     0.167 HD
ENDBRANCH  47  49
ENDBRANCH  46  47
ENDBRANCH  45  46
ENDBRANCH  11  45
BRANCH  18  51
HETATM   51  C   UNK     0     -29.716  18.492   5.554  0.00  0.00     0.051 C 
BRANCH  51  52
HETATM   52  C   UNK     0     -31.195  18.337   5.876  0.00  0.00     0.114 C 
BRANCH  52  53
HETATM   53  C   UNK     0     -31.934  17.697   4.770  0.00  0.00     0.139 C 
HETATM   54  O   UNK     0     -31.756  18.076   3.602  0.00  0.00    -0.650 OA
BRANCH  53  55
HETATM   55  O   UNK     0     -32.820  16.683   5.042  0.00  0.00    -0.776 OA
HETATM   56  H   UNK     0     -32.590  15.788   5.405  0.00  0.00     0.167 HD
ENDBRANCH  53  55
ENDBRANCH  52  53
ENDBRANCH  51  52
ENDBRANCH  18  51
TORSDOF 16
ENDMDL
MODEL 19
REMARK VINA RESULT:      -8.7     30.493     33.139
REMARK  16 active torsions:
REMARK  status: ('A' for Active; 'I' for Inactive)
REMARK    1  A    between atoms: C_6  and  C_7 
REMARK    2  A    between atoms: C_7  and  C_8 
REMARK    3  A    between atoms: C_8  and  C_9 
REMARK    4  A    between atoms: C_9  and  O_11 
REMARK    5  A    between atoms: C_16  and  C_17 
REMARK    6  A    between atoms: C_17  and  C_18 
REMARK    7  A    between atoms: C_18  and  C_19 
REMARK    8  A    between atoms: C_19  and  O_21 
REMARK    9  A    between atoms: C_28  and  C_29 
REMARK   10  A    between atoms: C_29  and  C_30 
REMARK   11  A    between atoms: C_30  and  C_31 
REMARK   12  A    between atoms: C_31  and  O_33 
REMARK   13  A    between atoms: C_42  and  C_43 
REMARK   14  A    between atoms: C_43  and  C_44 
REMARK   15  A    between atoms: C_44  and  C_45 
REMARK   16  A    between atoms: C_45  and  O_47 
ROOT
HETATM    1  C   UNK     0     -21.051  16.771  12.249  0.00  0.00     0.051 C 
HETATM    2  C   UNK     0     -21.990  17.221  11.148  0.00  0.00    -0.031 A 
HETATM    3  C   UNK     0     -22.132  16.733   9.859  0.00  0.00     0.021 A 
HETATM    4  N   UNK     0     -23.073  17.460   9.212  0.00  0.00    -0.361 N 
HETATM    5  C   UNK     0     -23.540  18.396  10.064  0.00  0.00     0.022 A 
HETATM    6  C   UNK     0     -22.882  18.276  11.284  0.00  0.00    -0.027 A 
HETATM    7  C   UNK     0     -24.647  19.387   9.877  0.00  0.00     0.115 C 
HETATM    8  C   UNK     0     -25.906  18.881   9.196  0.00  0.00     0.021 A 
HETATM    9  N   UNK     0     -26.480  17.671   9.292  0.00  0.00    -0.361 N 
HETATM   10  C   UNK     0     -27.529  17.637   8.442  0.00  0.00     0.022 A 
HETATM   11  C   UNK     0     -27.639  18.860   7.788  0.00  0.00    -0.027 A 
HETATM   12  C   UNK     0     -26.620  19.649   8.259  0.00  0.00    -0.031 A 
HETATM   13  C   UNK     0     -26.349  21.074   7.832  0.00  0.00     0.051 C 
HETATM   14  C   UNK     0     -28.432  16.436   8.174  0.00  0.00     0.115 C 
HETATM   15  C   UNK     0     -27.700  15.227   7.615  0.00  0.00     0.021 A 
HETATM   16  N   UNK     0     -26.677  14.555   8.175  0.00  0.00    -0.361 N 
HETATM   17  C   UNK     0     -26.268  13.600   7.337  0.00  0.00     0.022 A 
HETATM   18  C   UNK     0     -27.070  13.645   6.179  0.00  0.00    -0.027 A 
HETATM   19  C   UNK     0     -27.964  14.667   6.367  0.00  0.00    -0.031 A 
HETATM   20  C   UNK     0     -29.044  15.038   5.366  0.00  0.00     0.051 C 
HETATM   21  C   UNK     0     -25.118  12.627   7.459  0.00  0.00     0.115 C 
HETATM   22  C   UNK     0     -23.874  13.102   8.173  0.00  0.00     0.022 A 
HETATM   23  N   UNK     0     -23.283  14.302   8.100  0.00  0.00    -0.361 N 
HETATM   24  C   UNK     0     -22.290  14.340   9.011  0.00  0.00     0.021 A 
HETATM   25  C   UNK     0     -22.233  13.133   9.679  0.00  0.00    -0.031 A 
HETATM   26  C   UNK     0     -21.267  12.683  10.755  0.00  0.00     0.051 C 
HETATM   27  C   UNK     0     -23.238  12.324   9.161  0.00  0.00    -0.027 A 
HETATM   28  C   UNK     0     -21.398  15.518   9.364  0.00  0.00     0.115 C 
HETATM   29  H   UNK     0     -23.372  17.334   8.146  0.00  0.00     0.165 HD
HETATM   30  H   UNK     0     -26.178  16.857   9.994  0.00  0.00     0.165 HD
HETATM   31  H   UNK     0     -26.264  14.727   9.203  0.00  0.00     0.165 HD
HETATM   32  H   UNK     0     -23.534  15.119   7.374  0.00  0.00     0.165 HD
ENDROOT
BRANCH   6  33
HETATM   33  C   UNK     0     -23.033  19.080  12.551  0.00  0.00     0.051 C 
BRANCH  33  34
HETATM   34  C   UNK     0     -22.236  20.360  12.471  0.00  0.00     0.114 C 
BRANCH  34  35
HETATM   35  C   UNK     0     -22.800  21.301  13.480  0.00  0.00     0.139 C 
HETATM   36  O   UNK     0     -22.873  22.539  13.226  0.00  0.00    -0.650 OA
BRANCH  35  37
HETATM   37  O   UNK     0     -23.266  20.880  14.719  0.00  0.00    -0.776 OA
HETATM   38  H   UNK     0     -24.191  20.501  14.842  0.00  0.00     0.167 HD
ENDBRANCH  35  37
ENDBRANCH  34  35
ENDBRANCH  33  34
ENDBRANCH   6  33
BRANCH  27  39
HETATM   39  C   UNK     0     -23.443  10.912   9.586  0.00  0.00     0.051 C 
BRANCH  39  40
HETATM   40  C   UNK     0     -24.573  10.609  10.463  0.00  0.00     0.114 C 
BRANCH  40  41
HETATM   41  C   UNK     0     -24.428  10.498  11.897  0.00  0.00     0.139 C 
HETATM   42  O   UNK     0     -23.345  10.617  12.486  0.00  0.00    -0.650 OA
BRANCH  41  43
HETATM   43  O   UNK     0     -25.581  10.237  12.690  0.00  0.00    -0.776 OA
HETATM   44  H   UNK     0     -26.397  10.782  12.436  0.00  0.00     0.167 HD
ENDBRANCH  41  43
ENDBRANCH  40  41
ENDBRANCH  39  40
ENDBRANCH  27  39
BRANCH  11  45
HETATM   45  C   UNK     0     -28.653  19.293   6.764  0.00  0.00     0.051 C 
BRANCH  45  46
HETATM   46  C   UNK     0     -28.540  18.584   5.463  0.00  0.00     0.114 C 
BRANCH  46  47
HETATM   47  C   UNK     0     -29.908  18.527   4.872  0.00  0.00     0.139 C 
HETATM   48  O   UNK     0     -30.020  18.510   3.638  0.00  0.00    -0.650 OA
BRANCH  47  49
HETATM   49  O   UNK     0     -31.020  18.493   5.675  0.00  0.00    -0.776 OA
HETATM   50  H   UNK     0     -31.096  17.853   6.474  0.00  0.00     0.167 HD
ENDBRANCH  47  49
ENDBRANCH  46  47
ENDBRANCH  45  46
ENDBRANCH  11  45
BRANCH  18  51
HETATM   51  C   UNK     0     -27.003  12.749   4.970  0.00  0.00     0.051 C 
BRANCH  51  52
HETATM   52  C   UNK     0     -28.040  11.658   5.189  0.00  0.00     0.114 C 
BRANCH  52  53
HETATM   53  C   UNK     0     -27.427  10.407   5.678  0.00  0.00     0.139 C 
HETATM   54  O   UNK     0     -26.324  10.043   5.239  0.00  0.00    -0.650 OA
BRANCH  53  55
HETATM   55  O   UNK     0     -28.086   9.649   6.615  0.00  0.00    -0.776 OA
HETATM   56  H   UNK     0     -29.070   9.543   6.694  0.00  0.00     0.167 HD
ENDBRANCH  53  55
ENDBRANCH  52  53
ENDBRANCH  51  52
ENDBRANCH  18  51
TORSDOF 16
ENDMDL
MODEL 20
REMARK VINA RESULT:      -8.7     31.372     34.441
REMARK  16 active torsions:
REMARK  status: ('A' for Active; 'I' for Inactive)
REMARK    1  A    between atoms: C_6  and  C_7 
REMARK    2  A    between atoms: C_7  and  C_8 
REMARK    3  A    between atoms: C_8  and  C_9 
REMARK    4  A    between atoms: C_9  and  O_11 
REMARK    5  A    between atoms: C_16  and  C_17 
REMARK    6  A    between atoms: C_17  and  C_18 
REMARK    7  A    between atoms: C_18  and  C_19 
REMARK    8  A    between atoms: C_19  and  O_21 
REMARK    9  A    between atoms: C_28  and  C_29 
REMARK   10  A    between atoms: C_29  and  C_30 
REMARK   11  A    between atoms: C_30  and  C_31 
REMARK   12  A    between atoms: C_31  and  O_33 
REMARK   13  A    between atoms: C_42  and  C_43 
REMARK   14  A    between atoms: C_43  and  C_44 
REMARK   15  A    between atoms: C_44  and  C_45 
REMARK   16  A    between atoms: C_45  and  O_47 
ROOT
HETATM    1  C   UNK     0     -24.525  19.546  10.037  0.00  0.00     0.051 C 
HETATM    2  C   UNK     0     -24.985  18.118   9.825  0.00  0.00    -0.031 A 
HETATM    3  C   UNK     0     -26.264  17.629   9.609  0.00  0.00     0.021 A 
HETATM    4  N   UNK     0     -26.208  16.280   9.504  0.00  0.00    -0.361 N 
HETATM    5  C   UNK     0     -24.921  15.899   9.641  0.00  0.00     0.022 A 
HETATM    6  C   UNK     0     -24.129  17.024   9.845  0.00  0.00    -0.027 A 
HETATM    7  C   UNK     0     -24.312  14.538   9.513  0.00  0.00     0.115 C 
HETATM    8  C   UNK     0     -24.807  13.674   8.367  0.00  0.00     0.021 A 
HETATM    9  N   UNK     0     -25.173  14.052   7.132  0.00  0.00    -0.361 N 
HETATM   10  C   UNK     0     -25.632  12.964   6.479  0.00  0.00     0.022 A 
HETATM   11  C   UNK     0     -25.551  11.852   7.312  0.00  0.00    -0.027 A 
HETATM   12  C   UNK     0     -25.033  12.293   8.503  0.00  0.00    -0.031 A 
HETATM   13  C   UNK     0     -24.762  11.426   9.712  0.00  0.00     0.051 C 
HETATM   14  C   UNK     0     -26.212  12.938   5.067  0.00  0.00     0.115 C 
HETATM   15  C   UNK     0     -27.455  13.796   4.897  0.00  0.00     0.021 A 
HETATM   16  N   UNK     0     -27.577  15.119   5.113  0.00  0.00    -0.361 N 
HETATM   17  C   UNK     0     -28.847  15.481   4.918  0.00  0.00     0.022 A 
HETATM   18  C   UNK     0     -29.587  14.340   4.548  0.00  0.00    -0.027 A 
HETATM   19  C   UNK     0     -28.704  13.292   4.538  0.00  0.00    -0.031 A 
HETATM   20  C   UNK     0     -29.083  11.873   4.154  0.00  0.00     0.051 C 
HETATM   21  C   UNK     0     -29.513  16.826   5.099  0.00  0.00     0.115 C 
HETATM   22  C   UNK     0     -29.001  17.714   6.209  0.00  0.00     0.022 A 
HETATM   23  N   UNK     0     -28.626  17.364   7.446  0.00  0.00    -0.361 N 
HETATM   24  C   UNK     0     -28.100  18.448   8.052  0.00  0.00     0.021 A 
HETATM   25  C   UNK     0     -28.146  19.524   7.187  0.00  0.00    -0.031 A 
HETATM   26  C   UNK     0     -27.714  20.956   7.423  0.00  0.00     0.051 C 
HETATM   27  C   UNK     0     -28.719  19.079   6.001  0.00  0.00    -0.027 A 
HETATM   28  C   UNK     0     -27.456  18.524   9.426  0.00  0.00     0.115 C 
HETATM   29  H   UNK     0     -27.084  15.602   9.375  0.00  0.00     0.165 HD
HETATM   30  H   UNK     0     -25.061  15.078   6.702  0.00  0.00     0.165 HD
HETATM   31  H   UNK     0     -26.739  15.822   5.361  0.00  0.00     0.165 HD
HETATM   32  H   UNK     0     -28.769  16.358   7.920  0.00  0.00     0.165 HD
ENDROOT
BRANCH   6  33
HETATM   33  C   UNK     0     -22.641  17.137  10.059  0.00  0.00     0.051 C 
BRANCH  33  34
HETATM   34  C   UNK     0     -22.246  16.552  11.394  0.00  0.00     0.114 C 
BRANCH  34  35
HETATM   35  C   UNK     0     -22.430  17.618  12.420  0.00  0.00     0.139 C 
HETATM   36  O   UNK     0     -21.820  18.721  12.309  0.00  0.00    -0.650 OA
BRANCH  35  37
HETATM   37  O   UNK     0     -23.260  17.461  13.523  0.00  0.00    -0.776 OA
HETATM   38  H   UNK     0     -23.071  17.911  14.404  0.00  0.00     0.167 HD
ENDBRANCH  35  37
ENDBRANCH  34  35
ENDBRANCH  33  34
ENDBRANCH   6  33
BRANCH  27  39
HETATM   39  C   UNK     0     -29.001  19.979   4.849  0.00  0.00     0.051 C 
BRANCH  39  40
HETATM   40  C   UNK     0     -30.395  20.299   4.544  0.00  0.00     0.114 C 
BRANCH  40  41
HETATM   41  C   UNK     0     -30.998  19.981   3.269  0.00  0.00     0.139 C 
HETATM   42  O   UNK     0     -31.509  18.883   3.010  0.00  0.00    -0.650 OA
BRANCH  41  43
HETATM   43  O   UNK     0     -31.013  20.970   2.245  0.00  0.00    -0.776 OA
HETATM   44  H   UNK     0     -30.110  21.387   2.052  0.00  0.00     0.167 HD
ENDBRANCH  41  43
ENDBRANCH  40  41
ENDBRANCH  39  40
ENDBRANCH  27  39
BRANCH  11  45
HETATM   45  C   UNK     0     -25.938  10.427   7.021  0.00  0.00     0.051 C 
BRANCH  45  46
HETATM   46  C   UNK     0     -27.389  10.231   6.772  0.00  0.00     0.114 C 
BRANCH  46  47
HETATM   47  C   UNK     0     -28.111  10.680   7.997  0.00  0.00     0.139 C 
HETATM   48  O   UNK     0     -27.954  10.039   9.046  0.00  0.00    -0.650 OA
BRANCH  47  49
HETATM   49  O   UNK     0     -28.934  11.777   7.965  0.00  0.00    -0.776 OA
HETATM   50  H   UNK     0     -29.770  11.815   7.370  0.00  0.00     0.167 HD
ENDBRANCH  47  49
ENDBRANCH  46  47
ENDBRANCH  45  46
ENDBRANCH  11  45
BRANCH  18  51
HETATM   51  C   UNK     0     -31.051  14.258   4.204  0.00  0.00     0.051 C 
BRANCH  51  52
HETATM   52  C   UNK     0     -31.804  14.325   5.524  0.00  0.00     0.114 C 
BRANCH  52  53
HETATM   53  C   UNK     0     -32.133  12.981   6.038  0.00  0.00     0.139 C 
HETATM   54  O   UNK     0     -32.854  12.220   5.372  0.00  0.00    -0.650 OA
BRANCH  53  55
HETATM   55  O   UNK     0     -31.641  12.580   7.256  0.00  0.00    -0.776 OA
HETATM   56  H   UNK     0     -31.740  11.677   7.657  0.00  0.00     0.167 HD
ENDBRANCH  53  55
ENDBRANCH  52  53
ENDBRANCH  51  52
ENDBRANCH  18  51
TORSDOF 16
ENDMDL
