MODEL 1
REMARK VINA RESULT:      -9.8      0.000      0.000
REMARK  16 active torsions:
REMARK  status: ('A' for Active; 'I' for Inactive)
REMARK    1  A    between atoms: C_6  and  C_7 
REMARK    2  A    between atoms: C_7  and  C_8 
REMARK    3  A    between atoms: C_8  and  C_9 
REMARK    4  A    between atoms: C_9  and  O_11 
REMARK    5  A    between atoms: C_16  and  C_17 
REMARK    6  A    between atoms: C_17  and  C_18 
REMARK    7  A    between atoms: C_18  and  C_19 
REMARK    8  A    between atoms: C_19  and  O_21 
REMARK    9  A    between atoms: C_28  and  C_29 
REMARK   10  A    between atoms: C_29  and  C_30 
REMARK   11  A    between atoms: C_30  and  C_31 
REMARK   12  A    between atoms: C_31  and  O_33 
REMARK   13  A    between atoms: C_42  and  C_43 
REMARK   14  A    between atoms: C_43  and  C_44 
REMARK   15  A    between atoms: C_44  and  C_45 
REMARK   16  A    between atoms: C_45  and  O_47 
ROOT
HETATM    1  C   UNK     0     -23.580 -26.099  19.338  0.00  0.00     0.051 C 
HETATM    2  C   UNK     0     -23.726 -24.957  20.324  0.00  0.00    -0.031 A 
HETATM    3  C   UNK     0     -23.610 -24.967  21.705  0.00  0.00     0.021 A 
HETATM    4  N   UNK     0     -23.853 -23.721  22.177  0.00  0.00    -0.361 N 
HETATM    5  C   UNK     0     -24.113 -22.916  21.126  0.00  0.00     0.022 A 
HETATM    6  C   UNK     0     -24.045 -23.658  19.951  0.00  0.00    -0.027 A 
HETATM    7  C   UNK     0     -24.351 -21.439  21.095  0.00  0.00     0.115 C 
HETATM    8  C   UNK     0     -23.450 -20.584  21.969  0.00  0.00     0.021 A 
HETATM    9  N   UNK     0     -22.151 -20.762  22.255  0.00  0.00    -0.361 N 
HETATM   10  C   UNK     0     -21.784 -19.814  23.144  0.00  0.00     0.022 A 
HETATM   11  C   UNK     0     -22.874 -18.998  23.431  0.00  0.00    -0.027 A 
HETATM   12  C   UNK     0     -23.927 -19.478  22.693  0.00  0.00    -0.031 A 
HETATM   13  C   UNK     0     -25.323 -18.896  22.682  0.00  0.00     0.051 C 
HETATM   14  C   UNK     0     -20.412 -19.673  23.797  0.00  0.00     0.115 C 
HETATM   15  C   UNK     0     -19.998 -20.877  24.627  0.00  0.00     0.021 A 
HETATM   16  N   UNK     0     -19.868 -22.153  24.217  0.00  0.00    -0.361 N 
HETATM   17  C   UNK     0     -19.556 -22.921  25.264  0.00  0.00     0.022 A 
HETATM   18  C   UNK     0     -19.470 -22.105  26.409  0.00  0.00    -0.027 A 
HETATM   19  C   UNK     0     -19.748 -20.827  25.997  0.00  0.00    -0.031 A 
HETATM   20  C   UNK     0     -19.728 -19.620  26.917  0.00  0.00     0.051 C 
HETATM   21  C   UNK     0     -19.373 -24.419  25.350  0.00  0.00     0.115 C 
HETATM   22  C   UNK     0     -20.233 -25.279  24.454  0.00  0.00     0.022 A 
HETATM   23  N   UNK     0     -21.528 -25.124  24.147  0.00  0.00    -0.361 N 
HETATM   24  C   UNK     0     -21.851 -26.030  23.202  0.00  0.00     0.021 A 
HETATM   25  C   UNK     0     -20.740 -26.794  22.900  0.00  0.00    -0.031 A 
HETATM   26  C   UNK     0     -20.615 -27.956  21.937  0.00  0.00     0.051 C 
HETATM   27  C   UNK     0     -19.692 -26.332  23.689  0.00  0.00    -0.027 A 
HETATM   28  C   UNK     0     -23.176 -26.182  22.475  0.00  0.00     0.115 C 
HETATM   29  H   UNK     0     -23.878 -23.428  23.252  0.00  0.00     0.165 HD
HETATM   30  H   UNK     0     -21.477 -21.525  21.794  0.00  0.00     0.165 HD
HETATM   31  H   UNK     0     -19.950 -22.513  23.158  0.00  0.00     0.165 HD
HETATM   32  H   UNK     0     -22.237 -24.401  24.627  0.00  0.00     0.165 HD
ENDROOT
BRANCH   6  33
HETATM   33  C   UNK     0     -24.260 -23.232  18.521  0.00  0.00     0.051 C 
BRANCH  33  34
HETATM   34  C   UNK     0     -22.958 -22.795  17.892  0.00  0.00     0.114 C 
BRANCH  34  35
HETATM   35  C   UNK     0     -23.215 -21.510  17.180  0.00  0.00     0.139 C 
HETATM   36  O   UNK     0     -22.729 -21.312  16.028  0.00  0.00    -0.650 OA
BRANCH  35  37
HETATM   37  O   UNK     0     -23.984 -20.490  17.728  0.00  0.00    -0.776 OA
HETATM   38  H   UNK     0     -24.748 -20.676  18.357  0.00  0.00     0.167 HD
ENDBRANCH  35  37
ENDBRANCH  34  35
ENDBRANCH  33  34
ENDBRANCH   6  33
BRANCH  27  39
HETATM   39  C   UNK     0     -18.343 -26.961  23.693  0.00  0.00     0.051 C 
BRANCH  39  40
HETATM   40  C   UNK     0     -17.923 -27.693  24.888  0.00  0.00     0.114 C 
BRANCH  40  41
HETATM   41  C   UNK     0     -17.039 -27.115  25.875  0.00  0.00     0.139 C 
HETATM   42  O   UNK     0     -16.203 -26.239  25.614  0.00  0.00    -0.650 OA
BRANCH  41  43
HETATM   43  O   UNK     0     -17.119 -27.566  27.223  0.00  0.00    -0.776 OA
HETATM   44  H   UNK     0     -16.377 -27.225  27.823  0.00  0.00     0.167 HD
ENDBRANCH  41  43
ENDBRANCH  40  41
ENDBRANCH  39  40
ENDBRANCH  27  39
BRANCH  11  45
HETATM   45  C   UNK     0     -22.945 -17.811  24.353  0.00  0.00     0.051 C 
BRANCH  45  46
HETATM   46  C   UNK     0     -22.595 -16.520  23.707  0.00  0.00     0.114 C 
BRANCH  46  47
HETATM   47  C   UNK     0     -23.413 -15.461  24.365  0.00  0.00     0.139 C 
HETATM   48  O   UNK     0     -24.473 -15.789  24.917  0.00  0.00    -0.650 OA
BRANCH  47  49
HETATM   49  O   UNK     0     -23.004 -14.152  24.358  0.00  0.00    -0.776 OA
HETATM   50  H   UNK     0     -22.138 -13.853  23.895  0.00  0.00     0.167 HD
ENDBRANCH  47  49
ENDBRANCH  46  47
ENDBRANCH  45  46
ENDBRANCH  11  45
BRANCH  18  51
HETATM   51  C   UNK     0     -19.121 -22.517  27.816  0.00  0.00     0.051 C 
BRANCH  51  52
HETATM   52  C   UNK     0     -17.631 -22.258  27.979  0.00  0.00     0.114 C 
BRANCH  52  53
HETATM   53  C   UNK     0     -16.828 -23.456  27.667  0.00  0.00     0.139 C 
HETATM   54  O   UNK     0     -17.142 -24.557  28.148  0.00  0.00    -0.650 OA
BRANCH  53  55
HETATM   55  O   UNK     0     -15.731 -23.345  26.848  0.00  0.00    -0.776 OA
HETATM   56  H   UNK     0     -15.085 -24.069  26.635  0.00  0.00     0.167 HD
ENDBRANCH  53  55
ENDBRANCH  52  53
ENDBRANCH  51  52
ENDBRANCH  18  51
TORSDOF 16
ENDMDL
MODEL 2
REMARK VINA RESULT:      -9.6      2.369      7.666
REMARK  16 active torsions:
REMARK  status: ('A' for Active; 'I' for Inactive)
REMARK    1  A    between atoms: C_6  and  C_7 
REMARK    2  A    between atoms: C_7  and  C_8 
REMARK    3  A    between atoms: C_8  and  C_9 
REMARK    4  A    between atoms: C_9  and  O_11 
REMARK    5  A    between atoms: C_16  and  C_17 
REMARK    6  A    between atoms: C_17  and  C_18 
REMARK    7  A    between atoms: C_18  and  C_19 
REMARK    8  A    between atoms: C_19  and  O_21 
REMARK    9  A    between atoms: C_28  and  C_29 
REMARK   10  A    between atoms: C_29  and  C_30 
REMARK   11  A    between atoms: C_30  and  C_31 
REMARK   12  A    between atoms: C_31  and  O_33 
REMARK   13  A    between atoms: C_42  and  C_43 
REMARK   14  A    between atoms: C_43  and  C_44 
REMARK   15  A    between atoms: C_44  and  C_45 
REMARK   16  A    between atoms: C_45  and  O_47 
ROOT
HETATM    1  C   UNK     0     -19.396 -24.525  25.725  0.00  0.00     0.051 C 
HETATM    2  C   UNK     0     -19.712 -23.171  25.123  0.00  0.00    -0.031 A 
HETATM    3  C   UNK     0     -19.967 -22.833  23.803  0.00  0.00     0.021 A 
HETATM    4  N   UNK     0     -20.169 -21.496  23.721  0.00  0.00    -0.361 N 
HETATM    5  C   UNK     0     -20.057 -20.977  24.961  0.00  0.00     0.022 A 
HETATM    6  C   UNK     0     -19.769 -21.996  25.862  0.00  0.00    -0.027 A 
HETATM    7  C   UNK     0     -20.281 -19.572  25.428  0.00  0.00     0.115 C 
HETATM    8  C   UNK     0     -21.488 -18.849  24.858  0.00  0.00     0.021 A 
HETATM    9  N   UNK     0     -22.693 -19.350  24.547  0.00  0.00    -0.361 N 
HETATM   10  C   UNK     0     -23.425 -18.365  23.985  0.00  0.00     0.022 A 
HETATM   11  C   UNK     0     -22.674 -17.194  23.942  0.00  0.00    -0.027 A 
HETATM   12  C   UNK     0     -21.453 -17.492  24.491  0.00  0.00    -0.031 A 
HETATM   13  C   UNK     0     -20.309 -16.517  24.659  0.00  0.00     0.051 C 
HETATM   14  C   UNK     0     -24.836 -18.500  23.419  0.00  0.00     0.115 C 
HETATM   15  C   UNK     0     -24.947 -19.492  22.272  0.00  0.00     0.021 A 
HETATM   16  N   UNK     0     -24.636 -20.802  22.286  0.00  0.00    -0.361 N 
HETATM   17  C   UNK     0     -24.808 -21.306  21.062  0.00  0.00     0.022 A 
HETATM   18  C   UNK     0     -25.261 -20.277  20.212  0.00  0.00    -0.027 A 
HETATM   19  C   UNK     0     -25.346 -19.147  20.983  0.00  0.00    -0.031 A 
HETATM   20  C   UNK     0     -25.832 -17.806  20.464  0.00  0.00     0.051 C 
HETATM   21  C   UNK     0     -24.531 -22.696  20.535  0.00  0.00     0.115 C 
HETATM   22  C   UNK     0     -23.359 -23.444  21.125  0.00  0.00     0.022 A 
HETATM   23  N   UNK     0     -22.149 -22.970  21.449  0.00  0.00    -0.361 N 
HETATM   24  C   UNK     0     -21.465 -23.947  22.077  0.00  0.00     0.021 A 
HETATM   25  C   UNK     0     -22.250 -25.082  22.151  0.00  0.00    -0.031 A 
HETATM   26  C   UNK     0     -21.909 -26.441  22.726  0.00  0.00     0.051 C 
HETATM   27  C   UNK     0     -23.467 -24.785  21.547  0.00  0.00    -0.027 A 
HETATM   28  C   UNK     0     -20.088 -23.858  22.711  0.00  0.00     0.115 C 
HETATM   29  H   UNK     0     -20.350 -20.924  22.782  0.00  0.00     0.165 HD
HETATM   30  H   UNK     0     -23.048 -20.387  24.767  0.00  0.00     0.165 HD
HETATM   31  H   UNK     0     -24.335 -21.395  23.188  0.00  0.00     0.165 HD
HETATM   32  H   UNK     0     -21.751 -21.952  21.198  0.00  0.00     0.165 HD
ENDROOT
BRANCH   6  33
HETATM   33  C   UNK     0     -19.544 -21.939  27.352  0.00  0.00     0.051 C 
BRANCH  33  34
HETATM   34  C   UNK     0     -18.069 -21.858  27.667  0.00  0.00     0.114 C 
BRANCH  34  35
HETATM   35  C   UNK     0     -17.852 -20.620  28.470  0.00  0.00     0.139 C 
HETATM   36  O   UNK     0     -17.659 -20.695  29.718  0.00  0.00    -0.650 OA
BRANCH  35  37
HETATM   37  O   UNK     0     -17.847 -19.351  27.903  0.00  0.00    -0.776 OA
HETATM   38  H   UNK     0     -18.482 -19.092  27.165  0.00  0.00     0.167 HD
ENDBRANCH  35  37
ENDBRANCH  34  35
ENDBRANCH  33  34
ENDBRANCH   6  33
BRANCH  27  39
HETATM   39  C   UNK     0     -24.551 -25.789  21.371  0.00  0.00     0.051 C 
BRANCH  39  40
HETATM   40  C   UNK     0     -25.554 -25.920  22.427  0.00  0.00     0.114 C 
BRANCH  40  41
HETATM   41  C   UNK     0     -26.047 -24.781  23.167  0.00  0.00     0.139 C 
HETATM   42  O   UNK     0     -25.519 -24.358  24.205  0.00  0.00    -0.650 OA
BRANCH  41  43
HETATM   43  O   UNK     0     -27.202 -24.096  22.693  0.00  0.00    -0.776 OA
HETATM   44  H   UNK     0     -27.787 -24.641  22.071  0.00  0.00     0.167 HD
ENDBRANCH  41  43
ENDBRANCH  40  41
ENDBRANCH  39  40
ENDBRANCH  27  39
BRANCH  11  45
HETATM   45  C   UNK     0     -23.069 -15.841  23.414  0.00  0.00     0.051 C 
BRANCH  45  46
HETATM   46  C   UNK     0     -24.345 -15.323  23.969  0.00  0.00     0.114 C 
BRANCH  46  47
HETATM   47  C   UNK     0     -24.040 -14.742  25.309  0.00  0.00     0.139 C 
HETATM   48  O   UNK     0     -23.090 -13.954  25.410  0.00  0.00    -0.650 OA
BRANCH  47  49
HETATM   49  O   UNK     0     -24.794 -15.074  26.406  0.00  0.00    -0.776 OA
HETATM   50  H   UNK     0     -24.715 -14.567  27.296  0.00  0.00     0.167 HD
ENDBRANCH  47  49
ENDBRANCH  46  47
ENDBRANCH  45  46
ENDBRANCH  11  45
BRANCH  18  51
HETATM   51  C   UNK     0     -25.615 -20.371  18.750  0.00  0.00     0.051 C 
BRANCH  51  52
HETATM   52  C   UNK     0     -24.538 -19.603  18.001  0.00  0.00     0.114 C 
BRANCH  52  53
HETATM   53  C   UNK     0     -23.648 -20.503  17.241  0.00  0.00     0.139 C 
HETATM   54  O   UNK     0     -23.875 -21.723  17.214  0.00  0.00    -0.650 OA
BRANCH  53  55
HETATM   55  O   UNK     0     -22.568 -19.983  16.571  0.00  0.00    -0.776 OA
HETATM   56  H   UNK     0     -21.977 -20.477  15.943  0.00  0.00     0.167 HD
ENDBRANCH  53  55
ENDBRANCH  52  53
ENDBRANCH  51  52
ENDBRANCH  18  51
TORSDOF 16
ENDMDL
MODEL 3
REMARK VINA RESULT:      -9.4      3.889      8.856
REMARK  16 active torsions:
REMARK  status: ('A' for Active; 'I' for Inactive)
REMARK    1  A    between atoms: C_6  and  C_7 
REMARK    2  A    between atoms: C_7  and  C_8 
REMARK    3  A    between atoms: C_8  and  C_9 
REMARK    4  A    between atoms: C_9  and  O_11 
REMARK    5  A    between atoms: C_16  and  C_17 
REMARK    6  A    between atoms: C_17  and  C_18 
REMARK    7  A    between atoms: C_18  and  C_19 
REMARK    8  A    between atoms: C_19  and  O_21 
REMARK    9  A    between atoms: C_28  and  C_29 
REMARK   10  A    between atoms: C_29  and  C_30 
REMARK   11  A    between atoms: C_30  and  C_31 
REMARK   12  A    between atoms: C_31  and  O_33 
REMARK   13  A    between atoms: C_42  and  C_43 
REMARK   14  A    between atoms: C_43  and  C_44 
REMARK   15  A    between atoms: C_44  and  C_45 
REMARK   16  A    between atoms: C_45  and  O_47 
ROOT
HETATM    1  C   UNK     0     -25.231 -20.744  17.340  0.00  0.00     0.051 C 
HETATM    2  C   UNK     0     -24.286 -21.928  17.321  0.00  0.00    -0.031 A 
HETATM    3  C   UNK     0     -23.204 -22.203  18.142  0.00  0.00     0.021 A 
HETATM    4  N   UNK     0     -22.628 -23.361  17.740  0.00  0.00    -0.361 N 
HETATM    5  C   UNK     0     -23.325 -23.834  16.686  0.00  0.00     0.022 A 
HETATM    6  C   UNK     0     -24.367 -22.960  16.396  0.00  0.00    -0.027 A 
HETATM    7  C   UNK     0     -23.160 -25.118  15.935  0.00  0.00     0.115 C 
HETATM    8  C   UNK     0     -22.902 -26.364  16.764  0.00  0.00     0.021 A 
HETATM    9  N   UNK     0     -23.392 -26.681  17.973  0.00  0.00    -0.361 N 
HETATM   10  C   UNK     0     -22.820 -27.839  18.367  0.00  0.00     0.022 A 
HETATM   11  C   UNK     0     -21.944 -28.284  17.381  0.00  0.00    -0.027 A 
HETATM   12  C   UNK     0     -21.991 -27.360  16.368  0.00  0.00    -0.031 A 
HETATM   13  C   UNK     0     -21.202 -27.434  15.081  0.00  0.00     0.051 C 
HETATM   14  C   UNK     0     -23.035 -28.540  19.705  0.00  0.00     0.115 C 
HETATM   15  C   UNK     0     -22.621 -27.710  20.909  0.00  0.00     0.021 A 
HETATM   16  N   UNK     0     -23.085 -26.498  21.269  0.00  0.00    -0.361 N 
HETATM   17  C   UNK     0     -22.419 -26.076  22.346  0.00  0.00     0.022 A 
HETATM   18  C   UNK     0     -21.483 -27.064  22.711  0.00  0.00    -0.027 A 
HETATM   19  C   UNK     0     -21.621 -28.083  21.804  0.00  0.00    -0.031 A 
HETATM   20  C   UNK     0     -20.820 -29.371  21.853  0.00  0.00     0.051 C 
HETATM   21  C   UNK     0     -22.507 -24.764  23.091  0.00  0.00     0.115 C 
HETATM   22  C   UNK     0     -22.808 -23.522  22.285  0.00  0.00     0.022 A 
HETATM   23  N   UNK     0     -22.337 -23.183  21.078  0.00  0.00    -0.361 N 
HETATM   24  C   UNK     0     -22.978 -22.068  20.672  0.00  0.00     0.021 A 
HETATM   25  C   UNK     0     -23.876 -21.675  21.645  0.00  0.00    -0.031 A 
HETATM   26  C   UNK     0     -24.791 -20.468  21.667  0.00  0.00     0.051 C 
HETATM   27  C   UNK     0     -23.785 -22.590  22.688  0.00  0.00    -0.027 A 
HETATM   28  C   UNK     0     -22.853 -21.359  19.334  0.00  0.00     0.115 C 
HETATM   29  H   UNK     0     -21.709 -23.816  18.179  0.00  0.00     0.165 HD
HETATM   30  H   UNK     0     -24.179 -26.116  18.529  0.00  0.00     0.165 HD
HETATM   31  H   UNK     0     -23.932 -25.949  20.782  0.00  0.00     0.165 HD
HETATM   32  H   UNK     0     -21.516 -23.703  20.519  0.00  0.00     0.165 HD
ENDROOT
BRANCH   6  33
HETATM   33  C   UNK     0     -25.419 -23.030  15.318  0.00  0.00     0.051 C 
BRANCH  33  34
HETATM   34  C   UNK     0     -25.119 -22.045  14.213  0.00  0.00     0.114 C 
BRANCH  34  35
HETATM   35  C   UNK     0     -23.952 -22.572  13.450  0.00  0.00     0.139 C 
HETATM   36  O   UNK     0     -24.060 -23.638  12.777  0.00  0.00    -0.650 OA
BRANCH  35  37
HETATM   37  O   UNK     0     -22.717 -21.935  13.436  0.00  0.00    -0.776 OA
HETATM   38  H   UNK     0     -22.252 -21.690  12.577  0.00  0.00     0.167 HD
ENDBRANCH  35  37
ENDBRANCH  34  35
ENDBRANCH  33  34
ENDBRANCH   6  33
BRANCH  27  39
HETATM   39  C   UNK     0     -24.555 -22.455  23.954  0.00  0.00     0.051 C 
BRANCH  39  40
HETATM   40  C   UNK     0     -25.640 -23.402  24.211  0.00  0.00     0.114 C 
BRANCH  40  41
HETATM   41  C   UNK     0     -26.630 -23.729  23.209  0.00  0.00     0.139 C 
HETATM   42  O   UNK     0     -26.482 -24.628  22.370  0.00  0.00    -0.650 OA
BRANCH  41  43
HETATM   43  O   UNK     0     -27.846 -22.989  23.171  0.00  0.00    -0.776 OA
HETATM   44  H   UNK     0     -28.526 -23.334  22.505  0.00  0.00     0.167 HD
ENDBRANCH  41  43
ENDBRANCH  40  41
ENDBRANCH  39  40
ENDBRANCH  27  39
BRANCH  11  45
HETATM   45  C   UNK     0     -21.092 -29.525  17.369  0.00  0.00     0.051 C 
BRANCH  45  46
HETATM   46  C   UNK     0     -21.794 -30.737  16.875  0.00  0.00     0.114 C 
BRANCH  46  47
HETATM   47  C   UNK     0     -20.909 -31.904  17.155  0.00  0.00     0.139 C 
HETATM   48  O   UNK     0     -19.877 -31.720  17.815  0.00  0.00    -0.650 OA
BRANCH  47  49
HETATM   49  O   UNK     0     -21.229 -33.156  16.692  0.00  0.00    -0.776 OA
HETATM   50  H   UNK     0     -21.588 -33.310  15.743  0.00  0.00     0.167 HD
ENDBRANCH  47  49
ENDBRANCH  46  47
ENDBRANCH  45  46
ENDBRANCH  11  45
BRANCH  18  51
HETATM   51  C   UNK     0     -20.524 -27.048  23.873  0.00  0.00     0.051 C 
BRANCH  51  52
HETATM   52  C   UNK     0     -19.297 -26.282  23.403  0.00  0.00     0.114 C 
BRANCH  52  53
HETATM   53  C   UNK     0     -18.080 -27.115  23.442  0.00  0.00     0.139 C 
HETATM   54  O   UNK     0     -17.761 -27.796  22.455  0.00  0.00    -0.650 OA
BRANCH  53  55
HETATM   55  O   UNK     0     -17.306 -27.134  24.577  0.00  0.00    -0.776 OA
HETATM   56  H   UNK     0     -17.033 -27.943  25.084  0.00  0.00     0.167 HD
ENDBRANCH  53  55
ENDBRANCH  52  53
ENDBRANCH  51  52
ENDBRANCH  18  51
TORSDOF 16
ENDMDL
MODEL 4
REMARK VINA RESULT:      -9.4      2.403      7.319
REMARK  16 active torsions:
REMARK  status: ('A' for Active; 'I' for Inactive)
REMARK    1  A    between atoms: C_6  and  C_7 
REMARK    2  A    between atoms: C_7  and  C_8 
REMARK    3  A    between atoms: C_8  and  C_9 
REMARK    4  A    between atoms: C_9  and  O_11 
REMARK    5  A    between atoms: C_16  and  C_17 
REMARK    6  A    between atoms: C_17  and  C_18 
REMARK    7  A    between atoms: C_18  and  C_19 
REMARK    8  A    between atoms: C_19  and  O_21 
REMARK    9  A    between atoms: C_28  and  C_29 
REMARK   10  A    between atoms: C_29  and  C_30 
REMARK   11  A    between atoms: C_30  and  C_31 
REMARK   12  A    between atoms: C_31  and  O_33 
REMARK   13  A    between atoms: C_42  and  C_43 
REMARK   14  A    between atoms: C_43  and  C_44 
REMARK   15  A    between atoms: C_44  and  C_45 
REMARK   16  A    between atoms: C_45  and  O_47 
ROOT
HETATM    1  C   UNK     0     -20.288 -16.228  26.924  0.00  0.00     0.051 C 
HETATM    2  C   UNK     0     -20.974 -16.721  25.667  0.00  0.00    -0.031 A 
HETATM    3  C   UNK     0     -20.550 -17.665  24.745  0.00  0.00     0.021 A 
HETATM    4  N   UNK     0     -21.472 -17.765  23.759  0.00  0.00    -0.361 N 
HETATM    5  C   UNK     0     -22.479 -16.912  24.036  0.00  0.00     0.022 A 
HETATM    6  C   UNK     0     -22.199 -16.240  25.221  0.00  0.00    -0.027 A 
HETATM    7  C   UNK     0     -23.777 -16.705  23.319  0.00  0.00     0.115 C 
HETATM    8  C   UNK     0     -24.503 -17.954  22.849  0.00  0.00     0.021 A 
HETATM    9  N   UNK     0     -24.577 -19.152  23.448  0.00  0.00    -0.361 N 
HETATM   10  C   UNK     0     -25.248 -19.989  22.628  0.00  0.00     0.022 A 
HETATM   11  C   UNK     0     -25.624 -19.309  21.474  0.00  0.00    -0.027 A 
HETATM   12  C   UNK     0     -25.157 -18.025  21.607  0.00  0.00    -0.031 A 
HETATM   13  C   UNK     0     -25.337 -16.921  20.590  0.00  0.00     0.051 C 
HETATM   14  C   UNK     0     -25.514 -21.472  22.875  0.00  0.00     0.115 C 
HETATM   15  C   UNK     0     -24.252 -22.310  23.006  0.00  0.00     0.021 A 
HETATM   16  N   UNK     0     -23.254 -22.160  23.896  0.00  0.00    -0.361 N 
HETATM   17  C   UNK     0     -22.296 -23.051  23.636  0.00  0.00     0.022 A 
HETATM   18  C   UNK     0     -22.692 -23.826  22.528  0.00  0.00    -0.027 A 
HETATM   19  C   UNK     0     -23.920 -23.353  22.143  0.00  0.00    -0.031 A 
HETATM   20  C   UNK     0     -24.729 -23.937  21.000  0.00  0.00     0.051 C 
HETATM   21  C   UNK     0     -20.948 -23.248  24.291  0.00  0.00     0.115 C 
HETATM   22  C   UNK     0     -20.234 -22.019  24.803  0.00  0.00     0.022 A 
HETATM   23  N   UNK     0     -20.147 -20.811  24.230  0.00  0.00    -0.361 N 
HETATM   24  C   UNK     0     -19.543 -19.974  25.097  0.00  0.00     0.021 A 
HETATM   25  C   UNK     0     -19.225 -20.661  26.253  0.00  0.00    -0.031 A 
HETATM   26  C   UNK     0     -18.508 -20.164  27.491  0.00  0.00     0.051 C 
HETATM   27  C   UNK     0     -19.657 -21.972  26.088  0.00  0.00    -0.027 A 
HETATM   28  C   UNK     0     -19.303 -18.483  24.935  0.00  0.00     0.115 C 
HETATM   29  H   UNK     0     -21.387 -18.410  22.853  0.00  0.00     0.165 HD
HETATM   30  H   UNK     0     -24.201 -19.398  24.471  0.00  0.00     0.165 HD
HETATM   31  H   UNK     0     -23.247 -21.441  24.757  0.00  0.00     0.165 HD
HETATM   32  H   UNK     0     -20.472 -20.549  23.189  0.00  0.00     0.165 HD
ENDROOT
BRANCH   6  33
HETATM   33  C   UNK     0     -22.995 -15.188  25.952  0.00  0.00     0.051 C 
BRANCH  33  34
HETATM   34  C   UNK     0     -23.442 -14.101  25.004  0.00  0.00     0.114 C 
BRANCH  34  35
HETATM   35  C   UNK     0     -24.648 -13.457  25.600  0.00  0.00     0.139 C 
HETATM   36  O   UNK     0     -25.806 -13.854  25.280  0.00  0.00    -0.650 OA
BRANCH  35  37
HETATM   37  O   UNK     0     -24.565 -12.416  26.516  0.00  0.00    -0.776 OA
HETATM   38  H   UNK     0     -25.218 -11.649  26.515  0.00  0.00     0.167 HD
ENDBRANCH  35  37
ENDBRANCH  34  35
ENDBRANCH  33  34
ENDBRANCH   6  33
BRANCH  27  39
HETATM   39  C   UNK     0     -19.424 -23.036  27.102  0.00  0.00     0.051 C 
BRANCH  39  40
HETATM   40  C   UNK     0     -20.413 -23.210  28.165  0.00  0.00     0.114 C 
BRANCH  40  41
HETATM   41  C   UNK     0     -20.053 -23.685  29.483  0.00  0.00     0.139 C 
HETATM   42  O   UNK     0     -19.688 -24.846  29.714  0.00  0.00    -0.650 OA
BRANCH  41  43
HETATM   43  O   UNK     0     -20.117 -22.785  30.583  0.00  0.00    -0.776 OA
HETATM   44  H   UNK     0     -20.815 -23.021  31.278  0.00  0.00     0.167 HD
ENDBRANCH  41  43
ENDBRANCH  40  41
ENDBRANCH  39  40
ENDBRANCH  27  39
BRANCH  11  45
HETATM   45  C   UNK     0     -26.391 -19.822  20.286  0.00  0.00     0.051 C 
BRANCH  45  46
HETATM   46  C   UNK     0     -25.647 -19.742  19.003  0.00  0.00     0.114 C 
BRANCH  46  47
HETATM   47  C   UNK     0     -24.973 -21.056  18.800  0.00  0.00     0.139 C 
HETATM   48  O   UNK     0     -25.627 -21.987  18.308  0.00  0.00    -0.650 OA
BRANCH  47  49
HETATM   49  O   UNK     0     -23.659 -21.234  19.150  0.00  0.00    -0.776 OA
HETATM   50  H   UNK     0     -23.262 -22.165  19.326  0.00  0.00     0.167 HD
ENDBRANCH  47  49
ENDBRANCH  46  47
ENDBRANCH  45  46
ENDBRANCH  11  45
BRANCH  18  51
HETATM   51  C   UNK     0     -21.951 -24.969  21.884  0.00  0.00     0.051 C 
BRANCH  51  52
HETATM   52  C   UNK     0     -22.341 -26.219  22.659  0.00  0.00     0.114 C 
BRANCH  52  53
HETATM   53  C   UNK     0     -21.172 -26.860  23.292  0.00  0.00     0.139 C 
HETATM   54  O   UNK     0     -20.028 -26.441  23.054  0.00  0.00    -0.650 OA
BRANCH  53  55
HETATM   55  O   UNK     0     -21.358 -27.924  24.142  0.00  0.00    -0.776 OA
HETATM   56  H   UNK     0     -21.476 -27.871  25.126  0.00  0.00     0.167 HD
ENDBRANCH  53  55
ENDBRANCH  52  53
ENDBRANCH  51  52
ENDBRANCH  18  51
TORSDOF 16
ENDMDL
MODEL 5
REMARK VINA RESULT:      -9.2      2.800      8.442
REMARK  16 active torsions:
REMARK  status: ('A' for Active; 'I' for Inactive)
REMARK    1  A    between atoms: C_6  and  C_7 
REMARK    2  A    between atoms: C_7  and  C_8 
REMARK    3  A    between atoms: C_8  and  C_9 
REMARK    4  A    between atoms: C_9  and  O_11 
REMARK    5  A    between atoms: C_16  and  C_17 
REMARK    6  A    between atoms: C_17  and  C_18 
REMARK    7  A    between atoms: C_18  and  C_19 
REMARK    8  A    between atoms: C_19  and  O_21 
REMARK    9  A    between atoms: C_28  and  C_29 
REMARK   10  A    between atoms: C_29  and  C_30 
REMARK   11  A    between atoms: C_30  and  C_31 
REMARK   12  A    between atoms: C_31  and  O_33 
REMARK   13  A    between atoms: C_42  and  C_43 
REMARK   14  A    between atoms: C_43  and  C_44 
REMARK   15  A    between atoms: C_44  and  C_45 
REMARK   16  A    between atoms: C_45  and  O_47 
ROOT
HETATM    1  C   UNK     0     -23.559 -23.210  21.303  0.00  0.00     0.051 C 
HETATM    2  C   UNK     0     -22.252 -23.436  22.036  0.00  0.00    -0.031 A 
HETATM    3  C   UNK     0     -21.194 -22.563  22.237  0.00  0.00     0.021 A 
HETATM    4  N   UNK     0     -20.217 -23.203  22.922  0.00  0.00    -0.361 N 
HETATM    5  C   UNK     0     -20.633 -24.463  23.169  0.00  0.00     0.022 A 
HETATM    6  C   UNK     0     -21.901 -24.643  22.626  0.00  0.00    -0.027 A 
HETATM    7  C   UNK     0     -19.973 -25.543  23.967  0.00  0.00     0.115 C 
HETATM    8  C   UNK     0     -19.333 -25.127  25.280  0.00  0.00     0.021 A 
HETATM    9  N   UNK     0     -19.748 -24.197  26.154  0.00  0.00    -0.361 N 
HETATM   10  C   UNK     0     -18.822 -24.099  27.132  0.00  0.00     0.022 A 
HETATM   11  C   UNK     0     -17.788 -24.997  26.886  0.00  0.00    -0.027 A 
HETATM   12  C   UNK     0     -18.103 -25.648  25.721  0.00  0.00    -0.031 A 
HETATM   13  C   UNK     0     -17.265 -26.723  25.065  0.00  0.00     0.051 C 
HETATM   14  C   UNK     0     -18.849 -23.122  28.304  0.00  0.00     0.115 C 
HETATM   15  C   UNK     0     -18.835 -21.660  27.887  0.00  0.00     0.021 A 
HETATM   16  N   UNK     0     -19.724 -21.021  27.104  0.00  0.00    -0.361 N 
HETATM   17  C   UNK     0     -19.320 -19.762  26.919  0.00  0.00     0.022 A 
HETATM   18  C   UNK     0     -18.115 -19.569  27.623  0.00  0.00    -0.027 A 
HETATM   19  C   UNK     0     -17.823 -20.765  28.226  0.00  0.00    -0.031 A 
HETATM   20  C   UNK     0     -16.617 -20.987  29.120  0.00  0.00     0.051 C 
HETATM   21  C   UNK     0     -19.920 -18.663  26.071  0.00  0.00     0.115 C 
HETATM   22  C   UNK     0     -20.598 -19.068  24.784  0.00  0.00     0.022 A 
HETATM   23  N   UNK     0     -20.210 -19.993  23.896  0.00  0.00    -0.361 N 
HETATM   24  C   UNK     0     -21.184 -20.129  22.973  0.00  0.00     0.021 A 
HETATM   25  C   UNK     0     -22.220 -19.263  23.268  0.00  0.00    -0.031 A 
HETATM   26  C   UNK     0     -23.507 -19.023  22.508  0.00  0.00     0.051 C 
HETATM   27  C   UNK     0     -21.868 -18.573  24.422  0.00  0.00    -0.027 A 
HETATM   28  C   UNK     0     -21.243 -21.119  21.823  0.00  0.00     0.115 C 
HETATM   29  H   UNK     0     -19.225 -22.773  23.191  0.00  0.00     0.165 HD
HETATM   30  H   UNK     0     -20.718 -23.644  26.111  0.00  0.00     0.165 HD
HETATM   31  H   UNK     0     -20.682 -21.452  26.712  0.00  0.00     0.165 HD
HETATM   32  H   UNK     0     -19.225 -20.528  23.888  0.00  0.00     0.165 HD
ENDROOT
BRANCH   6  33
HETATM   33  C   UNK     0     -22.791 -25.860  22.624  0.00  0.00     0.051 C 
BRANCH  33  34
HETATM   34  C   UNK     0     -23.816 -25.775  23.730  0.00  0.00     0.114 C 
BRANCH  34  35
HETATM   35  C   UNK     0     -25.071 -26.401  23.225  0.00  0.00     0.139 C 
HETATM   36  O   UNK     0     -25.551 -26.054  22.107  0.00  0.00    -0.650 OA
BRANCH  35  37
HETATM   37  O   UNK     0     -25.761 -27.376  23.936  0.00  0.00    -0.776 OA
HETATM   38  H   UNK     0     -25.459 -28.336  23.958  0.00  0.00     0.167 HD
ENDBRANCH  35  37
ENDBRANCH  34  35
ENDBRANCH  33  34
ENDBRANCH   6  33
BRANCH  27  39
HETATM   39  C   UNK     0     -22.709 -17.495  25.011  0.00  0.00     0.051 C 
BRANCH  39  40
HETATM   40  C   UNK     0     -22.207 -16.122  24.967  0.00  0.00     0.114 C 
BRANCH  40  41
HETATM   41  C   UNK     0     -23.047 -14.985  25.270  0.00  0.00     0.139 C 
HETATM   42  O   UNK     0     -23.719 -14.888  26.305  0.00  0.00    -0.650 OA
BRANCH  41  43
HETATM   43  O   UNK     0     -23.117 -13.911  24.338  0.00  0.00    -0.776 OA
HETATM   44  H   UNK     0     -22.985 -14.184  23.372  0.00  0.00     0.167 HD
ENDBRANCH  41  43
ENDBRANCH  40  41
ENDBRANCH  39  40
ENDBRANCH  27  39
BRANCH  11  45
HETATM   45  C   UNK     0     -16.547 -25.251  27.699  0.00  0.00     0.051 C 
BRANCH  45  46
HETATM   46  C   UNK     0     -16.651 -26.415  28.615  0.00  0.00     0.114 C 
BRANCH  46  47
HETATM   47  C   UNK     0     -15.344 -27.131  28.569  0.00  0.00     0.139 C 
HETATM   48  O   UNK     0     -14.797 -27.296  27.469  0.00  0.00    -0.650 OA
BRANCH  47  49
HETATM   49  O   UNK     0     -14.757 -27.598  29.718  0.00  0.00    -0.776 OA
HETATM   50  H   UNK     0     -14.602 -28.600  29.882  0.00  0.00     0.167 HD
ENDBRANCH  47  49
ENDBRANCH  46  47
ENDBRANCH  45  46
ENDBRANCH  11  45
BRANCH  18  51
HETATM   51  C   UNK     0     -17.298 -18.308  27.733  0.00  0.00     0.051 C 
BRANCH  51  52
HETATM   52  C   UNK     0     -18.181 -17.287  28.434  0.00  0.00     0.114 C 
BRANCH  52  53
HETATM   53  C   UNK     0     -18.107 -15.962  27.790  0.00  0.00     0.139 C 
HETATM   54  O   UNK     0     -18.527 -14.957  28.386  0.00  0.00    -0.650 OA
BRANCH  53  55
HETATM   55  O   UNK     0     -17.574 -15.848  26.529  0.00  0.00    -0.776 OA
HETATM   56  H   UNK     0     -16.618 -15.690  26.311  0.00  0.00     0.167 HD
ENDBRANCH  53  55
ENDBRANCH  52  53
ENDBRANCH  51  52
ENDBRANCH  18  51
TORSDOF 16
ENDMDL
MODEL 6
REMARK VINA RESULT:      -9.0      2.472      7.202
REMARK  16 active torsions:
REMARK  status: ('A' for Active; 'I' for Inactive)
REMARK    1  A    between atoms: C_6  and  C_7 
REMARK    2  A    between atoms: C_7  and  C_8 
REMARK    3  A    between atoms: C_8  and  C_9 
REMARK    4  A    between atoms: C_9  and  O_11 
REMARK    5  A    between atoms: C_16  and  C_17 
REMARK    6  A    between atoms: C_17  and  C_18 
REMARK    7  A    between atoms: C_18  and  C_19 
REMARK    8  A    between atoms: C_19  and  O_21 
REMARK    9  A    between atoms: C_28  and  C_29 
REMARK   10  A    between atoms: C_29  and  C_30 
REMARK   11  A    between atoms: C_30  and  C_31 
REMARK   12  A    between atoms: C_31  and  O_33 
REMARK   13  A    between atoms: C_42  and  C_43 
REMARK   14  A    between atoms: C_43  and  C_44 
REMARK   15  A    between atoms: C_44  and  C_45 
REMARK   16  A    between atoms: C_45  and  O_47 
ROOT
HETATM    1  C   UNK     0     -22.707 -18.493  24.685  0.00  0.00     0.051 C 
HETATM    2  C   UNK     0     -22.561 -19.553  23.613  0.00  0.00    -0.031 A 
HETATM    3  C   UNK     0     -21.452 -20.310  23.270  0.00  0.00     0.021 A 
HETATM    4  N   UNK     0     -21.771 -21.113  22.228  0.00  0.00    -0.361 N 
HETATM    5  C   UNK     0     -23.061 -20.891  21.904  0.00  0.00     0.022 A 
HETATM    6  C   UNK     0     -23.585 -19.918  22.749  0.00  0.00    -0.027 A 
HETATM    7  C   UNK     0     -23.922 -21.581  20.893  0.00  0.00     0.115 C 
HETATM    8  C   UNK     0     -23.803 -23.093  20.815  0.00  0.00     0.021 A 
HETATM    9  N   UNK     0     -23.597 -23.968  21.812  0.00  0.00    -0.361 N 
HETATM   10  C   UNK     0     -23.467 -25.198  21.270  0.00  0.00     0.022 A 
HETATM   11  C   UNK     0     -23.601 -25.114  19.887  0.00  0.00    -0.027 A 
HETATM   12  C   UNK     0     -23.813 -23.791  19.594  0.00  0.00    -0.031 A 
HETATM   13  C   UNK     0     -24.021 -23.225  18.207  0.00  0.00     0.051 C 
HETATM   14  C   UNK     0     -23.158 -26.488  22.025  0.00  0.00     0.115 C 
HETATM   15  C   UNK     0     -21.829 -26.467  22.761  0.00  0.00     0.021 A 
HETATM   16  N   UNK     0     -21.431 -25.605  23.716  0.00  0.00    -0.361 N 
HETATM   17  C   UNK     0     -20.171 -25.880  24.058  0.00  0.00     0.022 A 
HETATM   18  C   UNK     0     -19.729 -26.980  23.297  0.00  0.00    -0.027 A 
HETATM   19  C   UNK     0     -20.777 -27.339  22.490  0.00  0.00    -0.031 A 
HETATM   20  C   UNK     0     -20.737 -28.512  21.528  0.00  0.00     0.051 C 
HETATM   21  C   UNK     0     -19.248 -25.169  25.022  0.00  0.00     0.115 C 
HETATM   22  C   UNK     0     -19.386 -23.669  25.142  0.00  0.00     0.022 A 
HETATM   23  N   UNK     0     -19.595 -22.774  24.168  0.00  0.00    -0.361 N 
HETATM   24  C   UNK     0     -19.799 -21.569  24.737  0.00  0.00     0.021 A 
HETATM   25  C   UNK     0     -19.710 -21.689  26.110  0.00  0.00    -0.031 A 
HETATM   26  C   UNK     0     -19.824 -20.614  27.171  0.00  0.00     0.051 C 
HETATM   27  C   UNK     0     -19.445 -23.024  26.394  0.00  0.00    -0.027 A 
HETATM   28  C   UNK     0     -20.166 -20.266  24.048  0.00  0.00     0.115 C 
HETATM   29  H   UNK     0     -21.070 -21.803  21.702  0.00  0.00     0.165 HD
HETATM   30  H   UNK     0     -23.593 -23.728  22.903  0.00  0.00     0.165 HD
HETATM   31  H   UNK     0     -22.069 -24.815  24.193  0.00  0.00     0.165 HD
HETATM   32  H   UNK     0     -19.558 -22.977  23.066  0.00  0.00     0.165 HD
ENDROOT
BRANCH   6  33
HETATM   33  C   UNK     0     -24.967 -19.316  22.796  0.00  0.00     0.051 C 
BRANCH  33  34
HETATM   34  C   UNK     0     -25.818 -20.009  23.834  0.00  0.00     0.114 C 
BRANCH  34  35
HETATM   35  C   UNK     0     -27.100 -20.392  23.177  0.00  0.00     0.139 C 
HETATM   36  O   UNK     0     -27.680 -19.585  22.393  0.00  0.00    -0.650 OA
BRANCH  35  37
HETATM   37  O   UNK     0     -27.709 -21.624  23.383  0.00  0.00    -0.776 OA
HETATM   38  H   UNK     0     -27.229 -22.492  23.212  0.00  0.00     0.167 HD
ENDBRANCH  35  37
ENDBRANCH  34  35
ENDBRANCH  33  34
ENDBRANCH   6  33
BRANCH  27  39
HETATM   39  C   UNK     0     -19.210 -23.528  27.774  0.00  0.00     0.051 C 
BRANCH  39  40
HETATM   40  C   UNK     0     -17.839 -23.844  28.174  0.00  0.00     0.114 C 
BRANCH  40  41
HETATM   41  C   UNK     0     -16.694 -23.189  27.583  0.00  0.00     0.139 C 
HETATM   42  O   UNK     0     -15.937 -23.737  26.770  0.00  0.00    -0.650 OA
BRANCH  41  43
HETATM   43  O   UNK     0     -16.406 -21.842  27.943  0.00  0.00    -0.776 OA
HETATM   44  H   UNK     0     -16.898 -21.147  27.395  0.00  0.00     0.167 HD
ENDBRANCH  41  43
ENDBRANCH  40  41
ENDBRANCH  39  40
ENDBRANCH  27  39
BRANCH  11  45
HETATM   45  C   UNK     0     -23.540 -26.218  18.866  0.00  0.00     0.051 C 
BRANCH  45  46
HETATM   46  C   UNK     0     -23.922 -27.553  19.393  0.00  0.00     0.114 C 
BRANCH  46  47
HETATM   47  C   UNK     0     -23.593 -28.555  18.339  0.00  0.00     0.139 C 
HETATM   48  O   UNK     0     -24.370 -29.504  18.161  0.00  0.00    -0.650 OA
BRANCH  47  49
HETATM   49  O   UNK     0     -22.456 -28.431  17.582  0.00  0.00    -0.776 OA
HETATM   50  H   UNK     0     -22.429 -27.863  16.727  0.00  0.00     0.167 HD
ENDBRANCH  47  49
ENDBRANCH  46  47
ENDBRANCH  45  46
ENDBRANCH  11  45
BRANCH  18  51
HETATM   51  C   UNK     0     -18.388 -27.665  23.352  0.00  0.00     0.051 C 
BRANCH  51  52
HETATM   52  C   UNK     0     -18.373 -28.471  24.642  0.00  0.00     0.114 C 
BRANCH  52  53
HETATM   53  C   UNK     0     -18.896 -29.837  24.444  0.00  0.00     0.139 C 
HETATM   54  O   UNK     0     -19.933 -30.196  25.024  0.00  0.00    -0.650 OA
BRANCH  53  55
HETATM   55  O   UNK     0     -18.226 -30.707  23.618  0.00  0.00    -0.776 OA
HETATM   56  H   UNK     0     -17.245 -30.855  23.598  0.00  0.00     0.167 HD
ENDBRANCH  53  55
ENDBRANCH  52  53
ENDBRANCH  51  52
ENDBRANCH  18  51
TORSDOF 16
ENDMDL
MODEL 7
REMARK VINA RESULT:      -9.0      2.158      8.440
REMARK  16 active torsions:
REMARK  status: ('A' for Active; 'I' for Inactive)
REMARK    1  A    between atoms: C_6  and  C_7 
REMARK    2  A    between atoms: C_7  and  C_8 
REMARK    3  A    between atoms: C_8  and  C_9 
REMARK    4  A    between atoms: C_9  and  O_11 
REMARK    5  A    between atoms: C_16  and  C_17 
REMARK    6  A    between atoms: C_17  and  C_18 
REMARK    7  A    between atoms: C_18  and  C_19 
REMARK    8  A    between atoms: C_19  and  O_21 
REMARK    9  A    between atoms: C_28  and  C_29 
REMARK   10  A    between atoms: C_29  and  C_30 
REMARK   11  A    between atoms: C_30  and  C_31 
REMARK   12  A    between atoms: C_31  and  O_33 
REMARK   13  A    between atoms: C_42  and  C_43 
REMARK   14  A    between atoms: C_43  and  C_44 
REMARK   15  A    between atoms: C_44  and  C_45 
REMARK   16  A    between atoms: C_45  and  O_47 
ROOT
HETATM    1  C   UNK     0     -16.415 -25.137  27.624  0.00  0.00     0.051 C 
HETATM    2  C   UNK     0     -17.707 -24.865  26.880  0.00  0.00    -0.031 A 
HETATM    3  C   UNK     0     -18.766 -24.042  27.227  0.00  0.00     0.021 A 
HETATM    4  N   UNK     0     -19.726 -24.132  26.276  0.00  0.00    -0.361 N 
HETATM    5  C   UNK     0     -19.297 -24.989  25.326  0.00  0.00     0.022 A 
HETATM    6  C   UNK     0     -18.039 -25.468  25.674  0.00  0.00    -0.027 A 
HETATM    7  C   UNK     0     -19.935 -25.364  24.025  0.00  0.00     0.115 C 
HETATM    8  C   UNK     0     -20.552 -24.235  23.218  0.00  0.00     0.021 A 
HETATM    9  N   UNK     0     -20.127 -22.969  23.091  0.00  0.00    -0.361 N 
HETATM   10  C   UNK     0     -21.035 -22.294  22.353  0.00  0.00     0.022 A 
HETATM   11  C   UNK     0     -22.068 -23.152  21.988  0.00  0.00    -0.027 A 
HETATM   12  C   UNK     0     -21.770 -24.376  22.529  0.00  0.00    -0.031 A 
HETATM   13  C   UNK     0     -22.614 -25.623  22.386  0.00  0.00     0.051 C 
HETATM   14  C   UNK     0     -20.991 -20.808  22.010  0.00  0.00     0.115 C 
HETATM   15  C   UNK     0     -21.023 -19.894  23.225  0.00  0.00     0.021 A 
HETATM   16  N   UNK     0     -20.153 -19.863  24.252  0.00  0.00    -0.361 N 
HETATM   17  C   UNK     0     -20.569 -18.969  25.152  0.00  0.00     0.022 A 
HETATM   18  C   UNK     0     -21.761 -18.383  24.685  0.00  0.00    -0.027 A 
HETATM   19  C   UNK     0     -22.034 -18.970  23.476  0.00  0.00    -0.031 A 
HETATM   20  C   UNK     0     -23.222 -18.599  22.607  0.00  0.00     0.051 C 
HETATM   21  C   UNK     0     -19.992 -18.610  26.503  0.00  0.00     0.115 C 
HETATM   22  C   UNK     0     -19.336 -19.714  27.297  0.00  0.00     0.022 A 
HETATM   23  N   UNK     0     -19.735 -20.985  27.438  0.00  0.00    -0.361 N 
HETATM   24  C   UNK     0     -18.778 -21.657  28.110  0.00  0.00     0.021 A 
HETATM   25  C   UNK     0     -17.742 -20.796  28.418  0.00  0.00    -0.031 A 
HETATM   26  C   UNK     0     -16.471 -21.072  29.193  0.00  0.00     0.051 C 
HETATM   27  C   UNK     0     -18.077 -19.546  27.908  0.00  0.00    -0.027 A 
HETATM   28  C   UNK     0     -18.735 -23.141  28.430  0.00  0.00     0.115 C 
HETATM   29  H   UNK     0     -20.716 -23.621  26.302  0.00  0.00     0.165 HD
HETATM   30  H   UNK     0     -19.162 -22.560  23.478  0.00  0.00     0.165 HD
HETATM   31  H   UNK     0     -19.200 -20.450  24.322  0.00  0.00     0.165 HD
HETATM   32  H   UNK     0     -20.716 -21.410  27.103  0.00  0.00     0.165 HD
ENDROOT
BRANCH   6  33
HETATM   33  C   UNK     0     -17.141 -26.445  24.957  0.00  0.00     0.051 C 
BRANCH  33  34
HETATM   34  C   UNK     0     -17.838 -27.771  24.765  0.00  0.00     0.114 C 
BRANCH  34  35
HETATM   35  C   UNK     0     -17.488 -28.632  25.932  0.00  0.00     0.139 C 
HETATM   36  O   UNK     0     -16.355 -28.526  26.485  0.00  0.00    -0.650 OA
BRANCH  35  37
HETATM   37  O   UNK     0     -18.366 -29.571  26.460  0.00  0.00    -0.776 OA
HETATM   38  H   UNK     0     -18.104 -30.535  26.589  0.00  0.00     0.167 HD
ENDBRANCH  35  37
ENDBRANCH  34  35
ENDBRANCH  33  34
ENDBRANCH   6  33
BRANCH  27  39
HETATM   39  C   UNK     0     -17.231 -18.337  28.106  0.00  0.00     0.051 C 
BRANCH  39  40
HETATM   40  C   UNK     0     -17.856 -17.138  28.665  0.00  0.00     0.114 C 
BRANCH  40  41
HETATM   41  C   UNK     0     -18.067 -15.943  27.881  0.00  0.00     0.139 C 
HETATM   42  O   UNK     0     -18.659 -14.941  28.306  0.00  0.00    -0.650 OA
BRANCH  41  43
HETATM   43  O   UNK     0     -17.575 -15.896  26.545  0.00  0.00    -0.776 OA
HETATM   44  H   UNK     0     -17.754 -15.024  26.063  0.00  0.00     0.167 HD
ENDBRANCH  41  43
ENDBRANCH  40  41
ENDBRANCH  39  40
ENDBRANCH  27  39
BRANCH  11  45
HETATM   45  C   UNK     0     -23.291 -22.855  21.163  0.00  0.00     0.051 C 
BRANCH  45  46
HETATM   46  C   UNK     0     -23.062 -22.914  19.696  0.00  0.00     0.114 C 
BRANCH  46  47
HETATM   47  C   UNK     0     -24.145 -22.120  19.048  0.00  0.00     0.139 C 
HETATM   48  O   UNK     0     -25.045 -21.654  19.760  0.00  0.00    -0.650 OA
BRANCH  47  49
HETATM   49  O   UNK     0     -24.146 -21.909  17.692  0.00  0.00    -0.776 OA
HETATM   50  H   UNK     0     -24.799 -22.396  17.066  0.00  0.00     0.167 HD
ENDBRANCH  47  49
ENDBRANCH  46  47
ENDBRANCH  45  46
ENDBRANCH  11  45
BRANCH  18  51
HETATM   51  C   UNK     0     -22.585 -17.306  25.343  0.00  0.00     0.051 C 
BRANCH  51  52
HETATM   52  C   UNK     0     -22.199 -16.000  24.666  0.00  0.00     0.114 C 
BRANCH  52  53
HETATM   53  C   UNK     0     -23.124 -14.905  25.015  0.00  0.00     0.139 C 
HETATM   54  O   UNK     0     -23.908 -15.034  25.969  0.00  0.00    -0.650 OA
BRANCH  53  55
HETATM   55  O   UNK     0     -23.115 -13.746  24.278  0.00  0.00    -0.776 OA
HETATM   56  H   UNK     0     -22.659 -13.612  23.406  0.00  0.00     0.167 HD
ENDBRANCH  53  55
ENDBRANCH  52  53
ENDBRANCH  51  52
ENDBRANCH  18  51
TORSDOF 16
ENDMDL
MODEL 8
REMARK VINA RESULT:      -8.9      3.642      6.131
REMARK  16 active torsions:
REMARK  status: ('A' for Active; 'I' for Inactive)
REMARK    1  A    between atoms: C_6  and  C_7 
REMARK    2  A    between atoms: C_7  and  C_8 
REMARK    3  A    between atoms: C_8  and  C_9 
REMARK    4  A    between atoms: C_9  and  O_11 
REMARK    5  A    between atoms: C_16  and  C_17 
REMARK    6  A    between atoms: C_17  and  C_18 
REMARK    7  A    between atoms: C_18  and  C_19 
REMARK    8  A    between atoms: C_19  and  O_21 
REMARK    9  A    between atoms: C_28  and  C_29 
REMARK   10  A    between atoms: C_29  and  C_30 
REMARK   11  A    between atoms: C_30  and  C_31 
REMARK   12  A    between atoms: C_31  and  O_33 
REMARK   13  A    between atoms: C_42  and  C_43 
REMARK   14  A    between atoms: C_43  and  C_44 
REMARK   15  A    between atoms: C_44  and  C_45 
REMARK   16  A    between atoms: C_45  and  O_47 
ROOT
HETATM    1  C   UNK     0     -21.270 -29.181  16.752  0.00  0.00     0.051 C 
HETATM    2  C   UNK     0     -22.127 -27.948  16.956  0.00  0.00    -0.031 A 
HETATM    3  C   UNK     0     -22.984 -27.634  17.999  0.00  0.00     0.021 A 
HETATM    4  N   UNK     0     -23.568 -26.439  17.746  0.00  0.00    -0.361 N 
HETATM    5  C   UNK     0     -23.095 -25.980  16.569  0.00  0.00     0.022 A 
HETATM    6  C   UNK     0     -22.193 -26.900  16.046  0.00  0.00    -0.027 A 
HETATM    7  C   UNK     0     -23.347 -24.671  15.887  0.00  0.00     0.115 C 
HETATM    8  C   UNK     0     -23.346 -23.433  16.766  0.00  0.00     0.021 A 
HETATM    9  N   UNK     0     -22.584 -23.170  17.839  0.00  0.00    -0.361 N 
HETATM   10  C   UNK     0     -22.988 -21.993  18.362  0.00  0.00     0.022 A 
HETATM   11  C   UNK     0     -24.032 -21.479  17.599  0.00  0.00    -0.027 A 
HETATM   12  C   UNK     0     -24.263 -22.381  16.592  0.00  0.00    -0.031 A 
HETATM   13  C   UNK     0     -25.311 -22.236  15.512  0.00  0.00     0.051 C 
HETATM   14  C   UNK     0     -22.444 -21.335  19.626  0.00  0.00     0.115 C 
HETATM   15  C   UNK     0     -22.628 -22.169  20.883  0.00  0.00     0.021 A 
HETATM   16  N   UNK     0     -22.166 -23.412  21.119  0.00  0.00    -0.361 N 
HETATM   17  C   UNK     0     -22.601 -23.822  22.312  0.00  0.00     0.022 A 
HETATM   18  C   UNK     0     -23.376 -22.794  22.886  0.00  0.00    -0.027 A 
HETATM   19  C   UNK     0     -23.383 -21.764  21.981  0.00  0.00    -0.031 A 
HETATM   20  C   UNK     0     -24.079 -20.437  22.220  0.00  0.00     0.051 C 
HETATM   21  C   UNK     0     -22.425 -25.154  23.006  0.00  0.00     0.115 C 
HETATM   22  C   UNK     0     -22.380 -26.391  22.140  0.00  0.00     0.022 A 
HETATM   23  N   UNK     0     -23.124 -26.677  21.063  0.00  0.00    -0.361 N 
HETATM   24  C   UNK     0     -22.653 -27.815  20.513  0.00  0.00     0.021 A 
HETATM   25  C   UNK     0     -21.586 -28.278  21.260  0.00  0.00    -0.031 A 
HETATM   26  C   UNK     0     -20.759 -29.531  21.065  0.00  0.00     0.051 C 
HETATM   27  C   UNK     0     -21.393 -27.383  22.306  0.00  0.00    -0.027 A 
HETATM   28  C   UNK     0     -23.111 -28.486  19.230  0.00  0.00     0.115 C 
HETATM   29  H   UNK     0     -24.339 -25.946  18.382  0.00  0.00     0.165 HD
HETATM   30  H   UNK     0     -21.726 -23.789  18.200  0.00  0.00     0.165 HD
HETATM   31  H   UNK     0     -21.479 -23.994  20.451  0.00  0.00     0.165 HD
HETATM   32  H   UNK     0     -24.017 -26.102  20.706  0.00  0.00     0.165 HD
ENDROOT
BRANCH   6  33
HETATM   33  C   UNK     0     -21.403 -26.862  14.763  0.00  0.00     0.051 C 
BRANCH  33  34
HETATM   34  C   UNK     0     -22.284 -27.191  13.581  0.00  0.00     0.114 C 
BRANCH  34  35
HETATM   35  C   UNK     0     -22.050 -28.622  13.234  0.00  0.00     0.139 C 
HETATM   36  O   UNK     0     -22.885 -29.507  13.582  0.00  0.00    -0.650 OA
BRANCH  35  37
HETATM   37  O   UNK     0     -20.933 -29.048  12.525  0.00  0.00    -0.776 OA
HETATM   38  H   UNK     0     -20.774 -28.782  11.567  0.00  0.00     0.167 HD
ENDBRANCH  35  37
ENDBRANCH  34  35
ENDBRANCH  33  34
ENDBRANCH   6  33
BRANCH  27  39
HETATM   39  C   UNK     0     -20.372 -27.587  23.369  0.00  0.00     0.051 C 
BRANCH  39  40
HETATM   40  C   UNK     0     -19.208 -26.701  23.393  0.00  0.00     0.114 C 
BRANCH  40  41
HETATM   41  C   UNK     0     -17.908 -27.124  22.924  0.00  0.00     0.139 C 
HETATM   42  O   UNK     0     -17.738 -28.067  22.139  0.00  0.00    -0.650 OA
BRANCH  41  43
HETATM   43  O   UNK     0     -16.750 -26.430  23.377  0.00  0.00    -0.776 OA
HETATM   44  H   UNK     0     -16.903 -25.450  23.582  0.00  0.00     0.167 HD
ENDBRANCH  41  43
ENDBRANCH  40  41
ENDBRANCH  39  40
ENDBRANCH  27  39
BRANCH  11  45
HETATM   45  C   UNK     0     -24.794 -20.195  17.790  0.00  0.00     0.051 C 
BRANCH  45  46
HETATM   46  C   UNK     0     -25.949 -20.307  18.717  0.00  0.00     0.114 C 
BRANCH  46  47
HETATM   47  C   UNK     0     -26.182 -18.953  19.297  0.00  0.00     0.139 C 
HETATM   48  O   UNK     0     -25.201 -18.248  19.568  0.00  0.00    -0.650 OA
BRANCH  47  49
HETATM   49  O   UNK     0     -27.456 -18.498  19.528  0.00  0.00    -0.776 OA
HETATM   50  H   UNK     0     -28.191 -18.549  18.813  0.00  0.00     0.167 HD
ENDBRANCH  47  49
ENDBRANCH  46  47
ENDBRANCH  45  46
ENDBRANCH  11  45
BRANCH  18  51
HETATM   51  C   UNK     0     -24.053 -22.786  24.232  0.00  0.00     0.051 C 
BRANCH  51  52
HETATM   52  C   UNK     0     -25.358 -23.548  24.056  0.00  0.00     0.114 C 
BRANCH  52  53
HETATM   53  C   UNK     0     -26.521 -22.641  23.996  0.00  0.00     0.139 C 
HETATM   54  O   UNK     0     -26.519 -21.584  24.648  0.00  0.00    -0.650 OA
BRANCH  53  55
HETATM   55  O   UNK     0     -27.603 -22.974  23.219  0.00  0.00    -0.776 OA
HETATM   56  H   UNK     0     -27.693 -23.791  22.661  0.00  0.00     0.167 HD
ENDBRANCH  53  55
ENDBRANCH  52  53
ENDBRANCH  51  52
ENDBRANCH  18  51
TORSDOF 16
ENDMDL
MODEL 9
REMARK VINA RESULT:      -8.8      1.688      6.980
REMARK  16 active torsions:
REMARK  status: ('A' for Active; 'I' for Inactive)
REMARK    1  A    between atoms: C_6  and  C_7 
REMARK    2  A    between atoms: C_7  and  C_8 
REMARK    3  A    between atoms: C_8  and  C_9 
REMARK    4  A    between atoms: C_9  and  O_11 
REMARK    5  A    between atoms: C_16  and  C_17 
REMARK    6  A    between atoms: C_17  and  C_18 
REMARK    7  A    between atoms: C_18  and  C_19 
REMARK    8  A    between atoms: C_19  and  O_21 
REMARK    9  A    between atoms: C_28  and  C_29 
REMARK   10  A    between atoms: C_29  and  C_30 
REMARK   11  A    between atoms: C_30  and  C_31 
REMARK   12  A    between atoms: C_31  and  O_33 
REMARK   13  A    between atoms: C_42  and  C_43 
REMARK   14  A    between atoms: C_43  and  C_44 
REMARK   15  A    between atoms: C_44  and  C_45 
REMARK   16  A    between atoms: C_45  and  O_47 
ROOT
HETATM    1  C   UNK     0     -21.800 -17.419  25.873  0.00  0.00     0.051 C 
HETATM    2  C   UNK     0     -21.971 -18.326  24.672  0.00  0.00    -0.031 A 
HETATM    3  C   UNK     0     -21.082 -19.236  24.122  0.00  0.00     0.021 A 
HETATM    4  N   UNK     0     -21.649 -19.804  23.032  0.00  0.00    -0.361 N 
HETATM    5  C   UNK     0     -22.884 -19.284  22.880  0.00  0.00     0.022 A 
HETATM    6  C   UNK     0     -23.117 -18.353  23.887  0.00  0.00    -0.027 A 
HETATM    7  C   UNK     0     -23.951 -19.638  21.892  0.00  0.00     0.115 C 
HETATM    8  C   UNK     0     -24.165 -21.117  21.622  0.00  0.00     0.021 A 
HETATM    9  N   UNK     0     -24.071 -22.146  22.478  0.00  0.00    -0.361 N 
HETATM   10  C   UNK     0     -24.252 -23.289  21.782  0.00  0.00     0.022 A 
HETATM   11  C   UNK     0     -24.477 -22.987  20.442  0.00  0.00    -0.027 A 
HETATM   12  C   UNK     0     -24.424 -21.621  20.334  0.00  0.00    -0.031 A 
HETATM   13  C   UNK     0     -24.618 -20.837  19.056  0.00  0.00     0.051 C 
HETATM   14  C   UNK     0     -24.166 -24.707  22.339  0.00  0.00     0.115 C 
HETATM   15  C   UNK     0     -22.807 -25.058  22.924  0.00  0.00     0.021 A 
HETATM   16  N   UNK     0     -22.159 -24.435  23.926  0.00  0.00    -0.361 N 
HETATM   17  C   UNK     0     -20.963 -25.004  24.094  0.00  0.00     0.022 A 
HETATM   18  C   UNK     0     -20.830 -26.053  23.163  0.00  0.00    -0.027 A 
HETATM   19  C   UNK     0     -21.992 -26.077  22.437  0.00  0.00    -0.031 A 
HETATM   20  C   UNK     0     -22.283 -27.088  21.343  0.00  0.00     0.051 C 
HETATM   21  C   UNK     0     -19.834 -24.635  25.030  0.00  0.00     0.115 C 
HETATM   22  C   UNK     0     -19.638 -23.170  25.343  0.00  0.00     0.022 A 
HETATM   23  N   UNK     0     -19.729 -22.124  24.512  0.00  0.00    -0.361 N 
HETATM   24  C   UNK     0     -19.624 -20.994  25.239  0.00  0.00     0.021 A 
HETATM   25  C   UNK     0     -19.450 -21.321  26.571  0.00  0.00    -0.031 A 
HETATM   26  C   UNK     0     -19.246 -20.403  27.758  0.00  0.00     0.051 C 
HETATM   27  C   UNK     0     -19.456 -22.708  26.662  0.00  0.00    -0.027 A 
HETATM   28  C   UNK     0     -19.758 -19.561  24.755  0.00  0.00     0.115 C 
HETATM   29  H   UNK     0     -21.157 -20.541  22.355  0.00  0.00     0.165 HD
HETATM   30  H   UNK     0     -23.928 -22.067  23.583  0.00  0.00     0.165 HD
HETATM   31  H   UNK     0     -22.572 -23.608  24.560  0.00  0.00     0.165 HD
HETATM   32  H   UNK     0     -19.825 -22.175  23.396  0.00  0.00     0.165 HD
ENDROOT
BRANCH   6  33
HETATM   33  C   UNK     0     -24.329 -17.498  24.155  0.00  0.00     0.051 C 
BRANCH  33  34
HETATM   34  C   UNK     0     -24.207 -16.163  23.459  0.00  0.00     0.114 C 
BRANCH  34  35
HETATM   35  C   UNK     0     -23.979 -15.130  24.511  0.00  0.00     0.139 C 
HETATM   36  O   UNK     0     -24.562 -15.222  25.630  0.00  0.00    -0.650 OA
BRANCH  35  37
HETATM   37  O   UNK     0     -23.135 -14.043  24.323  0.00  0.00    -0.776 OA
HETATM   38  H   UNK     0     -23.463 -13.171  23.941  0.00  0.00     0.167 HD
ENDBRANCH  35  37
ENDBRANCH  34  35
ENDBRANCH  33  34
ENDBRANCH   6  33
BRANCH  27  39
HETATM   39  C   UNK     0     -19.223 -23.437  27.939  0.00  0.00     0.051 C 
BRANCH  39  40
HETATM   40  C   UNK     0     -17.889 -23.980  28.194  0.00  0.00     0.114 C 
BRANCH  40  41
HETATM   41  C   UNK     0     -16.692 -23.362  27.668  0.00  0.00     0.139 C 
HETATM   42  O   UNK     0     -15.978 -23.884  26.800  0.00  0.00    -0.650 OA
BRANCH  41  43
HETATM   43  O   UNK     0     -16.297 -22.088  28.164  0.00  0.00    -0.776 OA
HETATM   44  H   UNK     0     -17.065 -21.453  28.347  0.00  0.00     0.167 HD
ENDBRANCH  41  43
ENDBRANCH  40  41
ENDBRANCH  39  40
ENDBRANCH  27  39
BRANCH  11  45
HETATM   45  C   UNK     0     -24.736 -23.927  19.296  0.00  0.00     0.051 C 
BRANCH  45  46
HETATM   46  C   UNK     0     -23.518 -24.597  18.774  0.00  0.00     0.114 C 
BRANCH  46  47
HETATM   47  C   UNK     0     -23.100 -23.860  17.547  0.00  0.00     0.139 C 
HETATM   48  O   UNK     0     -22.029 -23.237  17.566  0.00  0.00    -0.650 OA
BRANCH  47  49
HETATM   49  O   UNK     0     -23.883 -23.869  16.421  0.00  0.00    -0.776 OA
HETATM   50  H   UNK     0     -23.555 -23.488  15.525  0.00  0.00     0.167 HD
ENDBRANCH  47  49
ENDBRANCH  46  47
ENDBRANCH  45  46
ENDBRANCH  11  45
BRANCH  18  51
HETATM   51  C   UNK     0     -19.666 -26.995  22.989  0.00  0.00     0.051 C 
BRANCH  51  52
HETATM   52  C   UNK     0     -19.757 -27.999  24.129  0.00  0.00     0.114 C 
BRANCH  52  53
HETATM   53  C   UNK     0     -20.273 -29.304  23.673  0.00  0.00     0.139 C 
HETATM   54  O   UNK     0     -20.787 -30.088  24.487  0.00  0.00    -0.650 OA
BRANCH  53  55
HETATM   55  O   UNK     0     -20.179 -29.645  22.346  0.00  0.00    -0.776 OA
HETATM   56  H   UNK     0     -19.344 -29.679  21.809  0.00  0.00     0.167 HD
ENDBRANCH  53  55
ENDBRANCH  52  53
ENDBRANCH  51  52
ENDBRANCH  18  51
TORSDOF 16
ENDMDL
MODEL 10
REMARK VINA RESULT:      -8.5      2.012      6.891
REMARK  16 active torsions:
REMARK  status: ('A' for Active; 'I' for Inactive)
REMARK    1  A    between atoms: C_6  and  C_7 
REMARK    2  A    between atoms: C_7  and  C_8 
REMARK    3  A    between atoms: C_8  and  C_9 
REMARK    4  A    between atoms: C_9  and  O_11 
REMARK    5  A    between atoms: C_16  and  C_17 
REMARK    6  A    between atoms: C_17  and  C_18 
REMARK    7  A    between atoms: C_18  and  C_19 
REMARK    8  A    between atoms: C_19  and  O_21 
REMARK    9  A    between atoms: C_28  and  C_29 
REMARK   10  A    between atoms: C_29  and  C_30 
REMARK   11  A    between atoms: C_30  and  C_31 
REMARK   12  A    between atoms: C_31  and  O_33 
REMARK   13  A    between atoms: C_42  and  C_43 
REMARK   14  A    between atoms: C_43  and  C_44 
REMARK   15  A    between atoms: C_44  and  C_45 
REMARK   16  A    between atoms: C_45  and  O_47 
ROOT
HETATM    1  C   UNK     0     -22.682 -17.758  24.481  0.00  0.00     0.051 C 
HETATM    2  C   UNK     0     -22.663 -18.898  23.483  0.00  0.00    -0.031 A 
HETATM    3  C   UNK     0     -21.614 -19.724  23.110  0.00  0.00     0.021 A 
HETATM    4  N   UNK     0     -22.048 -20.585  22.159  0.00  0.00    -0.361 N 
HETATM    5  C   UNK     0     -23.352 -20.332  21.924  0.00  0.00     0.022 A 
HETATM    6  C   UNK     0     -23.768 -19.280  22.734  0.00  0.00    -0.027 A 
HETATM    7  C   UNK     0     -24.318 -21.056  21.040  0.00  0.00     0.115 C 
HETATM    8  C   UNK     0     -24.261 -22.574  21.066  0.00  0.00     0.021 A 
HETATM    9  N   UNK     0     -24.005 -23.383  22.105  0.00  0.00    -0.361 N 
HETATM   10  C   UNK     0     -23.965 -24.652  21.648  0.00  0.00     0.022 A 
HETATM   11  C   UNK     0     -24.211 -24.662  20.279  0.00  0.00    -0.027 A 
HETATM   12  C   UNK     0     -24.398 -23.356  19.905  0.00  0.00    -0.031 A 
HETATM   13  C   UNK     0     -24.700 -22.883  18.501  0.00  0.00     0.051 C 
HETATM   14  C   UNK     0     -23.642 -25.897  22.471  0.00  0.00     0.115 C 
HETATM   15  C   UNK     0     -22.255 -25.880  23.094  0.00  0.00     0.021 A 
HETATM   16  N   UNK     0     -21.749 -24.969  23.947  0.00  0.00    -0.361 N 
HETATM   17  C   UNK     0     -20.475 -25.272  24.207  0.00  0.00     0.022 A 
HETATM   18  C   UNK     0     -20.138 -26.442  23.497  0.00  0.00    -0.027 A 
HETATM   19  C   UNK     0     -21.262 -26.813  22.806  0.00  0.00    -0.031 A 
HETATM   20  C   UNK     0     -21.345 -28.053  21.934  0.00  0.00     0.051 C 
HETATM   21  C   UNK     0     -19.451 -24.533  25.038  0.00  0.00     0.115 C 
HETATM   22  C   UNK     0     -19.524 -23.025  25.056  0.00  0.00     0.022 A 
HETATM   23  N   UNK     0     -19.780 -22.194  24.037  0.00  0.00    -0.361 N 
HETATM   24  C   UNK     0     -19.893 -20.943  24.529  0.00  0.00     0.021 A 
HETATM   25  C   UNK     0     -19.694 -20.968  25.896  0.00  0.00    -0.031 A 
HETATM   26  C   UNK     0     -19.681 -19.816  26.878  0.00  0.00     0.051 C 
HETATM   27  C   UNK     0     -19.455 -22.289  26.257  0.00  0.00    -0.027 A 
HETATM   28  C   UNK     0     -20.268 -19.679  23.776  0.00  0.00     0.115 C 
HETATM   29  H   UNK     0     -21.419 -21.340  21.632  0.00  0.00     0.165 HD
HETATM   30  H   UNK     0     -23.902 -23.066  23.172  0.00  0.00     0.165 HD
HETATM   31  H   UNK     0     -22.316 -24.121  24.413  0.00  0.00     0.165 HD
HETATM   32  H   UNK     0     -19.842 -22.476  22.954  0.00  0.00     0.165 HD
ENDROOT
BRANCH   6  33
HETATM   33  C   UNK     0     -25.118 -18.618  22.846  0.00  0.00     0.051 C 
BRANCH  33  34
HETATM   34  C   UNK     0     -25.091 -17.240  22.229  0.00  0.00     0.114 C 
BRANCH  34  35
HETATM   35  C   UNK     0     -25.559 -17.373  20.820  0.00  0.00     0.139 C 
HETATM   36  O   UNK     0     -26.383 -18.280  20.504  0.00  0.00    -0.650 OA
BRANCH  35  37
HETATM   37  O   UNK     0     -25.129 -16.527  19.805  0.00  0.00    -0.776 OA
HETATM   38  H   UNK     0     -25.180 -16.789  18.833  0.00  0.00     0.167 HD
ENDBRANCH  35  37
ENDBRANCH  34  35
ENDBRANCH  33  34
ENDBRANCH   6  33
BRANCH  27  39
HETATM   39  C   UNK     0     -19.125 -22.703  27.647  0.00  0.00     0.051 C 
BRANCH  39  40
HETATM   40  C   UNK     0     -20.225 -22.999  28.564  0.00  0.00     0.114 C 
BRANCH  40  41
HETATM   41  C   UNK     0     -20.009 -23.609  29.857  0.00  0.00     0.139 C 
HETATM   42  O   UNK     0     -20.135 -23.001  30.928  0.00  0.00    -0.650 OA
BRANCH  41  43
HETATM   43  O   UNK     0     -19.631 -24.980  29.920  0.00  0.00    -0.776 OA
HETATM   44  H   UNK     0     -18.637 -25.135  30.039  0.00  0.00     0.167 HD
ENDBRANCH  41  43
ENDBRANCH  40  41
ENDBRANCH  39  40
ENDBRANCH  27  39
BRANCH  11  45
HETATM   45  C   UNK     0     -24.274 -25.838  19.341  0.00  0.00     0.051 C 
BRANCH  45  46
HETATM   46  C   UNK     0     -23.148 -25.904  18.375  0.00  0.00     0.114 C 
BRANCH  46  47
HETATM   47  C   UNK     0     -23.120 -27.290  17.825  0.00  0.00     0.139 C 
HETATM   48  O   UNK     0     -22.572 -27.481  16.730  0.00  0.00    -0.650 OA
BRANCH  47  49
HETATM   49  O   UNK     0     -23.689 -28.331  18.513  0.00  0.00    -0.776 OA
HETATM   50  H   UNK     0     -24.582 -28.233  19.010  0.00  0.00     0.167 HD
ENDBRANCH  47  49
ENDBRANCH  46  47
ENDBRANCH  45  46
ENDBRANCH  11  45
BRANCH  18  51
HETATM   51  C   UNK     0     -18.823 -27.177  23.495  0.00  0.00     0.051 C 
BRANCH  51  52
HETATM   52  C   UNK     0     -18.812 -28.033  24.753  0.00  0.00     0.114 C 
BRANCH  52  53
HETATM   53  C   UNK     0     -17.594 -27.813  25.557  0.00  0.00     0.139 C 
HETATM   54  O   UNK     0     -16.775 -26.944  25.218  0.00  0.00    -0.650 OA
BRANCH  53  55
HETATM   55  O   UNK     0     -17.373 -28.576  26.677  0.00  0.00    -0.776 OA
HETATM   56  H   UNK     0     -17.451 -29.564  26.736  0.00  0.00     0.167 HD
ENDBRANCH  53  55
ENDBRANCH  52  53
ENDBRANCH  51  52
ENDBRANCH  18  51
TORSDOF 16
ENDMDL
MODEL 11
REMARK VINA RESULT:      -8.4      4.951     10.325
REMARK  16 active torsions:
REMARK  status: ('A' for Active; 'I' for Inactive)
REMARK    1  A    between atoms: C_6  and  C_7 
REMARK    2  A    between atoms: C_7  and  C_8 
REMARK    3  A    between atoms: C_8  and  C_9 
REMARK    4  A    between atoms: C_9  and  O_11 
REMARK    5  A    between atoms: C_16  and  C_17 
REMARK    6  A    between atoms: C_17  and  C_18 
REMARK    7  A    between atoms: C_18  and  C_19 
REMARK    8  A    between atoms: C_19  and  O_21 
REMARK    9  A    between atoms: C_28  and  C_29 
REMARK   10  A    between atoms: C_29  and  C_30 
REMARK   11  A    between atoms: C_30  and  C_31 
REMARK   12  A    between atoms: C_31  and  O_33 
REMARK   13  A    between atoms: C_42  and  C_43 
REMARK   14  A    between atoms: C_43  and  C_44 
REMARK   15  A    between atoms: C_44  and  C_45 
REMARK   16  A    between atoms: C_45  and  O_47 
ROOT
HETATM    1  C   UNK     0     -20.608 -29.483  20.666  0.00  0.00     0.051 C 
HETATM    2  C   UNK     0     -21.521 -29.079  19.527  0.00  0.00    -0.031 A 
HETATM    3  C   UNK     0     -22.709 -28.364  19.563  0.00  0.00     0.021 A 
HETATM    4  N   UNK     0     -23.201 -28.265  18.305  0.00  0.00    -0.361 N 
HETATM    5  C   UNK     0     -22.350 -28.893  17.468  0.00  0.00     0.022 A 
HETATM    6  C   UNK     0     -21.289 -29.416  18.200  0.00  0.00    -0.027 A 
HETATM    7  C   UNK     0     -22.382 -28.991  15.975  0.00  0.00     0.115 C 
HETATM    8  C   UNK     0     -22.742 -27.726  15.216  0.00  0.00     0.021 A 
HETATM    9  N   UNK     0     -22.430 -26.455  15.514  0.00  0.00    -0.361 N 
HETATM   10  C   UNK     0     -23.036 -25.653  14.614  0.00  0.00     0.022 A 
HETATM   11  C   UNK     0     -23.750 -26.428  13.705  0.00  0.00    -0.027 A 
HETATM   12  C   UNK     0     -23.569 -27.736  14.078  0.00  0.00    -0.031 A 
HETATM   13  C   UNK     0     -24.158 -28.936  13.373  0.00  0.00     0.051 C 
HETATM   14  C   UNK     0     -23.011 -24.127  14.605  0.00  0.00     0.115 C 
HETATM   15  C   UNK     0     -23.610 -23.494  15.851  0.00  0.00     0.021 A 
HETATM   16  N   UNK     0     -23.223 -23.669  17.128  0.00  0.00    -0.361 N 
HETATM   17  C   UNK     0     -24.047 -22.994  17.933  0.00  0.00     0.022 A 
HETATM   18  C   UNK     0     -25.011 -22.340  17.141  0.00  0.00    -0.027 A 
HETATM   19  C   UNK     0     -24.726 -22.660  15.839  0.00  0.00    -0.031 A 
HETATM   20  C   UNK     0     -25.505 -22.130  14.649  0.00  0.00     0.051 C 
HETATM   21  C   UNK     0     -24.089 -22.922  19.442  0.00  0.00     0.115 C 
HETATM   22  C   UNK     0     -23.691 -24.161  20.211  0.00  0.00     0.022 A 
HETATM   23  N   UNK     0     -23.984 -25.438  19.935  0.00  0.00    -0.361 N 
HETATM   24  C   UNK     0     -23.306 -26.223  20.797  0.00  0.00     0.021 A 
HETATM   25  C   UNK     0     -22.568 -25.432  21.656  0.00  0.00    -0.031 A 
HETATM   26  C   UNK     0     -21.685 -25.847  22.813  0.00  0.00     0.051 C 
HETATM   27  C   UNK     0     -22.798 -24.107  21.300  0.00  0.00    -0.027 A 
HETATM   28  C   UNK     0     -23.244 -27.741  20.820  0.00  0.00     0.115 C 
HETATM   29  H   UNK     0     -24.168 -27.786  18.023  0.00  0.00     0.165 HD
HETATM   30  H   UNK     0     -21.742 -26.124  16.330  0.00  0.00     0.165 HD
HETATM   31  H   UNK     0     -22.321 -24.243  17.467  0.00  0.00     0.165 HD
HETATM   32  H   UNK     0     -24.705 -25.797  19.156  0.00  0.00     0.165 HD
ENDROOT
BRANCH   6  33
HETATM   33  C   UNK     0     -20.088 -30.204  17.740  0.00  0.00     0.051 C 
BRANCH  33  34
HETATM   34  C   UNK     0     -20.427 -31.670  17.615  0.00  0.00     0.114 C 
BRANCH  34  35
HETATM   35  C   UNK     0     -19.978 -32.118  16.265  0.00  0.00     0.139 C 
HETATM   36  O   UNK     0     -20.589 -33.052  15.668  0.00  0.00    -0.650 OA
BRANCH  35  37
HETATM   37  O   UNK     0     -18.895 -31.547  15.608  0.00  0.00    -0.776 OA
HETATM   38  H   UNK     0     -17.964 -31.924  15.683  0.00  0.00     0.167 HD
ENDBRANCH  35  37
ENDBRANCH  34  35
ENDBRANCH  33  34
ENDBRANCH   6  33
BRANCH  27  39
HETATM   39  C   UNK     0     -22.226 -22.956  22.049  0.00  0.00     0.051 C 
BRANCH  39  40
HETATM   40  C   UNK     0     -23.147 -21.997  22.659  0.00  0.00     0.114 C 
BRANCH  40  41
HETATM   41  C   UNK     0     -24.357 -22.412  23.331  0.00  0.00     0.139 C 
HETATM   42  O   UNK     0     -25.473 -22.408  22.794  0.00  0.00    -0.650 OA
BRANCH  41  43
HETATM   43  O   UNK     0     -24.281 -22.852  24.683  0.00  0.00    -0.776 OA
HETATM   44  H   UNK     0     -23.920 -22.160  25.329  0.00  0.00     0.167 HD
ENDBRANCH  41  43
ENDBRANCH  40  41
ENDBRANCH  39  40
ENDBRANCH  27  39
BRANCH  11  45
HETATM   45  C   UNK     0     -24.573 -25.981  12.526  0.00  0.00     0.051 C 
BRANCH  45  46
HETATM   46  C   UNK     0     -25.967 -25.601  12.870  0.00  0.00     0.114 C 
BRANCH  46  47
HETATM   47  C   UNK     0     -26.851 -26.716  12.426  0.00  0.00     0.139 C 
HETATM   48  O   UNK     0     -26.634 -27.242  11.326  0.00  0.00    -0.650 OA
BRANCH  47  49
HETATM   49  O   UNK     0     -27.884 -27.152  13.218  0.00  0.00    -0.776 OA
HETATM   50  H   UNK     0     -27.741 -27.829  13.976  0.00  0.00     0.167 HD
ENDBRANCH  47  49
ENDBRANCH  46  47
ENDBRANCH  45  46
ENDBRANCH  11  45
BRANCH  18  51
HETATM   51  C   UNK     0     -26.131 -21.442  17.598  0.00  0.00     0.051 C 
BRANCH  51  52
HETATM   52  C   UNK     0     -25.483 -20.126  18.005  0.00  0.00     0.114 C 
BRANCH  52  53
HETATM   53  C   UNK     0     -26.029 -19.614  19.276  0.00  0.00     0.139 C 
HETATM   54  O   UNK     0     -26.746 -18.601  19.282  0.00  0.00    -0.650 OA
BRANCH  53  55
HETATM   55  O   UNK     0     -25.737 -20.263  20.451  0.00  0.00    -0.776 OA
HETATM   56  H   UNK     0     -25.596 -19.834  21.336  0.00  0.00     0.167 HD
ENDBRANCH  53  55
ENDBRANCH  52  53
ENDBRANCH  51  52
ENDBRANCH  18  51
TORSDOF 16
ENDMDL
MODEL 12
REMARK VINA RESULT:      -8.4      2.085      7.640
REMARK  16 active torsions:
REMARK  status: ('A' for Active; 'I' for Inactive)
REMARK    1  A    between atoms: C_6  and  C_7 
REMARK    2  A    between atoms: C_7  and  C_8 
REMARK    3  A    between atoms: C_8  and  C_9 
REMARK    4  A    between atoms: C_9  and  O_11 
REMARK    5  A    between atoms: C_16  and  C_17 
REMARK    6  A    between atoms: C_17  and  C_18 
REMARK    7  A    between atoms: C_18  and  C_19 
REMARK    8  A    between atoms: C_19  and  O_21 
REMARK    9  A    between atoms: C_28  and  C_29 
REMARK   10  A    between atoms: C_29  and  C_30 
REMARK   11  A    between atoms: C_30  and  C_31 
REMARK   12  A    between atoms: C_31  and  O_33 
REMARK   13  A    between atoms: C_42  and  C_43 
REMARK   14  A    between atoms: C_43  and  C_44 
REMARK   15  A    between atoms: C_44  and  C_45 
REMARK   16  A    between atoms: C_45  and  O_47 
ROOT
HETATM    1  C   UNK     0     -19.304 -24.584  25.927  0.00  0.00     0.051 C 
HETATM    2  C   UNK     0     -19.639 -23.247  25.297  0.00  0.00    -0.031 A 
HETATM    3  C   UNK     0     -19.851 -22.931  23.964  0.00  0.00     0.021 A 
HETATM    4  N   UNK     0     -20.093 -21.603  23.859  0.00  0.00    -0.361 N 
HETATM    5  C   UNK     0     -20.048 -21.067  25.096  0.00  0.00     0.022 A 
HETATM    6  C   UNK     0     -19.764 -22.067  26.020  0.00  0.00    -0.027 A 
HETATM    7  C   UNK     0     -20.336 -19.666  25.538  0.00  0.00     0.115 C 
HETATM    8  C   UNK     0     -21.542 -18.988  24.912  0.00  0.00     0.021 A 
HETATM    9  N   UNK     0     -22.717 -19.533  24.558  0.00  0.00    -0.361 N 
HETATM   10  C   UNK     0     -23.457 -18.577  23.956  0.00  0.00     0.022 A 
HETATM   11  C   UNK     0     -22.743 -17.383  23.930  0.00  0.00    -0.027 A 
HETATM   12  C   UNK     0     -21.536 -17.635  24.531  0.00  0.00    -0.031 A 
HETATM   13  C   UNK     0     -20.432 -16.621  24.733  0.00  0.00     0.051 C 
HETATM   14  C   UNK     0     -24.838 -18.765  23.336  0.00  0.00     0.115 C 
HETATM   15  C   UNK     0     -24.871 -19.771  22.197  0.00  0.00     0.021 A 
HETATM   16  N   UNK     0     -24.519 -21.070  22.237  0.00  0.00    -0.361 N 
HETATM   17  C   UNK     0     -24.624 -21.591  21.013  0.00  0.00     0.022 A 
HETATM   18  C   UNK     0     -25.076 -20.587  20.134  0.00  0.00    -0.027 A 
HETATM   19  C   UNK     0     -25.228 -19.452  20.888  0.00  0.00    -0.031 A 
HETATM   20  C   UNK     0     -25.736 -18.133  20.335  0.00  0.00     0.051 C 
HETATM   21  C   UNK     0     -24.281 -22.977  20.514  0.00  0.00     0.115 C 
HETATM   22  C   UNK     0     -23.110 -23.680  21.159  0.00  0.00     0.022 A 
HETATM   23  N   UNK     0     -21.931 -23.163  21.526  0.00  0.00    -0.361 N 
HETATM   24  C   UNK     0     -21.242 -24.111  22.192  0.00  0.00     0.021 A 
HETATM   25  C   UNK     0     -21.991 -25.270  22.247  0.00  0.00    -0.031 A 
HETATM   26  C   UNK     0     -21.630 -26.612  22.851  0.00  0.00     0.051 C 
HETATM   27  C   UNK     0     -23.192 -25.019  21.592  0.00  0.00    -0.027 A 
HETATM   28  C   UNK     0     -19.894 -23.970  22.880  0.00  0.00     0.115 C 
HETATM   29  H   UNK     0     -20.254 -21.046  22.906  0.00  0.00     0.165 HD
HETATM   30  H   UNK     0     -23.046 -20.578  24.776  0.00  0.00     0.165 HD
HETATM   31  H   UNK     0     -24.235 -21.643  23.158  0.00  0.00     0.165 HD
HETATM   32  H   UNK     0     -21.555 -22.136  21.280  0.00  0.00     0.165 HD
ENDROOT
BRANCH   6  33
HETATM   33  C   UNK     0     -19.601 -21.988  27.516  0.00  0.00     0.051 C 
BRANCH  33  34
HETATM   34  C   UNK     0     -20.553 -22.934  28.209  0.00  0.00     0.114 C 
BRANCH  34  35
HETATM   35  C   UNK     0     -19.877 -23.422  29.446  0.00  0.00     0.139 C 
HETATM   36  O   UNK     0     -19.539 -22.605  30.351  0.00  0.00    -0.650 OA
BRANCH  35  37
HETATM   37  O   UNK     0     -19.594 -24.764  29.665  0.00  0.00    -0.776 OA
HETATM   38  H   UNK     0     -18.934 -25.064  30.364  0.00  0.00     0.167 HD
ENDBRANCH  35  37
ENDBRANCH  34  35
ENDBRANCH  33  34
ENDBRANCH   6  33
BRANCH  27  39
HETATM   39  C   UNK     0     -24.234 -26.061  21.384  0.00  0.00     0.051 C 
BRANCH  39  40
HETATM   40  C   UNK     0     -24.525 -26.488  20.015  0.00  0.00     0.114 C 
BRANCH  40  41
HETATM   41  C   UNK     0     -23.484 -26.888  19.095  0.00  0.00     0.139 C 
HETATM   42  O   UNK     0     -22.834 -27.936  19.212  0.00  0.00    -0.650 OA
BRANCH  41  43
HETATM   43  O   UNK     0     -23.177 -26.044  17.990  0.00  0.00    -0.776 OA
HETATM   44  H   UNK     0     -23.426 -25.071  18.124  0.00  0.00     0.167 HD
ENDBRANCH  41  43
ENDBRANCH  40  41
ENDBRANCH  39  40
ENDBRANCH  27  39
BRANCH  11  45
HETATM   45  C   UNK     0     -23.159 -16.049  23.371  0.00  0.00     0.051 C 
BRANCH  45  46
HETATM   46  C   UNK     0     -24.405 -15.504  23.969  0.00  0.00     0.114 C 
BRANCH  46  47
HETATM   47  C   UNK     0     -24.022 -14.813  25.234  0.00  0.00     0.139 C 
HETATM   48  O   UNK     0     -23.106 -13.979  25.200  0.00  0.00    -0.650 OA
BRANCH  47  49
HETATM   49  O   UNK     0     -24.667 -15.096  26.412  0.00  0.00    -0.776 OA
HETATM   50  H   UNK     0     -24.712 -16.048  26.794  0.00  0.00     0.167 HD
ENDBRANCH  47  49
ENDBRANCH  46  47
ENDBRANCH  45  46
ENDBRANCH  11  45
BRANCH  18  51
HETATM   51  C   UNK     0     -25.367 -20.707  18.661  0.00  0.00     0.051 C 
BRANCH  51  52
HETATM   52  C   UNK     0     -24.084 -20.322  17.940  0.00  0.00     0.114 C 
BRANCH  52  53
HETATM   53  C   UNK     0     -23.484 -21.470  17.233  0.00  0.00     0.139 C 
HETATM   54  O   UNK     0     -22.282 -21.451  16.923  0.00  0.00    -0.650 OA
BRANCH  53  55
HETATM   55  O   UNK     0     -24.264 -22.556  16.917  0.00  0.00    -0.776 OA
HETATM   56  H   UNK     0     -23.994 -23.323  16.347  0.00  0.00     0.167 HD
ENDBRANCH  53  55
ENDBRANCH  52  53
ENDBRANCH  51  52
ENDBRANCH  18  51
TORSDOF 16
ENDMDL
MODEL 13
REMARK VINA RESULT:      -8.4      4.921      9.438
REMARK  16 active torsions:
REMARK  status: ('A' for Active; 'I' for Inactive)
REMARK    1  A    between atoms: C_6  and  C_7 
REMARK    2  A    between atoms: C_7  and  C_8 
REMARK    3  A    between atoms: C_8  and  C_9 
REMARK    4  A    between atoms: C_9  and  O_11 
REMARK    5  A    between atoms: C_16  and  C_17 
REMARK    6  A    between atoms: C_17  and  C_18 
REMARK    7  A    between atoms: C_18  and  C_19 
REMARK    8  A    between atoms: C_19  and  O_21 
REMARK    9  A    between atoms: C_28  and  C_29 
REMARK   10  A    between atoms: C_29  and  C_30 
REMARK   11  A    between atoms: C_30  and  C_31 
REMARK   12  A    between atoms: C_31  and  O_33 
REMARK   13  A    between atoms: C_42  and  C_43 
REMARK   14  A    between atoms: C_43  and  C_44 
REMARK   15  A    between atoms: C_44  and  C_45 
REMARK   16  A    between atoms: C_45  and  O_47 
ROOT
HETATM    1  C   UNK     0     -25.253 -20.923  16.993  0.00  0.00     0.051 C 
HETATM    2  C   UNK     0     -24.262 -22.062  16.858  0.00  0.00    -0.031 A 
HETATM    3  C   UNK     0     -23.205 -22.410  17.684  0.00  0.00     0.021 A 
HETATM    4  N   UNK     0     -22.567 -23.481  17.157  0.00  0.00    -0.361 N 
HETATM    5  C   UNK     0     -23.200 -23.829  16.017  0.00  0.00     0.022 A 
HETATM    6  C   UNK     0     -24.264 -22.960  15.799  0.00  0.00    -0.027 A 
HETATM    7  C   UNK     0     -22.954 -24.993  15.108  0.00  0.00     0.115 C 
HETATM    8  C   UNK     0     -22.680 -26.331  15.773  0.00  0.00     0.021 A 
HETATM    9  N   UNK     0     -23.207 -26.826  16.904  0.00  0.00    -0.361 N 
HETATM   10  C   UNK     0     -22.607 -28.006  17.164  0.00  0.00     0.022 A 
HETATM   11  C   UNK     0     -21.674 -28.284  16.169  0.00  0.00    -0.027 A 
HETATM   12  C   UNK     0     -21.715 -27.232  15.289  0.00  0.00    -0.031 A 
HETATM   13  C   UNK     0     -20.871 -27.103  14.041  0.00  0.00     0.051 C 
HETATM   14  C   UNK     0     -22.849 -28.891  18.384  0.00  0.00     0.115 C 
HETATM   15  C   UNK     0     -22.519 -28.219  19.707  0.00  0.00     0.021 A 
HETATM   16  N   UNK     0     -23.045 -27.084  20.205  0.00  0.00    -0.361 N 
HETATM   17  C   UNK     0     -22.441 -26.791  21.359  0.00  0.00     0.022 A 
HETATM   18  C   UNK     0     -21.483 -27.787  21.631  0.00  0.00    -0.027 A 
HETATM   19  C   UNK     0     -21.542 -28.676  20.589  0.00  0.00    -0.031 A 
HETATM   20  C   UNK     0     -20.694 -29.932  20.501  0.00  0.00     0.051 C 
HETATM   21  C   UNK     0     -22.613 -25.596  22.270  0.00  0.00     0.115 C 
HETATM   22  C   UNK     0     -22.929 -24.267  21.625  0.00  0.00     0.022 A 
HETATM   23  N   UNK     0     -22.423 -23.750  20.498  0.00  0.00    -0.361 N 
HETATM   24  C   UNK     0     -23.090 -22.613  20.216  0.00  0.00     0.021 A 
HETATM   25  C   UNK     0     -24.043 -22.387  21.191  0.00  0.00    -0.031 A 
HETATM   26  C   UNK     0     -25.005 -21.226  21.332  0.00  0.00     0.051 C 
HETATM   27  C   UNK     0     -23.959 -23.432  22.104  0.00  0.00    -0.027 A 
HETATM   28  C   UNK     0     -22.938 -21.724  18.994  0.00  0.00     0.115 C 
HETATM   29  H   UNK     0     -21.650 -23.960  17.572  0.00  0.00     0.165 HD
HETATM   30  H   UNK     0     -24.039 -26.369  17.493  0.00  0.00     0.165 HD
HETATM   31  H   UNK     0     -23.893 -26.503  19.758  0.00  0.00     0.165 HD
HETATM   32  H   UNK     0     -21.559 -24.161  19.913  0.00  0.00     0.165 HD
ENDROOT
BRANCH   6  33
HETATM   33  C   UNK     0     -25.267 -22.917  14.674  0.00  0.00     0.051 C 
BRANCH  33  34
HETATM   34  C   UNK     0     -26.653 -23.236  15.181  0.00  0.00     0.114 C 
BRANCH  34  35
HETATM   35  C   UNK     0     -27.335 -24.051  14.135  0.00  0.00     0.139 C 
HETATM   36  O   UNK     0     -26.890 -24.068  12.950  0.00  0.00    -0.650 OA
BRANCH  35  37
HETATM   37  O   UNK     0     -28.463 -24.817  14.399  0.00  0.00    -0.776 OA
HETATM   38  H   UNK     0     -29.230 -24.468  14.951  0.00  0.00     0.167 HD
ENDBRANCH  35  37
ENDBRANCH  34  35
ENDBRANCH  33  34
ENDBRANCH   6  33
BRANCH  27  39
HETATM   39  C   UNK     0     -24.785 -23.497  23.340  0.00  0.00     0.051 C 
BRANCH  39  40
HETATM   40  C   UNK     0     -26.086 -24.163  23.270  0.00  0.00     0.114 C 
BRANCH  40  41
HETATM   41  C   UNK     0     -26.322 -25.305  22.416  0.00  0.00     0.139 C 
HETATM   42  O   UNK     0     -25.859 -26.432  22.638  0.00  0.00    -0.650 OA
BRANCH  41  43
HETATM   43  O   UNK     0     -27.128 -25.144  21.254  0.00  0.00    -0.776 OA
HETATM   44  H   UNK     0     -27.976 -25.698  21.251  0.00  0.00     0.167 HD
ENDBRANCH  41  43
ENDBRANCH  40  41
ENDBRANCH  39  40
ENDBRANCH  27  39
BRANCH  11  45
HETATM   45  C   UNK     0     -20.773 -29.482  16.030  0.00  0.00     0.051 C 
BRANCH  45  46
HETATM   46  C   UNK     0     -21.453 -30.693  15.505  0.00  0.00     0.114 C 
BRANCH  46  47
HETATM   47  C   UNK     0     -21.011 -30.871  14.092  0.00  0.00     0.139 C 
HETATM   48  O   UNK     0     -21.753 -30.469  13.185  0.00  0.00    -0.650 OA
BRANCH  47  49
HETATM   49  O   UNK     0     -19.811 -31.468  13.802  0.00  0.00    -0.776 OA
HETATM   50  H   UNK     0     -19.179 -31.099  13.081  0.00  0.00     0.167 HD
ENDBRANCH  47  49
ENDBRANCH  46  47
ENDBRANCH  45  46
ENDBRANCH  11  45
BRANCH  18  51
HETATM   51  C   UNK     0     -20.575 -27.898  22.828  0.00  0.00     0.051 C 
BRANCH  51  52
HETATM   52  C   UNK     0     -21.254 -28.861  23.790  0.00  0.00     0.114 C 
BRANCH  52  53
HETATM   53  C   UNK     0     -20.357 -29.962  24.190  0.00  0.00     0.139 C 
HETATM   54  O   UNK     0     -19.439 -29.754  25.000  0.00  0.00    -0.650 OA
BRANCH  53  55
HETATM   55  O   UNK     0     -20.540 -31.215  23.658  0.00  0.00    -0.776 OA
HETATM   56  H   UNK     0     -20.889 -32.009  24.142  0.00  0.00     0.167 HD
ENDBRANCH  53  55
ENDBRANCH  52  53
ENDBRANCH  51  52
ENDBRANCH  18  51
TORSDOF 16
ENDMDL
MODEL 14
REMARK VINA RESULT:      -8.4      3.736      8.952
REMARK  16 active torsions:
REMARK  status: ('A' for Active; 'I' for Inactive)
REMARK    1  A    between atoms: C_6  and  C_7 
REMARK    2  A    between atoms: C_7  and  C_8 
REMARK    3  A    between atoms: C_8  and  C_9 
REMARK    4  A    between atoms: C_9  and  O_11 
REMARK    5  A    between atoms: C_16  and  C_17 
REMARK    6  A    between atoms: C_17  and  C_18 
REMARK    7  A    between atoms: C_18  and  C_19 
REMARK    8  A    between atoms: C_19  and  O_21 
REMARK    9  A    between atoms: C_28  and  C_29 
REMARK   10  A    between atoms: C_29  and  C_30 
REMARK   11  A    between atoms: C_30  and  C_31 
REMARK   12  A    between atoms: C_31  and  O_33 
REMARK   13  A    between atoms: C_42  and  C_43 
REMARK   14  A    between atoms: C_43  and  C_44 
REMARK   15  A    between atoms: C_44  and  C_45 
REMARK   16  A    between atoms: C_45  and  O_47 
ROOT
HETATM    1  C   UNK     0     -24.601 -20.797  16.101  0.00  0.00     0.051 C 
HETATM    2  C   UNK     0     -23.798 -22.060  16.334  0.00  0.00    -0.031 A 
HETATM    3  C   UNK     0     -22.794 -22.307  17.257  0.00  0.00     0.021 A 
HETATM    4  N   UNK     0     -22.336 -23.569  17.084  0.00  0.00    -0.361 N 
HETATM    5  C   UNK     0     -23.032 -24.135  16.076  0.00  0.00     0.022 A 
HETATM    6  C   UNK     0     -23.953 -23.218  15.583  0.00  0.00    -0.027 A 
HETATM    7  C   UNK     0     -22.980 -25.537  15.554  0.00  0.00     0.115 C 
HETATM    8  C   UNK     0     -22.904 -26.647  16.587  0.00  0.00     0.021 A 
HETATM    9  N   UNK     0     -23.484 -26.705  17.796  0.00  0.00    -0.361 N 
HETATM   10  C   UNK     0     -23.067 -27.835  18.407  0.00  0.00     0.022 A 
HETATM   11  C   UNK     0     -22.202 -28.528  17.565  0.00  0.00    -0.027 A 
HETATM   12  C   UNK     0     -22.096 -27.785  16.416  0.00  0.00    -0.031 A 
HETATM   13  C   UNK     0     -21.261 -28.155  15.211  0.00  0.00     0.051 C 
HETATM   14  C   UNK     0     -23.423 -28.277  19.824  0.00  0.00     0.115 C 
HETATM   15  C   UNK     0     -22.974 -27.305  20.903  0.00  0.00     0.021 A 
HETATM   16  N   UNK     0     -23.313 -26.009  21.033  0.00  0.00    -0.361 N 
HETATM   17  C   UNK     0     -22.654 -25.485  22.070  0.00  0.00     0.022 A 
HETATM   18  C   UNK     0     -21.855 -26.492  22.648  0.00  0.00    -0.027 A 
HETATM   19  C   UNK     0     -22.066 -27.627  21.909  0.00  0.00    -0.031 A 
HETATM   20  C   UNK     0     -21.420 -28.966  22.217  0.00  0.00     0.051 C 
HETATM   21  C   UNK     0     -22.627 -24.065  22.587  0.00  0.00     0.115 C 
HETATM   22  C   UNK     0     -22.746 -22.951  21.574  0.00  0.00     0.022 A 
HETATM   23  N   UNK     0     -22.184 -22.869  20.362  0.00  0.00    -0.361 N 
HETATM   24  C   UNK     0     -22.674 -21.776  19.741  0.00  0.00     0.021 A 
HETATM   25  C   UNK     0     -23.565 -21.134  20.579  0.00  0.00    -0.031 A 
HETATM   26  C   UNK     0     -24.337 -19.852  20.347  0.00  0.00     0.051 C 
HETATM   27  C   UNK     0     -23.628 -21.867  21.758  0.00  0.00    -0.027 A 
HETATM   28  C   UNK     0     -22.405 -21.317  18.318  0.00  0.00     0.115 C 
HETATM   29  H   UNK     0     -21.497 -24.038  17.648  0.00  0.00     0.165 HD
HETATM   30  H   UNK     0     -24.227 -25.976  18.202  0.00  0.00     0.165 HD
HETATM   31  H   UNK     0     -24.068 -25.463  20.411  0.00  0.00     0.165 HD
HETATM   32  H   UNK     0     -21.402 -23.558  19.948  0.00  0.00     0.165 HD
ENDROOT
BRANCH   6  33
HETATM   33  C   UNK     0     -24.955 -23.355  14.464  0.00  0.00     0.051 C 
BRANCH  33  34
HETATM   34  C   UNK     0     -26.366 -23.271  14.996  0.00  0.00     0.114 C 
BRANCH  34  35
HETATM   35  C   UNK     0     -27.208 -24.187  14.174  0.00  0.00     0.139 C 
HETATM   36  O   UNK     0     -26.735 -24.721  13.129  0.00  0.00    -0.650 OA
BRANCH  35  37
HETATM   37  O   UNK     0     -28.521 -24.497  14.506  0.00  0.00    -0.776 OA
HETATM   38  H   UNK     0     -28.865 -24.426  15.450  0.00  0.00     0.167 HD
ENDBRANCH  35  37
ENDBRANCH  34  35
ENDBRANCH  33  34
ENDBRANCH   6  33
BRANCH  27  39
HETATM   39  C   UNK     0     -24.436 -21.443  22.934  0.00  0.00     0.051 C 
BRANCH  39  40
HETATM   40  C   UNK     0     -25.888 -21.612  22.875  0.00  0.00     0.114 C 
BRANCH  40  41
HETATM   41  C   UNK     0     -26.802 -20.536  23.184  0.00  0.00     0.139 C 
HETATM   42  O   UNK     0     -26.686 -19.389  22.730  0.00  0.00    -0.650 OA
BRANCH  41  43
HETATM   43  O   UNK     0     -27.900 -20.790  24.055  0.00  0.00    -0.776 OA
HETATM   44  H   UNK     0     -27.897 -20.238  24.904  0.00  0.00     0.167 HD
ENDBRANCH  41  43
ENDBRANCH  40  41
ENDBRANCH  39  40
ENDBRANCH  27  39
BRANCH  11  45
HETATM   45  C   UNK     0     -21.498 -29.835  17.808  0.00  0.00     0.051 C 
BRANCH  45  46
HETATM   46  C   UNK     0     -20.243 -29.711  18.593  0.00  0.00     0.114 C 
BRANCH  46  47
HETATM   47  C   UNK     0     -19.752 -31.093  18.862  0.00  0.00     0.139 C 
HETATM   48  O   UNK     0     -19.654 -31.467  20.039  0.00  0.00    -0.650 OA
BRANCH  47  49
HETATM   49  O   UNK     0     -19.414 -31.932  17.831  0.00  0.00    -0.776 OA
HETATM   50  H   UNK     0     -18.783 -32.731  17.962  0.00  0.00     0.167 HD
ENDBRANCH  47  49
ENDBRANCH  46  47
ENDBRANCH  45  46
ENDBRANCH  11  45
BRANCH  18  51
HETATM   51  C   UNK     0     -20.956 -26.383  23.853  0.00  0.00     0.051 C 
BRANCH  51  52
HETATM   52  C   UNK     0     -19.659 -25.758  23.362  0.00  0.00     0.114 C 
BRANCH  52  53
HETATM   53  C   UNK     0     -19.210 -24.661  24.240  0.00  0.00     0.139 C 
HETATM   54  O   UNK     0     -18.466 -24.901  25.204  0.00  0.00    -0.650 OA
BRANCH  53  55
HETATM   55  O   UNK     0     -19.623 -23.375  23.986  0.00  0.00    -0.776 OA
HETATM   56  H   UNK     0     -19.097 -22.549  24.152  0.00  0.00     0.167 HD
ENDBRANCH  53  55
ENDBRANCH  52  53
ENDBRANCH  51  52
ENDBRANCH  18  51
TORSDOF 16
ENDMDL
MODEL 15
REMARK VINA RESULT:      -8.0      2.266      7.312
REMARK  16 active torsions:
REMARK  status: ('A' for Active; 'I' for Inactive)
REMARK    1  A    between atoms: C_6  and  C_7 
REMARK    2  A    between atoms: C_7  and  C_8 
REMARK    3  A    between atoms: C_8  and  C_9 
REMARK    4  A    between atoms: C_9  and  O_11 
REMARK    5  A    between atoms: C_16  and  C_17 
REMARK    6  A    between atoms: C_17  and  C_18 
REMARK    7  A    between atoms: C_18  and  C_19 
REMARK    8  A    between atoms: C_19  and  O_21 
REMARK    9  A    between atoms: C_28  and  C_29 
REMARK   10  A    between atoms: C_29  and  C_30 
REMARK   11  A    between atoms: C_30  and  C_31 
REMARK   12  A    between atoms: C_31  and  O_33 
REMARK   13  A    between atoms: C_42  and  C_43 
REMARK   14  A    between atoms: C_43  and  C_44 
REMARK   15  A    between atoms: C_44  and  C_45 
REMARK   16  A    between atoms: C_45  and  O_47 
ROOT
HETATM    1  C   UNK     0     -20.940 -15.972  26.618  0.00  0.00     0.051 C 
HETATM    2  C   UNK     0     -21.311 -16.885  25.467  0.00  0.00    -0.031 A 
HETATM    3  C   UNK     0     -20.538 -17.828  24.808  0.00  0.00     0.021 A 
HETATM    4  N   UNK     0     -21.274 -18.389  23.819  0.00  0.00    -0.361 N 
HETATM    5  C   UNK     0     -22.501 -17.831  23.839  0.00  0.00     0.022 A 
HETATM    6  C   UNK     0     -22.558 -16.883  24.856  0.00  0.00    -0.027 A 
HETATM    7  C   UNK     0     -23.711 -18.161  23.022  0.00  0.00     0.115 C 
HETATM    8  C   UNK     0     -24.006 -19.634  22.806  0.00  0.00     0.021 A 
HETATM    9  N   UNK     0     -23.821 -20.657  23.655  0.00  0.00    -0.361 N 
HETATM   10  C   UNK     0     -24.135 -21.800  23.008  0.00  0.00     0.022 A 
HETATM   11  C   UNK     0     -24.542 -21.505  21.711  0.00  0.00    -0.027 A 
HETATM   12  C   UNK     0     -24.464 -20.142  21.577  0.00  0.00    -0.031 A 
HETATM   13  C   UNK     0     -24.818 -19.365  20.329  0.00  0.00     0.051 C 
HETATM   14  C   UNK     0     -24.012 -23.215  23.568  0.00  0.00     0.115 C 
HETATM   15  C   UNK     0     -22.594 -23.603  23.955  0.00  0.00     0.021 A 
HETATM   16  N   UNK     0     -21.789 -22.992  24.844  0.00  0.00    -0.361 N 
HETATM   17  C   UNK     0     -20.599 -23.597  24.845  0.00  0.00     0.022 A 
HETATM   18  C   UNK     0     -20.634 -24.659  23.920  0.00  0.00    -0.027 A 
HETATM   19  C   UNK     0     -21.889 -24.653  23.370  0.00  0.00    -0.031 A 
HETATM   20  C   UNK     0     -22.366 -25.665  22.344  0.00  0.00     0.051 C 
HETATM   21  C   UNK     0     -19.336 -23.256  25.604  0.00  0.00     0.115 C 
HETATM   22  C   UNK     0     -19.052 -21.795  25.864  0.00  0.00     0.022 A 
HETATM   23  N   UNK     0     -19.231 -20.755  25.039  0.00  0.00    -0.361 N 
HETATM   24  C   UNK     0     -18.987 -19.622  25.728  0.00  0.00     0.021 A 
HETATM   25  C   UNK     0     -18.633 -19.940  27.025  0.00  0.00    -0.031 A 
HETATM   26  C   UNK     0     -18.231 -19.018  28.157  0.00  0.00     0.051 C 
HETATM   27  C   UNK     0     -18.667 -21.326  27.136  0.00  0.00    -0.027 A 
HETATM   28  C   UNK     0     -19.147 -18.190  25.247  0.00  0.00     0.115 C 
HETATM   29  H   UNK     0     -20.908 -19.148  23.089  0.00  0.00     0.165 HD
HETATM   30  H   UNK     0     -23.516 -20.572  24.726  0.00  0.00     0.165 HD
HETATM   31  H   UNK     0     -22.080 -22.146  25.519  0.00  0.00     0.165 HD
HETATM   32  H   UNK     0     -19.490 -20.813  23.950  0.00  0.00     0.165 HD
ENDROOT
BRANCH   6  33
HETATM   33  C   UNK     0     -23.692 -15.987  25.285  0.00  0.00     0.051 C 
BRANCH  33  34
HETATM   34  C   UNK     0     -23.451 -14.566  24.833  0.00  0.00     0.114 C 
BRANCH  34  35
HETATM   35  C   UNK     0     -24.676 -13.780  25.156  0.00  0.00     0.139 C 
HETATM   36  O   UNK     0     -24.853 -13.326  26.324  0.00  0.00    -0.650 OA
BRANCH  35  37
HETATM   37  O   UNK     0     -25.662 -13.510  24.215  0.00  0.00    -0.776 OA
HETATM   38  H   UNK     0     -25.449 -13.379  23.240  0.00  0.00     0.167 HD
ENDBRANCH  35  37
ENDBRANCH  34  35
ENDBRANCH  33  34
ENDBRANCH   6  33
BRANCH  27  39
HETATM   39  C   UNK     0     -18.274 -22.049  28.375  0.00  0.00     0.051 C 
BRANCH  39  40
HETATM   40  C   UNK     0     -19.320 -22.401  29.335  0.00  0.00     0.114 C 
BRANCH  40  41
HETATM   41  C   UNK     0     -20.154 -23.571  29.171  0.00  0.00     0.139 C 
HETATM   42  O   UNK     0     -21.257 -23.550  28.608  0.00  0.00    -0.650 OA
BRANCH  41  43
HETATM   43  O   UNK     0     -19.699 -24.821  29.678  0.00  0.00    -0.776 OA
HETATM   44  H   UNK     0     -18.715 -24.842  29.920  0.00  0.00     0.167 HD
ENDBRANCH  41  43
ENDBRANCH  40  41
ENDBRANCH  39  40
ENDBRANCH  27  39
BRANCH  11  45
HETATM   45  C   UNK     0     -24.993 -22.447  20.628  0.00  0.00     0.051 C 
BRANCH  45  46
HETATM   46  C   UNK     0     -23.918 -22.842  19.682  0.00  0.00     0.114 C 
BRANCH  46  47
HETATM   47  C   UNK     0     -23.983 -24.324  19.534  0.00  0.00     0.139 C 
HETATM   48  O   UNK     0     -23.269 -24.866  18.678  0.00  0.00    -0.650 OA
BRANCH  47  49
HETATM   49  O   UNK     0     -24.816 -25.074  20.325  0.00  0.00    -0.776 OA
HETATM   50  H   UNK     0     -25.834 -25.079  20.194  0.00  0.00     0.167 HD
ENDBRANCH  47  49
ENDBRANCH  46  47
ENDBRANCH  45  46
ENDBRANCH  11  45
BRANCH  18  51
HETATM   51  C   UNK     0     -19.537 -25.640  23.594  0.00  0.00     0.051 C 
BRANCH  51  52
HETATM   52  C   UNK     0     -19.711 -26.808  24.553  0.00  0.00     0.114 C 
BRANCH  52  53
HETATM   53  C   UNK     0     -19.880 -28.087  23.836  0.00  0.00     0.139 C 
HETATM   54  O   UNK     0     -20.035 -29.141  24.473  0.00  0.00    -0.650 OA
BRANCH  53  55
HETATM   55  O   UNK     0     -19.862 -28.104  22.462  0.00  0.00    -0.776 OA
HETATM   56  H   UNK     0     -19.728 -28.904  21.890  0.00  0.00     0.167 HD
ENDBRANCH  53  55
ENDBRANCH  52  53
ENDBRANCH  51  52
ENDBRANCH  18  51
TORSDOF 16
ENDMDL
MODEL 16
REMARK VINA RESULT:      -7.9      3.505      6.854
REMARK  16 active torsions:
REMARK  status: ('A' for Active; 'I' for Inactive)
REMARK    1  A    between atoms: C_6  and  C_7 
REMARK    2  A    between atoms: C_7  and  C_8 
REMARK    3  A    between atoms: C_8  and  C_9 
REMARK    4  A    between atoms: C_9  and  O_11 
REMARK    5  A    between atoms: C_16  and  C_17 
REMARK    6  A    between atoms: C_17  and  C_18 
REMARK    7  A    between atoms: C_18  and  C_19 
REMARK    8  A    between atoms: C_19  and  O_21 
REMARK    9  A    between atoms: C_28  and  C_29 
REMARK   10  A    between atoms: C_29  and  C_30 
REMARK   11  A    between atoms: C_30  and  C_31 
REMARK   12  A    between atoms: C_31  and  O_33 
REMARK   13  A    between atoms: C_42  and  C_43 
REMARK   14  A    between atoms: C_43  and  C_44 
REMARK   15  A    between atoms: C_44  and  C_45 
REMARK   16  A    between atoms: C_45  and  O_47 
ROOT
HETATM    1  C   UNK     0     -20.714 -30.116  17.724  0.00  0.00     0.051 C 
HETATM    2  C   UNK     0     -21.666 -28.939  17.668  0.00  0.00    -0.031 A 
HETATM    3  C   UNK     0     -22.576 -28.498  18.616  0.00  0.00     0.021 A 
HETATM    4  N   UNK     0     -23.239 -27.424  18.125  0.00  0.00    -0.361 N 
HETATM    5  C   UNK     0     -22.765 -27.166  16.888  0.00  0.00     0.022 A 
HETATM    6  C   UNK     0     -21.782 -28.097  16.570  0.00  0.00    -0.027 A 
HETATM    7  C   UNK     0     -23.093 -26.039  15.959  0.00  0.00     0.115 C 
HETATM    8  C   UNK     0     -23.211 -24.658  16.579  0.00  0.00     0.021 A 
HETATM    9  N   UNK     0     -22.505 -24.132  17.591  0.00  0.00    -0.361 N 
HETATM   10  C   UNK     0     -23.012 -22.912  17.867  0.00  0.00     0.022 A 
HETATM   11  C   UNK     0     -24.068 -22.640  17.002  0.00  0.00    -0.027 A 
HETATM   12  C   UNK     0     -24.199 -23.735  16.187  0.00  0.00    -0.031 A 
HETATM   13  C   UNK     0     -25.220 -23.886  15.083  0.00  0.00     0.051 C 
HETATM   14  C   UNK     0     -22.558 -21.979  18.987  0.00  0.00     0.115 C 
HETATM   15  C   UNK     0     -22.719 -22.567  20.380  0.00  0.00     0.021 A 
HETATM   16  N   UNK     0     -22.173 -23.699  20.862  0.00  0.00    -0.361 N 
HETATM   17  C   UNK     0     -22.613 -23.903  22.105  0.00  0.00     0.022 A 
HETATM   18  C   UNK     0     -23.480 -22.848  22.454  0.00  0.00    -0.027 A 
HETATM   19  C   UNK     0     -23.536 -22.017  21.365  0.00  0.00    -0.031 A 
HETATM   20  C   UNK     0     -24.336 -20.728  21.329  0.00  0.00     0.051 C 
HETATM   21  C   UNK     0     -22.360 -25.057  23.049  0.00  0.00     0.115 C 
HETATM   22  C   UNK     0     -22.197 -26.431  22.443  0.00  0.00     0.022 A 
HETATM   23  N   UNK     0     -22.883 -26.979  21.431  0.00  0.00    -0.361 N 
HETATM   24  C   UNK     0     -22.311 -28.160  21.122  0.00  0.00     0.021 A 
HETATM   25  C   UNK     0     -21.237 -28.384  21.962  0.00  0.00    -0.031 A 
HETATM   26  C   UNK     0     -20.313 -29.582  22.030  0.00  0.00     0.051 C 
HETATM   27  C   UNK     0     -21.144 -27.291  22.816  0.00  0.00    -0.027 A 
HETATM   28  C   UNK     0     -22.678 -29.102  19.988  0.00  0.00     0.115 C 
HETATM   29  H   UNK     0     -24.065 -26.880  18.640  0.00  0.00     0.165 HD
HETATM   30  H   UNK     0     -21.616 -24.599  18.081  0.00  0.00     0.165 HD
HETATM   31  H   UNK     0     -21.424 -24.343  20.332  0.00  0.00     0.165 HD
HETATM   32  H   UNK     0     -23.805 -26.556  20.954  0.00  0.00     0.165 HD
ENDROOT
BRANCH   6  33
HETATM   33  C   UNK     0     -20.957 -28.246  15.317  0.00  0.00     0.051 C 
BRANCH  33  34
HETATM   34  C   UNK     0     -21.677 -29.099  14.300  0.00  0.00     0.114 C 
BRANCH  34  35
HETATM   35  C   UNK     0     -21.880 -28.264  13.081  0.00  0.00     0.139 C 
HETATM   36  O   UNK     0     -21.303 -27.143  12.973  0.00  0.00    -0.650 OA
BRANCH  35  37
HETATM   37  O   UNK     0     -22.691 -28.664  12.026  0.00  0.00    -0.776 OA
HETATM   38  H   UNK     0     -23.105 -29.581  11.988  0.00  0.00     0.167 HD
ENDBRANCH  35  37
ENDBRANCH  34  35
ENDBRANCH  33  34
ENDBRANCH   6  33
BRANCH  27  39
HETATM   39  C   UNK     0     -20.143 -27.203  23.915  0.00  0.00     0.051 C 
BRANCH  39  40
HETATM   40  C   UNK     0     -18.867 -26.544  23.640  0.00  0.00     0.114 C 
BRANCH  40  41
HETATM   41  C   UNK     0     -17.874 -26.328  24.669  0.00  0.00     0.139 C 
HETATM   42  O   UNK     0     -18.133 -26.335  25.880  0.00  0.00    -0.650 OA
BRANCH  41  43
HETATM   43  O   UNK     0     -16.523 -26.093  24.287  0.00  0.00    -0.776 OA
HETATM   44  H   UNK     0     -16.276 -25.114  24.202  0.00  0.00     0.167 HD
ENDBRANCH  41  43
ENDBRANCH  40  41
ENDBRANCH  39  40
ENDBRANCH  27  39
BRANCH  11  45
HETATM   45  C   UNK     0     -24.929 -21.408  16.925  0.00  0.00     0.051 C 
BRANCH  45  46
HETATM   46  C   UNK     0     -24.320 -20.290  16.159  0.00  0.00     0.114 C 
BRANCH  46  47
HETATM   47  C   UNK     0     -24.358 -20.671  14.718  0.00  0.00     0.139 C 
HETATM   48  O   UNK     0     -23.325 -21.110  14.194  0.00  0.00    -0.650 OA
BRANCH  47  49
HETATM   49  O   UNK     0     -25.511 -20.537  13.986  0.00  0.00    -0.776 OA
HETATM   50  H   UNK     0     -26.274 -19.917  14.280  0.00  0.00     0.167 HD
ENDBRANCH  47  49
ENDBRANCH  46  47
ENDBRANCH  45  46
ENDBRANCH  11  45
BRANCH  18  51
HETATM   51  C   UNK     0     -24.198 -22.633  23.761  0.00  0.00     0.051 C 
BRANCH  51  52
HETATM   52  C   UNK     0     -25.491 -23.431  23.673  0.00  0.00     0.114 C 
BRANCH  52  53
HETATM   53  C   UNK     0     -26.680 -22.568  23.808  0.00  0.00     0.139 C 
HETATM   54  O   UNK     0     -26.621 -21.529  24.486  0.00  0.00    -0.650 OA
BRANCH  53  55
HETATM   55  O   UNK     0     -27.850 -22.921  23.182  0.00  0.00    -0.776 OA
HETATM   56  H   UNK     0     -27.936 -23.540  22.410  0.00  0.00     0.167 HD
ENDBRANCH  53  55
ENDBRANCH  52  53
ENDBRANCH  51  52
ENDBRANCH  18  51
TORSDOF 16
ENDMDL
MODEL 17
REMARK VINA RESULT:      -7.8      6.614      9.850
REMARK  16 active torsions:
REMARK  status: ('A' for Active; 'I' for Inactive)
REMARK    1  A    between atoms: C_6  and  C_7 
REMARK    2  A    between atoms: C_7  and  C_8 
REMARK    3  A    between atoms: C_8  and  C_9 
REMARK    4  A    between atoms: C_9  and  O_11 
REMARK    5  A    between atoms: C_16  and  C_17 
REMARK    6  A    between atoms: C_17  and  C_18 
REMARK    7  A    between atoms: C_18  and  C_19 
REMARK    8  A    between atoms: C_19  and  O_21 
REMARK    9  A    between atoms: C_28  and  C_29 
REMARK   10  A    between atoms: C_29  and  C_30 
REMARK   11  A    between atoms: C_30  and  C_31 
REMARK   12  A    between atoms: C_31  and  O_33 
REMARK   13  A    between atoms: C_42  and  C_43 
REMARK   14  A    between atoms: C_43  and  C_44 
REMARK   15  A    between atoms: C_44  and  C_45 
REMARK   16  A    between atoms: C_45  and  O_47 
ROOT
HETATM    1  C   UNK     0     -22.872 -28.121   9.309  0.00  0.00     0.051 C 
HETATM    2  C   UNK     0     -23.605 -27.390  10.416  0.00  0.00    -0.031 A 
HETATM    3  C   UNK     0     -24.175 -27.894  11.575  0.00  0.00     0.021 A 
HETATM    4  N   UNK     0     -24.753 -26.878  12.260  0.00  0.00    -0.361 N 
HETATM    5  C   UNK     0     -24.555 -25.737  11.567  0.00  0.00     0.022 A 
HETATM    6  C   UNK     0     -23.842 -26.022  10.407  0.00  0.00    -0.027 A 
HETATM    7  C   UNK     0     -24.908 -24.329  11.932  0.00  0.00     0.115 C 
HETATM    8  C   UNK     0     -24.647 -23.910  13.368  0.00  0.00     0.021 A 
HETATM    9  N   UNK     0     -23.641 -24.280  14.176  0.00  0.00    -0.361 N 
HETATM   10  C   UNK     0     -23.861 -23.737  15.393  0.00  0.00     0.022 A 
HETATM   11  C   UNK     0     -25.034 -22.990  15.364  0.00  0.00    -0.027 A 
HETATM   12  C   UNK     0     -25.535 -23.095  14.091  0.00  0.00    -0.031 A 
HETATM   13  C   UNK     0     -26.803 -22.438  13.594  0.00  0.00     0.051 C 
HETATM   14  C   UNK     0     -23.005 -23.943  16.640  0.00  0.00     0.115 C 
HETATM   15  C   UNK     0     -22.919 -25.391  17.095  0.00  0.00     0.021 A 
HETATM   16  N   UNK     0     -22.466 -26.447  16.394  0.00  0.00    -0.361 N 
HETATM   17  C   UNK     0     -22.622 -27.556  17.121  0.00  0.00     0.022 A 
HETATM   18  C   UNK     0     -23.195 -27.204  18.359  0.00  0.00    -0.027 A 
HETATM   19  C   UNK     0     -23.375 -25.845  18.331  0.00  0.00    -0.031 A 
HETATM   20  C   UNK     0     -23.938 -25.044  19.490  0.00  0.00     0.051 C 
HETATM   21  C   UNK     0     -22.341 -28.998  16.766  0.00  0.00     0.115 C 
HETATM   22  C   UNK     0     -22.555 -29.418  15.330  0.00  0.00     0.022 A 
HETATM   23  N   UNK     0     -23.544 -29.063  14.501  0.00  0.00    -0.361 N 
HETATM   24  C   UNK     0     -23.264 -29.550  13.275  0.00  0.00     0.021 A 
HETATM   25  C   UNK     0     -22.071 -30.245  13.319  0.00  0.00    -0.031 A 
HETATM   26  C   UNK     0     -21.366 -31.001  12.212  0.00  0.00     0.051 C 
HETATM   27  C   UNK     0     -21.598 -30.175  14.624  0.00  0.00    -0.027 A 
HETATM   28  C   UNK     0     -24.041 -29.332  11.988  0.00  0.00     0.115 C 
HETATM   29  H   UNK     0     -25.330 -26.980  13.207  0.00  0.00     0.165 HD
HETATM   30  H   UNK     0     -22.749 -24.883  13.878  0.00  0.00     0.165 HD
HETATM   31  H   UNK     0     -21.982 -26.404  15.383  0.00  0.00     0.165 HD
HETATM   32  H   UNK     0     -24.472 -28.501  14.782  0.00  0.00     0.165 HD
ENDROOT
BRANCH   6  33
HETATM   33  C   UNK     0     -23.378 -25.105   9.304  0.00  0.00     0.051 C 
BRANCH  33  34
HETATM   34  C   UNK     0     -24.491 -24.852   8.315  0.00  0.00     0.114 C 
BRANCH  34  35
HETATM   35  C   UNK     0     -24.770 -23.387   8.322  0.00  0.00     0.139 C 
HETATM   36  O   UNK     0     -25.870 -22.950   8.769  0.00  0.00    -0.650 OA
BRANCH  35  37
HETATM   37  O   UNK     0     -23.860 -22.449   7.852  0.00  0.00    -0.776 OA
HETATM   38  H   UNK     0     -22.879 -22.657   7.754  0.00  0.00     0.167 HD
ENDBRANCH  35  37
ENDBRANCH  34  35
ENDBRANCH  33  34
ENDBRANCH   6  33
BRANCH  27  39
HETATM   39  C   UNK     0     -20.362 -30.870  15.077  0.00  0.00     0.051 C 
BRANCH  39  40
HETATM   40  C   UNK     0     -20.454 -32.285  15.435  0.00  0.00     0.114 C 
BRANCH  40  41
HETATM   41  C   UNK     0     -20.887 -32.723  16.742  0.00  0.00     0.139 C 
HETATM   42  O   UNK     0     -21.627 -33.700  16.926  0.00  0.00    -0.650 OA
BRANCH  41  43
HETATM   43  O   UNK     0     -20.451 -32.005  17.892  0.00  0.00    -0.776 OA
HETATM   44  H   UNK     0     -19.500 -31.662  17.835  0.00  0.00     0.167 HD
ENDBRANCH  41  43
ENDBRANCH  40  41
ENDBRANCH  39  40
ENDBRANCH  27  39
BRANCH  11  45
HETATM   45  C   UNK     0     -25.676 -22.201  16.474  0.00  0.00     0.051 C 
BRANCH  45  46
HETATM   46  C   UNK     0     -25.066 -20.865  16.698  0.00  0.00     0.114 C 
BRANCH  46  47
HETATM   47  C   UNK     0     -25.087 -20.610  18.167  0.00  0.00     0.139 C 
HETATM   48  O   UNK     0     -25.355 -21.552  18.927  0.00  0.00    -0.650 OA
BRANCH  47  49
HETATM   49  O   UNK     0     -24.818 -19.362  18.668  0.00  0.00    -0.776 OA
HETATM   50  H   UNK     0     -24.993 -18.508  18.125  0.00  0.00     0.167 HD
ENDBRANCH  47  49
ENDBRANCH  46  47
ENDBRANCH  45  46
ENDBRANCH  11  45
BRANCH  18  51
HETATM   51  C   UNK     0     -23.533 -28.110  19.514  0.00  0.00     0.051 C 
BRANCH  51  52
HETATM   52  C   UNK     0     -22.281 -28.187  20.375  0.00  0.00     0.114 C 
BRANCH  52  53
HETATM   53  C   UNK     0     -22.514 -27.658  21.733  0.00  0.00     0.139 C 
HETATM   54  O   UNK     0     -22.245 -26.475  21.993  0.00  0.00    -0.650 OA
BRANCH  53  55
HETATM   55  O   UNK     0     -23.025 -28.483  22.705  0.00  0.00    -0.776 OA
HETATM   56  H   UNK     0     -23.986 -28.603  22.924  0.00  0.00     0.167 HD
ENDBRANCH  53  55
ENDBRANCH  52  53
ENDBRANCH  51  52
ENDBRANCH  18  51
TORSDOF 16
ENDMDL
MODEL 18
REMARK VINA RESULT:      -7.8      5.373     12.297
REMARK  16 active torsions:
REMARK  status: ('A' for Active; 'I' for Inactive)
REMARK    1  A    between atoms: C_6  and  C_7 
REMARK    2  A    between atoms: C_7  and  C_8 
REMARK    3  A    between atoms: C_8  and  C_9 
REMARK    4  A    between atoms: C_9  and  O_11 
REMARK    5  A    between atoms: C_16  and  C_17 
REMARK    6  A    between atoms: C_17  and  C_18 
REMARK    7  A    between atoms: C_18  and  C_19 
REMARK    8  A    between atoms: C_19  and  O_21 
REMARK    9  A    between atoms: C_28  and  C_29 
REMARK   10  A    between atoms: C_29  and  C_30 
REMARK   11  A    between atoms: C_30  and  C_31 
REMARK   12  A    between atoms: C_31  and  O_33 
REMARK   13  A    between atoms: C_42  and  C_43 
REMARK   14  A    between atoms: C_43  and  C_44 
REMARK   15  A    between atoms: C_44  and  C_45 
REMARK   16  A    between atoms: C_45  and  O_47 
ROOT
HETATM    1  C   UNK     0     -20.511 -28.406  22.159  0.00  0.00     0.051 C 
HETATM    2  C   UNK     0     -20.930 -28.856  20.774  0.00  0.00    -0.031 A 
HETATM    3  C   UNK     0     -22.080 -28.557  20.062  0.00  0.00     0.021 A 
HETATM    4  N   UNK     0     -22.046 -29.207  18.874  0.00  0.00    -0.361 N 
HETATM    5  C   UNK     0     -20.894 -29.907  18.811  0.00  0.00     0.022 A 
HETATM    6  C   UNK     0     -20.173 -29.712  19.984  0.00  0.00    -0.027 A 
HETATM    7  C   UNK     0     -20.332 -30.714  17.682  0.00  0.00     0.115 C 
HETATM    8  C   UNK     0     -20.448 -30.114  16.292  0.00  0.00     0.021 A 
HETATM    9  N   UNK     0     -20.364 -28.825  15.927  0.00  0.00    -0.361 N 
HETATM   10  C   UNK     0     -20.620 -28.747  14.604  0.00  0.00     0.022 A 
HETATM   11  C   UNK     0     -20.867 -30.021  14.101  0.00  0.00    -0.027 A 
HETATM   12  C   UNK     0     -20.760 -30.887  15.159  0.00  0.00    -0.031 A 
HETATM   13  C   UNK     0     -20.943 -32.386  15.083  0.00  0.00     0.051 C 
HETATM   14  C   UNK     0     -20.696 -27.467  13.775  0.00  0.00     0.115 C 
HETATM   15  C   UNK     0     -21.776 -26.500  14.232  0.00  0.00     0.021 A 
HETATM   16  N   UNK     0     -21.910 -25.932  15.445  0.00  0.00    -0.361 N 
HETATM   17  C   UNK     0     -23.027 -25.201  15.465  0.00  0.00     0.022 A 
HETATM   18  C   UNK     0     -23.645 -25.289  14.202  0.00  0.00    -0.027 A 
HETATM   19  C   UNK     0     -22.851 -26.105  13.438  0.00  0.00    -0.031 A 
HETATM   20  C   UNK     0     -23.135 -26.439  11.985  0.00  0.00     0.051 C 
HETATM   21  C   UNK     0     -23.662 -24.429  16.599  0.00  0.00     0.115 C 
HETATM   22  C   UNK     0     -23.517 -24.991  17.994  0.00  0.00     0.022 A 
HETATM   23  N   UNK     0     -23.591 -26.270  18.385  0.00  0.00    -0.361 N 
HETATM   24  C   UNK     0     -23.256 -26.333  19.690  0.00  0.00     0.021 A 
HETATM   25  C   UNK     0     -22.968 -25.063  20.152  0.00  0.00    -0.031 A 
HETATM   26  C   UNK     0     -22.584 -24.622  21.549  0.00  0.00     0.051 C 
HETATM   27  C   UNK     0     -23.128 -24.187  19.085  0.00  0.00    -0.027 A 
HETATM   28  C   UNK     0     -23.107 -27.575  20.552  0.00  0.00     0.115 C 
HETATM   29  H   UNK     0     -22.853 -29.198  18.106  0.00  0.00     0.165 HD
HETATM   30  H   UNK     0     -20.075 -27.975  16.591  0.00  0.00     0.165 HD
HETATM   31  H   UNK     0     -21.178 -26.010  16.290  0.00  0.00     0.165 HD
HETATM   32  H   UNK     0     -23.924 -27.135  17.755  0.00  0.00     0.165 HD
ENDROOT
BRANCH   6  33
HETATM   33  C   UNK     0     -18.839 -30.273  20.407  0.00  0.00     0.051 C 
BRANCH  33  34
HETATM   34  C   UNK     0     -17.720 -29.655  19.602  0.00  0.00     0.114 C 
BRANCH  34  35
HETATM   35  C   UNK     0     -16.821 -28.946  20.558  0.00  0.00     0.139 C 
HETATM   36  O   UNK     0     -15.601 -29.271  20.646  0.00  0.00    -0.650 OA
BRANCH  35  37
HETATM   37  O   UNK     0     -17.264 -27.916  21.380  0.00  0.00    -0.776 OA
HETATM   38  H   UNK     0     -18.183 -27.515  21.286  0.00  0.00     0.167 HD
ENDBRANCH  35  37
ENDBRANCH  34  35
ENDBRANCH  33  34
ENDBRANCH   6  33
BRANCH  27  39
HETATM   39  C   UNK     0     -22.974 -22.713  19.216  0.00  0.00     0.051 C 
BRANCH  39  40
HETATM   40  C   UNK     0     -22.179 -22.006  18.212  0.00  0.00     0.114 C 
BRANCH  40  41
HETATM   41  C   UNK     0     -22.720 -20.922  17.424  0.00  0.00     0.139 C 
HETATM   42  O   UNK     0     -23.611 -20.162  17.828  0.00  0.00    -0.650 OA
BRANCH  41  43
HETATM   43  O   UNK     0     -22.214 -20.701  16.112  0.00  0.00    -0.776 OA
HETATM   44  H   UNK     0     -22.719 -20.002  15.580  0.00  0.00     0.167 HD
ENDBRANCH  41  43
ENDBRANCH  40  41
ENDBRANCH  39  40
ENDBRANCH  27  39
BRANCH  11  45
HETATM   45  C   UNK     0     -21.189 -30.429  12.689  0.00  0.00     0.051 C 
BRANCH  45  46
HETATM   46  C   UNK     0     -22.641 -30.583  12.418  0.00  0.00     0.114 C 
BRANCH  46  47
HETATM   47  C   UNK     0     -22.849 -31.961  11.889  0.00  0.00     0.139 C 
HETATM   48  O   UNK     0     -21.856 -32.675  11.689  0.00  0.00    -0.650 OA
BRANCH  47  49
HETATM   49  O   UNK     0     -24.111 -32.431  11.627  0.00  0.00    -0.776 OA
HETATM   50  H   UNK     0     -24.418 -33.365  11.922  0.00  0.00     0.167 HD
ENDBRANCH  47  49
ENDBRANCH  46  47
ENDBRANCH  45  46
ENDBRANCH  11  45
BRANCH  18  51
HETATM   51  C   UNK     0     -24.911 -24.616  13.741  0.00  0.00     0.051 C 
BRANCH  51  52
HETATM   52  C   UNK     0     -24.480 -23.453  12.860  0.00  0.00     0.114 C 
BRANCH  52  53
HETATM   53  C   UNK     0     -23.903 -22.349  13.651  0.00  0.00     0.139 C 
HETATM   54  O   UNK     0     -24.587 -21.781  14.517  0.00  0.00    -0.650 OA
BRANCH  53  55
HETATM   55  O   UNK     0     -22.608 -21.952  13.420  0.00  0.00    -0.776 OA
HETATM   56  H   UNK     0     -21.809 -22.236  13.936  0.00  0.00     0.167 HD
ENDBRANCH  53  55
ENDBRANCH  52  53
ENDBRANCH  51  52
ENDBRANCH  18  51
TORSDOF 16
ENDMDL
MODEL 19
REMARK VINA RESULT:      -7.7      4.845     11.132
REMARK  16 active torsions:
REMARK  status: ('A' for Active; 'I' for Inactive)
REMARK    1  A    between atoms: C_6  and  C_7 
REMARK    2  A    between atoms: C_7  and  C_8 
REMARK    3  A    between atoms: C_8  and  C_9 
REMARK    4  A    between atoms: C_9  and  O_11 
REMARK    5  A    between atoms: C_16  and  C_17 
REMARK    6  A    between atoms: C_17  and  C_18 
REMARK    7  A    between atoms: C_18  and  C_19 
REMARK    8  A    between atoms: C_19  and  O_21 
REMARK    9  A    between atoms: C_28  and  C_29 
REMARK   10  A    between atoms: C_29  and  C_30 
REMARK   11  A    between atoms: C_30  and  C_31 
REMARK   12  A    between atoms: C_31  and  O_33 
REMARK   13  A    between atoms: C_42  and  C_43 
REMARK   14  A    between atoms: C_43  and  C_44 
REMARK   15  A    between atoms: C_44  and  C_45 
REMARK   16  A    between atoms: C_45  and  O_47 
ROOT
HETATM    1  C   UNK     0     -20.382 -29.139  21.493  0.00  0.00     0.051 C 
HETATM    2  C   UNK     0     -21.172 -29.039  20.205  0.00  0.00    -0.031 A 
HETATM    3  C   UNK     0     -22.390 -28.423  19.965  0.00  0.00     0.021 A 
HETATM    4  N   UNK     0     -22.734 -28.613  18.669  0.00  0.00    -0.361 N 
HETATM    5  C   UNK     0     -21.757 -29.329  18.075  0.00  0.00     0.022 A 
HETATM    6  C   UNK     0     -20.766 -29.615  19.008  0.00  0.00    -0.027 A 
HETATM    7  C   UNK     0     -21.606 -29.725  16.640  0.00  0.00     0.115 C 
HETATM    8  C   UNK     0     -21.936 -28.666  15.602  0.00  0.00     0.021 A 
HETATM    9  N   UNK     0     -21.729 -27.342  15.664  0.00  0.00    -0.361 N 
HETATM   10  C   UNK     0     -22.263 -26.782  14.558  0.00  0.00     0.022 A 
HETATM   11  C   UNK     0     -22.823 -27.774  13.758  0.00  0.00    -0.027 A 
HETATM   12  C   UNK     0     -22.620 -28.964  14.410  0.00  0.00    -0.031 A 
HETATM   13  C   UNK     0     -23.058 -30.321  13.908  0.00  0.00     0.051 C 
HETATM   14  C   UNK     0     -22.316 -25.291  14.237  0.00  0.00     0.115 C 
HETATM   15  C   UNK     0     -23.091 -24.469  15.255  0.00  0.00     0.021 A 
HETATM   16  N   UNK     0     -22.851 -24.358  16.575  0.00  0.00    -0.361 N 
HETATM   17  C   UNK     0     -23.799 -23.600  17.130  0.00  0.00     0.022 A 
HETATM   18  C   UNK     0     -24.695 -23.190  16.122  0.00  0.00    -0.027 A 
HETATM   19  C   UNK     0     -24.239 -23.740  14.952  0.00  0.00    -0.031 A 
HETATM   20  C   UNK     0     -24.897 -23.518  13.603  0.00  0.00     0.051 C 
HETATM   21  C   UNK     0     -24.025 -23.233  18.579  0.00  0.00     0.115 C 
HETATM   22  C   UNK     0     -23.659 -24.260  19.625  0.00  0.00     0.022 A 
HETATM   23  N   UNK     0     -23.850 -25.585  19.589  0.00  0.00    -0.361 N 
HETATM   24  C   UNK     0     -23.241 -26.130  20.661  0.00  0.00     0.021 A 
HETATM   25  C   UNK     0     -22.653 -25.130  21.412  0.00  0.00    -0.031 A 
HETATM   26  C   UNK     0     -21.894 -25.240  22.718  0.00  0.00     0.051 C 
HETATM   27  C   UNK     0     -22.907 -23.924  20.769  0.00  0.00    -0.027 A 
HETATM   28  C   UNK     0     -23.104 -27.604  21.003  0.00  0.00     0.115 C 
HETATM   29  H   UNK     0     -23.683 -28.273  18.193  0.00  0.00     0.165 HD
HETATM   30  H   UNK     0     -21.161 -26.804  16.462  0.00  0.00     0.165 HD
HETATM   31  H   UNK     0     -21.968 -24.783  17.119  0.00  0.00     0.165 HD
HETATM   32  H   UNK     0     -24.454 -26.145  18.828  0.00  0.00     0.165 HD
ENDROOT
BRANCH   6  33
HETATM   33  C   UNK     0     -19.480 -30.387  18.851  0.00  0.00     0.051 C 
BRANCH  33  34
HETATM   34  C   UNK     0     -19.717 -31.866  19.037  0.00  0.00     0.114 C 
BRANCH  34  35
HETATM   35  C   UNK     0     -19.085 -32.261  20.329  0.00  0.00     0.139 C 
HETATM   36  O   UNK     0     -17.896 -31.915  20.588  0.00  0.00    -0.650 OA
BRANCH  35  37
HETATM   37  O   UNK     0     -19.753 -33.008  21.292  0.00  0.00    -0.776 OA
HETATM   38  H   UNK     0     -20.288 -33.828  21.057  0.00  0.00     0.167 HD
ENDBRANCH  35  37
ENDBRANCH  34  35
ENDBRANCH  33  34
ENDBRANCH   6  33
BRANCH  27  39
HETATM   39  C   UNK     0     -22.488 -22.607  21.321  0.00  0.00     0.051 C 
BRANCH  39  40
HETATM   40  C   UNK     0     -23.403 -21.911  22.225  0.00  0.00     0.114 C 
BRANCH  40  41
HETATM   41  C   UNK     0     -24.837 -21.947  22.048  0.00  0.00     0.139 C 
HETATM   42  O   UNK     0     -25.574 -22.774  22.603  0.00  0.00    -0.650 OA
BRANCH  41  43
HETATM   43  O   UNK     0     -25.452 -20.988  21.194  0.00  0.00    -0.776 OA
HETATM   44  H   UNK     0     -24.822 -20.550  20.533  0.00  0.00     0.167 HD
ENDBRANCH  41  43
ENDBRANCH  40  41
ENDBRANCH  39  40
ENDBRANCH  27  39
BRANCH  11  45
HETATM   45  C   UNK     0     -23.520 -27.633  12.431  0.00  0.00     0.051 C 
BRANCH  45  46
HETATM   46  C   UNK     0     -24.967 -27.314  12.538  0.00  0.00     0.114 C 
BRANCH  46  47
HETATM   47  C   UNK     0     -25.619 -27.799  11.288  0.00  0.00     0.139 C 
HETATM   48  O   UNK     0     -25.150 -27.441  10.199  0.00  0.00    -0.650 OA
BRANCH  47  49
HETATM   49  O   UNK     0     -26.716 -28.621  11.341  0.00  0.00    -0.776 OA
HETATM   50  H   UNK     0     -26.634 -29.629  11.523  0.00  0.00     0.167 HD
ENDBRANCH  47  49
ENDBRANCH  46  47
ENDBRANCH  45  46
ENDBRANCH  11  45
BRANCH  18  51
HETATM   51  C   UNK     0     -25.906 -22.305  16.263  0.00  0.00     0.051 C 
BRANCH  51  52
HETATM   52  C   UNK     0     -25.398 -20.968  16.781  0.00  0.00     0.114 C 
BRANCH  52  53
HETATM   53  C   UNK     0     -24.419 -20.357  15.861  0.00  0.00     0.139 C 
HETATM   54  O   UNK     0     -23.307 -20.004  16.283  0.00  0.00    -0.650 OA
BRANCH  53  55
HETATM   55  O   UNK     0     -24.748 -20.180  14.539  0.00  0.00    -0.776 OA
HETATM   56  H   UNK     0     -24.195 -20.447  13.759  0.00  0.00     0.167 HD
ENDBRANCH  53  55
ENDBRANCH  52  53
ENDBRANCH  51  52
ENDBRANCH  18  51
TORSDOF 16
ENDMDL
MODEL 20
REMARK VINA RESULT:      -7.6      4.375      9.865
REMARK  16 active torsions:
REMARK  status: ('A' for Active; 'I' for Inactive)
REMARK    1  A    between atoms: C_6  and  C_7 
REMARK    2  A    between atoms: C_7  and  C_8 
REMARK    3  A    between atoms: C_8  and  C_9 
REMARK    4  A    between atoms: C_9  and  O_11 
REMARK    5  A    between atoms: C_16  and  C_17 
REMARK    6  A    between atoms: C_17  and  C_18 
REMARK    7  A    between atoms: C_18  and  C_19 
REMARK    8  A    between atoms: C_19  and  O_21 
REMARK    9  A    between atoms: C_28  and  C_29 
REMARK   10  A    between atoms: C_29  and  C_30 
REMARK   11  A    between atoms: C_30  and  C_31 
REMARK   12  A    between atoms: C_31  and  O_33 
REMARK   13  A    between atoms: C_42  and  C_43 
REMARK   14  A    between atoms: C_43  and  C_44 
REMARK   15  A    between atoms: C_44  and  C_45 
REMARK   16  A    between atoms: C_45  and  O_47 
ROOT
HETATM    1  C   UNK     0     -24.308 -26.491  12.803  0.00  0.00     0.051 C 
HETATM    2  C   UNK     0     -23.423 -26.811  13.990  0.00  0.00    -0.031 A 
HETATM    3  C   UNK     0     -22.683 -25.957  14.792  0.00  0.00     0.021 A 
HETATM    4  N   UNK     0     -22.016 -26.687  15.717  0.00  0.00    -0.361 N 
HETATM    5  C   UNK     0     -22.320 -27.987  15.527  0.00  0.00     0.022 A 
HETATM    6  C   UNK     0     -23.196 -28.101  14.452  0.00  0.00    -0.027 A 
HETATM    7  C   UNK     0     -21.924 -29.185  16.332  0.00  0.00     0.115 C 
HETATM    8  C   UNK     0     -21.970 -29.037  17.842  0.00  0.00     0.021 A 
HETATM    9  N   UNK     0     -22.842 -28.340  18.588  0.00  0.00    -0.361 N 
HETATM   10  C   UNK     0     -22.447 -28.416  19.876  0.00  0.00     0.022 A 
HETATM   11  C   UNK     0     -21.294 -29.191  19.964  0.00  0.00    -0.027 A 
HETATM   12  C   UNK     0     -20.989 -29.586  18.687  0.00  0.00    -0.031 A 
HETATM   13  C   UNK     0     -19.812 -30.452  18.297  0.00  0.00     0.051 C 
HETATM   14  C   UNK     0     -23.106 -27.721  21.064  0.00  0.00     0.115 C 
HETATM   15  C   UNK     0     -23.116 -26.204  20.961  0.00  0.00     0.021 A 
HETATM   16  N   UNK     0     -23.663 -25.450  19.990  0.00  0.00    -0.361 N 
HETATM   17  C   UNK     0     -23.395 -24.164  20.230  0.00  0.00     0.022 A 
HETATM   18  C   UNK     0     -22.646 -24.076  21.420  0.00  0.00    -0.027 A 
HETATM   19  C   UNK     0     -22.479 -25.360  21.869  0.00  0.00    -0.031 A 
HETATM   20  C   UNK     0     -21.753 -25.717  23.153  0.00  0.00     0.051 C 
HETATM   21  C   UNK     0     -23.719 -22.935  19.411  0.00  0.00     0.115 C 
HETATM   22  C   UNK     0     -23.719 -23.079  17.907  0.00  0.00     0.022 A 
HETATM   23  N   UNK     0     -22.866 -23.769  17.139  0.00  0.00    -0.361 N 
HETATM   24  C   UNK     0     -23.323 -23.745  15.871  0.00  0.00     0.021 A 
HETATM   25  C   UNK     0     -24.493 -23.012  15.819  0.00  0.00    -0.031 A 
HETATM   26  C   UNK     0     -25.351 -22.669  14.619  0.00  0.00     0.051 C 
HETATM   27  C   UNK     0     -24.767 -22.575  17.110  0.00  0.00    -0.027 A 
HETATM   28  C   UNK     0     -22.747 -24.461  14.661  0.00  0.00     0.115 C 
HETATM   29  H   UNK     0     -21.303 -26.282  16.472  0.00  0.00     0.165 HD
HETATM   30  H   UNK     0     -23.766 -27.835  18.213  0.00  0.00     0.165 HD
HETATM   31  H   UNK     0     -24.292 -25.828  19.142  0.00  0.00     0.165 HD
HETATM   32  H   UNK     0     -21.909 -24.245  17.478  0.00  0.00     0.165 HD
ENDROOT
BRANCH   6  33
HETATM   33  C   UNK     0     -23.824 -29.327  13.839  0.00  0.00     0.051 C 
BRANCH  33  34
HETATM   34  C   UNK     0     -22.884 -29.969  12.846  0.00  0.00     0.114 C 
BRANCH  34  35
HETATM   35  C   UNK     0     -23.491 -29.816  11.493  0.00  0.00     0.139 C 
HETATM   36  O   UNK     0     -22.875 -29.184  10.586  0.00  0.00    -0.650 OA
BRANCH  35  37
HETATM   37  O   UNK     0     -24.732 -30.348  11.163  0.00  0.00    -0.776 OA
HETATM   38  H   UNK     0     -24.917 -30.753  10.260  0.00  0.00     0.167 HD
ENDBRANCH  35  37
ENDBRANCH  34  35
ENDBRANCH  33  34
ENDBRANCH   6  33
BRANCH  27  39
HETATM   39  C   UNK     0     -25.917 -21.691  17.440  0.00  0.00     0.051 C 
BRANCH  39  40
HETATM   40  C   UNK     0     -25.761 -20.725  18.528  0.00  0.00     0.114 C 
BRANCH  40  41
HETATM   41  C   UNK     0     -24.940 -19.543  18.397  0.00  0.00     0.139 C 
HETATM   42  O   UNK     0     -25.063 -18.542  19.116  0.00  0.00    -0.650 OA
BRANCH  41  43
HETATM   43  O   UNK     0     -23.931 -19.510  17.393  0.00  0.00    -0.776 OA
HETATM   44  H   UNK     0     -23.047 -19.123  17.700  0.00  0.00     0.167 HD
ENDBRANCH  41  43
ENDBRANCH  40  41
ENDBRANCH  39  40
ENDBRANCH  27  39
BRANCH  11  45
HETATM   45  C   UNK     0     -20.499 -29.560  21.188  0.00  0.00     0.051 C 
BRANCH  45  46
HETATM   46  C   UNK     0     -19.615 -28.475  21.686  0.00  0.00     0.114 C 
BRANCH  46  47
HETATM   47  C   UNK     0     -18.208 -28.940  21.520  0.00  0.00     0.139 C 
HETATM   48  O   UNK     0     -17.567 -28.547  20.535  0.00  0.00    -0.650 OA
BRANCH  47  49
HETATM   49  O   UNK     0     -17.634 -29.785  22.435  0.00  0.00    -0.776 OA
HETATM   50  H   UNK     0     -16.624 -29.968  22.450  0.00  0.00     0.167 HD
ENDBRANCH  47  49
ENDBRANCH  46  47
ENDBRANCH  45  46
ENDBRANCH  11  45
BRANCH  18  51
HETATM   51  C   UNK     0     -22.135 -22.834  22.103  0.00  0.00     0.051 C 
BRANCH  51  52
HETATM   52  C   UNK     0     -23.198 -22.437  23.116  0.00  0.00     0.114 C 
BRANCH  52  53
HETATM   53  C   UNK     0     -23.543 -21.006  23.019  0.00  0.00     0.139 C 
HETATM   54  O   UNK     0     -23.588 -20.451  21.909  0.00  0.00    -0.650 OA
BRANCH  53  55
HETATM   55  O   UNK     0     -23.810 -20.292  24.162  0.00  0.00    -0.776 OA
HETATM   56  H   UNK     0     -24.626 -20.371  24.723  0.00  0.00     0.167 HD
ENDBRANCH  53  55
ENDBRANCH  52  53
ENDBRANCH  51  52
ENDBRANCH  18  51
TORSDOF 16
ENDMDL
