MODEL 1
REMARK VINA RESULT:      -8.7      0.000      0.000
REMARK  28 active torsions:
REMARK  status: ('A' for Active; 'I' for Inactive)
REMARK    1  A    between atoms: C_2  and  O_3 
REMARK    2  A    between atoms: C_2  and  C_4 
REMARK    3  A    between atoms: C_4  and  C_5 
REMARK    4  A    between atoms: C_5  and  C_6 
REMARK    5  A    between atoms: C_7  and  C_8 
REMARK    6  A    between atoms: C_8  and  C_9 
REMARK    7  A    between atoms: C_9  and  O_11 
REMARK    8  A    between atoms: C_28  and  C_29 
REMARK    9  A    between atoms: C_29  and  C_30 
REMARK   10  A    between atoms: C_30  and  O_32 
REMARK   11  A    between atoms: C_33  and  C_34 
REMARK   12  A    between atoms: C_34  and  C_35 
REMARK   13  A    between atoms: C_35  and  C_36 
REMARK   14  A    between atoms: C_36  and  O_38 
REMARK   15  A    between atoms: C_39  and  C_40 
REMARK   16  A    between atoms: C_40  and  C_41 
REMARK   17  A    between atoms: C_41  and  C_42 
REMARK   18  A    between atoms: C_42  and  O_44 
REMARK   19  A    between atoms: C_45  and  C_46 
REMARK   20  A    between atoms: C_46  and  C_47 
REMARK   21  A    between atoms: C_47  and  O_49 
REMARK   22  A    between atoms: C_50  and  C_51 
REMARK   23  A    between atoms: C_51  and  C_52 
REMARK   24  A    between atoms: C_52  and  O_54 
REMARK   25  A    between atoms: C_55  and  C_56 
REMARK   26  A    between atoms: C_56  and  C_57 
REMARK   27  A    between atoms: C_57  and  C_58 
REMARK   28  A    between atoms: C_58  and  O_60 
ROOT
ATOM      1  O   UNK d   0     -33.034  -6.018  13.428  0.00  0.00    -0.650 OA
ATOM      2  C   UNK d   0     -33.088  -4.779  13.262  0.00  0.00     0.139 C 
ENDROOT
BRANCH   2   3
ATOM      3  O   UNK d   0     -33.280  -4.277  11.997  0.00  0.00    -0.776 OA
ATOM      4  H   UNK d   0     -33.894  -4.748  11.330  0.00  0.00     0.167 HD
ENDBRANCH   2   3
BRANCH   2   5
ATOM      5  C   UNK d   0     -32.946  -3.861  14.427  0.00  0.00     0.115 C 
BRANCH   5   6
ATOM      6  C   UNK d   0     -31.962  -2.768  14.108  0.00  0.00     0.052 C 
BRANCH   6   7
ATOM      7  C   UNK d   0     -30.700  -3.292  13.465  0.00  0.00    -0.020 A 
ATOM      8  C   UNK d   0     -29.826  -4.118  13.980  0.00  0.00    -0.011 A 
ATOM      9  C   UNK d   0     -28.777  -4.325  12.996  0.00  0.00     0.067 A 
ATOM     10  C   UNK d   0     -27.599  -5.085  12.916  0.00  0.00     0.062 C 
ATOM     11  N   UNK d   0     -29.089  -3.581  11.914  0.00  0.00    -0.248 NA
ATOM     12  C   UNK d   0     -26.853  -5.373  11.768  0.00  0.00     0.041 A 
ATOM     13  N   UNK d   0     -26.488  -4.596  10.730  0.00  0.00    -0.355 N 
ATOM     14  C   UNK d   0     -26.414  -6.692  11.554  0.00  0.00    -0.022 A 
ATOM     15  C   UNK d   0     -25.835  -5.390   9.861  0.00  0.00     0.042 A 
ATOM     16  H   UNK d   0     -26.671  -3.504  10.624  0.00  0.00     0.166 HD
ATOM     17  C   UNK d   0     -25.244  -5.091   8.617  0.00  0.00     0.062 C 
ATOM     18  C   UNK d   0     -25.769  -6.711  10.343  0.00  0.00    -0.013 A 
ATOM     19  C   UNK d   0     -25.742  -4.338   7.584  0.00  0.00     0.067 A 
ATOM     20  N   UNK d   0     -26.841  -3.621   7.833  0.00  0.00    -0.248 NA
ATOM     21  C   UNK d   0     -25.383  -4.103   6.195  0.00  0.00    -0.011 A 
ATOM     22  C   UNK d   0     -27.228  -2.936   6.707  0.00  0.00     0.066 A 
ATOM     23  C   UNK d   0     -28.340  -2.118   6.836  0.00  0.00     0.062 C 
ATOM     24  C   UNK d   0     -26.259  -3.285   5.687  0.00  0.00    -0.020 A 
ATOM     25  C   UNK d   0     -29.068  -1.832   8.002  0.00  0.00     0.041 A 
ATOM     26  N   UNK d   0     -29.444  -2.608   9.026  0.00  0.00    -0.355 N 
ATOM     27  C   UNK d   0     -29.505  -0.507   8.217  0.00  0.00    -0.022 A 
ATOM     28  C   UNK d   0     -30.103  -1.820   9.890  0.00  0.00     0.042 A 
ATOM     29  H   UNK d   0     -29.269  -3.707   9.126  0.00  0.00     0.166 HD
ATOM     30  C   UNK d   0     -30.704  -2.106  11.126  0.00  0.00     0.062 C 
ATOM     31  C   UNK d   0     -30.160  -0.490   9.410  0.00  0.00    -0.013 A 
ATOM     32  C   UNK d   0     -30.236  -2.936  12.133  0.00  0.00     0.066 A 
BRANCH   8  33
ATOM     33  C   UNK d   0     -29.874  -4.737  15.318  0.00  0.00     0.151 C 
BRANCH  33  34
ATOM     34  C   UNK d   0     -29.647  -3.766  16.403  0.00  0.00     0.143 C 
ATOM     35  O   UNK d   0     -28.921  -2.776  16.231  0.00  0.00    -0.650 OA
BRANCH  34  36
ATOM     36  O   UNK d   0     -30.250  -3.965  17.624  0.00  0.00    -0.776 OA
ATOM     37  H   UNK d   0     -30.630  -4.884  17.888  0.00  0.00     0.167 HD
ENDBRANCH  34  36
ENDBRANCH  33  34
ENDBRANCH   8  33
BRANCH  31  38
ATOM     38  C   UNK d   0     -30.791   0.717  10.064  0.00  0.00     0.151 C 
BRANCH  38  39
ATOM     39  C   UNK d   0     -30.053   1.181  11.219  0.00  0.00     0.143 C 
ATOM     40  O   UNK d   0     -28.923   1.692  11.125  0.00  0.00    -0.650 OA
BRANCH  39  41
ATOM     41  O   UNK d   0     -30.616   1.057  12.488  0.00  0.00    -0.776 OA
ATOM     42  H   UNK d   0     -30.187   0.373  13.119  0.00  0.00     0.167 HD
ENDBRANCH  39  41
ENDBRANCH  38  39
ENDBRANCH  31  38
BRANCH  27  43
ATOM     43  C   UNK d   0     -29.327   0.714   7.349  0.00  0.00     0.052 C 
BRANCH  43  44
ATOM     44  C   UNK d   0     -28.318   1.677   7.883  0.00  0.00     0.115 C 
BRANCH  44  45
ATOM     45  C   UNK d   0     -27.086   0.892   8.159  0.00  0.00     0.139 C 
ATOM     46  O   UNK d   0     -26.297   0.675   7.207  0.00  0.00    -0.650 OA
BRANCH  45  47
ATOM     47  O   UNK d   0     -26.777   0.402   9.410  0.00  0.00    -0.776 OA
ATOM     48  H   UNK d   0     -26.196  -0.440   9.554  0.00  0.00     0.167 HD
ENDBRANCH  45  47
ENDBRANCH  44  45
ENDBRANCH  43  44
ENDBRANCH  27  43
BRANCH  24  49
ATOM     49  C   UNK d   0     -26.254  -2.750   4.314  0.00  0.00     0.052 C 
BRANCH  49  50
ATOM     50  C   UNK d   0     -25.804  -1.312   4.314  0.00  0.00     0.115 C 
BRANCH  50  51
ATOM     51  C   UNK d   0     -26.675  -0.343   3.663  0.00  0.00     0.139 C 
ATOM     52  O   UNK d   0     -27.131  -0.512   2.508  0.00  0.00    -0.650 OA
BRANCH  51  53
ATOM     53  O   UNK d   0     -27.024   0.822   4.329  0.00  0.00    -0.776 OA
ATOM     54  H   UNK d   0     -26.459   1.640   4.186  0.00  0.00     0.167 HD
ENDBRANCH  51  53
ENDBRANCH  50  51
ENDBRANCH  49  50
ENDBRANCH  24  49
BRANCH  21  55
ATOM     55  C   UNK d   0     -24.201  -4.717   5.523  0.00  0.00     0.151 C 
BRANCH  55  56
ATOM     56  C   UNK d   0     -22.989  -4.635   6.353  0.00  0.00     0.143 C 
ATOM     57  O   UNK d   0     -22.331  -5.639   6.688  0.00  0.00    -0.650 OA
BRANCH  56  58
ATOM     58  O   UNK d   0     -22.576  -3.372   6.774  0.00  0.00    -0.776 OA
ATOM     59  H   UNK d   0     -23.330  -2.664   6.836  0.00  0.00     0.167 HD
ENDBRANCH  56  58
ENDBRANCH  55  56
ENDBRANCH  21  55
BRANCH  18  60
ATOM     60  C   UNK d   0     -25.144  -7.933   9.715  0.00  0.00     0.151 C 
BRANCH  60  61
ATOM     61  C   UNK d   0     -25.942  -8.222   8.514  0.00  0.00     0.143 C 
ATOM     62  O   UNK d   0     -27.131  -8.537   8.470  0.00  0.00    -0.650 OA
BRANCH  61  63
ATOM     63  O   UNK d   0     -25.242  -8.120   7.287  0.00  0.00    -0.776 OA
ATOM     64  H   UNK d   0     -24.606  -7.361   7.115  0.00  0.00     0.167 HD
ENDBRANCH  61  63
ENDBRANCH  60  61
ENDBRANCH  18  60
BRANCH  14  65
ATOM     65  C   UNK d   0     -26.471  -7.901  12.445  0.00  0.00     0.052 C 
BRANCH  65  66
ATOM     66  C   UNK d   0     -25.207  -8.131  13.194  0.00  0.00     0.115 C 
BRANCH  66  67
ATOM     67  C   UNK d   0     -24.221  -7.090  13.264  0.00  0.00     0.139 C 
ATOM     68  O   UNK d   0     -24.368  -6.164  14.143  0.00  0.00    -0.650 OA
BRANCH  67  69
ATOM     69  O   UNK d   0     -23.080  -6.941  12.475  0.00  0.00    -0.776 OA
ATOM     70  H   UNK d   0     -22.460  -7.762  12.425  0.00  0.00     0.167 HD
ENDBRANCH  67  69
ENDBRANCH  66  67
ENDBRANCH  65  66
ENDBRANCH  14  65
ENDBRANCH   6   7
ENDBRANCH   5   6
ENDBRANCH   2   5
TORSDOF 28
ENDMDL
MODEL 2
REMARK VINA RESULT:      -8.3      2.489     10.193
REMARK  28 active torsions:
REMARK  status: ('A' for Active; 'I' for Inactive)
REMARK    1  A    between atoms: C_2  and  O_3 
REMARK    2  A    between atoms: C_2  and  C_4 
REMARK    3  A    between atoms: C_4  and  C_5 
REMARK    4  A    between atoms: C_5  and  C_6 
REMARK    5  A    between atoms: C_7  and  C_8 
REMARK    6  A    between atoms: C_8  and  C_9 
REMARK    7  A    between atoms: C_9  and  O_11 
REMARK    8  A    between atoms: C_28  and  C_29 
REMARK    9  A    between atoms: C_29  and  C_30 
REMARK   10  A    between atoms: C_30  and  O_32 
REMARK   11  A    between atoms: C_33  and  C_34 
REMARK   12  A    between atoms: C_34  and  C_35 
REMARK   13  A    between atoms: C_35  and  C_36 
REMARK   14  A    between atoms: C_36  and  O_38 
REMARK   15  A    between atoms: C_39  and  C_40 
REMARK   16  A    between atoms: C_40  and  C_41 
REMARK   17  A    between atoms: C_41  and  C_42 
REMARK   18  A    between atoms: C_42  and  O_44 
REMARK   19  A    between atoms: C_45  and  C_46 
REMARK   20  A    between atoms: C_46  and  C_47 
REMARK   21  A    between atoms: C_47  and  O_49 
REMARK   22  A    between atoms: C_50  and  C_51 
REMARK   23  A    between atoms: C_51  and  C_52 
REMARK   24  A    between atoms: C_52  and  O_54 
REMARK   25  A    between atoms: C_55  and  C_56 
REMARK   26  A    between atoms: C_56  and  C_57 
REMARK   27  A    between atoms: C_57  and  C_58 
REMARK   28  A    between atoms: C_58  and  O_60 
ROOT
ATOM      1  O   UNK d   0     -23.945  -2.151   0.578  0.00  0.00    -0.650 OA
ATOM      2  C   UNK d   0     -24.955  -1.727   1.182  0.00  0.00     0.139 C 
ENDROOT
BRANCH   2   3
ATOM      3  O   UNK d   0     -25.853  -0.930   0.515  0.00  0.00    -0.776 OA
ATOM      4  H   UNK d   0     -26.645  -1.335   0.012  0.00  0.00     0.167 HD
ENDBRANCH   2   3
BRANCH   2   5
ATOM      5  C   UNK d   0     -25.176  -2.085   2.612  0.00  0.00     0.115 C 
BRANCH   5   6
ATOM      6  C   UNK d   0     -26.611  -1.837   2.991  0.00  0.00     0.052 C 
BRANCH   6   7
ATOM      7  C   UNK d   0     -26.762  -1.367   4.418  0.00  0.00    -0.020 A 
ATOM      8  C   UNK d   0     -27.021  -0.155   4.836  0.00  0.00    -0.011 A 
ATOM      9  C   UNK d   0     -27.064  -0.185   6.289  0.00  0.00     0.067 A 
ATOM     10  C   UNK d   0     -27.307   0.743   7.314  0.00  0.00     0.062 C 
ATOM     11  N   UNK d   0     -26.815  -1.455   6.671  0.00  0.00    -0.248 NA
ATOM     12  C   UNK d   0     -27.582   0.468   8.658  0.00  0.00     0.041 A 
ATOM     13  N   UNK d   0     -27.032  -0.416   9.512  0.00  0.00    -0.355 N 
ATOM     14  C   UNK d   0     -28.638   1.150   9.290  0.00  0.00    -0.022 A 
ATOM     15  C   UNK d   0     -27.716  -0.317  10.667  0.00  0.00     0.042 A 
ATOM     16  H   UNK d   0     -26.165  -1.082   9.309  0.00  0.00     0.166 HD
ATOM     17  C   UNK d   0     -27.557  -1.008  11.885  0.00  0.00     0.062 C 
ATOM     18  C   UNK d   0     -28.731   0.654  10.566  0.00  0.00    -0.013 A 
ATOM     19  C   UNK d   0     -27.358  -2.349  12.096  0.00  0.00     0.067 A 
ATOM     20  N   UNK d   0     -27.079  -3.095  11.024  0.00  0.00    -0.248 NA
ATOM     21  C   UNK d   0     -27.384  -3.241  13.243  0.00  0.00    -0.011 A 
ATOM     22  C   UNK d   0     -26.921  -4.410  11.387  0.00  0.00     0.066 A 
ATOM     23  C   UNK d   0     -26.589  -5.294  10.371  0.00  0.00     0.062 C 
ATOM     24  C   UNK d   0     -27.132  -4.446  12.821  0.00  0.00    -0.020 A 
ATOM     25  C   UNK d   0     -26.304  -4.996   9.030  0.00  0.00     0.041 A 
ATOM     26  N   UNK d   0     -26.861  -4.128   8.176  0.00  0.00    -0.355 N 
ATOM     27  C   UNK d   0     -25.242  -5.678   8.398  0.00  0.00    -0.022 A 
ATOM     28  C   UNK d   0     -26.186  -4.231   7.020  0.00  0.00     0.042 A 
ATOM     29  H   UNK d   0     -27.739  -3.467   8.379  0.00  0.00     0.166 HD
ATOM     30  C   UNK d   0     -26.340  -3.556   5.799  0.00  0.00     0.062 C 
ATOM     31  C   UNK d   0     -25.160  -5.199   7.126  0.00  0.00    -0.013 A 
ATOM     32  C   UNK d   0     -26.625  -2.216   5.592  0.00  0.00     0.066 A 
BRANCH   8  33
ATOM     33  C   UNK d   0     -27.229   1.043   4.002  0.00  0.00     0.151 C 
BRANCH  33  34
ATOM     34  C   UNK d   0     -26.056   1.372   3.172  0.00  0.00     0.143 C 
ATOM     35  O   UNK d   0     -26.183   1.639   1.968  0.00  0.00    -0.650 OA
BRANCH  34  36
ATOM     36  O   UNK d   0     -24.805   1.379   3.744  0.00  0.00    -0.776 OA
ATOM     37  H   UNK d   0     -24.652   1.025   4.698  0.00  0.00     0.167 HD
ENDBRANCH  34  36
ENDBRANCH  33  34
ENDBRANCH   8  33
BRANCH  31  38
ATOM     38  C   UNK d   0     -24.159  -5.625   6.077  0.00  0.00     0.151 C 
BRANCH  38  39
ATOM     39  C   UNK d   0     -22.840  -5.076   6.303  0.00  0.00     0.143 C 
ATOM     40  O   UNK d   0     -21.821  -5.787   6.344  0.00  0.00    -0.650 OA
BRANCH  39  41
ATOM     41  O   UNK d   0     -22.690  -3.701   6.484  0.00  0.00    -0.776 OA
ATOM     42  H   UNK d   0     -22.007  -3.228   5.884  0.00  0.00     0.167 HD
ENDBRANCH  39  41
ENDBRANCH  38  39
ENDBRANCH  31  38
BRANCH  27  43
ATOM     43  C   UNK d   0     -24.326  -6.744   8.946  0.00  0.00     0.052 C 
BRANCH  43  44
ATOM     44  C   UNK d   0     -24.574  -8.095   8.357  0.00  0.00     0.115 C 
BRANCH  44  45
ATOM     45  C   UNK d   0     -25.787  -8.633   9.025  0.00  0.00     0.139 C 
ATOM     46  O   UNK d   0     -26.890  -8.509   8.437  0.00  0.00    -0.650 OA
BRANCH  45  47
ATOM     47  O   UNK d   0     -25.749  -9.262  10.250  0.00  0.00    -0.776 OA
ATOM     48  H   UNK d   0     -25.952  -8.774  11.137  0.00  0.00     0.167 HD
ENDBRANCH  45  47
ENDBRANCH  44  45
ENDBRANCH  43  44
ENDBRANCH  27  43
BRANCH  24  49
ATOM     49  C   UNK d   0     -27.023  -5.654  13.657  0.00  0.00     0.052 C 
BRANCH  49  50
ATOM     50  C   UNK d   0     -27.090  -6.892  12.800  0.00  0.00     0.115 C 
BRANCH  50  51
ATOM     51  C   UNK d   0     -25.961  -7.811  12.871  0.00  0.00     0.139 C 
ATOM     52  O   UNK d   0     -24.780  -7.449  12.656  0.00  0.00    -0.650 OA
BRANCH  51  53
ATOM     53  O   UNK d   0     -26.180  -9.144  13.183  0.00  0.00    -0.776 OA
ATOM     54  H   UNK d   0     -25.502  -9.821  12.880  0.00  0.00     0.167 HD
ENDBRANCH  51  53
ENDBRANCH  50  51
ENDBRANCH  49  50
ENDBRANCH  24  49
BRANCH  21  55
ATOM     55  C   UNK d   0     -27.653  -2.794  14.642  0.00  0.00     0.151 C 
BRANCH  55  56
ATOM     56  C   UNK d   0     -26.450  -2.247  15.288  0.00  0.00     0.143 C 
ATOM     57  O   UNK d   0     -25.529  -2.968  15.719  0.00  0.00    -0.650 OA
BRANCH  56  58
ATOM     58  O   UNK d   0     -26.354  -0.863  15.415  0.00  0.00    -0.776 OA
ATOM     59  H   UNK d   0     -25.516  -0.442  14.975  0.00  0.00     0.167 HD
ENDBRANCH  56  58
ENDBRANCH  55  56
ENDBRANCH  21  55
BRANCH  18  60
ATOM     60  C   UNK d   0     -29.740   1.101  11.595  0.00  0.00     0.151 C 
BRANCH  60  61
ATOM     61  C   UNK d   0     -30.627  -0.051  11.818  0.00  0.00     0.143 C 
ATOM     62  O   UNK d   0     -30.789  -0.671  12.869  0.00  0.00    -0.650 OA
BRANCH  61  63
ATOM     63  O   UNK d   0     -31.365  -0.470  10.684  0.00  0.00    -0.776 OA
ATOM     64  H   UNK d   0     -32.234  -0.030  10.439  0.00  0.00     0.167 HD
ENDBRANCH  61  63
ENDBRANCH  60  61
ENDBRANCH  18  60
BRANCH  14  65
ATOM     65  C   UNK d   0     -29.491   2.292   8.816  0.00  0.00     0.052 C 
BRANCH  65  66
ATOM     66  C   UNK d   0     -30.837   1.859   8.353  0.00  0.00     0.115 C 
BRANCH  66  67
ATOM     67  C   UNK d   0     -32.006   2.547   8.823  0.00  0.00     0.139 C 
ATOM     68  O   UNK d   0     -32.628   2.073   9.844  0.00  0.00    -0.650 OA
BRANCH  67  69
ATOM     69  O   UNK d   0     -32.583   3.705   8.301  0.00  0.00    -0.776 OA
ATOM     70  H   UNK d   0     -33.597   3.807   8.451  0.00  0.00     0.167 HD
ENDBRANCH  67  69
ENDBRANCH  66  67
ENDBRANCH  65  66
ENDBRANCH  14  65
ENDBRANCH   6   7
ENDBRANCH   5   6
ENDBRANCH   2   5
TORSDOF 28
ENDMDL
MODEL 3
REMARK VINA RESULT:      -8.0      3.070      9.765
REMARK  28 active torsions:
REMARK  status: ('A' for Active; 'I' for Inactive)
REMARK    1  A    between atoms: C_2  and  O_3 
REMARK    2  A    between atoms: C_2  and  C_4 
REMARK    3  A    between atoms: C_4  and  C_5 
REMARK    4  A    between atoms: C_5  and  C_6 
REMARK    5  A    between atoms: C_7  and  C_8 
REMARK    6  A    between atoms: C_8  and  C_9 
REMARK    7  A    between atoms: C_9  and  O_11 
REMARK    8  A    between atoms: C_28  and  C_29 
REMARK    9  A    between atoms: C_29  and  C_30 
REMARK   10  A    between atoms: C_30  and  O_32 
REMARK   11  A    between atoms: C_33  and  C_34 
REMARK   12  A    between atoms: C_34  and  C_35 
REMARK   13  A    between atoms: C_35  and  C_36 
REMARK   14  A    between atoms: C_36  and  O_38 
REMARK   15  A    between atoms: C_39  and  C_40 
REMARK   16  A    between atoms: C_40  and  C_41 
REMARK   17  A    between atoms: C_41  and  C_42 
REMARK   18  A    between atoms: C_42  and  O_44 
REMARK   19  A    between atoms: C_45  and  C_46 
REMARK   20  A    between atoms: C_46  and  C_47 
REMARK   21  A    between atoms: C_47  and  O_49 
REMARK   22  A    between atoms: C_50  and  C_51 
REMARK   23  A    between atoms: C_51  and  C_52 
REMARK   24  A    between atoms: C_52  and  O_54 
REMARK   25  A    between atoms: C_55  and  C_56 
REMARK   26  A    between atoms: C_56  and  C_57 
REMARK   27  A    between atoms: C_57  and  C_58 
REMARK   28  A    between atoms: C_58  and  O_60 
ROOT
ATOM      1  O   UNK d   0     -25.587  -8.642  10.120  0.00  0.00    -0.650 OA
ATOM      2  C   UNK d   0     -25.769  -8.429   8.900  0.00  0.00     0.139 C 
ENDROOT
BRANCH   2   3
ATOM      3  O   UNK d   0     -26.906  -8.908   8.295  0.00  0.00    -0.776 OA
ATOM      4  H   UNK d   0     -26.851  -9.582   7.529  0.00  0.00     0.167 HD
ENDBRANCH   2   3
BRANCH   2   5
ATOM      5  C   UNK d   0     -24.758  -7.664   8.116  0.00  0.00     0.115 C 
BRANCH   5   6
ATOM      6  C   UNK d   0     -23.986  -6.745   9.023  0.00  0.00     0.052 C 
BRANCH   6   7
ATOM      7  C   UNK d   0     -24.614  -5.376   9.134  0.00  0.00    -0.020 A 
ATOM      8  C   UNK d   0     -24.896  -4.546   8.163  0.00  0.00    -0.011 A 
ATOM      9  C   UNK d   0     -25.480  -3.353   8.753  0.00  0.00     0.067 A 
ATOM     10  C   UNK d   0     -26.000  -2.139   8.277  0.00  0.00     0.062 C 
ATOM     11  N   UNK d   0     -25.510  -3.540  10.089  0.00  0.00    -0.248 NA
ATOM     12  C   UNK d   0     -26.780  -1.217   8.983  0.00  0.00     0.041 A 
ATOM     13  N   UNK d   0     -26.672  -0.742  10.239  0.00  0.00    -0.355 N 
ATOM     14  C   UNK d   0     -27.926  -0.682   8.368  0.00  0.00    -0.022 A 
ATOM     15  C   UNK d   0     -27.725   0.073  10.439  0.00  0.00     0.042 A 
ATOM     16  H   UNK d   0     -25.858  -0.964  10.963  0.00  0.00     0.166 HD
ATOM     17  C   UNK d   0     -28.096   0.825  11.571  0.00  0.00     0.062 C 
ATOM     18  C   UNK d   0     -28.534   0.135   9.287  0.00  0.00    -0.013 A 
ATOM     19  C   UNK d   0     -28.116   0.448  12.889  0.00  0.00     0.067 A 
ATOM     20  N   UNK d   0     -27.528  -0.712  13.194  0.00  0.00    -0.248 NA
ATOM     21  C   UNK d   0     -28.650   0.995  14.125  0.00  0.00    -0.011 A 
ATOM     22  C   UNK d   0     -27.640  -0.963  14.540  0.00  0.00     0.066 A 
ATOM     23  C   UNK d   0     -27.037  -2.123  15.003  0.00  0.00     0.062 C 
ATOM     24  C   UNK d   0     -28.372   0.163  15.086  0.00  0.00    -0.020 A 
ATOM     25  C   UNK d   0     -26.246  -3.030  14.279  0.00  0.00     0.041 A 
ATOM     26  N   UNK d   0     -26.362  -3.513  13.037  0.00  0.00    -0.355 N 
ATOM     27  C   UNK d   0     -25.093  -3.562  14.897  0.00  0.00    -0.022 A 
ATOM     28  C   UNK d   0     -25.317  -4.332  12.838  0.00  0.00     0.042 A 
ATOM     29  H   UNK d   0     -27.186  -3.297  12.314  0.00  0.00     0.166 HD
ATOM     30  C   UNK d   0     -24.941  -5.094  11.721  0.00  0.00     0.062 C 
ATOM     31  C   UNK d   0     -24.499  -4.386  13.992  0.00  0.00    -0.013 A 
ATOM     32  C   UNK d   0     -25.004  -4.738  10.383  0.00  0.00     0.066 A 
BRANCH   8  33
ATOM     33  C   UNK d   0     -24.666  -4.759   6.722  0.00  0.00     0.151 C 
BRANCH  33  34
ATOM     34  C   UNK d   0     -23.286  -4.443   6.311  0.00  0.00     0.143 C 
ATOM     35  O   UNK d   0     -22.687  -5.154   5.492  0.00  0.00    -0.650 OA
BRANCH  34  36
ATOM     36  O   UNK d   0     -22.657  -3.343   6.848  0.00  0.00    -0.776 OA
ATOM     37  H   UNK d   0     -22.861  -3.025   7.805  0.00  0.00     0.167 HD
ENDBRANCH  34  36
ENDBRANCH  33  34
ENDBRANCH   8  33
BRANCH  31  38
ATOM     38  C   UNK d   0     -23.224  -5.170  14.202  0.00  0.00     0.151 C 
BRANCH  38  39
ATOM     39  C   UNK d   0     -22.061  -4.508  13.648  0.00  0.00     0.143 C 
ATOM     40  O   UNK d   0     -21.369  -5.021  12.751  0.00  0.00    -0.650 OA
BRANCH  39  41
ATOM     41  O   UNK d   0     -21.693  -3.252  14.128  0.00  0.00    -0.776 OA
ATOM     42  H   UNK d   0     -22.135  -2.441  13.683  0.00  0.00     0.167 HD
ENDBRANCH  39  41
ENDBRANCH  38  39
ENDBRANCH  31  38
BRANCH  27  43
ATOM     43  C   UNK d   0     -24.551  -3.321  16.283  0.00  0.00     0.052 C 
BRANCH  43  44
ATOM     44  C   UNK d   0     -24.176  -1.897  16.532  0.00  0.00     0.115 C 
BRANCH  44  45
ATOM     45  C   UNK d   0     -24.630  -1.572  17.910  0.00  0.00     0.139 C 
ATOM     46  O   UNK d   0     -25.413  -2.373  18.478  0.00  0.00    -0.650 OA
BRANCH  45  47
ATOM     47  O   UNK d   0     -24.224  -0.441  18.583  0.00  0.00    -0.776 OA
ATOM     48  H   UNK d   0     -23.910  -0.456  19.567  0.00  0.00     0.167 HD
ENDBRANCH  45  47
ENDBRANCH  44  45
ENDBRANCH  43  44
ENDBRANCH  27  43
BRANCH  24  49
ATOM     49  C   UNK d   0     -28.695   0.344  16.512  0.00  0.00     0.052 C 
BRANCH  49  50
ATOM     50  C   UNK d   0     -27.435   0.550  17.313  0.00  0.00     0.115 C 
BRANCH  50  51
ATOM     51  C   UNK d   0     -26.635   1.728  17.004  0.00  0.00     0.139 C 
ATOM     52  O   UNK d   0     -25.436   1.655  16.645  0.00  0.00    -0.650 OA
BRANCH  51  53
ATOM     53  O   UNK d   0     -27.202   2.989  17.105  0.00  0.00    -0.776 OA
ATOM     54  H   UNK d   0     -27.873   3.265  16.410  0.00  0.00     0.167 HD
ENDBRANCH  51  53
ENDBRANCH  50  51
ENDBRANCH  49  50
ENDBRANCH  24  49
BRANCH  21  55
ATOM     55  C   UNK d   0     -29.378   2.295  14.216  0.00  0.00     0.151 C 
BRANCH  55  56
ATOM     56  C   UNK d   0     -30.601   2.300  13.399  0.00  0.00     0.143 C 
ATOM     57  O   UNK d   0     -30.814   3.146  12.508  0.00  0.00    -0.650 OA
BRANCH  56  58
ATOM     58  O   UNK d   0     -31.551   1.310  13.646  0.00  0.00    -0.776 OA
ATOM     59  H   UNK d   0     -32.386   1.344  13.034  0.00  0.00     0.167 HD
ENDBRANCH  56  58
ENDBRANCH  55  56
ENDBRANCH  21  55
BRANCH  18  60
ATOM     60  C   UNK d   0     -29.807   0.908   9.049  0.00  0.00     0.151 C 
BRANCH  60  61
ATOM     61  C   UNK d   0     -30.864   0.177   9.764  0.00  0.00     0.143 C 
ATOM     62  O   UNK d   0     -31.057  -1.039   9.762  0.00  0.00    -0.650 OA
BRANCH  61  63
ATOM     63  O   UNK d   0     -31.742   0.982  10.529  0.00  0.00    -0.776 OA
ATOM     64  H   UNK d   0     -32.556   0.589  10.968  0.00  0.00     0.167 HD
ENDBRANCH  61  63
ENDBRANCH  60  61
ENDBRANCH  18  60
BRANCH  14  65
ATOM     65  C   UNK d   0     -28.431  -0.808   6.958  0.00  0.00     0.052 C 
BRANCH  65  66
ATOM     66  C   UNK d   0     -27.866   0.221   6.044  0.00  0.00     0.115 C 
BRANCH  66  67
ATOM     67  C   UNK d   0     -26.730  -0.101   5.226  0.00  0.00     0.139 C 
ATOM     68  O   UNK d   0     -26.801  -1.126   4.453  0.00  0.00    -0.650 OA
BRANCH  67  69
ATOM     69  O   UNK d   0     -25.512   0.574   5.155  0.00  0.00    -0.776 OA
ATOM     70  H   UNK d   0     -25.401   1.214   4.355  0.00  0.00     0.167 HD
ENDBRANCH  67  69
ENDBRANCH  66  67
ENDBRANCH  65  66
ENDBRANCH  14  65
ENDBRANCH   6   7
ENDBRANCH   5   6
ENDBRANCH   2   5
TORSDOF 28
ENDMDL
MODEL 4
REMARK VINA RESULT:      -7.7     34.119     38.946
REMARK  28 active torsions:
REMARK  status: ('A' for Active; 'I' for Inactive)
REMARK    1  A    between atoms: C_2  and  O_3 
REMARK    2  A    between atoms: C_2  and  C_4 
REMARK    3  A    between atoms: C_4  and  C_5 
REMARK    4  A    between atoms: C_5  and  C_6 
REMARK    5  A    between atoms: C_7  and  C_8 
REMARK    6  A    between atoms: C_8  and  C_9 
REMARK    7  A    between atoms: C_9  and  O_11 
REMARK    8  A    between atoms: C_28  and  C_29 
REMARK    9  A    between atoms: C_29  and  C_30 
REMARK   10  A    between atoms: C_30  and  O_32 
REMARK   11  A    between atoms: C_33  and  C_34 
REMARK   12  A    between atoms: C_34  and  C_35 
REMARK   13  A    between atoms: C_35  and  C_36 
REMARK   14  A    between atoms: C_36  and  O_38 
REMARK   15  A    between atoms: C_39  and  C_40 
REMARK   16  A    between atoms: C_40  and  C_41 
REMARK   17  A    between atoms: C_41  and  C_42 
REMARK   18  A    between atoms: C_42  and  O_44 
REMARK   19  A    between atoms: C_45  and  C_46 
REMARK   20  A    between atoms: C_46  and  C_47 
REMARK   21  A    between atoms: C_47  and  O_49 
REMARK   22  A    between atoms: C_50  and  C_51 
REMARK   23  A    between atoms: C_51  and  C_52 
REMARK   24  A    between atoms: C_52  and  O_54 
REMARK   25  A    between atoms: C_55  and  C_56 
REMARK   26  A    between atoms: C_56  and  C_57 
REMARK   27  A    between atoms: C_57  and  C_58 
REMARK   28  A    between atoms: C_58  and  O_60 
ROOT
ATOM      1  O   UNK d   0      15.530   7.939   1.611  0.00  0.00    -0.650 OA
ATOM      2  C   UNK d   0      14.311   7.660   1.598  0.00  0.00     0.139 C 
ENDROOT
BRANCH   2   3
ATOM      3  O   UNK d   0      13.542   8.047   0.527  0.00  0.00    -0.776 OA
ATOM      4  H   UNK d   0      13.410   7.431  -0.278  0.00  0.00     0.167 HD
ENDBRANCH   2   3
BRANCH   2   5
ATOM      5  C   UNK d   0      13.702   6.915   2.736  0.00  0.00     0.115 C 
BRANCH   5   6
ATOM      6  C   UNK d   0      12.459   7.617   3.209  0.00  0.00     0.052 C 
BRANCH   6   7
ATOM      7  C   UNK d   0      11.261   6.699   3.273  0.00  0.00    -0.020 A 
ATOM      8  C   UNK d   0      10.303   6.575   2.392  0.00  0.00    -0.011 A 
ATOM      9  C   UNK d   0       9.368   5.578   2.888  0.00  0.00     0.067 A 
ATOM     10  C   UNK d   0       8.180   4.987   2.430  0.00  0.00     0.062 C 
ATOM     11  N   UNK d   0       9.833   5.153   4.082  0.00  0.00    -0.248 NA
ATOM     12  C   UNK d   0       7.563   3.833   2.925  0.00  0.00     0.041 A 
ATOM     13  N   UNK d   0       7.351   3.413   4.187  0.00  0.00    -0.355 N 
ATOM     14  C   UNK d   0       7.103   2.864   2.015  0.00  0.00    -0.022 A 
ATOM     15  C   UNK d   0       6.775   2.199   4.101  0.00  0.00     0.042 A 
ATOM     16  H   UNK d   0       7.586   3.971   5.119  0.00  0.00     0.166 HD
ATOM     17  C   UNK d   0       6.345   1.318   5.114  0.00  0.00     0.062 C 
ATOM     18  C   UNK d   0       6.603   1.821   2.755  0.00  0.00    -0.013 A 
ATOM     19  C   UNK d   0       6.988   0.951   6.268  0.00  0.00     0.067 A 
ATOM     20  N   UNK d   0       8.076   1.649   6.602  0.00  0.00    -0.248 NA
ATOM     21  C   UNK d   0       6.803  -0.068   7.288  0.00  0.00    -0.011 A 
ATOM     22  C   UNK d   0       8.618   1.160   7.765  0.00  0.00     0.066 A 
ATOM     23  C   UNK d   0       9.738   1.820   8.249  0.00  0.00     0.062 C 
ATOM     24  C   UNK d   0       7.763   0.057   8.159  0.00  0.00    -0.020 A 
ATOM     25  C   UNK d   0      10.334   2.985   7.744  0.00  0.00     0.041 A 
ATOM     26  N   UNK d   0      10.559   3.396   6.491  0.00  0.00    -0.355 N 
ATOM     27  C   UNK d   0      10.793   3.959   8.658  0.00  0.00    -0.022 A 
ATOM     28  C   UNK d   0      11.141   4.603   6.574  0.00  0.00     0.042 A 
ATOM     29  H   UNK d   0      10.332   2.829   5.555  0.00  0.00     0.166 HD
ATOM     30  C   UNK d   0      11.583   5.485   5.575  0.00  0.00     0.062 C 
ATOM     31  C   UNK d   0      11.304   4.986   7.926  0.00  0.00    -0.013 A 
ATOM     32  C   UNK d   0      10.970   5.788   4.370  0.00  0.00     0.066 A 
BRANCH   8  33
ATOM     33  C   UNK d   0      10.170   7.307   1.118  0.00  0.00     0.151 C 
BRANCH  33  34
ATOM     34  C   UNK d   0      10.408   6.452  -0.059  0.00  0.00     0.143 C 
ATOM     35  O   UNK d   0      11.554   6.098  -0.367  0.00  0.00    -0.650 OA
BRANCH  34  36
ATOM     36  O   UNK d   0       9.340   6.045  -0.824  0.00  0.00    -0.776 OA
ATOM     37  H   UNK d   0       8.384   6.370  -0.624  0.00  0.00     0.167 HD
ENDBRANCH  34  36
ENDBRANCH  33  34
ENDBRANCH   8  33
BRANCH  31  38
ATOM     38  C   UNK d   0      11.899   6.262   8.475  0.00  0.00     0.151 C 
BRANCH  38  39
ATOM     39  C   UNK d   0      10.909   7.295   8.694  0.00  0.00     0.143 C 
ATOM     40  O   UNK d   0       9.770   7.241   8.199  0.00  0.00    -0.650 OA
BRANCH  39  41
ATOM     41  O   UNK d   0      11.230   8.395   9.489  0.00  0.00    -0.776 OA
ATOM     42  H   UNK d   0      12.071   8.921   9.231  0.00  0.00     0.167 HD
ENDBRANCH  39  41
ENDBRANCH  38  39
ENDBRANCH  31  38
BRANCH  27  43
ATOM     43  C   UNK d   0      10.764   3.947  10.166  0.00  0.00     0.052 C 
BRANCH  43  44
ATOM     44  C   UNK d   0       9.398   3.723  10.729  0.00  0.00     0.115 C 
BRANCH  44  45
ATOM     45  C   UNK d   0       8.588   4.916  10.366  0.00  0.00     0.139 C 
ATOM     46  O   UNK d   0       7.735   4.795   9.452  0.00  0.00    -0.650 OA
BRANCH  45  47
ATOM     47  O   UNK d   0       8.732   6.135  10.991  0.00  0.00    -0.776 OA
ATOM     48  H   UNK d   0       9.185   6.243  11.913  0.00  0.00     0.167 HD
ENDBRANCH  45  47
ENDBRANCH  44  45
ENDBRANCH  43  44
ENDBRANCH  27  43
BRANCH  24  49
ATOM     49  C   UNK d   0       7.938  -0.748   9.380  0.00  0.00     0.052 C 
BRANCH  49  50
ATOM     50  C   UNK d   0       8.619  -2.053   9.054  0.00  0.00     0.115 C 
BRANCH  50  51
ATOM     51  C   UNK d   0       9.725  -2.007   8.107  0.00  0.00     0.139 C 
ATOM     52  O   UNK d   0      10.875  -1.626   8.428  0.00  0.00    -0.650 OA
BRANCH  51  53
ATOM     53  O   UNK d   0       9.518  -2.394   6.791  0.00  0.00    -0.776 OA
ATOM     54  H   UNK d   0       9.707  -1.726   6.064  0.00  0.00     0.167 HD
ENDBRANCH  51  53
ENDBRANCH  50  51
ENDBRANCH  49  50
ENDBRANCH  24  49
BRANCH  21  55
ATOM     55  C   UNK d   0       5.685  -1.056   7.288  0.00  0.00     0.151 C 
BRANCH  55  56
ATOM     56  C   UNK d   0       5.883  -2.113   6.284  0.00  0.00     0.143 C 
ATOM     57  O   UNK d   0       6.654  -3.077   6.462  0.00  0.00    -0.650 OA
BRANCH  56  58
ATOM     58  O   UNK d   0       5.170  -2.016   5.090  0.00  0.00    -0.776 OA
ATOM     59  H   UNK d   0       4.905  -2.923   4.665  0.00  0.00     0.167 HD
ENDBRANCH  56  58
ENDBRANCH  55  56
ENDBRANCH  21  55
BRANCH  18  60
ATOM     60  C   UNK d   0       6.011   0.558   2.180  0.00  0.00     0.151 C 
BRANCH  60  61
ATOM     61  C   UNK d   0       7.072  -0.457   2.256  0.00  0.00     0.143 C 
ATOM     62  O   UNK d   0       7.223  -1.309   3.133  0.00  0.00    -0.650 OA
BRANCH  61  63
ATOM     63  O   UNK d   0       8.008  -0.432   1.194  0.00  0.00    -0.776 OA
ATOM     64  H   UNK d   0       7.842  -0.940   0.344  0.00  0.00     0.167 HD
ENDBRANCH  61  63
ENDBRANCH  60  61
ENDBRANCH  18  60
BRANCH  14  65
ATOM     65  C   UNK d   0       7.010   2.892   0.516  0.00  0.00     0.052 C 
BRANCH  65  66
ATOM     66  C   UNK d   0       8.329   2.730  -0.151  0.00  0.00     0.115 C 
BRANCH  66  67
ATOM     67  C   UNK d   0       8.428   2.876  -1.576  0.00  0.00     0.139 C 
ATOM     68  O   UNK d   0       9.533   3.307  -2.074  0.00  0.00    -0.650 OA
BRANCH  67  69
ATOM     69  O   UNK d   0       7.450   2.604  -2.532  0.00  0.00    -0.776 OA
ATOM     70  H   UNK d   0       7.283   1.607  -2.730  0.00  0.00     0.167 HD
ENDBRANCH  67  69
ENDBRANCH  66  67
ENDBRANCH  65  66
ENDBRANCH  14  65
ENDBRANCH   6   7
ENDBRANCH   5   6
ENDBRANCH   2   5
TORSDOF 28
ENDMDL
MODEL 5
REMARK VINA RESULT:      -7.7      2.972     10.074
REMARK  28 active torsions:
REMARK  status: ('A' for Active; 'I' for Inactive)
REMARK    1  A    between atoms: C_2  and  O_3 
REMARK    2  A    between atoms: C_2  and  C_4 
REMARK    3  A    between atoms: C_4  and  C_5 
REMARK    4  A    between atoms: C_5  and  C_6 
REMARK    5  A    between atoms: C_7  and  C_8 
REMARK    6  A    between atoms: C_8  and  C_9 
REMARK    7  A    between atoms: C_9  and  O_11 
REMARK    8  A    between atoms: C_28  and  C_29 
REMARK    9  A    between atoms: C_29  and  C_30 
REMARK   10  A    between atoms: C_30  and  O_32 
REMARK   11  A    between atoms: C_33  and  C_34 
REMARK   12  A    between atoms: C_34  and  C_35 
REMARK   13  A    between atoms: C_35  and  C_36 
REMARK   14  A    between atoms: C_36  and  O_38 
REMARK   15  A    between atoms: C_39  and  C_40 
REMARK   16  A    between atoms: C_40  and  C_41 
REMARK   17  A    between atoms: C_41  and  C_42 
REMARK   18  A    between atoms: C_42  and  O_44 
REMARK   19  A    between atoms: C_45  and  C_46 
REMARK   20  A    between atoms: C_46  and  C_47 
REMARK   21  A    between atoms: C_47  and  O_49 
REMARK   22  A    between atoms: C_50  and  C_51 
REMARK   23  A    between atoms: C_51  and  C_52 
REMARK   24  A    between atoms: C_52  and  O_54 
REMARK   25  A    between atoms: C_55  and  C_56 
REMARK   26  A    between atoms: C_56  and  C_57 
REMARK   27  A    between atoms: C_57  and  C_58 
REMARK   28  A    between atoms: C_58  and  O_60 
ROOT
ATOM      1  O   UNK d   0     -22.209  -5.964   8.751  0.00  0.00    -0.650 OA
ATOM      2  C   UNK d   0     -22.711  -6.538   7.759  0.00  0.00     0.139 C 
ENDROOT
BRANCH   2   3
ATOM      3  O   UNK d   0     -22.299  -6.184   6.496  0.00  0.00    -0.776 OA
ATOM      4  H   UNK d   0     -22.152  -6.891   5.772  0.00  0.00     0.167 HD
ENDBRANCH   2   3
BRANCH   2   5
ATOM      5  C   UNK d   0     -23.745  -7.594   7.949  0.00  0.00     0.115 C 
BRANCH   5   6
ATOM      6  C   UNK d   0     -25.066  -7.129   7.397  0.00  0.00     0.052 C 
BRANCH   6   7
ATOM      7  C   UNK d   0     -25.433  -5.740   7.861  0.00  0.00    -0.020 A 
ATOM      8  C   UNK d   0     -25.729  -4.703   7.119  0.00  0.00    -0.011 A 
ATOM      9  C   UNK d   0     -26.004  -3.585   8.006  0.00  0.00     0.067 A 
ATOM     10  C   UNK d   0     -26.388  -2.244   7.855  0.00  0.00     0.062 C 
ATOM     11  N   UNK d   0     -25.846  -4.029   9.270  0.00  0.00    -0.248 NA
ATOM     12  C   UNK d   0     -26.880  -1.386   8.845  0.00  0.00     0.041 A 
ATOM     13  N   UNK d   0     -26.492  -1.190  10.119  0.00  0.00    -0.355 N 
ATOM     14  C   UNK d   0     -28.008  -0.595   8.562  0.00  0.00    -0.022 A 
ATOM     15  C   UNK d   0     -27.349  -0.300  10.654  0.00  0.00     0.042 A 
ATOM     16  H   UNK d   0     -25.617  -1.655  10.625  0.00  0.00     0.166 HD
ATOM     17  C   UNK d   0     -27.401   0.255  11.949  0.00  0.00     0.062 C 
ATOM     18  C   UNK d   0     -28.314   0.096   9.708  0.00  0.00    -0.013 A 
ATOM     19  C   UNK d   0     -27.266  -0.372  13.161  0.00  0.00     0.067 A 
ATOM     20  N   UNK d   0     -26.835  -1.636  13.144  0.00  0.00    -0.248 NA
ATOM     21  C   UNK d   0     -27.493  -0.016  14.552  0.00  0.00    -0.011 A 
ATOM     22  C   UNK d   0     -26.765  -2.132  14.423  0.00  0.00     0.066 A 
ATOM     23  C   UNK d   0     -26.294  -3.430  14.555  0.00  0.00     0.062 C 
ATOM     24  C   UNK d   0     -27.202  -1.052  15.285  0.00  0.00    -0.020 A 
ATOM     25  C   UNK d   0     -25.793  -4.270  13.549  0.00  0.00     0.041 A 
ATOM     26  N   UNK d   0     -26.187  -4.477  12.287  0.00  0.00    -0.355 N 
ATOM     27  C   UNK d   0     -24.658  -5.061  13.832  0.00  0.00    -0.022 A 
ATOM     28  C   UNK d   0     -25.339  -5.371  11.754  0.00  0.00     0.042 A 
ATOM     29  H   UNK d   0     -27.073  -4.016  11.783  0.00  0.00     0.166 HD
ATOM     30  C   UNK d   0     -25.282  -5.938  10.471  0.00  0.00     0.062 C 
ATOM     31  C   UNK d   0     -24.363  -5.759  12.702  0.00  0.00    -0.013 A 
ATOM     32  C   UNK d   0     -25.503  -5.318   9.252  0.00  0.00     0.066 A 
BRANCH   8  33
ATOM     33  C   UNK d   0     -25.777  -4.654   5.646  0.00  0.00     0.151 C 
BRANCH  33  34
ATOM     34  C   UNK d   0     -24.571  -4.045   5.056  0.00  0.00     0.143 C 
ATOM     35  O   UNK d   0     -24.431  -2.814   5.024  0.00  0.00    -0.650 OA
BRANCH  34  36
ATOM     36  O   UNK d   0     -23.590  -4.856   4.534  0.00  0.00    -0.776 OA
ATOM     37  H   UNK d   0     -23.818  -5.614   3.877  0.00  0.00     0.167 HD
ENDBRANCH  34  36
ENDBRANCH  33  34
ENDBRANCH   8  33
BRANCH  31  38
ATOM     38  C   UNK d   0     -23.218  -6.729  12.526  0.00  0.00     0.151 C 
BRANCH  38  39
ATOM     39  C   UNK d   0     -22.009  -6.089  12.053  0.00  0.00     0.143 C 
ATOM     40  O   UNK d   0     -20.875  -6.516  12.337  0.00  0.00    -0.650 OA
BRANCH  39  41
ATOM     41  O   UNK d   0     -22.102  -4.953  11.250  0.00  0.00    -0.776 OA
ATOM     42  H   UNK d   0     -22.695  -4.191  11.595  0.00  0.00     0.167 HD
ENDBRANCH  39  41
ENDBRANCH  38  39
ENDBRANCH  31  38
BRANCH  27  43
ATOM     43  C   UNK d   0     -23.864  -5.174  15.110  0.00  0.00     0.052 C 
BRANCH  43  44
ATOM     44  C   UNK d   0     -23.025  -3.970  15.393  0.00  0.00     0.115 C 
BRANCH  44  45
ATOM     45  C   UNK d   0     -21.681  -4.244  14.821  0.00  0.00     0.139 C 
ATOM     46  O   UNK d   0     -20.991  -5.155  15.342  0.00  0.00    -0.650 OA
BRANCH  45  47
ATOM     47  O   UNK d   0     -21.170  -3.548  13.747  0.00  0.00    -0.776 OA
ATOM     48  H   UNK d   0     -20.185  -3.626  13.446  0.00  0.00     0.167 HD
ENDBRANCH  45  47
ENDBRANCH  44  45
ENDBRANCH  43  44
ENDBRANCH  27  43
BRANCH  24  49
ATOM     49  C   UNK d   0     -27.253  -1.117  16.755  0.00  0.00     0.052 C 
BRANCH  49  50
ATOM     50  C   UNK d   0     -25.872  -1.331  17.319  0.00  0.00     0.115 C 
BRANCH  50  51
ATOM     51  C   UNK d   0     -25.139  -0.147  17.749  0.00  0.00     0.139 C 
ATOM     52  O   UNK d   0     -25.516   1.017  17.479  0.00  0.00    -0.650 OA
BRANCH  51  53
ATOM     53  O   UNK d   0     -23.974  -0.292  18.487  0.00  0.00    -0.776 OA
ATOM     54  H   UNK d   0     -23.857   0.276  19.308  0.00  0.00     0.167 HD
ENDBRANCH  51  53
ENDBRANCH  50  51
ENDBRANCH  49  50
ENDBRANCH  24  49
BRANCH  21  55
ATOM     55  C   UNK d   0     -27.973   1.324  15.004  0.00  0.00     0.151 C 
BRANCH  55  56
ATOM     56  C   UNK d   0     -29.439   1.379  15.106  0.00  0.00     0.143 C 
ATOM     57  O   UNK d   0     -30.189   1.307  14.113  0.00  0.00    -0.650 OA
BRANCH  56  58
ATOM     58  O   UNK d   0     -29.996   1.517  16.377  0.00  0.00    -0.776 OA
ATOM     59  H   UNK d   0     -29.349   1.315  17.161  0.00  0.00     0.167 HD
ENDBRANCH  56  58
ENDBRANCH  55  56
ENDBRANCH  21  55
BRANCH  18  60
ATOM     60  C   UNK d   0     -29.464   1.061   9.854  0.00  0.00     0.151 C 
BRANCH  60  61
ATOM     61  C   UNK d   0     -30.653   0.235  10.116  0.00  0.00     0.143 C 
ATOM     62  O   UNK d   0     -31.766   0.353   9.602  0.00  0.00    -0.650 OA
BRANCH  61  63
ATOM     63  O   UNK d   0     -30.472  -0.799  11.065  0.00  0.00    -0.776 OA
ATOM     64  H   UNK d   0     -31.254  -1.196  11.555  0.00  0.00     0.167 HD
ENDBRANCH  61  63
ENDBRANCH  60  61
ENDBRANCH  18  60
BRANCH  14  65
ATOM     65  C   UNK d   0     -28.750  -0.371   7.275  0.00  0.00     0.052 C 
BRANCH  65  66
ATOM     66  C   UNK d   0     -28.031   0.534   6.339  0.00  0.00     0.115 C 
BRANCH  66  67
ATOM     67  C   UNK d   0     -27.403  -0.009   5.167  0.00  0.00     0.139 C 
ATOM     68  O   UNK d   0     -27.279   0.744   4.132  0.00  0.00    -0.650 OA
BRANCH  67  69
ATOM     69  O   UNK d   0     -26.888  -1.293   4.992  0.00  0.00    -0.776 OA
ATOM     70  H   UNK d   0     -27.545  -1.991   4.615  0.00  0.00     0.167 HD
ENDBRANCH  67  69
ENDBRANCH  66  67
ENDBRANCH  65  66
ENDBRANCH  14  65
ENDBRANCH   6   7
ENDBRANCH   5   6
ENDBRANCH   2   5
TORSDOF 28
ENDMDL
MODEL 6
REMARK VINA RESULT:      -7.6      2.496      7.595
REMARK  28 active torsions:
REMARK  status: ('A' for Active; 'I' for Inactive)
REMARK    1  A    between atoms: C_2  and  O_3 
REMARK    2  A    between atoms: C_2  and  C_4 
REMARK    3  A    between atoms: C_4  and  C_5 
REMARK    4  A    between atoms: C_5  and  C_6 
REMARK    5  A    between atoms: C_7  and  C_8 
REMARK    6  A    between atoms: C_8  and  C_9 
REMARK    7  A    between atoms: C_9  and  O_11 
REMARK    8  A    between atoms: C_28  and  C_29 
REMARK    9  A    between atoms: C_29  and  C_30 
REMARK   10  A    between atoms: C_30  and  O_32 
REMARK   11  A    between atoms: C_33  and  C_34 
REMARK   12  A    between atoms: C_34  and  C_35 
REMARK   13  A    between atoms: C_35  and  C_36 
REMARK   14  A    between atoms: C_36  and  O_38 
REMARK   15  A    between atoms: C_39  and  C_40 
REMARK   16  A    between atoms: C_40  and  C_41 
REMARK   17  A    between atoms: C_41  and  C_42 
REMARK   18  A    between atoms: C_42  and  O_44 
REMARK   19  A    between atoms: C_45  and  C_46 
REMARK   20  A    between atoms: C_46  and  C_47 
REMARK   21  A    between atoms: C_47  and  O_49 
REMARK   22  A    between atoms: C_50  and  C_51 
REMARK   23  A    between atoms: C_51  and  C_52 
REMARK   24  A    between atoms: C_52  and  O_54 
REMARK   25  A    between atoms: C_55  and  C_56 
REMARK   26  A    between atoms: C_56  and  C_57 
REMARK   27  A    between atoms: C_57  and  C_58 
REMARK   28  A    between atoms: C_58  and  O_60 
ROOT
ATOM      1  O   UNK d   0     -22.559  -5.290   8.876  0.00  0.00    -0.650 OA
ATOM      2  C   UNK d   0     -22.911  -6.020   7.923  0.00  0.00     0.139 C 
ENDROOT
BRANCH   2   3
ATOM      3  O   UNK d   0     -22.606  -5.642   6.637  0.00  0.00    -0.776 OA
ATOM      4  H   UNK d   0     -23.296  -5.716   5.887  0.00  0.00     0.167 HD
ENDBRANCH   2   3
BRANCH   2   5
ATOM      5  C   UNK d   0     -23.656  -7.284   8.183  0.00  0.00     0.115 C 
BRANCH   5   6
ATOM      6  C   UNK d   0     -25.034  -7.206   7.585  0.00  0.00     0.052 C 
BRANCH   6   7
ATOM      7  C   UNK d   0     -25.990  -6.399   8.431  0.00  0.00    -0.020 A 
ATOM      8  C   UNK d   0     -26.675  -6.805   9.469  0.00  0.00    -0.011 A 
ATOM      9  C   UNK d   0     -27.462  -5.682   9.950  0.00  0.00     0.067 A 
ATOM     10  C   UNK d   0     -28.360  -5.452  11.004  0.00  0.00     0.062 C 
ATOM     11  N   UNK d   0     -27.199  -4.634   9.142  0.00  0.00    -0.248 NA
ATOM     12  C   UNK d   0     -28.812  -4.216  11.478  0.00  0.00     0.041 A 
ATOM     13  N   UNK d   0     -29.209  -3.107  10.825  0.00  0.00    -0.355 N 
ATOM     14  C   UNK d   0     -28.836  -3.987  12.866  0.00  0.00    -0.022 A 
ATOM     15  C   UNK d   0     -29.477  -2.179  11.762  0.00  0.00     0.042 A 
ATOM     16  H   UNK d   0     -29.316  -2.990   9.724  0.00  0.00     0.166 HD
ATOM     17  C   UNK d   0     -29.926  -0.850  11.629  0.00  0.00     0.062 C 
ATOM     18  C   UNK d   0     -29.254  -2.693  13.054  0.00  0.00    -0.013 A 
ATOM     19  C   UNK d   0     -29.498   0.123  10.762  0.00  0.00     0.067 A 
ATOM     20  N   UNK d   0     -28.688  -0.263   9.773  0.00  0.00    -0.248 NA
ATOM     21  C   UNK d   0     -29.686   1.558  10.626  0.00  0.00    -0.011 A 
ATOM     22  C   UNK d   0     -28.332   0.815   9.000  0.00  0.00     0.066 A 
ATOM     23  C   UNK d   0     -27.519   0.549   7.908  0.00  0.00     0.062 C 
ATOM     24  C   UNK d   0     -28.998   1.957   9.595  0.00  0.00    -0.020 A 
ATOM     25  C   UNK d   0     -27.087  -0.702   7.441  0.00  0.00     0.041 A 
ATOM     26  N   UNK d   0     -26.678  -1.799   8.090  0.00  0.00    -0.355 N 
ATOM     27  C   UNK d   0     -27.067  -0.932   6.048  0.00  0.00    -0.022 A 
ATOM     28  C   UNK d   0     -26.402  -2.724   7.157  0.00  0.00     0.042 A 
ATOM     29  H   UNK d   0     -26.561  -1.912   9.196  0.00  0.00     0.166 HD
ATOM     30  C   UNK d   0     -25.945  -4.046   7.275  0.00  0.00     0.062 C 
ATOM     31  C   UNK d   0     -26.636  -2.209   5.860  0.00  0.00    -0.013 A 
ATOM     32  C   UNK d   0     -26.321  -5.000   8.208  0.00  0.00     0.066 A 
BRANCH   8  33
ATOM     33  C   UNK d   0     -26.669  -8.157  10.060  0.00  0.00     0.151 C 
BRANCH  33  34
ATOM     34  C   UNK d   0     -25.941  -8.217  11.340  0.00  0.00     0.143 C 
ATOM     35  O   UNK d   0     -26.286  -9.005  12.232  0.00  0.00    -0.650 OA
BRANCH  34  36
ATOM     36  O   UNK d   0     -24.866  -7.384  11.545  0.00  0.00    -0.776 OA
ATOM     37  H   UNK d   0     -23.911  -7.671  11.288  0.00  0.00     0.167 HD
ENDBRANCH  34  36
ENDBRANCH  33  34
ENDBRANCH   8  33
BRANCH  31  38
ATOM     38  C   UNK d   0     -26.467  -2.906   4.530  0.00  0.00     0.151 C 
BRANCH  38  39
ATOM     39  C   UNK d   0     -25.084  -2.992   4.112  0.00  0.00     0.143 C 
ATOM     40  O   UNK d   0     -24.306  -3.854   4.557  0.00  0.00    -0.650 OA
BRANCH  39  41
ATOM     41  O   UNK d   0     -24.592  -2.081   3.177  0.00  0.00    -0.776 OA
ATOM     42  H   UNK d   0     -23.708  -1.616   3.406  0.00  0.00     0.167 HD
ENDBRANCH  39  41
ENDBRANCH  38  39
ENDBRANCH  31  38
BRANCH  27  43
ATOM     43  C   UNK d   0     -27.433  -0.003   4.918  0.00  0.00     0.052 C 
BRANCH  43  44
ATOM     44  C   UNK d   0     -26.247   0.629   4.265  0.00  0.00     0.115 C 
BRANCH  44  45
ATOM     45  C   UNK d   0     -26.549   0.698   2.811  0.00  0.00     0.139 C 
ATOM     46  O   UNK d   0     -27.645   1.198   2.458  0.00  0.00    -0.650 OA
BRANCH  45  47
ATOM     47  O   UNK d   0     -25.678   0.243   1.845  0.00  0.00    -0.776 OA
ATOM     48  H   UNK d   0     -24.881   0.802   1.501  0.00  0.00     0.167 HD
ENDBRANCH  45  47
ENDBRANCH  44  45
ENDBRANCH  43  44
ENDBRANCH  27  43
BRANCH  24  49
ATOM     49  C   UNK d   0     -28.935   3.333   9.074  0.00  0.00     0.052 C 
BRANCH  49  50
ATOM     50  C   UNK d   0     -27.885   4.125   9.809  0.00  0.00     0.115 C 
BRANCH  50  51
ATOM     51  C   UNK d   0     -28.335   5.287  10.563  0.00  0.00     0.139 C 
ATOM     52  O   UNK d   0     -29.275   6.022  10.177  0.00  0.00    -0.650 OA
BRANCH  51  53
ATOM     53  O   UNK d   0     -27.713   5.613  11.759  0.00  0.00    -0.776 OA
ATOM     54  H   UNK d   0     -27.610   6.585  11.992  0.00  0.00     0.167 HD
ENDBRANCH  51  53
ENDBRANCH  50  51
ENDBRANCH  49  50
ENDBRANCH  24  49
BRANCH  21  55
ATOM     55  C   UNK d   0     -30.537   2.378  11.537  0.00  0.00     0.151 C 
BRANCH  55  56
ATOM     56  C   UNK d   0     -29.805   2.805  12.739  0.00  0.00     0.143 C 
ATOM     57  O   UNK d   0     -29.035   2.050  13.365  0.00  0.00    -0.650 OA
BRANCH  56  58
ATOM     58  O   UNK d   0     -29.993   4.113  13.183  0.00  0.00    -0.776 OA
ATOM     59  H   UNK d   0     -30.353   4.770  12.467  0.00  0.00     0.167 HD
ENDBRANCH  56  58
ENDBRANCH  55  56
ENDBRANCH  21  55
BRANCH  18  60
ATOM     60  C   UNK d   0     -29.417  -2.024  14.396  0.00  0.00     0.151 C 
BRANCH  60  61
ATOM     61  C   UNK d   0     -28.057  -1.696  14.851  0.00  0.00     0.143 C 
ATOM     62  O   UNK d   0     -27.178  -1.121  14.209  0.00  0.00    -0.650 OA
BRANCH  61  63
ATOM     63  O   UNK d   0     -27.752  -2.095  16.175  0.00  0.00    -0.776 OA
ATOM     64  H   UNK d   0     -28.462  -2.119  16.886  0.00  0.00     0.167 HD
ENDBRANCH  61  63
ENDBRANCH  60  61
ENDBRANCH  18  60
BRANCH  14  65
ATOM     65  C   UNK d   0     -28.591  -4.919  14.019  0.00  0.00     0.052 C 
BRANCH  65  66
ATOM     66  C   UNK d   0     -27.239  -5.539  13.988  0.00  0.00     0.115 C 
BRANCH  66  67
ATOM     67  C   UNK d   0     -26.075  -4.703  13.897  0.00  0.00     0.139 C 
ATOM     68  O   UNK d   0     -25.365  -4.755  12.827  0.00  0.00    -0.650 OA
BRANCH  67  69
ATOM     69  O   UNK d   0     -25.591  -3.808  14.851  0.00  0.00    -0.776 OA
ATOM     70  H   UNK d   0     -24.896  -3.127  14.513  0.00  0.00     0.167 HD
ENDBRANCH  67  69
ENDBRANCH  66  67
ENDBRANCH  65  66
ENDBRANCH  14  65
ENDBRANCH   6   7
ENDBRANCH   5   6
ENDBRANCH   2   5
TORSDOF 28
ENDMDL
MODEL 7
REMARK VINA RESULT:      -7.6      2.206      7.711
REMARK  28 active torsions:
REMARK  status: ('A' for Active; 'I' for Inactive)
REMARK    1  A    between atoms: C_2  and  O_3 
REMARK    2  A    between atoms: C_2  and  C_4 
REMARK    3  A    between atoms: C_4  and  C_5 
REMARK    4  A    between atoms: C_5  and  C_6 
REMARK    5  A    between atoms: C_7  and  C_8 
REMARK    6  A    between atoms: C_8  and  C_9 
REMARK    7  A    between atoms: C_9  and  O_11 
REMARK    8  A    between atoms: C_28  and  C_29 
REMARK    9  A    between atoms: C_29  and  C_30 
REMARK   10  A    between atoms: C_30  and  O_32 
REMARK   11  A    between atoms: C_33  and  C_34 
REMARK   12  A    between atoms: C_34  and  C_35 
REMARK   13  A    between atoms: C_35  and  C_36 
REMARK   14  A    between atoms: C_36  and  O_38 
REMARK   15  A    between atoms: C_39  and  C_40 
REMARK   16  A    between atoms: C_40  and  C_41 
REMARK   17  A    between atoms: C_41  and  C_42 
REMARK   18  A    between atoms: C_42  and  O_44 
REMARK   19  A    between atoms: C_45  and  C_46 
REMARK   20  A    between atoms: C_46  and  C_47 
REMARK   21  A    between atoms: C_47  and  O_49 
REMARK   22  A    between atoms: C_50  and  C_51 
REMARK   23  A    between atoms: C_51  and  C_52 
REMARK   24  A    between atoms: C_52  and  O_54 
REMARK   25  A    between atoms: C_55  and  C_56 
REMARK   26  A    between atoms: C_56  and  C_57 
REMARK   27  A    between atoms: C_57  and  C_58 
REMARK   28  A    between atoms: C_58  and  O_60 
ROOT
ATOM      1  O   UNK d   0     -22.865  -5.699   6.529  0.00  0.00    -0.650 OA
ATOM      2  C   UNK d   0     -23.044  -6.096   7.702  0.00  0.00     0.139 C 
ENDROOT
BRANCH   2   3
ATOM      3  O   UNK d   0     -22.096  -5.821   8.658  0.00  0.00    -0.776 OA
ATOM      4  H   UNK d   0     -22.165  -6.215   9.598  0.00  0.00     0.167 HD
ENDBRANCH   2   3
BRANCH   2   5
ATOM      5  C   UNK d   0     -24.273  -6.862   8.053  0.00  0.00     0.115 C 
BRANCH   5   6
ATOM      6  C   UNK d   0     -24.476  -6.859   9.544  0.00  0.00     0.052 C 
BRANCH   6   7
ATOM      7  C   UNK d   0     -25.727  -6.123   9.959  0.00  0.00    -0.020 A 
ATOM      8  C   UNK d   0     -26.732  -6.587  10.658  0.00  0.00    -0.011 A 
ATOM      9  C   UNK d   0     -27.707  -5.518  10.799  0.00  0.00     0.067 A 
ATOM     10  C   UNK d   0     -28.951  -5.359  11.430  0.00  0.00     0.062 C 
ATOM     11  N   UNK d   0     -27.217  -4.441  10.151  0.00  0.00    -0.248 NA
ATOM     12  C   UNK d   0     -29.620  -4.159  11.693  0.00  0.00     0.041 A 
ATOM     13  N   UNK d   0     -29.801  -3.061  10.935  0.00  0.00    -0.355 N 
ATOM     14  C   UNK d   0     -30.185  -3.960  12.966  0.00  0.00    -0.022 A 
ATOM     15  C   UNK d   0     -30.460  -2.167  11.697  0.00  0.00     0.042 A 
ATOM     16  H   UNK d   0     -29.487  -2.927   9.877  0.00  0.00     0.166 HD
ATOM     17  C   UNK d   0     -30.901  -0.862  11.400  0.00  0.00     0.062 C 
ATOM     18  C   UNK d   0     -30.718  -2.695  12.977  0.00  0.00    -0.013 A 
ATOM     19  C   UNK d   0     -30.231   0.150  10.760  0.00  0.00     0.067 A 
ATOM     20  N   UNK d   0     -29.085  -0.172  10.156  0.00  0.00    -0.248 NA
ATOM     21  C   UNK d   0     -30.436   1.574  10.560  0.00  0.00    -0.011 A 
ATOM     22  C   UNK d   0     -28.524   0.940   9.576  0.00  0.00     0.066 A 
ATOM     23  C   UNK d   0     -27.342   0.741   8.878  0.00  0.00     0.062 C 
ATOM     24  C   UNK d   0     -29.432   2.032   9.869  0.00  0.00    -0.020 A 
ATOM     25  C   UNK d   0     -26.693  -0.475   8.614  0.00  0.00     0.041 A 
ATOM     26  N   UNK d   0     -26.499  -1.561   9.372  0.00  0.00    -0.355 N 
ATOM     27  C   UNK d   0     -26.130  -0.675   7.335  0.00  0.00    -0.022 A 
ATOM     28  C   UNK d   0     -25.835  -2.450   8.617  0.00  0.00     0.042 A 
ATOM     29  H   UNK d   0     -26.806  -1.690  10.439  0.00  0.00     0.166 HD
ATOM     30  C   UNK d   0     -25.382  -3.748   8.903  0.00  0.00     0.062 C 
ATOM     31  C   UNK d   0     -25.585  -1.923   7.328  0.00  0.00    -0.013 A 
ATOM     32  C   UNK d   0     -26.028  -4.739   9.624  0.00  0.00     0.066 A 
BRANCH   8  33
ATOM     33  C   UNK d   0     -26.873  -7.948  11.208  0.00  0.00     0.151 C 
BRANCH  33  34
ATOM     34  C   UNK d   0     -26.211  -8.106  12.515  0.00  0.00     0.143 C 
ATOM     35  O   UNK d   0     -25.804  -7.120  13.146  0.00  0.00    -0.650 OA
BRANCH  34  36
ATOM     36  O   UNK d   0     -26.042  -9.367  13.038  0.00  0.00    -0.776 OA
ATOM     37  H   UNK d   0     -25.110  -9.801  13.096  0.00  0.00     0.167 HD
ENDBRANCH  34  36
ENDBRANCH  33  34
ENDBRANCH   8  33
BRANCH  31  38
ATOM     38  C   UNK d   0     -24.882  -2.582   6.165  0.00  0.00     0.151 C 
BRANCH  38  39
ATOM     39  C   UNK d   0     -25.702  -3.573   5.501  0.00  0.00     0.143 C 
ATOM     40  O   UNK d   0     -26.928  -3.429   5.349  0.00  0.00    -0.650 OA
BRANCH  39  41
ATOM     41  O   UNK d   0     -25.110  -4.736   5.008  0.00  0.00    -0.776 OA
ATOM     42  H   UNK d   0     -24.668  -4.674   4.086  0.00  0.00     0.167 HD
ENDBRANCH  39  41
ENDBRANCH  38  39
ENDBRANCH  31  38
BRANCH  27  43
ATOM     43  C   UNK d   0     -26.090   0.255   6.148  0.00  0.00     0.052 C 
BRANCH  43  44
ATOM     44  C   UNK d   0     -27.212   0.035   5.186  0.00  0.00     0.115 C 
BRANCH  44  45
ATOM     45  C   UNK d   0     -26.651   0.240   3.826  0.00  0.00     0.139 C 
ATOM     46  O   UNK d   0     -26.877  -0.635   2.954  0.00  0.00    -0.650 OA
BRANCH  45  47
ATOM     47  O   UNK d   0     -25.903   1.347   3.485  0.00  0.00    -0.776 OA
ATOM     48  H   UNK d   0     -25.973   1.807   2.563  0.00  0.00     0.167 HD
ENDBRANCH  45  47
ENDBRANCH  44  45
ENDBRANCH  43  44
ENDBRANCH  27  43
BRANCH  24  49
ATOM     49  C   UNK d   0     -29.255   3.419   9.408  0.00  0.00     0.052 C 
BRANCH  49  50
ATOM     50  C   UNK d   0     -28.687   4.271  10.515  0.00  0.00     0.115 C 
BRANCH  50  51
ATOM     51  C   UNK d   0     -29.241   5.609  10.675  0.00  0.00     0.139 C 
ATOM     52  O   UNK d   0     -28.530   6.608  10.936  0.00  0.00    -0.650 OA
BRANCH  51  53
ATOM     53  O   UNK d   0     -30.606   5.807  10.538  0.00  0.00    -0.776 OA
ATOM     54  H   UNK d   0     -31.128   6.095  11.348  0.00  0.00     0.167 HD
ENDBRANCH  51  53
ENDBRANCH  50  51
ENDBRANCH  49  50
ENDBRANCH  24  49
BRANCH  21  55
ATOM     55  C   UNK d   0     -31.617   2.329  11.075  0.00  0.00     0.151 C 
BRANCH  55  56
ATOM     56  C   UNK d   0     -32.740   2.310  10.126  0.00  0.00     0.143 C 
ATOM     57  O   UNK d   0     -32.859   3.139   9.203  0.00  0.00    -0.650 OA
BRANCH  56  58
ATOM     58  O   UNK d   0     -33.704   1.315  10.281  0.00  0.00    -0.776 OA
ATOM     59  H   UNK d   0     -33.352   0.424  10.676  0.00  0.00     0.167 HD
ENDBRANCH  56  58
ENDBRANCH  55  56
ENDBRANCH  21  55
BRANCH  18  60
ATOM     60  C   UNK d   0     -31.419  -2.063  14.154  0.00  0.00     0.151 C 
BRANCH  60  61
ATOM     61  C   UNK d   0     -32.656  -2.834  14.349  0.00  0.00     0.143 C 
ATOM     62  O   UNK d   0     -33.135  -3.210  15.420  0.00  0.00    -0.650 OA
BRANCH  61  63
ATOM     63  O   UNK d   0     -33.352  -3.167  13.162  0.00  0.00    -0.776 OA
ATOM     64  H   UNK d   0     -33.195  -4.044  12.698  0.00  0.00     0.167 HD
ENDBRANCH  61  63
ENDBRANCH  60  61
ENDBRANCH  18  60
BRANCH  14  65
ATOM     65  C   UNK d   0     -30.345  -4.901  14.126  0.00  0.00     0.052 C 
BRANCH  65  66
ATOM     66  C   UNK d   0     -29.255  -4.775  15.131  0.00  0.00     0.115 C 
BRANCH  66  67
ATOM     67  C   UNK d   0     -28.040  -4.094  14.782  0.00  0.00     0.139 C 
ATOM     68  O   UNK d   0     -27.895  -2.871  15.151  0.00  0.00    -0.650 OA
BRANCH  67  69
ATOM     69  O   UNK d   0     -26.954  -4.599  14.069  0.00  0.00    -0.776 OA
ATOM     70  H   UNK d   0     -26.777  -4.162  13.153  0.00  0.00     0.167 HD
ENDBRANCH  67  69
ENDBRANCH  66  67
ENDBRANCH  65  66
ENDBRANCH  14  65
ENDBRANCH   6   7
ENDBRANCH   5   6
ENDBRANCH   2   5
TORSDOF 28
ENDMDL
MODEL 8
REMARK VINA RESULT:      -7.6      3.251      9.235
REMARK  28 active torsions:
REMARK  status: ('A' for Active; 'I' for Inactive)
REMARK    1  A    between atoms: C_2  and  O_3 
REMARK    2  A    between atoms: C_2  and  C_4 
REMARK    3  A    between atoms: C_4  and  C_5 
REMARK    4  A    between atoms: C_5  and  C_6 
REMARK    5  A    between atoms: C_7  and  C_8 
REMARK    6  A    between atoms: C_8  and  C_9 
REMARK    7  A    between atoms: C_9  and  O_11 
REMARK    8  A    between atoms: C_28  and  C_29 
REMARK    9  A    between atoms: C_29  and  C_30 
REMARK   10  A    between atoms: C_30  and  O_32 
REMARK   11  A    between atoms: C_33  and  C_34 
REMARK   12  A    between atoms: C_34  and  C_35 
REMARK   13  A    between atoms: C_35  and  C_36 
REMARK   14  A    between atoms: C_36  and  O_38 
REMARK   15  A    between atoms: C_39  and  C_40 
REMARK   16  A    between atoms: C_40  and  C_41 
REMARK   17  A    between atoms: C_41  and  C_42 
REMARK   18  A    between atoms: C_42  and  O_44 
REMARK   19  A    between atoms: C_45  and  C_46 
REMARK   20  A    between atoms: C_46  and  C_47 
REMARK   21  A    between atoms: C_47  and  O_49 
REMARK   22  A    between atoms: C_50  and  C_51 
REMARK   23  A    between atoms: C_51  and  C_52 
REMARK   24  A    between atoms: C_52  and  O_54 
REMARK   25  A    between atoms: C_55  and  C_56 
REMARK   26  A    between atoms: C_56  and  C_57 
REMARK   27  A    between atoms: C_57  and  C_58 
REMARK   28  A    between atoms: C_58  and  O_60 
ROOT
ATOM      1  O   UNK d   0     -24.657  -8.194  13.423  0.00  0.00    -0.650 OA
ATOM      2  C   UNK d   0     -25.650  -8.349  12.678  0.00  0.00     0.139 C 
ENDROOT
BRANCH   2   3
ATOM      3  O   UNK d   0     -26.832  -8.798  13.215  0.00  0.00    -0.776 OA
ATOM      4  H   UNK d   0     -26.900  -9.049  14.204  0.00  0.00     0.167 HD
ENDBRANCH   2   3
BRANCH   2   5
ATOM      5  C   UNK d   0     -25.547  -8.048  11.221  0.00  0.00     0.115 C 
BRANCH   5   6
ATOM      6  C   UNK d   0     -24.398  -7.111  10.966  0.00  0.00     0.052 C 
BRANCH   6   7
ATOM      7  C   UNK d   0     -24.852  -5.741  10.521  0.00  0.00    -0.020 A 
ATOM      8  C   UNK d   0     -24.880  -5.267   9.302  0.00  0.00    -0.011 A 
ATOM      9  C   UNK d   0     -25.384  -3.905   9.366  0.00  0.00     0.067 A 
ATOM     10  C   UNK d   0     -25.668  -2.886   8.443  0.00  0.00     0.062 C 
ATOM     11  N   UNK d   0     -25.633  -3.631  10.664  0.00  0.00    -0.248 NA
ATOM     12  C   UNK d   0     -26.417  -1.726   8.667  0.00  0.00     0.041 A 
ATOM     13  N   UNK d   0     -26.433  -0.867   9.704  0.00  0.00    -0.355 N 
ATOM     14  C   UNK d   0     -27.383  -1.346   7.717  0.00  0.00    -0.022 A 
ATOM     15  C   UNK d   0     -27.390   0.043   9.441  0.00  0.00     0.042 A 
ATOM     16  H   UNK d   0     -25.768  -0.892  10.595  0.00  0.00     0.166 HD
ATOM     17  C   UNK d   0     -27.821   1.157  10.188  0.00  0.00     0.062 C 
ATOM     18  C   UNK d   0     -28.007  -0.224   8.204  0.00  0.00    -0.013 A 
ATOM     19  C   UNK d   0     -28.081   1.246  11.532  0.00  0.00     0.067 A 
ATOM     20  N   UNK d   0     -27.699   0.216  12.291  0.00  0.00    -0.248 NA
ATOM     21  C   UNK d   0     -28.714   2.214  12.411  0.00  0.00    -0.011 A 
ATOM     22  C   UNK d   0     -28.038   0.440  13.603  0.00  0.00     0.066 A 
ATOM     23  C   UNK d   0     -27.663  -0.539  14.512  0.00  0.00     0.062 C 
ATOM     24  C   UNK d   0     -28.689   1.735  13.622  0.00  0.00    -0.020 A 
ATOM     25  C   UNK d   0     -26.900  -1.692  14.269  0.00  0.00     0.041 A 
ATOM     26  N   UNK d   0     -26.894  -2.553  13.245  0.00  0.00    -0.355 N 
ATOM     27  C   UNK d   0     -25.928  -2.070  15.221  0.00  0.00    -0.022 A 
ATOM     28  C   UNK d   0     -25.947  -3.467  13.510  0.00  0.00     0.042 A 
ATOM     29  H   UNK d   0     -27.570  -2.533  12.355  0.00  0.00     0.166 HD
ATOM     30  C   UNK d   0     -25.514  -4.585  12.780  0.00  0.00     0.062 C 
ATOM     31  C   UNK d   0     -25.320  -3.192  14.748  0.00  0.00    -0.013 A 
ATOM     32  C   UNK d   0     -25.334  -4.695  11.410  0.00  0.00     0.066 A 
BRANCH   8  33
ATOM     33  C   UNK d   0     -24.472  -5.967   8.070  0.00  0.00     0.151 C 
BRANCH  33  34
ATOM     34  C   UNK d   0     -23.052  -5.757   7.738  0.00  0.00     0.143 C 
ATOM     35  O   UNK d   0     -22.176  -5.834   8.611  0.00  0.00    -0.650 OA
BRANCH  34  36
ATOM     36  O   UNK d   0     -22.697  -5.470   6.440  0.00  0.00    -0.776 OA
ATOM     37  H   UNK d   0     -21.754  -5.680   6.085  0.00  0.00     0.167 HD
ENDBRANCH  34  36
ENDBRANCH  33  34
ENDBRANCH   8  33
BRANCH  31  38
ATOM     38  C   UNK d   0     -24.201  -3.951  15.422  0.00  0.00     0.151 C 
BRANCH  38  39
ATOM     39  C   UNK d   0     -22.931  -3.800  14.744  0.00  0.00     0.143 C 
ATOM     40  O   UNK d   0     -22.057  -4.684  14.764  0.00  0.00    -0.650 OA
BRANCH  39  41
ATOM     41  O   UNK d   0     -22.665  -2.627  14.038  0.00  0.00    -0.776 OA
ATOM     42  H   UNK d   0     -22.930  -2.614  13.049  0.00  0.00     0.167 HD
ENDBRANCH  39  41
ENDBRANCH  38  39
ENDBRANCH  31  38
BRANCH  27  43
ATOM     43  C   UNK d   0     -25.567  -1.419  16.533  0.00  0.00     0.052 C 
BRANCH  43  44
ATOM     44  C   UNK d   0     -24.223  -0.766  16.519  0.00  0.00     0.115 C 
BRANCH  44  45
ATOM     45  C   UNK d   0     -24.458   0.693  16.667  0.00  0.00     0.139 C 
ATOM     46  O   UNK d   0     -24.739   1.134  17.809  0.00  0.00    -0.650 OA
BRANCH  45  47
ATOM     47  O   UNK d   0     -24.375   1.575  15.612  0.00  0.00    -0.776 OA
ATOM     48  H   UNK d   0     -24.247   2.592  15.739  0.00  0.00     0.167 HD
ENDBRANCH  45  47
ENDBRANCH  44  45
ENDBRANCH  43  44
ENDBRANCH  27  43
BRANCH  24  49
ATOM     49  C   UNK d   0     -29.190   2.407  14.833  0.00  0.00     0.052 C 
BRANCH  49  50
ATOM     50  C   UNK d   0     -28.231   3.483  15.270  0.00  0.00     0.115 C 
BRANCH  50  51
ATOM     51  C   UNK d   0     -27.309   3.154  16.349  0.00  0.00     0.139 C 
ATOM     52  O   UNK d   0     -26.272   3.819  16.580  0.00  0.00    -0.650 OA
BRANCH  51  53
ATOM     53  O   UNK d   0     -27.569   2.063  17.164  0.00  0.00    -0.776 OA
ATOM     54  H   UNK d   0     -28.511   1.923  17.485  0.00  0.00     0.167 HD
ENDBRANCH  51  53
ENDBRANCH  50  51
ENDBRANCH  49  50
ENDBRANCH  24  49
BRANCH  21  55
ATOM     55  C   UNK d   0     -29.274   3.520  11.952  0.00  0.00     0.151 C 
BRANCH  55  56
ATOM     56  C   UNK d   0     -30.456   3.341  11.095  0.00  0.00     0.143 C 
ATOM     57  O   UNK d   0     -31.409   2.599  11.405  0.00  0.00    -0.650 OA
BRANCH  56  58
ATOM     58  O   UNK d   0     -30.496   4.040   9.890  0.00  0.00    -0.776 OA
ATOM     59  H   UNK d   0     -29.942   3.618   9.123  0.00  0.00     0.167 HD
ENDBRANCH  56  58
ENDBRANCH  55  56
ENDBRANCH  21  55
BRANCH  18  60
ATOM     60  C   UNK d   0     -29.121   0.516   7.506  0.00  0.00     0.151 C 
BRANCH  60  61
ATOM     61  C   UNK d   0     -30.319   0.319   8.336  0.00  0.00     0.143 C 
ATOM     62  O   UNK d   0     -30.686  -0.726   8.874  0.00  0.00    -0.650 OA
BRANCH  61  63
ATOM     63  O   UNK d   0     -31.120   1.472   8.521  0.00  0.00    -0.776 OA
ATOM     64  H   UNK d   0     -32.076   1.396   8.821  0.00  0.00     0.167 HD
ENDBRANCH  61  63
ENDBRANCH  60  61
ENDBRANCH  18  60
BRANCH  14  65
ATOM     65  C   UNK d   0     -27.689  -1.899   6.354  0.00  0.00     0.052 C 
BRANCH  65  66
ATOM     66  C   UNK d   0     -26.643  -1.576   5.347  0.00  0.00     0.115 C 
BRANCH  66  67
ATOM     67  C   UNK d   0     -26.368  -0.205   5.020  0.00  0.00     0.139 C 
ATOM     68  O   UNK d   0     -25.177   0.242   5.203  0.00  0.00    -0.650 OA
BRANCH  67  69
ATOM     69  O   UNK d   0     -27.253   0.744   4.511  0.00  0.00    -0.776 OA
ATOM     70  H   UNK d   0     -26.913   1.286   3.704  0.00  0.00     0.167 HD
ENDBRANCH  67  69
ENDBRANCH  66  67
ENDBRANCH  65  66
ENDBRANCH  14  65
ENDBRANCH   6   7
ENDBRANCH   5   6
ENDBRANCH   2   5
TORSDOF 28
ENDMDL
MODEL 9
REMARK VINA RESULT:      -7.6      1.992      6.827
REMARK  28 active torsions:
REMARK  status: ('A' for Active; 'I' for Inactive)
REMARK    1  A    between atoms: C_2  and  O_3 
REMARK    2  A    between atoms: C_2  and  C_4 
REMARK    3  A    between atoms: C_4  and  C_5 
REMARK    4  A    between atoms: C_5  and  C_6 
REMARK    5  A    between atoms: C_7  and  C_8 
REMARK    6  A    between atoms: C_8  and  C_9 
REMARK    7  A    between atoms: C_9  and  O_11 
REMARK    8  A    between atoms: C_28  and  C_29 
REMARK    9  A    between atoms: C_29  and  C_30 
REMARK   10  A    between atoms: C_30  and  O_32 
REMARK   11  A    between atoms: C_33  and  C_34 
REMARK   12  A    between atoms: C_34  and  C_35 
REMARK   13  A    between atoms: C_35  and  C_36 
REMARK   14  A    between atoms: C_36  and  O_38 
REMARK   15  A    between atoms: C_39  and  C_40 
REMARK   16  A    between atoms: C_40  and  C_41 
REMARK   17  A    between atoms: C_41  and  C_42 
REMARK   18  A    between atoms: C_42  and  O_44 
REMARK   19  A    between atoms: C_45  and  C_46 
REMARK   20  A    between atoms: C_46  and  C_47 
REMARK   21  A    between atoms: C_47  and  O_49 
REMARK   22  A    between atoms: C_50  and  C_51 
REMARK   23  A    between atoms: C_51  and  C_52 
REMARK   24  A    between atoms: C_52  and  O_54 
REMARK   25  A    between atoms: C_55  and  C_56 
REMARK   26  A    between atoms: C_56  and  C_57 
REMARK   27  A    between atoms: C_57  and  C_58 
REMARK   28  A    between atoms: C_58  and  O_60 
ROOT
ATOM      1  O   UNK d   0     -32.484   1.910   9.915  0.00  0.00    -0.650 OA
ATOM      2  C   UNK d   0     -31.504   2.381   9.297  0.00  0.00     0.139 C 
ENDROOT
BRANCH   2   3
ATOM      3  O   UNK d   0     -31.104   1.794   8.120  0.00  0.00    -0.776 OA
ATOM      4  H   UNK d   0     -31.678   1.081   7.665  0.00  0.00     0.167 HD
ENDBRANCH   2   3
BRANCH   2   5
ATOM      5  C   UNK d   0     -30.779   3.567   9.835  0.00  0.00     0.115 C 
BRANCH   5   6
ATOM      6  C   UNK d   0     -29.321   3.242  10.020  0.00  0.00     0.052 C 
BRANCH   6   7
ATOM      7  C   UNK d   0     -29.104   1.994  10.842  0.00  0.00    -0.020 A 
ATOM      8  C   UNK d   0     -29.327   1.832  12.121  0.00  0.00    -0.011 A 
ATOM      9  C   UNK d   0     -28.961   0.468  12.467  0.00  0.00     0.067 A 
ATOM     10  C   UNK d   0     -28.979  -0.322  13.627  0.00  0.00     0.062 C 
ATOM     11  N   UNK d   0     -28.519  -0.126  11.339  0.00  0.00    -0.248 NA
ATOM     12  C   UNK d   0     -28.846  -1.712  13.707  0.00  0.00     0.041 A 
ATOM     13  N   UNK d   0     -28.013  -2.561  13.075  0.00  0.00    -0.355 N 
ATOM     14  C   UNK d   0     -29.732  -2.434  14.527  0.00  0.00    -0.022 A 
ATOM     15  C   UNK d   0     -28.353  -3.803  13.467  0.00  0.00     0.042 A 
ATOM     16  H   UNK d   0     -27.188  -2.286  12.381  0.00  0.00     0.166 HD
ATOM     17  C   UNK d   0     -27.807  -5.054  13.114  0.00  0.00     0.062 C 
ATOM     18  C   UNK d   0     -29.427  -3.764  14.377  0.00  0.00    -0.013 A 
ATOM     19  C   UNK d   0     -27.455  -5.522  11.874  0.00  0.00     0.067 A 
ATOM     20  N   UNK d   0     -27.430  -4.633  10.877  0.00  0.00    -0.248 NA
ATOM     21  C   UNK d   0     -27.091  -6.810  11.308  0.00  0.00    -0.011 A 
ATOM     22  C   UNK d   0     -27.077  -5.247   9.700  0.00  0.00     0.066 A 
ATOM     23  C   UNK d   0     -26.975  -4.429   8.585  0.00  0.00     0.062 C 
ATOM     24  C   UNK d   0     -26.875  -6.643  10.035  0.00  0.00    -0.020 A 
ATOM     25  C   UNK d   0     -27.100  -3.033   8.528  0.00  0.00     0.041 A 
ATOM     26  N   UNK d   0     -27.937  -2.190   9.144  0.00  0.00    -0.355 N 
ATOM     27  C   UNK d   0     -26.207  -2.308   7.708  0.00  0.00    -0.022 A 
ATOM     28  C   UNK d   0     -27.606  -0.951   8.748  0.00  0.00     0.042 A 
ATOM     29  H   UNK d   0     -28.772  -2.469   9.833  0.00  0.00     0.166 HD
ATOM     30  C   UNK d   0     -28.146   0.300   9.084  0.00  0.00     0.062 C 
ATOM     31  C   UNK d   0     -26.520  -0.991   7.842  0.00  0.00    -0.013 A 
ATOM     32  C   UNK d   0     -28.580   0.739  10.325  0.00  0.00     0.066 A 
BRANCH   8  33
ATOM     33  C   UNK d   0     -29.851   2.838  13.063  0.00  0.00     0.151 C 
BRANCH  33  34
ATOM     34  C   UNK d   0     -31.205   2.515  13.548  0.00  0.00     0.143 C 
ATOM     35  O   UNK d   0     -31.568   2.843  14.687  0.00  0.00    -0.650 OA
BRANCH  34  36
ATOM     36  O   UNK d   0     -32.075   1.839  12.724  0.00  0.00    -0.776 OA
ATOM     37  H   UNK d   0     -32.167   0.815  12.769  0.00  0.00     0.167 HD
ENDBRANCH  34  36
ENDBRANCH  33  34
ENDBRANCH   8  33
BRANCH  31  38
ATOM     38  C   UNK d   0     -25.823   0.165   7.162  0.00  0.00     0.151 C 
BRANCH  38  39
ATOM     39  C   UNK d   0     -26.192   0.302   5.769  0.00  0.00     0.143 C 
ATOM     40  O   UNK d   0     -27.365   0.179   5.376  0.00  0.00    -0.650 OA
BRANCH  39  41
ATOM     41  O   UNK d   0     -25.207   0.583   4.823  0.00  0.00    -0.776 OA
ATOM     42  H   UNK d   0     -24.717   1.478   4.918  0.00  0.00     0.167 HD
ENDBRANCH  39  41
ENDBRANCH  38  39
ENDBRANCH  31  38
BRANCH  27  43
ATOM     43  C   UNK d   0     -25.096  -2.813   6.821  0.00  0.00     0.052 C 
BRANCH  43  44
ATOM     44  C   UNK d   0     -25.559  -3.191   5.451  0.00  0.00     0.115 C 
BRANCH  44  45
ATOM     45  C   UNK d   0     -25.242  -4.632   5.279  0.00  0.00     0.139 C 
ATOM     46  O   UNK d   0     -26.169  -5.404   4.930  0.00  0.00    -0.650 OA
BRANCH  45  47
ATOM     47  O   UNK d   0     -23.980  -5.150   5.481  0.00  0.00    -0.776 OA
ATOM     48  H   UNK d   0     -23.273  -5.209   4.730  0.00  0.00     0.167 HD
ENDBRANCH  45  47
ENDBRANCH  44  45
ENDBRANCH  43  44
ENDBRANCH  27  43
BRANCH  24  49
ATOM     49  C   UNK d   0     -26.445  -7.683   9.084  0.00  0.00     0.052 C 
BRANCH  49  50
ATOM     50  C   UNK d   0     -25.510  -7.098   8.056  0.00  0.00     0.115 C 
BRANCH  50  51
ATOM     51  C   UNK d   0     -24.107  -6.977   8.427  0.00  0.00     0.139 C 
ATOM     52  O   UNK d   0     -23.737  -6.519   9.534  0.00  0.00    -0.650 OA
BRANCH  51  53
ATOM     53  O   UNK d   0     -23.124  -7.375   7.534  0.00  0.00    -0.776 OA
ATOM     54  H   UNK d   0     -22.871  -8.347   7.508  0.00  0.00     0.167 HD
ENDBRANCH  51  53
ENDBRANCH  50  51
ENDBRANCH  49  50
ENDBRANCH  24  49
BRANCH  21  55
ATOM     55  C   UNK d   0     -26.993  -8.072  12.099  0.00  0.00     0.151 C 
BRANCH  55  56
ATOM     56  C   UNK d   0     -25.639  -8.284  12.634  0.00  0.00     0.143 C 
ATOM     57  O   UNK d   0     -24.754  -7.407  12.596  0.00  0.00    -0.650 OA
BRANCH  56  58
ATOM     58  O   UNK d   0     -25.353  -9.523  13.204  0.00  0.00    -0.776 OA
ATOM     59  H   UNK d   0     -24.348  -9.696  13.390  0.00  0.00     0.167 HD
ENDBRANCH  56  58
ENDBRANCH  55  56
ENDBRANCH  21  55
BRANCH  18  60
ATOM     60  C   UNK d   0     -30.139  -4.898  15.073  0.00  0.00     0.151 C 
BRANCH  60  61
ATOM     61  C   UNK d   0     -31.500  -4.922  14.515  0.00  0.00     0.143 C 
ATOM     62  O   UNK d   0     -31.820  -4.797  13.333  0.00  0.00    -0.650 OA
BRANCH  61  63
ATOM     63  O   UNK d   0     -32.535  -5.111  15.462  0.00  0.00    -0.776 OA
ATOM     64  H   UNK d   0     -33.438  -5.453  15.182  0.00  0.00     0.167 HD
ENDBRANCH  61  63
ENDBRANCH  60  61
ENDBRANCH  18  60
BRANCH  14  65
ATOM     65  C   UNK d   0     -30.768  -1.961  15.507  0.00  0.00     0.052 C 
BRANCH  65  66
ATOM     66  C   UNK d   0     -30.257  -1.880  16.901  0.00  0.00     0.115 C 
BRANCH  66  67
ATOM     67  C   UNK d   0     -30.493  -2.966  17.810  0.00  0.00     0.139 C 
ATOM     68  O   UNK d   0     -31.654  -3.519  17.817  0.00  0.00    -0.650 OA
BRANCH  67  69
ATOM     69  O   UNK d   0     -29.600  -3.524  18.724  0.00  0.00    -0.776 OA
ATOM     70  H   UNK d   0     -29.128  -2.859  19.352  0.00  0.00     0.167 HD
ENDBRANCH  67  69
ENDBRANCH  66  67
ENDBRANCH  65  66
ENDBRANCH  14  65
ENDBRANCH   6   7
ENDBRANCH   5   6
ENDBRANCH   2   5
TORSDOF 28
ENDMDL
MODEL 10
REMARK VINA RESULT:      -7.5      3.204      7.128
REMARK  28 active torsions:
REMARK  status: ('A' for Active; 'I' for Inactive)
REMARK    1  A    between atoms: C_2  and  O_3 
REMARK    2  A    between atoms: C_2  and  C_4 
REMARK    3  A    between atoms: C_4  and  C_5 
REMARK    4  A    between atoms: C_5  and  C_6 
REMARK    5  A    between atoms: C_7  and  C_8 
REMARK    6  A    between atoms: C_8  and  C_9 
REMARK    7  A    between atoms: C_9  and  O_11 
REMARK    8  A    between atoms: C_28  and  C_29 
REMARK    9  A    between atoms: C_29  and  C_30 
REMARK   10  A    between atoms: C_30  and  O_32 
REMARK   11  A    between atoms: C_33  and  C_34 
REMARK   12  A    between atoms: C_34  and  C_35 
REMARK   13  A    between atoms: C_35  and  C_36 
REMARK   14  A    between atoms: C_36  and  O_38 
REMARK   15  A    between atoms: C_39  and  C_40 
REMARK   16  A    between atoms: C_40  and  C_41 
REMARK   17  A    between atoms: C_41  and  C_42 
REMARK   18  A    between atoms: C_42  and  O_44 
REMARK   19  A    between atoms: C_45  and  C_46 
REMARK   20  A    between atoms: C_46  and  C_47 
REMARK   21  A    between atoms: C_47  and  O_49 
REMARK   22  A    between atoms: C_50  and  C_51 
REMARK   23  A    between atoms: C_51  and  C_52 
REMARK   24  A    between atoms: C_52  and  O_54 
REMARK   25  A    between atoms: C_55  and  C_56 
REMARK   26  A    between atoms: C_56  and  C_57 
REMARK   27  A    between atoms: C_57  and  C_58 
REMARK   28  A    between atoms: C_58  and  O_60 
ROOT
ATOM      1  O   UNK d   0     -33.699   2.919  10.198  0.00  0.00    -0.650 OA
ATOM      2  C   UNK d   0     -32.618   3.038   9.580  0.00  0.00     0.139 C 
ENDROOT
BRANCH   2   3
ATOM      3  O   UNK d   0     -32.057   4.285   9.438  0.00  0.00    -0.776 OA
ATOM      4  H   UNK d   0     -32.577   5.128   9.686  0.00  0.00     0.167 HD
ENDBRANCH   2   3
BRANCH   2   5
ATOM      5  C   UNK d   0     -31.948   1.837   9.003  0.00  0.00     0.115 C 
BRANCH   5   6
ATOM      6  C   UNK d   0     -30.520   2.157   8.657  0.00  0.00     0.052 C 
BRANCH   6   7
ATOM      7  C   UNK d   0     -29.531   1.405   9.515  0.00  0.00    -0.020 A 
ATOM      8  C   UNK d   0     -29.184   1.666  10.749  0.00  0.00    -0.011 A 
ATOM      9  C   UNK d   0     -28.199   0.677  11.153  0.00  0.00     0.067 A 
ATOM     10  C   UNK d   0     -27.469   0.392  12.318  0.00  0.00     0.062 C 
ATOM     11  N   UNK d   0     -28.000  -0.144  10.100  0.00  0.00    -0.248 NA
ATOM     12  C   UNK d   0     -26.765  -0.781  12.610  0.00  0.00     0.041 A 
ATOM     13  N   UNK d   0     -25.954  -1.542  11.850  0.00  0.00    -0.355 N 
ATOM     14  C   UNK d   0     -26.914  -1.365  13.881  0.00  0.00    -0.022 A 
ATOM     15  C   UNK d   0     -25.593  -2.598  12.603  0.00  0.00     0.042 A 
ATOM     16  H   UNK d   0     -25.629  -1.327  10.808  0.00  0.00     0.166 HD
ATOM     17  C   UNK d   0     -24.759  -3.692  12.300  0.00  0.00     0.062 C 
ATOM     18  C   UNK d   0     -26.175  -2.522  13.883  0.00  0.00    -0.013 A 
ATOM     19  C   UNK d   0     -24.728  -4.466  11.169  0.00  0.00     0.067 A 
ATOM     20  N   UNK d   0     -25.432  -4.032  10.120  0.00  0.00    -0.248 NA
ATOM     21  C   UNK d   0     -24.109  -5.722  10.778  0.00  0.00    -0.011 A 
ATOM     22  C   UNK d   0     -25.318  -4.913   9.072  0.00  0.00     0.066 A 
ATOM     23  C   UNK d   0     -25.973  -4.563   7.900  0.00  0.00     0.062 C 
ATOM     24  C   UNK d   0     -24.461  -5.979   9.551  0.00  0.00    -0.020 A 
ATOM     25  C   UNK d   0     -26.664  -3.374   7.622  0.00  0.00     0.041 A 
ATOM     26  N   UNK d   0     -27.481  -2.626   8.373  0.00  0.00    -0.355 N 
ATOM     27  C   UNK d   0     -26.510  -2.786   6.347  0.00  0.00    -0.022 A 
ATOM     28  C   UNK d   0     -27.850  -1.577   7.621  0.00  0.00     0.042 A 
ATOM     29  H   UNK d   0     -27.815  -2.849   9.416  0.00  0.00     0.166 HD
ATOM     30  C   UNK d   0     -28.686  -0.486   7.906  0.00  0.00     0.062 C 
ATOM     31  C   UNK d   0     -27.256  -1.648   6.338  0.00  0.00    -0.013 A 
ATOM     32  C   UNK d   0     -28.773   0.240   9.083  0.00  0.00     0.066 A 
BRANCH   8  33
ATOM     33  C   UNK d   0     -29.686   2.764  11.596  0.00  0.00     0.151 C 
BRANCH  33  34
ATOM     34  C   UNK d   0     -28.750   3.900  11.672  0.00  0.00     0.143 C 
ATOM     35  O   UNK d   0     -28.186   4.190  12.737  0.00  0.00    -0.650 OA
BRANCH  34  36
ATOM     36  O   UNK d   0     -28.501   4.647  10.544  0.00  0.00    -0.776 OA
ATOM     37  H   UNK d   0     -28.989   5.537  10.374  0.00  0.00     0.167 HD
ENDBRANCH  34  36
ENDBRANCH  33  34
ENDBRANCH   8  33
BRANCH  31  38
ATOM     38  C   UNK d   0     -27.389  -0.678   5.187  0.00  0.00     0.151 C 
BRANCH  38  39
ATOM     39  C   UNK d   0     -26.271   0.236   5.092  0.00  0.00     0.143 C 
ATOM     40  O   UNK d   0     -25.437   0.365   6.005  0.00  0.00    -0.650 OA
BRANCH  39  41
ATOM     41  O   UNK d   0     -26.111   1.007   3.941  0.00  0.00    -0.776 OA
ATOM     42  H   UNK d   0     -26.957   1.207   3.398  0.00  0.00     0.167 HD
ENDBRANCH  39  41
ENDBRANCH  38  39
ENDBRANCH  31  38
BRANCH  27  43
ATOM     43  C   UNK d   0     -25.699  -3.258   5.166  0.00  0.00     0.052 C 
BRANCH  43  44
ATOM     44  C   UNK d   0     -26.213  -4.526   4.565  0.00  0.00     0.115 C 
BRANCH  44  45
ATOM     45  C   UNK d   0     -27.119  -4.133   3.455  0.00  0.00     0.139 C 
ATOM     46  O   UNK d   0     -26.783  -3.162   2.732  0.00  0.00    -0.650 OA
BRANCH  45  47
ATOM     47  O   UNK d   0     -28.301  -4.789   3.187  0.00  0.00    -0.776 OA
ATOM     48  H   UNK d   0     -28.400  -5.471   2.417  0.00  0.00     0.167 HD
ENDBRANCH  45  47
ENDBRANCH  44  45
ENDBRANCH  43  44
ENDBRANCH  27  43
BRANCH  24  49
ATOM     49  C   UNK d   0     -24.028  -7.135   8.748  0.00  0.00     0.052 C 
BRANCH  49  50
ATOM     50  C   UNK d   0     -25.223  -7.928   8.283  0.00  0.00     0.115 C 
BRANCH  50  51
ATOM     51  C   UNK d   0     -26.160  -8.378   9.303  0.00  0.00     0.139 C 
ATOM     52  O   UNK d   0     -27.370  -8.049   9.302  0.00  0.00    -0.650 OA
BRANCH  51  53
ATOM     53  O   UNK d   0     -25.718  -9.202  10.326  0.00  0.00    -0.776 OA
ATOM     54  H   UNK d   0     -26.341  -9.911  10.669  0.00  0.00     0.167 HD
ENDBRANCH  51  53
ENDBRANCH  50  51
ENDBRANCH  49  50
ENDBRANCH  24  49
BRANCH  21  55
ATOM     55  C   UNK d   0     -23.225  -6.530  11.669  0.00  0.00     0.151 C 
BRANCH  55  56
ATOM     56  C   UNK d   0     -23.952  -7.059  12.833  0.00  0.00     0.143 C 
ATOM     57  O   UNK d   0     -24.955  -7.792  12.727  0.00  0.00    -0.650 OA
BRANCH  56  58
ATOM     58  O   UNK d   0     -23.486  -6.716  14.101  0.00  0.00    -0.776 OA
ATOM     59  H   UNK d   0     -23.193  -5.727  14.205  0.00  0.00     0.167 HD
ENDBRANCH  56  58
ENDBRANCH  55  56
ENDBRANCH  21  55
BRANCH  18  60
ATOM     60  C   UNK d   0     -26.058  -3.471  15.050  0.00  0.00     0.151 C 
BRANCH  60  61
ATOM     61  C   UNK d   0     -24.756  -3.187  15.673  0.00  0.00     0.143 C 
ATOM     62  O   UNK d   0     -24.394  -2.126  16.183  0.00  0.00    -0.650 OA
BRANCH  61  63
ATOM     63  O   UNK d   0     -23.840  -4.266  15.673  0.00  0.00    -0.776 OA
ATOM     64  H   UNK d   0     -23.105  -4.322  14.991  0.00  0.00     0.167 HD
ENDBRANCH  61  63
ENDBRANCH  60  61
ENDBRANCH  18  60
BRANCH  14  65
ATOM     65  C   UNK d   0     -27.616  -0.867  15.113  0.00  0.00     0.052 C 
BRANCH  65  66
ATOM     66  C   UNK d   0     -26.837   0.165  15.849  0.00  0.00     0.115 C 
BRANCH  66  67
ATOM     67  C   UNK d   0     -27.383   1.483  16.016  0.00  0.00     0.139 C 
ATOM     68  O   UNK d   0     -27.196   2.087  17.136  0.00  0.00    -0.650 OA
BRANCH  67  69
ATOM     69  O   UNK d   0     -28.118   2.225  15.093  0.00  0.00    -0.776 OA
ATOM     70  H   UNK d   0     -28.743   2.941  15.490  0.00  0.00     0.167 HD
ENDBRANCH  67  69
ENDBRANCH  66  67
ENDBRANCH  65  66
ENDBRANCH  14  65
ENDBRANCH   6   7
ENDBRANCH   5   6
ENDBRANCH   2   5
TORSDOF 28
ENDMDL
MODEL 11
REMARK VINA RESULT:      -7.4      2.203      7.312
REMARK  28 active torsions:
REMARK  status: ('A' for Active; 'I' for Inactive)
REMARK    1  A    between atoms: C_2  and  O_3 
REMARK    2  A    between atoms: C_2  and  C_4 
REMARK    3  A    between atoms: C_4  and  C_5 
REMARK    4  A    between atoms: C_5  and  C_6 
REMARK    5  A    between atoms: C_7  and  C_8 
REMARK    6  A    between atoms: C_8  and  C_9 
REMARK    7  A    between atoms: C_9  and  O_11 
REMARK    8  A    between atoms: C_28  and  C_29 
REMARK    9  A    between atoms: C_29  and  C_30 
REMARK   10  A    between atoms: C_30  and  O_32 
REMARK   11  A    between atoms: C_33  and  C_34 
REMARK   12  A    between atoms: C_34  and  C_35 
REMARK   13  A    between atoms: C_35  and  C_36 
REMARK   14  A    between atoms: C_36  and  O_38 
REMARK   15  A    between atoms: C_39  and  C_40 
REMARK   16  A    between atoms: C_40  and  C_41 
REMARK   17  A    between atoms: C_41  and  C_42 
REMARK   18  A    between atoms: C_42  and  O_44 
REMARK   19  A    between atoms: C_45  and  C_46 
REMARK   20  A    between atoms: C_46  and  C_47 
REMARK   21  A    between atoms: C_47  and  O_49 
REMARK   22  A    between atoms: C_50  and  C_51 
REMARK   23  A    between atoms: C_51  and  C_52 
REMARK   24  A    between atoms: C_52  and  O_54 
REMARK   25  A    between atoms: C_55  and  C_56 
REMARK   26  A    between atoms: C_56  and  C_57 
REMARK   27  A    between atoms: C_57  and  C_58 
REMARK   28  A    between atoms: C_58  and  O_60 
ROOT
ATOM      1  O   UNK d   0     -33.065   1.447  16.685  0.00  0.00    -0.650 OA
ATOM      2  C   UNK d   0     -33.443   0.255  16.691  0.00  0.00     0.139 C 
ENDROOT
BRANCH   2   3
ATOM      3  O   UNK d   0     -34.637  -0.070  17.289  0.00  0.00    -0.776 OA
ATOM      4  H   UNK d   0     -35.005   0.482  18.066  0.00  0.00     0.167 HD
ENDBRANCH   2   3
BRANCH   2   5
ATOM      5  C   UNK d   0     -32.604  -0.799  16.054  0.00  0.00     0.115 C 
BRANCH   5   6
ATOM      6  C   UNK d   0     -31.287  -0.218  15.615  0.00  0.00     0.052 C 
BRANCH   6   7
ATOM      7  C   UNK d   0     -31.036  -0.399  14.137  0.00  0.00    -0.020 A 
ATOM      8  C   UNK d   0     -31.572   0.269  13.149  0.00  0.00    -0.011 A 
ATOM      9  C   UNK d   0     -31.034  -0.263  11.908  0.00  0.00     0.067 A 
ATOM     10  C   UNK d   0     -31.178   0.016  10.540  0.00  0.00     0.062 C 
ATOM     11  N   UNK d   0     -30.181  -1.256  12.235  0.00  0.00    -0.248 NA
ATOM     12  C   UNK d   0     -30.358  -0.424   9.495  0.00  0.00     0.041 A 
ATOM     13  N   UNK d   0     -29.806  -1.627   9.248  0.00  0.00    -0.355 N 
ATOM     14  C   UNK d   0     -29.948   0.500   8.516  0.00  0.00    -0.022 A 
ATOM     15  C   UNK d   0     -29.049  -1.488   8.143  0.00  0.00     0.042 A 
ATOM     16  H   UNK d   0     -29.963  -2.560   9.832  0.00  0.00     0.166 HD
ATOM     17  C   UNK d   0     -28.260  -2.430   7.453  0.00  0.00     0.062 C 
ATOM     18  C   UNK d   0     -29.113  -0.169   7.656  0.00  0.00    -0.013 A 
ATOM     19  C   UNK d   0     -27.384  -3.356   7.958  0.00  0.00     0.067 A 
ATOM     20  N   UNK d   0     -27.405  -3.552   9.279  0.00  0.00    -0.248 NA
ATOM     21  C   UNK d   0     -26.361  -4.233   7.412  0.00  0.00    -0.011 A 
ATOM     22  C   UNK d   0     -26.469  -4.491   9.637  0.00  0.00     0.066 A 
ATOM     23  C   UNK d   0     -26.410  -4.819  10.983  0.00  0.00     0.062 C 
ATOM     24  C   UNK d   0     -25.827  -4.891   8.400  0.00  0.00    -0.020 A 
ATOM     25  C   UNK d   0     -27.251  -4.375  12.015  0.00  0.00     0.041 A 
ATOM     26  N   UNK d   0     -27.788  -3.176  12.269  0.00  0.00    -0.355 N 
ATOM     27  C   UNK d   0     -27.666  -5.304  12.994  0.00  0.00    -0.022 A 
ATOM     28  C   UNK d   0     -28.535  -3.309  13.376  0.00  0.00     0.042 A 
ATOM     29  H   UNK d   0     -27.620  -2.236  11.687  0.00  0.00     0.166 HD
ATOM     30  C   UNK d   0     -29.318  -2.380  14.078  0.00  0.00     0.062 C 
ATOM     31  C   UNK d   0     -28.479  -4.638  13.858  0.00  0.00    -0.013 A 
ATOM     32  C   UNK d   0     -30.137  -1.388  13.561  0.00  0.00     0.066 A 
BRANCH   8  33
ATOM     33  C   UNK d   0     -32.553   1.366  13.251  0.00  0.00     0.151 C 
BRANCH  33  34
ATOM     34  C   UNK d   0     -31.941   2.696  13.088  0.00  0.00     0.143 C 
ATOM     35  O   UNK d   0     -30.740   2.879  13.333  0.00  0.00    -0.650 OA
BRANCH  34  36
ATOM     36  O   UNK d   0     -32.717   3.749  12.661  0.00  0.00    -0.776 OA
ATOM     37  H   UNK d   0     -32.467   4.722  12.885  0.00  0.00     0.167 HD
ENDBRANCH  34  36
ENDBRANCH  33  34
ENDBRANCH   8  33
BRANCH  31  38
ATOM     38  C   UNK d   0     -29.174  -5.229  15.063  0.00  0.00     0.151 C 
BRANCH  38  39
ATOM     39  C   UNK d   0     -30.556  -4.814  15.174  0.00  0.00     0.143 C 
ATOM     40  O   UNK d   0     -31.388  -5.024  14.274  0.00  0.00    -0.650 OA
BRANCH  39  41
ATOM     41  O   UNK d   0     -30.985  -4.156  16.326  0.00  0.00    -0.776 OA
ATOM     42  H   UNK d   0     -31.951  -3.815  16.331  0.00  0.00     0.167 HD
ENDBRANCH  39  41
ENDBRANCH  38  39
ENDBRANCH  31  38
BRANCH  27  43
ATOM     43  C   UNK d   0     -27.322  -6.766  13.135  0.00  0.00     0.052 C 
BRANCH  43  44
ATOM     44  C   UNK d   0     -25.860  -7.045  13.007  0.00  0.00     0.115 C 
BRANCH  44  45
ATOM     45  C   UNK d   0     -25.736  -8.427  12.475  0.00  0.00     0.139 C 
ATOM     46  O   UNK d   0     -25.855  -8.597  11.237  0.00  0.00    -0.650 OA
BRANCH  45  47
ATOM     47  O   UNK d   0     -25.492  -9.518  13.281  0.00  0.00    -0.776 OA
ATOM     48  H   UNK d   0     -26.198  -9.908  13.926  0.00  0.00     0.167 HD
ENDBRANCH  45  47
ENDBRANCH  44  45
ENDBRANCH  43  44
ENDBRANCH  27  43
BRANCH  24  49
ATOM     49  C   UNK d   0     -24.775  -5.917   8.293  0.00  0.00     0.052 C 
BRANCH  49  50
ATOM     50  C   UNK d   0     -23.419  -5.268   8.180  0.00  0.00     0.115 C 
BRANCH  50  51
ATOM     51  C   UNK d   0     -22.525  -5.772   7.147  0.00  0.00     0.139 C 
ATOM     52  O   UNK d   0     -21.828  -6.803   7.300  0.00  0.00    -0.650 OA
BRANCH  51  53
ATOM     53  O   UNK d   0     -22.423  -5.098   5.940  0.00  0.00    -0.776 OA
ATOM     54  H   UNK d   0     -22.842  -5.514   5.126  0.00  0.00     0.167 HD
ENDBRANCH  51  53
ENDBRANCH  50  51
ENDBRANCH  49  50
ENDBRANCH  24  49
BRANCH  21  55
ATOM     55  C   UNK d   0     -26.027  -4.325   5.960  0.00  0.00     0.151 C 
BRANCH  55  56
ATOM     56  C   UNK d   0     -25.081  -3.278   5.544  0.00  0.00     0.143 C 
ATOM     57  O   UNK d   0     -24.462  -3.318   4.463  0.00  0.00    -0.650 OA
BRANCH  56  58
ATOM     58  O   UNK d   0     -24.882  -2.203   6.409  0.00  0.00    -0.776 OA
ATOM     59  H   UNK d   0     -24.587  -1.322   5.950  0.00  0.00     0.167 HD
ENDBRANCH  56  58
ENDBRANCH  55  56
ENDBRANCH  21  55
BRANCH  18  60
ATOM     60  C   UNK d   0     -28.435   0.447   6.457  0.00  0.00     0.151 C 
BRANCH  60  61
ATOM     61  C   UNK d   0     -27.053   0.730   6.875  0.00  0.00     0.143 C 
ATOM     62  O   UNK d   0     -26.678   1.121   7.981  0.00  0.00    -0.650 OA
BRANCH  61  63
ATOM     63  O   UNK d   0     -26.068   0.520   5.881  0.00  0.00    -0.776 OA
ATOM     64  H   UNK d   0     -25.190   0.086   6.104  0.00  0.00     0.167 HD
ENDBRANCH  61  63
ENDBRANCH  60  61
ENDBRANCH  18  60
BRANCH  14  65
ATOM     65  C   UNK d   0     -30.358   1.925   8.280  0.00  0.00     0.052 C 
BRANCH  65  66
ATOM     66  C   UNK d   0     -29.818   2.864   9.299  0.00  0.00     0.115 C 
BRANCH  66  67
ATOM     67  C   UNK d   0     -30.689   3.824   9.916  0.00  0.00     0.139 C 
ATOM     68  O   UNK d   0     -31.939   3.801   9.615  0.00  0.00    -0.650 OA
BRANCH  67  69
ATOM     69  O   UNK d   0     -30.350   4.818  10.834  0.00  0.00    -0.776 OA
ATOM     70  H   UNK d   0     -31.124   5.423  11.145  0.00  0.00     0.167 HD
ENDBRANCH  67  69
ENDBRANCH  66  67
ENDBRANCH  65  66
ENDBRANCH  14  65
ENDBRANCH   6   7
ENDBRANCH   5   6
ENDBRANCH   2   5
TORSDOF 28
ENDMDL
MODEL 12
REMARK VINA RESULT:      -7.4      2.190     10.102
REMARK  28 active torsions:
REMARK  status: ('A' for Active; 'I' for Inactive)
REMARK    1  A    between atoms: C_2  and  O_3 
REMARK    2  A    between atoms: C_2  and  C_4 
REMARK    3  A    between atoms: C_4  and  C_5 
REMARK    4  A    between atoms: C_5  and  C_6 
REMARK    5  A    between atoms: C_7  and  C_8 
REMARK    6  A    between atoms: C_8  and  C_9 
REMARK    7  A    between atoms: C_9  and  O_11 
REMARK    8  A    between atoms: C_28  and  C_29 
REMARK    9  A    between atoms: C_29  and  C_30 
REMARK   10  A    between atoms: C_30  and  O_32 
REMARK   11  A    between atoms: C_33  and  C_34 
REMARK   12  A    between atoms: C_34  and  C_35 
REMARK   13  A    between atoms: C_35  and  C_36 
REMARK   14  A    between atoms: C_36  and  O_38 
REMARK   15  A    between atoms: C_39  and  C_40 
REMARK   16  A    between atoms: C_40  and  C_41 
REMARK   17  A    between atoms: C_41  and  C_42 
REMARK   18  A    between atoms: C_42  and  O_44 
REMARK   19  A    between atoms: C_45  and  C_46 
REMARK   20  A    between atoms: C_46  and  C_47 
REMARK   21  A    between atoms: C_47  and  O_49 
REMARK   22  A    between atoms: C_50  and  C_51 
REMARK   23  A    between atoms: C_51  and  C_52 
REMARK   24  A    between atoms: C_52  and  O_54 
REMARK   25  A    between atoms: C_55  and  C_56 
REMARK   26  A    between atoms: C_56  and  C_57 
REMARK   27  A    between atoms: C_57  and  C_58 
REMARK   28  A    between atoms: C_58  and  O_60 
ROOT
ATOM      1  O   UNK d   0     -27.707  -5.514   2.064  0.00  0.00    -0.650 OA
ATOM      2  C   UNK d   0     -27.019  -4.689   2.705  0.00  0.00     0.139 C 
ENDROOT
BRANCH   2   3
ATOM      3  O   UNK d   0     -25.688  -4.951   2.928  0.00  0.00    -0.776 OA
ATOM      4  H   UNK d   0     -25.035  -5.064   2.150  0.00  0.00     0.167 HD
ENDBRANCH   2   3
BRANCH   2   5
ATOM      5  C   UNK d   0     -27.640  -3.437   3.221  0.00  0.00     0.115 C 
BRANCH   5   6
ATOM      6  C   UNK d   0     -26.575  -2.421   3.533  0.00  0.00     0.052 C 
BRANCH   6   7
ATOM      7  C   UNK d   0     -26.774  -1.764   4.878  0.00  0.00    -0.020 A 
ATOM      8  C   UNK d   0     -27.025  -0.502   5.120  0.00  0.00    -0.011 A 
ATOM      9  C   UNK d   0     -27.128  -0.338   6.561  0.00  0.00     0.067 A 
ATOM     10  C   UNK d   0     -27.393   0.721   7.443  0.00  0.00     0.062 C 
ATOM     11  N   UNK d   0     -26.921  -1.550   7.118  0.00  0.00    -0.248 NA
ATOM     12  C   UNK d   0     -27.728   0.631   8.798  0.00  0.00     0.041 A 
ATOM     13  N   UNK d   0     -27.232  -0.139   9.785  0.00  0.00    -0.355 N 
ATOM     14  C   UNK d   0     -28.794   1.407   9.288  0.00  0.00    -0.022 A 
ATOM     15  C   UNK d   0     -27.961   0.122  10.886  0.00  0.00     0.042 A 
ATOM     16  H   UNK d   0     -26.372  -0.840   9.709  0.00  0.00     0.166 HD
ATOM     17  C   UNK d   0     -27.866  -0.404  12.190  0.00  0.00     0.062 C 
ATOM     18  C   UNK d   0     -28.950   1.087  10.614  0.00  0.00    -0.013 A 
ATOM     19  C   UNK d   0     -27.704  -1.707  12.585  0.00  0.00     0.067 A 
ATOM     20  N   UNK d   0     -27.397  -2.593  11.634  0.00  0.00    -0.248 NA
ATOM     21  C   UNK d   0     -27.795  -2.438  13.838  0.00  0.00    -0.011 A 
ATOM     22  C   UNK d   0     -27.282  -3.851  12.174  0.00  0.00     0.066 A 
ATOM     23  C   UNK d   0     -26.927  -4.867  11.299  0.00  0.00     0.062 C 
ATOM     24  C   UNK d   0     -27.551  -3.693  13.590  0.00  0.00    -0.020 A 
ATOM     25  C   UNK d   0     -26.581  -4.754   9.944  0.00  0.00     0.041 A 
ATOM     26  N   UNK d   0     -27.084  -3.999   8.960  0.00  0.00    -0.355 N 
ATOM     27  C   UNK d   0     -25.508  -5.530   9.454  0.00  0.00    -0.022 A 
ATOM     28  C   UNK d   0     -26.365  -4.264   7.858  0.00  0.00     0.042 A 
ATOM     29  H   UNK d   0     -27.956  -3.303   9.035  0.00  0.00     0.166 HD
ATOM     30  C   UNK d   0     -26.454  -3.756   6.552  0.00  0.00     0.062 C 
ATOM     31  C   UNK d   0     -25.364  -5.226   8.135  0.00  0.00    -0.013 A 
ATOM     32  C   UNK d   0     -26.703  -2.451   6.159  0.00  0.00     0.066 A 
BRANCH   8  33
ATOM     33  C   UNK d   0     -27.173   0.577   4.127  0.00  0.00     0.151 C 
BRANCH  33  34
ATOM     34  C   UNK d   0     -25.879   1.102   3.656  0.00  0.00     0.143 C 
ATOM     35  O   UNK d   0     -24.812   0.676   4.121  0.00  0.00    -0.650 OA
BRANCH  34  36
ATOM     36  O   UNK d   0     -25.858   2.078   2.687  0.00  0.00    -0.776 OA
ATOM     37  H   UNK d   0     -25.098   2.128   1.995  0.00  0.00     0.167 HD
ENDBRANCH  34  36
ENDBRANCH  33  34
ENDBRANCH   8  33
BRANCH  31  38
ATOM     38  C   UNK d   0     -24.331  -5.802   7.195  0.00  0.00     0.151 C 
BRANCH  38  39
ATOM     39  C   UNK d   0     -23.227  -4.898   6.952  0.00  0.00     0.143 C 
ATOM     40  O   UNK d   0     -22.474  -5.016   5.969  0.00  0.00    -0.650 OA
BRANCH  39  41
ATOM     41  O   UNK d   0     -22.987  -3.853   7.843  0.00  0.00    -0.776 OA
ATOM     42  H   UNK d   0     -22.944  -4.095   8.838  0.00  0.00     0.167 HD
ENDBRANCH  39  41
ENDBRANCH  38  39
ENDBRANCH  31  38
BRANCH  27  43
ATOM     43  C   UNK d   0     -24.638  -6.527  10.177  0.00  0.00     0.052 C 
BRANCH  43  44
ATOM     44  C   UNK d   0     -25.290  -7.861  10.353  0.00  0.00     0.115 C 
BRANCH  44  45
ATOM     45  C   UNK d   0     -25.283  -8.146  11.811  0.00  0.00     0.139 C 
ATOM     46  O   UNK d   0     -24.769  -7.296  12.579  0.00  0.00    -0.650 OA
BRANCH  45  47
ATOM     47  O   UNK d   0     -25.819  -9.296  12.350  0.00  0.00    -0.776 OA
ATOM     48  H   UNK d   0     -26.753  -9.326  12.791  0.00  0.00     0.167 HD
ENDBRANCH  45  47
ENDBRANCH  44  45
ENDBRANCH  43  44
ENDBRANCH  27  43
BRANCH  24  49
ATOM     49  C   UNK d   0     -27.502  -4.780  14.582  0.00  0.00     0.052 C 
BRANCH  49  50
ATOM     50  C   UNK d   0     -28.794  -5.556  14.574  0.00  0.00     0.115 C 
BRANCH  50  51
ATOM     51  C   UNK d   0     -29.955  -4.921  15.184  0.00  0.00     0.139 C 
ATOM     52  O   UNK d   0     -31.023  -4.723  14.560  0.00  0.00    -0.650 OA
BRANCH  51  53
ATOM     53  O   UNK d   0     -29.895  -4.508  16.507  0.00  0.00    -0.776 OA
ATOM     54  H   UNK d   0     -29.109  -3.954  16.797  0.00  0.00     0.167 HD
ENDBRANCH  51  53
ENDBRANCH  50  51
ENDBRANCH  49  50
ENDBRANCH  24  49
BRANCH  21  55
ATOM     55  C   UNK d   0     -28.113  -1.806  15.152  0.00  0.00     0.151 C 
BRANCH  55  56
ATOM     56  C   UNK d   0     -26.901  -1.536  15.941  0.00  0.00     0.143 C 
ATOM     57  O   UNK d   0     -26.808  -1.813  17.153  0.00  0.00    -0.650 OA
BRANCH  56  58
ATOM     58  O   UNK d   0     -25.820  -0.943  15.289  0.00  0.00    -0.776 OA
ATOM     59  H   UNK d   0     -25.961   0.048  15.023  0.00  0.00     0.167 HD
ENDBRANCH  56  58
ENDBRANCH  55  56
ENDBRANCH  21  55
BRANCH  18  60
ATOM     60  C   UNK d   0     -29.991   1.682  11.530  0.00  0.00     0.151 C 
BRANCH  60  61
ATOM     61  C   UNK d   0     -30.881   0.572  11.905  0.00  0.00     0.143 C 
ATOM     62  O   UNK d   0     -31.161   0.198  13.044  0.00  0.00    -0.650 OA
BRANCH  61  63
ATOM     63  O   UNK d   0     -31.465  -0.124  10.820  0.00  0.00    -0.776 OA
ATOM     64  H   UNK d   0     -32.384   0.110  10.488  0.00  0.00     0.167 HD
ENDBRANCH  61  63
ENDBRANCH  60  61
ENDBRANCH  18  60
BRANCH  14  65
ATOM     65  C   UNK d   0     -29.604   2.489   8.631  0.00  0.00     0.052 C 
BRANCH  65  66
ATOM     66  C   UNK d   0     -30.962   2.036   8.228  0.00  0.00     0.115 C 
BRANCH  66  67
ATOM     67  C   UNK d   0     -32.120   2.689   8.770  0.00  0.00     0.139 C 
ATOM     68  O   UNK d   0     -32.455   3.837   8.296  0.00  0.00    -0.650 OA
BRANCH  67  69
ATOM     69  O   UNK d   0     -32.964   2.230   9.780  0.00  0.00    -0.776 OA
ATOM     70  H   UNK d   0     -33.013   2.817  10.625  0.00  0.00     0.167 HD
ENDBRANCH  67  69
ENDBRANCH  66  67
ENDBRANCH  65  66
ENDBRANCH  14  65
ENDBRANCH   6   7
ENDBRANCH   5   6
ENDBRANCH   2   5
TORSDOF 28
ENDMDL
MODEL 13
REMARK VINA RESULT:      -7.4      3.203      8.047
REMARK  28 active torsions:
REMARK  status: ('A' for Active; 'I' for Inactive)
REMARK    1  A    between atoms: C_2  and  O_3 
REMARK    2  A    between atoms: C_2  and  C_4 
REMARK    3  A    between atoms: C_4  and  C_5 
REMARK    4  A    between atoms: C_5  and  C_6 
REMARK    5  A    between atoms: C_7  and  C_8 
REMARK    6  A    between atoms: C_8  and  C_9 
REMARK    7  A    between atoms: C_9  and  O_11 
REMARK    8  A    between atoms: C_28  and  C_29 
REMARK    9  A    between atoms: C_29  and  C_30 
REMARK   10  A    between atoms: C_30  and  O_32 
REMARK   11  A    between atoms: C_33  and  C_34 
REMARK   12  A    between atoms: C_34  and  C_35 
REMARK   13  A    between atoms: C_35  and  C_36 
REMARK   14  A    between atoms: C_36  and  O_38 
REMARK   15  A    between atoms: C_39  and  C_40 
REMARK   16  A    between atoms: C_40  and  C_41 
REMARK   17  A    between atoms: C_41  and  C_42 
REMARK   18  A    between atoms: C_42  and  O_44 
REMARK   19  A    between atoms: C_45  and  C_46 
REMARK   20  A    between atoms: C_46  and  C_47 
REMARK   21  A    between atoms: C_47  and  O_49 
REMARK   22  A    between atoms: C_50  and  C_51 
REMARK   23  A    between atoms: C_51  and  C_52 
REMARK   24  A    between atoms: C_52  and  O_54 
REMARK   25  A    between atoms: C_55  and  C_56 
REMARK   26  A    between atoms: C_56  and  C_57 
REMARK   27  A    between atoms: C_57  and  C_58 
REMARK   28  A    between atoms: C_58  and  O_60 
ROOT
ATOM      1  O   UNK d   0     -34.251   2.985  10.289  0.00  0.00    -0.650 OA
ATOM      2  C   UNK d   0     -33.163   2.680   9.751  0.00  0.00     0.139 C 
ENDROOT
BRANCH   2   3
ATOM      3  O   UNK d   0     -32.590   3.546   8.851  0.00  0.00    -0.776 OA
ATOM      4  H   UNK d   0     -33.136   4.295   8.419  0.00  0.00     0.167 HD
ENDBRANCH   2   3
BRANCH   2   5
ATOM      5  C   UNK d   0     -32.500   1.388  10.086  0.00  0.00     0.115 C 
BRANCH   5   6
ATOM      6  C   UNK d   0     -31.140   1.324   9.446  0.00  0.00     0.052 C 
BRANCH   6   7
ATOM      7  C   UNK d   0     -30.043   1.026  10.441  0.00  0.00    -0.020 A 
ATOM      8  C   UNK d   0     -29.660   1.765  11.451  0.00  0.00    -0.011 A 
ATOM      9  C   UNK d   0     -28.568   1.075  12.117  0.00  0.00     0.067 A 
ATOM     10  C   UNK d   0     -27.756   1.309  13.238  0.00  0.00     0.062 C 
ATOM     11  N   UNK d   0     -28.348  -0.073  11.443  0.00  0.00    -0.248 NA
ATOM     12  C   UNK d   0     -26.933   0.388  13.895  0.00  0.00     0.041 A 
ATOM     13  N   UNK d   0     -26.096  -0.552  13.417  0.00  0.00    -0.355 N 
ATOM     14  C   UNK d   0     -26.963   0.330  15.300  0.00  0.00    -0.022 A 
ATOM     15  C   UNK d   0     -25.600  -1.210  14.482  0.00  0.00     0.042 A 
ATOM     16  H   UNK d   0     -25.845  -0.734  12.348  0.00  0.00     0.166 HD
ATOM     17  C   UNK d   0     -24.685  -2.280  14.550  0.00  0.00     0.062 C 
ATOM     18  C   UNK d   0     -26.121  -0.685  15.680  0.00  0.00    -0.013 A 
ATOM     19  C   UNK d   0     -24.641  -3.426  13.798  0.00  0.00     0.067 A 
ATOM     20  N   UNK d   0     -25.435  -3.476  12.725  0.00  0.00    -0.248 NA
ATOM     21  C   UNK d   0     -23.929  -4.691  13.863  0.00  0.00    -0.011 A 
ATOM     22  C   UNK d   0     -25.294  -4.683  12.084  0.00  0.00     0.066 A 
ATOM     23  C   UNK d   0     -26.037  -4.856  10.925  0.00  0.00     0.062 C 
ATOM     24  C   UNK d   0     -24.319  -5.424  12.860  0.00  0.00    -0.020 A 
ATOM     25  C   UNK d   0     -26.848  -3.914  10.275  0.00  0.00     0.041 A 
ATOM     26  N   UNK d   0     -27.691  -2.989  10.750  0.00  0.00    -0.355 N 
ATOM     27  C   UNK d   0     -26.814  -3.853   8.864  0.00  0.00    -0.022 A 
ATOM     28  C   UNK d   0     -28.193  -2.337   9.689  0.00  0.00     0.042 A 
ATOM     29  H   UNK d   0     -27.950  -2.815  11.823  0.00  0.00     0.166 HD
ATOM     30  C   UNK d   0     -29.111  -1.278   9.607  0.00  0.00     0.062 C 
ATOM     31  C   UNK d   0     -27.661  -2.858   8.486  0.00  0.00    -0.013 A 
ATOM     32  C   UNK d   0     -29.204  -0.162  10.423  0.00  0.00     0.066 A 
BRANCH   8  33
ATOM     33  C   UNK d   0     -30.217   3.069  11.855  0.00  0.00     0.151 C 
BRANCH  33  34
ATOM     34  C   UNK d   0     -29.647   4.194  11.092  0.00  0.00     0.143 C 
ATOM     35  O   UNK d   0     -30.280   4.719  10.165  0.00  0.00    -0.650 OA
BRANCH  34  36
ATOM     36  O   UNK d   0     -28.396   4.665  11.416  0.00  0.00    -0.776 OA
ATOM     37  H   UNK d   0     -27.679   4.045  11.817  0.00  0.00     0.167 HD
ENDBRANCH  34  36
ENDBRANCH  33  34
ENDBRANCH   8  33
BRANCH  31  38
ATOM     38  C   UNK d   0     -27.942  -2.417   7.068  0.00  0.00     0.151 C 
BRANCH  38  39
ATOM     39  C   UNK d   0     -27.281  -1.175   6.725  0.00  0.00     0.143 C 
ATOM     40  O   UNK d   0     -26.043  -1.064   6.703  0.00  0.00    -0.650 OA
BRANCH  39  41
ATOM     41  O   UNK d   0     -28.049  -0.056   6.405  0.00  0.00    -0.776 OA
ATOM     42  H   UNK d   0     -28.308   0.060   5.420  0.00  0.00     0.167 HD
ENDBRANCH  39  41
ENDBRANCH  38  39
ENDBRANCH  31  38
BRANCH  27  43
ATOM     43  C   UNK d   0     -26.024  -4.689   7.888  0.00  0.00     0.052 C 
BRANCH  43  44
ATOM     44  C   UNK d   0     -24.655  -4.152   7.622  0.00  0.00     0.115 C 
BRANCH  44  45
ATOM     45  C   UNK d   0     -23.698  -5.219   8.012  0.00  0.00     0.139 C 
ATOM     46  O   UNK d   0     -22.821  -4.944   8.868  0.00  0.00    -0.650 OA
BRANCH  45  47
ATOM     47  O   UNK d   0     -23.738  -6.490   7.480  0.00  0.00    -0.776 OA
ATOM     48  H   UNK d   0     -24.602  -7.055   7.443  0.00  0.00     0.167 HD
ENDBRANCH  45  47
ENDBRANCH  44  45
ENDBRANCH  43  44
ENDBRANCH  27  43
BRANCH  24  49
ATOM     49  C   UNK d   0     -23.823  -6.769  12.523  0.00  0.00     0.052 C 
BRANCH  49  50
ATOM     50  C   UNK d   0     -24.642  -7.822  13.225  0.00  0.00     0.115 C 
BRANCH  50  51
ATOM     51  C   UNK d   0     -25.771  -8.383  12.495  0.00  0.00     0.139 C 
ATOM     52  O   UNK d   0     -25.776  -8.505  11.248  0.00  0.00    -0.650 OA
BRANCH  51  53
ATOM     53  O   UNK d   0     -26.896  -8.801  13.188  0.00  0.00    -0.776 OA
ATOM     54  H   UNK d   0     -27.785  -8.406  12.935  0.00  0.00     0.167 HD
ENDBRANCH  51  53
ENDBRANCH  50  51
ENDBRANCH  49  50
ENDBRANCH  24  49
BRANCH  21  55
ATOM     55  C   UNK d   0     -22.931  -5.034  14.919  0.00  0.00     0.151 C 
BRANCH  55  56
ATOM     56  C   UNK d   0     -21.552  -4.773  14.479  0.00  0.00     0.143 C 
ATOM     57  O   UNK d   0     -20.625  -5.590  14.645  0.00  0.00    -0.650 OA
BRANCH  56  58
ATOM     58  O   UNK d   0     -21.290  -3.556  13.852  0.00  0.00    -0.776 OA
ATOM     59  H   UNK d   0     -20.317  -3.214  13.952  0.00  0.00     0.167 HD
ENDBRANCH  56  58
ENDBRANCH  55  56
ENDBRANCH  21  55
BRANCH  18  60
ATOM     60  C   UNK d   0     -25.858  -1.102  17.106  0.00  0.00     0.151 C 
BRANCH  60  61
ATOM     61  C   UNK d   0     -24.688  -0.325  17.545  0.00  0.00     0.143 C 
ATOM     62  O   UNK d   0     -24.165   0.623  16.959  0.00  0.00    -0.650 OA
BRANCH  61  63
ATOM     63  O   UNK d   0     -24.123  -0.732  18.777  0.00  0.00    -0.776 OA
ATOM     64  H   UNK d   0     -24.646  -0.672  19.632  0.00  0.00     0.167 HD
ENDBRANCH  61  63
ENDBRANCH  60  61
ENDBRANCH  18  60
BRANCH  14  65
ATOM     65  C   UNK d   0     -27.643   1.217  16.304  0.00  0.00     0.052 C 
BRANCH  65  66
ATOM     66  C   UNK d   0     -28.896   0.626  16.848  0.00  0.00     0.115 C 
BRANCH  66  67
ATOM     67  C   UNK d   0     -30.063   0.542  16.015  0.00  0.00     0.139 C 
ATOM     68  O   UNK d   0     -31.001   1.405  16.186  0.00  0.00    -0.650 OA
BRANCH  67  69
ATOM     69  O   UNK d   0     -30.328  -0.384  15.007  0.00  0.00    -0.776 OA
ATOM     70  H   UNK d   0     -31.212  -0.250  14.497  0.00  0.00     0.167 HD
ENDBRANCH  67  69
ENDBRANCH  66  67
ENDBRANCH  65  66
ENDBRANCH  14  65
ENDBRANCH   6   7
ENDBRANCH   5   6
ENDBRANCH   2   5
TORSDOF 28
ENDMDL
MODEL 14
REMARK VINA RESULT:      -7.3      3.261      8.017
REMARK  28 active torsions:
REMARK  status: ('A' for Active; 'I' for Inactive)
REMARK    1  A    between atoms: C_2  and  O_3 
REMARK    2  A    between atoms: C_2  and  C_4 
REMARK    3  A    between atoms: C_4  and  C_5 
REMARK    4  A    between atoms: C_5  and  C_6 
REMARK    5  A    between atoms: C_7  and  C_8 
REMARK    6  A    between atoms: C_8  and  C_9 
REMARK    7  A    between atoms: C_9  and  O_11 
REMARK    8  A    between atoms: C_28  and  C_29 
REMARK    9  A    between atoms: C_29  and  C_30 
REMARK   10  A    between atoms: C_30  and  O_32 
REMARK   11  A    between atoms: C_33  and  C_34 
REMARK   12  A    between atoms: C_34  and  C_35 
REMARK   13  A    between atoms: C_35  and  C_36 
REMARK   14  A    between atoms: C_36  and  O_38 
REMARK   15  A    between atoms: C_39  and  C_40 
REMARK   16  A    between atoms: C_40  and  C_41 
REMARK   17  A    between atoms: C_41  and  C_42 
REMARK   18  A    between atoms: C_42  and  O_44 
REMARK   19  A    between atoms: C_45  and  C_46 
REMARK   20  A    between atoms: C_46  and  C_47 
REMARK   21  A    between atoms: C_47  and  O_49 
REMARK   22  A    between atoms: C_50  and  C_51 
REMARK   23  A    between atoms: C_51  and  C_52 
REMARK   24  A    between atoms: C_52  and  O_54 
REMARK   25  A    between atoms: C_55  and  C_56 
REMARK   26  A    between atoms: C_56  and  C_57 
REMARK   27  A    between atoms: C_57  and  C_58 
REMARK   28  A    between atoms: C_58  and  O_60 
ROOT
ATOM      1  O   UNK d   0     -32.934   3.247  10.205  0.00  0.00    -0.650 OA
ATOM      2  C   UNK d   0     -33.050   2.046  10.537  0.00  0.00     0.139 C 
ENDROOT
BRANCH   2   3
ATOM      3  O   UNK d   0     -34.041   1.683  11.416  0.00  0.00    -0.776 OA
ATOM      4  H   UNK d   0     -34.617   2.387  11.882  0.00  0.00     0.167 HD
ENDBRANCH   2   3
BRANCH   2   5
ATOM      5  C   UNK d   0     -32.119   1.024   9.981  0.00  0.00     0.115 C 
BRANCH   5   6
ATOM      6  C   UNK d   0     -30.779   1.645   9.694  0.00  0.00     0.052 C 
BRANCH   6   7
ATOM      7  C   UNK d   0     -29.742   1.300  10.736  0.00  0.00    -0.020 A 
ATOM      8  C   UNK d   0     -29.435   1.978  11.812  0.00  0.00    -0.011 A 
ATOM      9  C   UNK d   0     -28.375   1.261  12.502  0.00  0.00     0.067 A 
ATOM     10  C   UNK d   0     -27.639   1.435  13.684  0.00  0.00     0.062 C 
ATOM     11  N   UNK d   0     -28.095   0.161  11.773  0.00  0.00    -0.248 NA
ATOM     12  C   UNK d   0     -26.844   0.485  14.334  0.00  0.00     0.041 A 
ATOM     13  N   UNK d   0     -25.963  -0.413  13.852  0.00  0.00    -0.355 N 
ATOM     14  C   UNK d   0     -26.961   0.338  15.728  0.00  0.00    -0.022 A 
ATOM     15  C   UNK d   0     -25.524  -1.130  14.904  0.00  0.00     0.042 A 
ATOM     16  H   UNK d   0     -25.643  -0.524  12.793  0.00  0.00     0.166 HD
ATOM     17  C   UNK d   0     -24.598  -2.190  14.963  0.00  0.00     0.062 C 
ATOM     18  C   UNK d   0     -26.128  -0.688  16.097  0.00  0.00    -0.013 A 
ATOM     19  C   UNK d   0     -24.488  -3.286  14.147  0.00  0.00     0.067 A 
ATOM     20  N   UNK d   0     -25.212  -3.279  13.024  0.00  0.00    -0.248 NA
ATOM     21  C   UNK d   0     -23.761  -4.544  14.178  0.00  0.00    -0.011 A 
ATOM     22  C   UNK d   0     -25.012  -4.442  12.321  0.00  0.00     0.066 A 
ATOM     23  C   UNK d   0     -25.677  -4.551  11.108  0.00  0.00     0.062 C 
ATOM     24  C   UNK d   0     -24.075  -5.218  13.109  0.00  0.00    -0.020 A 
ATOM     25  C   UNK d   0     -26.462  -3.580  10.467  0.00  0.00     0.041 A 
ATOM     26  N   UNK d   0     -27.348  -2.698  10.944  0.00  0.00    -0.355 N 
ATOM     27  C   UNK d   0     -26.340  -3.430   9.068  0.00  0.00    -0.022 A 
ATOM     28  C   UNK d   0     -27.794  -1.987   9.896  0.00  0.00     0.042 A 
ATOM     29  H   UNK d   0     -27.676  -2.594  12.008  0.00  0.00     0.166 HD
ATOM     30  C   UNK d   0     -28.721  -0.936   9.821  0.00  0.00     0.062 C 
ATOM     31  C   UNK d   0     -27.179  -2.424   8.699  0.00  0.00    -0.013 A 
ATOM     32  C   UNK d   0     -28.884   0.125  10.698  0.00  0.00     0.066 A 
BRANCH   8  33
ATOM     33  C   UNK d   0     -30.038   3.247  12.260  0.00  0.00     0.151 C 
BRANCH  33  34
ATOM     34  C   UNK d   0     -30.825   3.099  13.498  0.00  0.00     0.143 C 
ATOM     35  O   UNK d   0     -30.620   3.835  14.474  0.00  0.00    -0.650 OA
BRANCH  34  36
ATOM     36  O   UNK d   0     -31.797   2.128  13.567  0.00  0.00    -0.776 OA
ATOM     37  H   UNK d   0     -32.043   1.558  12.747  0.00  0.00     0.167 HD
ENDBRANCH  34  36
ENDBRANCH  33  34
ENDBRANCH   8  33
BRANCH  31  38
ATOM     38  C   UNK d   0     -27.377  -1.899   7.296  0.00  0.00     0.151 C 
BRANCH  38  39
ATOM     39  C   UNK d   0     -26.756  -0.608   7.087  0.00  0.00     0.143 C 
ATOM     40  O   UNK d   0     -25.544  -0.413   7.284  0.00  0.00    -0.650 OA
BRANCH  39  41
ATOM     41  O   UNK d   0     -27.533   0.464   6.649  0.00  0.00    -0.776 OA
ATOM     42  H   UNK d   0     -27.032   1.264   6.250  0.00  0.00     0.167 HD
ENDBRANCH  39  41
ENDBRANCH  38  39
ENDBRANCH  31  38
BRANCH  27  43
ATOM     43  C   UNK d   0     -25.478  -4.193   8.094  0.00  0.00     0.052 C 
BRANCH  43  44
ATOM     44  C   UNK d   0     -24.186  -3.508   7.787  0.00  0.00     0.115 C 
BRANCH  44  45
ATOM     45  C   UNK d   0     -23.563  -4.260   6.667  0.00  0.00     0.139 C 
ATOM     46  O   UNK d   0     -22.419  -3.911   6.284  0.00  0.00    -0.650 OA
BRANCH  45  47
ATOM     47  O   UNK d   0     -24.183  -5.320   6.041  0.00  0.00    -0.776 OA
ATOM     48  H   UNK d   0     -24.376  -6.217   6.517  0.00  0.00     0.167 HD
ENDBRANCH  45  47
ENDBRANCH  44  45
ENDBRANCH  43  44
ENDBRANCH  27  43
BRANCH  24  49
ATOM     49  C   UNK d   0     -23.536  -6.533  12.722  0.00  0.00     0.052 C 
BRANCH  49  50
ATOM     50  C   UNK d   0     -24.262  -7.633  13.453  0.00  0.00     0.115 C 
BRANCH  50  51
ATOM     51  C   UNK d   0     -25.249  -8.394  12.699  0.00  0.00     0.139 C 
ATOM     52  O   UNK d   0     -25.654  -8.041  11.566  0.00  0.00    -0.650 OA
BRANCH  51  53
ATOM     53  O   UNK d   0     -25.777  -9.557  13.238  0.00  0.00    -0.776 OA
ATOM     54  H   UNK d   0     -26.244  -9.500  14.126  0.00  0.00     0.167 HD
ENDBRANCH  51  53
ENDBRANCH  50  51
ENDBRANCH  49  50
ENDBRANCH  24  49
BRANCH  21  55
ATOM     55  C   UNK d   0     -22.825  -4.940  15.272  0.00  0.00     0.151 C 
BRANCH  55  56
ATOM     56  C   UNK d   0     -21.417  -4.828  14.861  0.00  0.00     0.143 C 
ATOM     57  O   UNK d   0     -20.531  -5.604  15.268  0.00  0.00    -0.650 OA
BRANCH  56  58
ATOM     58  O   UNK d   0     -21.079  -3.804  13.977  0.00  0.00    -0.776 OA
ATOM     59  H   UNK d   0     -21.833  -3.118  13.796  0.00  0.00     0.167 HD
ENDBRANCH  56  58
ENDBRANCH  55  56
ENDBRANCH  21  55
BRANCH  18  60
ATOM     60  C   UNK d   0     -25.947  -1.191  17.508  0.00  0.00     0.151 C 
BRANCH  60  61
ATOM     61  C   UNK d   0     -24.703  -0.578  17.999  0.00  0.00     0.143 C 
ATOM     62  O   UNK d   0     -23.978  -0.993  18.903  0.00  0.00    -0.650 OA
BRANCH  61  63
ATOM     63  O   UNK d   0     -24.320   0.617  17.343  0.00  0.00    -0.776 OA
ATOM     64  H   UNK d   0     -24.942   1.405  17.297  0.00  0.00     0.167 HD
ENDBRANCH  61  63
ENDBRANCH  60  61
ENDBRANCH  18  60
BRANCH  14  65
ATOM     65  C   UNK d   0     -27.717   1.151  16.740  0.00  0.00     0.052 C 
BRANCH  65  66
ATOM     66  C   UNK d   0     -29.013   0.534  17.131  0.00  0.00     0.115 C 
BRANCH  66  67
ATOM     67  C   UNK d   0     -30.244   1.110  16.669  0.00  0.00     0.139 C 
ATOM     68  O   UNK d   0     -30.955   0.446  15.829  0.00  0.00    -0.650 OA
BRANCH  67  69
ATOM     69  O   UNK d   0     -30.795   2.341  17.023  0.00  0.00    -0.776 OA
ATOM     70  H   UNK d   0     -31.750   2.311  17.409  0.00  0.00     0.167 HD
ENDBRANCH  67  69
ENDBRANCH  66  67
ENDBRANCH  65  66
ENDBRANCH  14  65
ENDBRANCH   6   7
ENDBRANCH   5   6
ENDBRANCH   2   5
TORSDOF 28
ENDMDL
MODEL 15
REMARK VINA RESULT:      -7.3     32.812     38.001
REMARK  28 active torsions:
REMARK  status: ('A' for Active; 'I' for Inactive)
REMARK    1  A    between atoms: C_2  and  O_3 
REMARK    2  A    between atoms: C_2  and  C_4 
REMARK    3  A    between atoms: C_4  and  C_5 
REMARK    4  A    between atoms: C_5  and  C_6 
REMARK    5  A    between atoms: C_7  and  C_8 
REMARK    6  A    between atoms: C_8  and  C_9 
REMARK    7  A    between atoms: C_9  and  O_11 
REMARK    8  A    between atoms: C_28  and  C_29 
REMARK    9  A    between atoms: C_29  and  C_30 
REMARK   10  A    between atoms: C_30  and  O_32 
REMARK   11  A    between atoms: C_33  and  C_34 
REMARK   12  A    between atoms: C_34  and  C_35 
REMARK   13  A    between atoms: C_35  and  C_36 
REMARK   14  A    between atoms: C_36  and  O_38 
REMARK   15  A    between atoms: C_39  and  C_40 
REMARK   16  A    between atoms: C_40  and  C_41 
REMARK   17  A    between atoms: C_41  and  C_42 
REMARK   18  A    between atoms: C_42  and  O_44 
REMARK   19  A    between atoms: C_45  and  C_46 
REMARK   20  A    between atoms: C_46  and  C_47 
REMARK   21  A    between atoms: C_47  and  O_49 
REMARK   22  A    between atoms: C_50  and  C_51 
REMARK   23  A    between atoms: C_51  and  C_52 
REMARK   24  A    between atoms: C_52  and  O_54 
REMARK   25  A    between atoms: C_55  and  C_56 
REMARK   26  A    between atoms: C_56  and  C_57 
REMARK   27  A    between atoms: C_57  and  C_58 
REMARK   28  A    between atoms: C_58  and  O_60 
ROOT
ATOM      1  O   UNK d   0       9.519   9.335   0.357  0.00  0.00    -0.650 OA
ATOM      2  C   UNK d   0      10.288   8.373   0.138  0.00  0.00     0.139 C 
ENDROOT
BRANCH   2   3
ATOM      3  O   UNK d   0      10.283   7.775  -1.099  0.00  0.00    -0.776 OA
ATOM      4  H   UNK d   0       9.508   7.177  -1.393  0.00  0.00     0.167 HD
ENDBRANCH   2   3
BRANCH   2   5
ATOM      5  C   UNK d   0      11.198   7.884   1.212  0.00  0.00     0.115 C 
BRANCH   5   6
ATOM      6  C   UNK d   0      11.557   6.443   0.970  0.00  0.00     0.052 C 
BRANCH   6   7
ATOM      7  C   UNK d   0      11.284   5.567   2.168  0.00  0.00    -0.020 A 
ATOM      8  C   UNK d   0      12.067   5.350   3.194  0.00  0.00    -0.011 A 
ATOM      9  C   UNK d   0      11.384   4.432   4.090  0.00  0.00     0.067 A 
ATOM     10  C   UNK d   0      11.657   3.838   5.332  0.00  0.00     0.062 C 
ATOM     11  N   UNK d   0      10.193   4.136   3.528  0.00  0.00    -0.248 NA
ATOM     12  C   UNK d   0      10.751   3.191   6.179  0.00  0.00     0.041 A 
ATOM     13  N   UNK d   0       9.760   2.317   5.917  0.00  0.00    -0.355 N 
ATOM     14  C   UNK d   0      10.775   3.487   7.554  0.00  0.00    -0.022 A 
ATOM     15  C   UNK d   0       9.150   2.058   7.088  0.00  0.00     0.042 A 
ATOM     16  H   UNK d   0       9.510   1.878   4.926  0.00  0.00     0.166 HD
ATOM     17  C   UNK d   0       8.058   1.217   7.383  0.00  0.00     0.062 C 
ATOM     18  C   UNK d   0       9.757   2.774   8.138  0.00  0.00    -0.013 A 
ATOM     19  C   UNK d   0       6.870   1.078   6.712  0.00  0.00     0.067 A 
ATOM     20  N   UNK d   0       6.783   1.657   5.512  0.00  0.00    -0.248 NA
ATOM     21  C   UNK d   0       5.590   0.443   6.976  0.00  0.00    -0.011 A 
ATOM     22  C   UNK d   0       5.537   1.447   4.971  0.00  0.00     0.066 A 
ATOM     23  C   UNK d   0       5.321   1.964   3.703  0.00  0.00     0.062 C 
ATOM     24  C   UNK d   0       4.813   0.666   5.955  0.00  0.00    -0.020 A 
ATOM     25  C   UNK d   0       6.248   2.600   2.863  0.00  0.00     0.041 A 
ATOM     26  N   UNK d   0       7.224   3.479   3.121  0.00  0.00    -0.355 N 
ATOM     27  C   UNK d   0       6.227   2.298   1.484  0.00  0.00    -0.022 A 
ATOM     28  C   UNK d   0       7.829   3.746   1.953  0.00  0.00     0.042 A 
ATOM     29  H   UNK d   0       7.467   3.928   4.116  0.00  0.00     0.166 HD
ATOM     30  C   UNK d   0       8.909   4.588   1.644  0.00  0.00     0.062 C 
ATOM     31  C   UNK d   0       7.224   3.018   0.901  0.00  0.00    -0.013 A 
ATOM     32  C   UNK d   0      10.072   4.788   2.371  0.00  0.00     0.066 A 
BRANCH   8  33
ATOM     33  C   UNK d   0      13.409   5.921   3.419  0.00  0.00     0.151 C 
BRANCH  33  34
ATOM     34  C   UNK d   0      14.454   5.250   2.625  0.00  0.00     0.143 C 
ATOM     35  O   UNK d   0      15.575   5.760   2.489  0.00  0.00    -0.650 OA
BRANCH  34  36
ATOM     36  O   UNK d   0      14.177   4.043   2.026  0.00  0.00    -0.776 OA
ATOM     37  H   UNK d   0      13.372   3.473   2.320  0.00  0.00     0.167 HD
ENDBRANCH  34  36
ENDBRANCH  33  34
ENDBRANCH   8  33
BRANCH  31  38
ATOM     38  C   UNK d   0       7.591   3.008  -0.565  0.00  0.00     0.151 C 
BRANCH  38  39
ATOM     39  C   UNK d   0       8.703   2.129  -0.859  0.00  0.00     0.143 C 
ATOM     40  O   UNK d   0       9.808   2.557  -1.237  0.00  0.00    -0.650 OA
BRANCH  39  41
ATOM     41  O   UNK d   0       8.544   0.751  -0.718  0.00  0.00    -0.776 OA
ATOM     42  H   UNK d   0       9.394   0.203  -0.556  0.00  0.00     0.167 HD
ENDBRANCH  39  41
ENDBRANCH  38  39
ENDBRANCH  31  38
BRANCH  27  43
ATOM     43  C   UNK d   0       5.313   1.374   0.719  0.00  0.00     0.052 C 
BRANCH  43  44
ATOM     44  C   UNK d   0       4.061   2.038   0.247  0.00  0.00     0.115 C 
BRANCH  44  45
ATOM     45  C   UNK d   0       3.211   0.971  -0.344  0.00  0.00     0.139 C 
ATOM     46  O   UNK d   0       2.947   1.037  -1.570  0.00  0.00    -0.650 OA
BRANCH  45  47
ATOM     47  O   UNK d   0       2.711  -0.080   0.393  0.00  0.00    -0.776 OA
ATOM     48  H   UNK d   0       1.848  -0.585   0.135  0.00  0.00     0.167 HD
ENDBRANCH  45  47
ENDBRANCH  44  45
ENDBRANCH  43  44
ENDBRANCH  27  43
BRANCH  24  49
ATOM     49  C   UNK d   0       3.436   0.170   5.787  0.00  0.00     0.052 C 
BRANCH  49  50
ATOM     50  C   UNK d   0       3.356  -0.764   4.607  0.00  0.00     0.115 C 
BRANCH  50  51
ATOM     51  C   UNK d   0       2.319  -0.500   3.619  0.00  0.00     0.139 C 
ATOM     52  O   UNK d   0       2.015   0.659   3.251  0.00  0.00    -0.650 OA
BRANCH  51  53
ATOM     53  O   UNK d   0       1.625  -1.559   3.052  0.00  0.00    -0.776 OA
ATOM     54  H   UNK d   0       0.641  -1.637   3.239  0.00  0.00     0.167 HD
ENDBRANCH  51  53
ENDBRANCH  50  51
ENDBRANCH  49  50
ENDBRANCH  24  49
BRANCH  21  55
ATOM     55  C   UNK d   0       5.278  -0.324   8.218  0.00  0.00     0.151 C 
BRANCH  55  56
ATOM     56  C   UNK d   0       5.899  -1.657   8.214  0.00  0.00     0.143 C 
ATOM     57  O   UNK d   0       6.632  -2.062   9.137  0.00  0.00    -0.650 OA
BRANCH  56  58
ATOM     58  O   UNK d   0       5.647  -2.487   7.123  0.00  0.00    -0.776 OA
ATOM     59  H   UNK d   0       4.663  -2.493   6.798  0.00  0.00     0.167 HD
ENDBRANCH  56  58
ENDBRANCH  55  56
ENDBRANCH  21  55
BRANCH  18  60
ATOM     60  C   UNK d   0       9.415   2.801   9.607  0.00  0.00     0.151 C 
BRANCH  60  61
ATOM     61  C   UNK d   0       8.512   3.947   9.790  0.00  0.00     0.143 C 
ATOM     62  O   UNK d   0       7.544   4.249   9.091  0.00  0.00    -0.650 OA
BRANCH  61  63
ATOM     63  O   UNK d   0       8.809   4.778  10.898  0.00  0.00    -0.776 OA
ATOM     64  H   UNK d   0       8.908   5.771  10.789  0.00  0.00     0.167 HD
ENDBRANCH  61  63
ENDBRANCH  60  61
ENDBRANCH  18  60
BRANCH  14  65
ATOM     65  C   UNK d   0      11.737   4.308   8.364  0.00  0.00     0.052 C 
BRANCH  65  66
ATOM     66  C   UNK d   0      11.340   5.738   8.466  0.00  0.00     0.115 C 
BRANCH  66  67
ATOM     67  C   UNK d   0      11.757   6.514   9.599  0.00  0.00     0.139 C 
ATOM     68  O   UNK d   0      12.263   5.901  10.610  0.00  0.00    -0.650 OA
BRANCH  67  69
ATOM     69  O   UNK d   0      11.685   7.898   9.760  0.00  0.00    -0.776 OA
ATOM     70  H   UNK d   0      10.969   8.235  10.419  0.00  0.00     0.167 HD
ENDBRANCH  67  69
ENDBRANCH  66  67
ENDBRANCH  65  66
ENDBRANCH  14  65
ENDBRANCH   6   7
ENDBRANCH   5   6
ENDBRANCH   2   5
TORSDOF 28
ENDMDL
MODEL 16
REMARK VINA RESULT:      -7.3     33.911     38.771
REMARK  28 active torsions:
REMARK  status: ('A' for Active; 'I' for Inactive)
REMARK    1  A    between atoms: C_2  and  O_3 
REMARK    2  A    between atoms: C_2  and  C_4 
REMARK    3  A    between atoms: C_4  and  C_5 
REMARK    4  A    between atoms: C_5  and  C_6 
REMARK    5  A    between atoms: C_7  and  C_8 
REMARK    6  A    between atoms: C_8  and  C_9 
REMARK    7  A    between atoms: C_9  and  O_11 
REMARK    8  A    between atoms: C_28  and  C_29 
REMARK    9  A    between atoms: C_29  and  C_30 
REMARK   10  A    between atoms: C_30  and  O_32 
REMARK   11  A    between atoms: C_33  and  C_34 
REMARK   12  A    between atoms: C_34  and  C_35 
REMARK   13  A    between atoms: C_35  and  C_36 
REMARK   14  A    between atoms: C_36  and  O_38 
REMARK   15  A    between atoms: C_39  and  C_40 
REMARK   16  A    between atoms: C_40  and  C_41 
REMARK   17  A    between atoms: C_41  and  C_42 
REMARK   18  A    between atoms: C_42  and  O_44 
REMARK   19  A    between atoms: C_45  and  C_46 
REMARK   20  A    between atoms: C_46  and  C_47 
REMARK   21  A    between atoms: C_47  and  O_49 
REMARK   22  A    between atoms: C_50  and  C_51 
REMARK   23  A    between atoms: C_51  and  C_52 
REMARK   24  A    between atoms: C_52  and  O_54 
REMARK   25  A    between atoms: C_55  and  C_56 
REMARK   26  A    between atoms: C_56  and  C_57 
REMARK   27  A    between atoms: C_57  and  C_58 
REMARK   28  A    between atoms: C_58  and  O_60 
ROOT
ATOM      1  O   UNK d   0      12.968   8.813   0.275  0.00  0.00    -0.650 OA
ATOM      2  C   UNK d   0      12.312   8.698   1.334  0.00  0.00     0.139 C 
ENDROOT
BRANCH   2   3
ATOM      3  O   UNK d   0      11.243   9.531   1.558  0.00  0.00    -0.776 OA
ATOM      4  H   UNK d   0      10.473   9.593   0.889  0.00  0.00     0.167 HD
ENDBRANCH   2   3
BRANCH   2   5
ATOM      5  C   UNK d   0      12.692   7.666   2.341  0.00  0.00     0.115 C 
BRANCH   5   6
ATOM      6  C   UNK d   0      12.828   6.322   1.678  0.00  0.00     0.052 C 
BRANCH   6   7
ATOM      7  C   UNK d   0      11.579   5.482   1.807  0.00  0.00    -0.020 A 
ATOM      8  C   UNK d   0      10.697   5.216   0.879  0.00  0.00    -0.011 A 
ATOM      9  C   UNK d   0       9.667   4.378   1.470  0.00  0.00     0.067 A 
ATOM     10  C   UNK d   0       8.493   3.750   1.025  0.00  0.00     0.062 C 
ATOM     11  N   UNK d   0      10.000   4.188   2.764  0.00  0.00    -0.248 NA
ATOM     12  C   UNK d   0       7.770   2.746   1.677  0.00  0.00     0.041 A 
ATOM     13  N   UNK d   0       7.424   2.600   2.971  0.00  0.00    -0.355 N 
ATOM     14  C   UNK d   0       7.338   1.629   0.939  0.00  0.00    -0.022 A 
ATOM     15  C   UNK d   0       6.790   1.416   3.073  0.00  0.00     0.042 A 
ATOM     16  H   UNK d   0       7.607   3.328   3.791  0.00  0.00     0.166 HD
ATOM     17  C   UNK d   0       6.223   0.778   4.193  0.00  0.00     0.062 C 
ATOM     18  C   UNK d   0       6.717   0.779   1.819  0.00  0.00    -0.013 A 
ATOM     19  C   UNK d   0       6.740   0.630   5.455  0.00  0.00     0.067 A 
ATOM     20  N   UNK d   0       7.832   1.340   5.748  0.00  0.00    -0.248 NA
ATOM     21  C   UNK d   0       6.408  -0.152   6.635  0.00  0.00    -0.011 A 
ATOM     22  C   UNK d   0       8.240   1.078   7.033  0.00  0.00     0.066 A 
ATOM     23  C   UNK d   0       9.348   1.781   7.483  0.00  0.00     0.062 C 
ATOM     24  C   UNK d   0       7.293   0.112   7.553  0.00  0.00    -0.020 A 
ATOM     25  C   UNK d   0      10.052   2.796   6.817  0.00  0.00     0.041 A 
ATOM     26  N   UNK d   0      10.410   2.934   5.534  0.00  0.00    -0.355 N 
ATOM     27  C   UNK d   0      10.482   3.918   7.558  0.00  0.00    -0.022 A 
ATOM     28  C   UNK d   0      11.050   4.109   5.432  0.00  0.00     0.042 A 
ATOM     29  H   UNK d   0      10.235   2.196   4.713  0.00  0.00     0.166 HD
ATOM     30  C   UNK d   0      11.627   4.752   4.325  0.00  0.00     0.062 C 
ATOM     31  C   UNK d   0      11.114   4.754   6.690  0.00  0.00    -0.013 A 
ATOM     32  C   UNK d   0      11.141   4.826   3.030  0.00  0.00     0.066 A 
BRANCH   8  33
ATOM     33  C   UNK d   0      10.719   5.678  -0.522  0.00  0.00     0.151 C 
BRANCH  33  34
ATOM     34  C   UNK d   0       9.651   6.650  -0.819  0.00  0.00     0.143 C 
ATOM     35  O   UNK d   0       9.741   7.828  -0.446  0.00  0.00    -0.650 OA
BRANCH  34  36
ATOM     36  O   UNK d   0       8.541   6.240  -1.520  0.00  0.00    -0.776 OA
ATOM     37  H   UNK d   0       8.278   5.246  -1.571  0.00  0.00     0.167 HD
ENDBRANCH  34  36
ENDBRANCH  33  34
ENDBRANCH   8  33
BRANCH  31  38
ATOM     38  C   UNK d   0      11.730   6.091   7.028  0.00  0.00     0.151 C 
BRANCH  38  39
ATOM     39  C   UNK d   0      10.779   7.181   6.960  0.00  0.00     0.143 C 
ATOM     40  O   UNK d   0      10.223   7.513   5.899  0.00  0.00    -0.650 OA
BRANCH  39  41
ATOM     41  O   UNK d   0      10.466   7.892   8.118  0.00  0.00    -0.776 OA
ATOM     42  H   UNK d   0       9.764   8.634   8.029  0.00  0.00     0.167 HD
ENDBRANCH  39  41
ENDBRANCH  38  39
ENDBRANCH  31  38
BRANCH  27  43
ATOM     43  C   UNK d   0      10.320   4.215   9.028  0.00  0.00     0.052 C 
BRANCH  43  44
ATOM     44  C   UNK d   0      11.610   4.528   9.714  0.00  0.00     0.115 C 
BRANCH  44  45
ATOM     45  C   UNK d   0      11.404   5.807  10.441  0.00  0.00     0.139 C 
ATOM     46  O   UNK d   0      10.230   6.235  10.566  0.00  0.00    -0.650 OA
BRANCH  45  47
ATOM     47  O   UNK d   0      12.442   6.533  10.985  0.00  0.00    -0.776 OA
ATOM     48  H   UNK d   0      12.353   7.064  11.866  0.00  0.00     0.167 HD
ENDBRANCH  45  47
ENDBRANCH  44  45
ENDBRANCH  43  44
ENDBRANCH  27  43
BRANCH  24  49
ATOM     49  C   UNK d   0       7.313  -0.434   8.921  0.00  0.00     0.052 C 
BRANCH  49  50
ATOM     50  C   UNK d   0       8.600  -1.178   9.169  0.00  0.00     0.115 C 
BRANCH  50  51
ATOM     51  C   UNK d   0       8.844  -2.370   8.369  0.00  0.00     0.139 C 
ATOM     52  O   UNK d   0       8.061  -3.349   8.359  0.00  0.00    -0.650 OA
BRANCH  51  53
ATOM     53  O   UNK d   0       9.983  -2.447   7.582  0.00  0.00    -0.776 OA
ATOM     54  H   UNK d   0      10.006  -3.131   6.845  0.00  0.00     0.167 HD
ENDBRANCH  51  53
ENDBRANCH  50  51
ENDBRANCH  49  50
ENDBRANCH  24  49
BRANCH  21  55
ATOM     55  C   UNK d   0       5.240  -1.077   6.723  0.00  0.00     0.151 C 
BRANCH  55  56
ATOM     56  C   UNK d   0       5.491  -2.349   6.027  0.00  0.00     0.143 C 
ATOM     57  O   UNK d   0       5.452  -2.458   4.786  0.00  0.00    -0.650 OA
BRANCH  56  58
ATOM     58  O   UNK d   0       5.783  -3.468   6.805  0.00  0.00    -0.776 OA
ATOM     59  H   UNK d   0       4.997  -4.131   6.927  0.00  0.00     0.167 HD
ENDBRANCH  56  58
ENDBRANCH  55  56
ENDBRANCH  21  55
BRANCH  18  60
ATOM     60  C   UNK d   0       6.107  -0.551   1.452  0.00  0.00     0.151 C 
BRANCH  60  61
ATOM     61  C   UNK d   0       7.208  -1.526   1.497  0.00  0.00     0.143 C 
ATOM     62  O   UNK d   0       7.947  -1.767   2.452  0.00  0.00    -0.650 OA
BRANCH  61  63
ATOM     63  O   UNK d   0       7.417  -2.254   0.301  0.00  0.00    -0.776 OA
ATOM     64  H   UNK d   0       8.079  -3.009   0.263  0.00  0.00     0.167 HD
ENDBRANCH  61  63
ENDBRANCH  60  61
ENDBRANCH  18  60
BRANCH  14  65
ATOM     65  C   UNK d   0       7.379   1.354  -0.538  0.00  0.00     0.052 C 
BRANCH  65  66
ATOM     66  C   UNK d   0       6.242   1.967  -1.276  0.00  0.00     0.115 C 
BRANCH  66  67
ATOM     67  C   UNK d   0       5.844   1.427  -2.545  0.00  0.00     0.139 C 
ATOM     68  O   UNK d   0       4.927   2.035  -3.210  0.00  0.00    -0.650 OA
BRANCH  67  69
ATOM     69  O   UNK d   0       6.336   0.286  -3.179  0.00  0.00    -0.776 OA
ATOM     70  H   UNK d   0       5.804  -0.581  -3.016  0.00  0.00     0.167 HD
ENDBRANCH  67  69
ENDBRANCH  66  67
ENDBRANCH  65  66
ENDBRANCH  14  65
ENDBRANCH   6   7
ENDBRANCH   5   6
ENDBRANCH   2   5
TORSDOF 28
ENDMDL
MODEL 17
REMARK VINA RESULT:      -7.3      2.772      7.746
REMARK  28 active torsions:
REMARK  status: ('A' for Active; 'I' for Inactive)
REMARK    1  A    between atoms: C_2  and  O_3 
REMARK    2  A    between atoms: C_2  and  C_4 
REMARK    3  A    between atoms: C_4  and  C_5 
REMARK    4  A    between atoms: C_5  and  C_6 
REMARK    5  A    between atoms: C_7  and  C_8 
REMARK    6  A    between atoms: C_8  and  C_9 
REMARK    7  A    between atoms: C_9  and  O_11 
REMARK    8  A    between atoms: C_28  and  C_29 
REMARK    9  A    between atoms: C_29  and  C_30 
REMARK   10  A    between atoms: C_30  and  O_32 
REMARK   11  A    between atoms: C_33  and  C_34 
REMARK   12  A    between atoms: C_34  and  C_35 
REMARK   13  A    between atoms: C_35  and  C_36 
REMARK   14  A    between atoms: C_36  and  O_38 
REMARK   15  A    between atoms: C_39  and  C_40 
REMARK   16  A    between atoms: C_40  and  C_41 
REMARK   17  A    between atoms: C_41  and  C_42 
REMARK   18  A    between atoms: C_42  and  O_44 
REMARK   19  A    between atoms: C_45  and  C_46 
REMARK   20  A    between atoms: C_46  and  C_47 
REMARK   21  A    between atoms: C_47  and  O_49 
REMARK   22  A    between atoms: C_50  and  C_51 
REMARK   23  A    between atoms: C_51  and  C_52 
REMARK   24  A    between atoms: C_52  and  O_54 
REMARK   25  A    between atoms: C_55  and  C_56 
REMARK   26  A    between atoms: C_56  and  C_57 
REMARK   27  A    between atoms: C_57  and  C_58 
REMARK   28  A    between atoms: C_58  and  O_60 
ROOT
ATOM      1  O   UNK d   0     -24.342  -0.184  18.424  0.00  0.00    -0.650 OA
ATOM      2  C   UNK d   0     -24.577  -0.213  17.195  0.00  0.00     0.139 C 
ENDROOT
BRANCH   2   3
ATOM      3  O   UNK d   0     -24.637   0.966  16.493  0.00  0.00    -0.776 OA
ATOM      4  H   UNK d   0     -24.562   1.868  16.968  0.00  0.00     0.167 HD
ENDBRANCH   2   3
BRANCH   2   5
ATOM      5  C   UNK d   0     -24.790  -1.517  16.504  0.00  0.00     0.115 C 
BRANCH   5   6
ATOM      6  C   UNK d   0     -26.249  -1.882  16.526  0.00  0.00     0.052 C 
BRANCH   6   7
ATOM      7  C   UNK d   0     -26.902  -1.746  15.172  0.00  0.00    -0.020 A 
ATOM      8  C   UNK d   0     -27.957  -1.036  14.861  0.00  0.00    -0.011 A 
ATOM      9  C   UNK d   0     -28.218  -1.223  13.444  0.00  0.00     0.067 A 
ATOM     10  C   UNK d   0     -29.154  -0.742  12.515  0.00  0.00     0.062 C 
ATOM     11  N   UNK d   0     -27.277  -2.067  12.971  0.00  0.00    -0.248 NA
ATOM     12  C   UNK d   0     -29.079  -0.819  11.120  0.00  0.00     0.041 A 
ATOM     13  N   UNK d   0     -28.705  -1.824  10.306  0.00  0.00    -0.355 N 
ATOM     14  C   UNK d   0     -29.378   0.326  10.358  0.00  0.00    -0.022 A 
ATOM     15  C   UNK d   0     -28.751  -1.345   9.049  0.00  0.00     0.042 A 
ATOM     16  H   UNK d   0     -28.432  -2.858  10.613  0.00  0.00     0.166 HD
ATOM     17  C   UNK d   0     -28.461  -1.973   7.821  0.00  0.00     0.062 C 
ATOM     18  C   UNK d   0     -29.169  -0.000   9.041  0.00  0.00    -0.013 A 
ATOM     19  C   UNK d   0     -27.402  -2.779   7.493  0.00  0.00     0.067 A 
ATOM     20  N   UNK d   0     -26.632  -3.204   8.499  0.00  0.00    -0.248 NA
ATOM     21  C   UNK d   0     -26.843  -3.324   6.267  0.00  0.00    -0.011 A 
ATOM     22  C   UNK d   0     -25.609  -3.985   8.018  0.00  0.00     0.066 A 
ATOM     23  C   UNK d   0     -24.750  -4.526   8.964  0.00  0.00     0.062 C 
ATOM     24  C   UNK d   0     -25.791  -4.024   6.581  0.00  0.00    -0.020 A 
ATOM     25  C   UNK d   0     -24.850  -4.448  10.362  0.00  0.00     0.041 A 
ATOM     26  N   UNK d   0     -25.208  -3.444  11.172  0.00  0.00    -0.355 N 
ATOM     27  C   UNK d   0     -24.554  -5.598  11.125  0.00  0.00    -0.022 A 
ATOM     28  C   UNK d   0     -25.154  -3.917  12.427  0.00  0.00     0.042 A 
ATOM     29  H   UNK d   0     -25.471  -2.402  10.862  0.00  0.00     0.166 HD
ATOM     30  C   UNK d   0     -25.430  -3.301  13.658  0.00  0.00     0.062 C 
ATOM     31  C   UNK d   0     -24.744  -5.271  12.432  0.00  0.00    -0.013 A 
ATOM     32  C   UNK d   0     -26.455  -2.419  13.961  0.00  0.00     0.066 A 
BRANCH   8  33
ATOM     33  C   UNK d   0     -28.755  -0.194  15.771  0.00  0.00     0.151 C 
BRANCH  33  34
ATOM     34  C   UNK d   0     -28.252   1.189  15.858  0.00  0.00     0.143 C 
ATOM     35  O   UNK d   0     -28.497   2.012  14.965  0.00  0.00    -0.650 OA
BRANCH  34  36
ATOM     36  O   UNK d   0     -27.500   1.567  16.946  0.00  0.00    -0.776 OA
ATOM     37  H   UNK d   0     -26.631   2.106  16.833  0.00  0.00     0.167 HD
ENDBRANCH  34  36
ENDBRANCH  33  34
ENDBRANCH   8  33
BRANCH  31  38
ATOM     38  C   UNK d   0     -24.562  -6.191  13.617  0.00  0.00     0.151 C 
BRANCH  38  39
ATOM     39  C   UNK d   0     -23.230  -6.124  14.180  0.00  0.00     0.143 C 
ATOM     40  O   UNK d   0     -23.018  -5.737  15.343  0.00  0.00    -0.650 OA
BRANCH  39  41
ATOM     41  O   UNK d   0     -22.137  -6.505  13.403  0.00  0.00    -0.776 OA
ATOM     42  H   UNK d   0     -21.207  -6.284  13.775  0.00  0.00     0.167 HD
ENDBRANCH  39  41
ENDBRANCH  38  39
ENDBRANCH  31  38
BRANCH  27  43
ATOM     43  C   UNK d   0     -24.106  -6.963  10.666  0.00  0.00     0.052 C 
BRANCH  43  44
ATOM     44  C   UNK d   0     -25.236  -7.919  10.463  0.00  0.00     0.115 C 
BRANCH  44  45
ATOM     45  C   UNK d   0     -25.281  -8.219   9.008  0.00  0.00     0.139 C 
ATOM     46  O   UNK d   0     -24.300  -7.876   8.302  0.00  0.00    -0.650 OA
BRANCH  45  47
ATOM     47  O   UNK d   0     -26.345  -8.859   8.409  0.00  0.00    -0.776 OA
ATOM     48  H   UNK d   0     -26.445  -8.941   7.385  0.00  0.00     0.167 HD
ENDBRANCH  45  47
ENDBRANCH  44  45
ENDBRANCH  43  44
ENDBRANCH  27  43
BRANCH  24  49
ATOM     49  C   UNK d   0     -24.943  -4.783   5.646  0.00  0.00     0.052 C 
BRANCH  49  50
ATOM     50  C   UNK d   0     -23.530  -4.260   5.677  0.00  0.00     0.115 C 
BRANCH  50  51
ATOM     51  C   UNK d   0     -22.468  -5.228   5.918  0.00  0.00     0.139 C 
ATOM     52  O   UNK d   0     -21.483  -5.356   5.153  0.00  0.00    -0.650 OA
BRANCH  51  53
ATOM     53  O   UNK d   0     -22.529  -6.051   7.032  0.00  0.00    -0.776 OA
ATOM     54  H   UNK d   0     -23.390  -6.537   7.217  0.00  0.00     0.167 HD
ENDBRANCH  51  53
ENDBRANCH  50  51
ENDBRANCH  49  50
ENDBRANCH  24  49
BRANCH  21  55
ATOM     55  C   UNK d   0     -27.420  -3.090   4.910  0.00  0.00     0.151 C 
BRANCH  55  56
ATOM     56  C   UNK d   0     -26.682  -2.057   4.167  0.00  0.00     0.143 C 
ATOM     57  O   UNK d   0     -26.275  -2.226   3.001  0.00  0.00    -0.650 OA
BRANCH  56  58
ATOM     58  O   UNK d   0     -26.436  -0.845   4.811  0.00  0.00    -0.776 OA
ATOM     59  H   UNK d   0     -26.282  -0.039   4.179  0.00  0.00     0.167 HD
ENDBRANCH  56  58
ENDBRANCH  55  56
ENDBRANCH  21  55
BRANCH  18  60
ATOM     60  C   UNK d   0     -29.362   0.940   7.877  0.00  0.00     0.151 C 
BRANCH  60  61
ATOM     61  C   UNK d   0     -28.097   1.676   7.738  0.00  0.00     0.143 C 
ATOM     62  O   UNK d   0     -27.782   2.725   8.301  0.00  0.00    -0.650 OA
BRANCH  61  63
ATOM     63  O   UNK d   0     -27.155   1.094   6.855  0.00  0.00    -0.776 OA
ATOM     64  H   UNK d   0     -27.046   0.097   6.798  0.00  0.00     0.167 HD
ENDBRANCH  61  63
ENDBRANCH  60  61
ENDBRANCH  18  60
BRANCH  14  65
ATOM     65  C   UNK d   0     -29.935   1.659  10.769  0.00  0.00     0.052 C 
BRANCH  65  66
ATOM     66  C   UNK d   0     -31.421   1.709  10.719  0.00  0.00     0.115 C 
BRANCH  66  67
ATOM     67  C   UNK d   0     -32.073   2.735   9.955  0.00  0.00     0.139 C 
ATOM     68  O   UNK d   0     -31.368   3.433   9.138  0.00  0.00    -0.650 OA
BRANCH  67  69
ATOM     69  O   UNK d   0     -33.421   3.092   9.981  0.00  0.00    -0.776 OA
ATOM     70  H   UNK d   0     -34.030   2.498  10.563  0.00  0.00     0.167 HD
ENDBRANCH  67  69
ENDBRANCH  66  67
ENDBRANCH  65  66
ENDBRANCH  14  65
ENDBRANCH   6   7
ENDBRANCH   5   6
ENDBRANCH   2   5
TORSDOF 28
ENDMDL
MODEL 18
REMARK VINA RESULT:      -7.2      3.850      8.003
REMARK  28 active torsions:
REMARK  status: ('A' for Active; 'I' for Inactive)
REMARK    1  A    between atoms: C_2  and  O_3 
REMARK    2  A    between atoms: C_2  and  C_4 
REMARK    3  A    between atoms: C_4  and  C_5 
REMARK    4  A    between atoms: C_5  and  C_6 
REMARK    5  A    between atoms: C_7  and  C_8 
REMARK    6  A    between atoms: C_8  and  C_9 
REMARK    7  A    between atoms: C_9  and  O_11 
REMARK    8  A    between atoms: C_28  and  C_29 
REMARK    9  A    between atoms: C_29  and  C_30 
REMARK   10  A    between atoms: C_30  and  O_32 
REMARK   11  A    between atoms: C_33  and  C_34 
REMARK   12  A    between atoms: C_34  and  C_35 
REMARK   13  A    between atoms: C_35  and  C_36 
REMARK   14  A    between atoms: C_36  and  O_38 
REMARK   15  A    between atoms: C_39  and  C_40 
REMARK   16  A    between atoms: C_40  and  C_41 
REMARK   17  A    between atoms: C_41  and  C_42 
REMARK   18  A    between atoms: C_42  and  O_44 
REMARK   19  A    between atoms: C_45  and  C_46 
REMARK   20  A    between atoms: C_46  and  C_47 
REMARK   21  A    between atoms: C_47  and  O_49 
REMARK   22  A    between atoms: C_50  and  C_51 
REMARK   23  A    between atoms: C_51  and  C_52 
REMARK   24  A    between atoms: C_52  and  O_54 
REMARK   25  A    between atoms: C_55  and  C_56 
REMARK   26  A    between atoms: C_56  and  C_57 
REMARK   27  A    between atoms: C_57  and  C_58 
REMARK   28  A    between atoms: C_58  and  O_60 
ROOT
ATOM      1  O   UNK d   0     -32.815   4.144  10.341  0.00  0.00    -0.650 OA
ATOM      2  C   UNK d   0     -32.257   3.442   9.469  0.00  0.00     0.139 C 
ENDROOT
BRANCH   2   3
ATOM      3  O   UNK d   0     -32.661   3.544   8.160  0.00  0.00    -0.776 OA
ATOM      4  H   UNK d   0     -31.988   3.725   7.412  0.00  0.00     0.167 HD
ENDBRANCH   2   3
BRANCH   2   5
ATOM      5  C   UNK d   0     -31.164   2.503   9.852  0.00  0.00     0.115 C 
BRANCH   5   6
ATOM      6  C   UNK d   0     -31.440   1.913  11.209  0.00  0.00     0.052 C 
BRANCH   6   7
ATOM      7  C   UNK d   0     -30.177   1.555  11.955  0.00  0.00    -0.020 A 
ATOM      8  C   UNK d   0     -29.507   2.301  12.794  0.00  0.00    -0.011 A 
ATOM      9  C   UNK d   0     -28.359   1.536  13.252  0.00  0.00     0.067 A 
ATOM     10  C   UNK d   0     -27.294   1.743  14.143  0.00  0.00     0.062 C 
ATOM     11  N   UNK d   0     -28.406   0.337  12.635  0.00  0.00    -0.248 NA
ATOM     12  C   UNK d   0     -26.430   0.776  14.669  0.00  0.00     0.041 A 
ATOM     13  N   UNK d   0     -25.815  -0.272  14.090  0.00  0.00    -0.355 N 
ATOM     14  C   UNK d   0     -26.143   0.797  16.046  0.00  0.00    -0.022 A 
ATOM     15  C   UNK d   0     -25.151  -0.921  15.065  0.00  0.00     0.042 A 
ATOM     16  H   UNK d   0     -25.833  -0.537  13.010  0.00  0.00     0.166 HD
ATOM     17  C   UNK d   0     -24.346  -2.076  15.010  0.00  0.00     0.062 C 
ATOM     18  C   UNK d   0     -25.333  -0.280  16.306  0.00  0.00    -0.013 A 
ATOM     19  C   UNK d   0     -24.580  -3.260  14.357  0.00  0.00     0.067 A 
ATOM     20  N   UNK d   0     -25.599  -3.283  13.494  0.00  0.00    -0.248 NA
ATOM     21  C   UNK d   0     -23.991  -4.588  14.359  0.00  0.00    -0.011 A 
ATOM     22  C   UNK d   0     -25.720  -4.530  12.932  0.00  0.00     0.066 A 
ATOM     23  C   UNK d   0     -26.720  -4.686  11.984  0.00  0.00     0.062 C 
ATOM     24  C   UNK d   0     -24.665  -5.328  13.526  0.00  0.00    -0.020 A 
ATOM     25  C   UNK d   0     -27.569  -3.699  11.460  0.00  0.00     0.041 A 
ATOM     26  N   UNK d   0     -28.193  -2.666  12.038  0.00  0.00    -0.355 N 
ATOM     27  C   UNK d   0     -27.853  -3.718  10.077  0.00  0.00    -0.022 A 
ATOM     28  C   UNK d   0     -28.863  -2.022  11.070  0.00  0.00     0.042 A 
ATOM     29  H   UNK d   0     -28.183  -2.407  13.126  0.00  0.00     0.166 HD
ATOM     30  C   UNK d   0     -29.675  -0.877  11.112  0.00  0.00     0.062 C 
ATOM     31  C   UNK d   0     -28.671  -2.660   9.821  0.00  0.00    -0.013 A 
ATOM     32  C   UNK d   0     -29.476   0.284  11.841  0.00  0.00     0.066 A 
BRANCH   8  33
ATOM     33  C   UNK d   0     -29.835   3.677  13.212  0.00  0.00     0.151 C 
BRANCH  33  34
ATOM     34  C   UNK d   0     -30.428   3.738  14.560  0.00  0.00     0.143 C 
ATOM     35  O   UNK d   0     -31.622   3.461  14.743  0.00  0.00    -0.650 OA
BRANCH  34  36
ATOM     36  O   UNK d   0     -29.644   4.109  15.627  0.00  0.00    -0.776 OA
ATOM     37  H   UNK d   0     -29.858   3.793  16.583  0.00  0.00     0.167 HD
ENDBRANCH  34  36
ENDBRANCH  33  34
ENDBRANCH   8  33
BRANCH  31  38
ATOM     38  C   UNK d   0     -29.226  -2.269   8.472  0.00  0.00     0.151 C 
BRANCH  38  39
ATOM     39  C   UNK d   0     -28.526  -1.149   7.880  0.00  0.00     0.143 C 
ATOM     40  O   UNK d   0     -29.123  -0.202   7.338  0.00  0.00    -0.650 OA
BRANCH  39  41
ATOM     41  O   UNK d   0     -27.133  -1.116   7.911  0.00  0.00    -0.776 OA
ATOM     42  H   UNK d   0     -26.644  -1.946   7.561  0.00  0.00     0.167 HD
ENDBRANCH  39  41
ENDBRANCH  38  39
ENDBRANCH  31  38
BRANCH  27  43
ATOM     43  C   UNK d   0     -27.388  -4.684   9.016  0.00  0.00     0.052 C 
BRANCH  43  44
ATOM     44  C   UNK d   0     -26.017  -4.383   8.503  0.00  0.00     0.115 C 
BRANCH  44  45
ATOM     45  C   UNK d   0     -26.082  -4.502   7.024  0.00  0.00     0.139 C 
ATOM     46  O   UNK d   0     -25.403  -5.403   6.472  0.00  0.00    -0.650 OA
BRANCH  45  47
ATOM     47  O   UNK d   0     -26.856  -3.673   6.240  0.00  0.00    -0.776 OA
ATOM     48  H   UNK d   0     -26.737  -3.597   5.217  0.00  0.00     0.167 HD
ENDBRANCH  45  47
ENDBRANCH  44  45
ENDBRANCH  43  44
ENDBRANCH  27  43
BRANCH  24  49
ATOM     49  C   UNK d   0     -24.384  -6.735  13.191  0.00  0.00     0.052 C 
BRANCH  49  50
ATOM     50  C   UNK d   0     -25.183  -7.156  11.984  0.00  0.00     0.115 C 
BRANCH  50  51
ATOM     51  C   UNK d   0     -25.842  -8.454  12.043  0.00  0.00     0.139 C 
ATOM     52  O   UNK d   0     -26.436  -8.865  13.067  0.00  0.00    -0.650 OA
BRANCH  51  53
ATOM     53  O   UNK d   0     -25.820  -9.285  10.933  0.00  0.00    -0.776 OA
ATOM     54  H   UNK d   0     -25.323  -8.975  10.117  0.00  0.00     0.167 HD
ENDBRANCH  51  53
ENDBRANCH  50  51
ENDBRANCH  49  50
ENDBRANCH  24  49
BRANCH  21  55
ATOM     55  C   UNK d   0     -22.813  -4.978  15.189  0.00  0.00     0.151 C 
BRANCH  55  56
ATOM     56  C   UNK d   0     -21.550  -4.860  14.444  0.00  0.00     0.143 C 
ATOM     57  O   UNK d   0     -20.729  -5.794  14.355  0.00  0.00    -0.650 OA
BRANCH  56  58
ATOM     58  O   UNK d   0     -21.277  -3.645  13.818  0.00  0.00    -0.776 OA
ATOM     59  H   UNK d   0     -20.340  -3.580  13.382  0.00  0.00     0.167 HD
ENDBRANCH  56  58
ENDBRANCH  55  56
ENDBRANCH  21  55
BRANCH  18  60
ATOM     60  C   UNK d   0     -24.790  -0.646  17.665  0.00  0.00     0.151 C 
BRANCH  60  61
ATOM     61  C   UNK d   0     -25.677  -1.698  18.185  0.00  0.00     0.143 C 
ATOM     62  O   UNK d   0     -26.903  -1.651  18.288  0.00  0.00    -0.650 OA
BRANCH  61  63
ATOM     63  O   UNK d   0     -25.024  -2.882  18.605  0.00  0.00    -0.776 OA
ATOM     64  H   UNK d   0     -24.466  -3.421  17.967  0.00  0.00     0.167 HD
ENDBRANCH  61  63
ENDBRANCH  60  61
ENDBRANCH  18  60
BRANCH  14  65
ATOM     65  C   UNK d   0     -26.492   1.803  17.106  0.00  0.00     0.052 C 
BRANCH  65  66
ATOM     66  C   UNK d   0     -25.824   3.117  16.903  0.00  0.00     0.115 C 
BRANCH  66  67
ATOM     67  C   UNK d   0     -24.412   3.240  17.135  0.00  0.00     0.139 C 
ATOM     68  O   UNK d   0     -23.720   3.969  16.333  0.00  0.00    -0.650 OA
BRANCH  67  69
ATOM     69  O   UNK d   0     -23.660   2.653  18.152  0.00  0.00    -0.776 OA
ATOM     70  H   UNK d   0     -22.779   3.131  18.390  0.00  0.00     0.167 HD
ENDBRANCH  67  69
ENDBRANCH  66  67
ENDBRANCH  65  66
ENDBRANCH  14  65
ENDBRANCH   6   7
ENDBRANCH   5   6
ENDBRANCH   2   5
TORSDOF 28
ENDMDL
MODEL 19
REMARK VINA RESULT:      -7.2      2.089      8.443
REMARK  28 active torsions:
REMARK  status: ('A' for Active; 'I' for Inactive)
REMARK    1  A    between atoms: C_2  and  O_3 
REMARK    2  A    between atoms: C_2  and  C_4 
REMARK    3  A    between atoms: C_4  and  C_5 
REMARK    4  A    between atoms: C_5  and  C_6 
REMARK    5  A    between atoms: C_7  and  C_8 
REMARK    6  A    between atoms: C_8  and  C_9 
REMARK    7  A    between atoms: C_9  and  O_11 
REMARK    8  A    between atoms: C_28  and  C_29 
REMARK    9  A    between atoms: C_29  and  C_30 
REMARK   10  A    between atoms: C_30  and  O_32 
REMARK   11  A    between atoms: C_33  and  C_34 
REMARK   12  A    between atoms: C_34  and  C_35 
REMARK   13  A    between atoms: C_35  and  C_36 
REMARK   14  A    between atoms: C_36  and  O_38 
REMARK   15  A    between atoms: C_39  and  C_40 
REMARK   16  A    between atoms: C_40  and  C_41 
REMARK   17  A    between atoms: C_41  and  C_42 
REMARK   18  A    between atoms: C_42  and  O_44 
REMARK   19  A    between atoms: C_45  and  C_46 
REMARK   20  A    between atoms: C_46  and  C_47 
REMARK   21  A    between atoms: C_47  and  O_49 
REMARK   22  A    between atoms: C_50  and  C_51 
REMARK   23  A    between atoms: C_51  and  C_52 
REMARK   24  A    between atoms: C_52  and  O_54 
REMARK   25  A    between atoms: C_55  and  C_56 
REMARK   26  A    between atoms: C_56  and  C_57 
REMARK   27  A    between atoms: C_57  and  C_58 
REMARK   28  A    between atoms: C_58  and  O_60 
ROOT
ATOM      1  O   UNK d   0     -25.623  -0.599   2.497  0.00  0.00    -0.650 OA
ATOM      2  C   UNK d   0     -25.403   0.223   3.414  0.00  0.00     0.139 C 
ENDROOT
BRANCH   2   3
ATOM      3  O   UNK d   0     -24.360   1.109   3.290  0.00  0.00    -0.776 OA
ATOM      4  H   UNK d   0     -23.928   1.291   2.382  0.00  0.00     0.167 HD
ENDBRANCH   2   3
BRANCH   2   5
ATOM      5  C   UNK d   0     -26.267   0.237   4.629  0.00  0.00     0.115 C 
BRANCH   5   6
ATOM      6  C   UNK d   0     -25.427   0.057   5.864  0.00  0.00     0.052 C 
BRANCH   6   7
ATOM      7  C   UNK d   0     -25.974  -1.002   6.790  0.00  0.00    -0.020 A 
ATOM      8  C   UNK d   0     -25.992  -2.297   6.600  0.00  0.00    -0.011 A 
ATOM      9  C   UNK d   0     -26.625  -2.908   7.757  0.00  0.00     0.067 A 
ATOM     10  C   UNK d   0     -26.925  -4.214   8.175  0.00  0.00     0.062 C 
ATOM     11  N   UNK d   0     -26.966  -1.911   8.600  0.00  0.00    -0.248 NA
ATOM     12  C   UNK d   0     -27.291  -4.629   9.459  0.00  0.00     0.041 A 
ATOM     13  N   UNK d   0     -28.135  -4.088  10.359  0.00  0.00    -0.355 N 
ATOM     14  C   UNK d   0     -26.679  -5.772  10.006  0.00  0.00    -0.022 A 
ATOM     15  C   UNK d   0     -28.068  -4.854  11.465  0.00  0.00     0.042 A 
ATOM     16  H   UNK d   0     -28.779  -3.194  10.208  0.00  0.00     0.166 HD
ATOM     17  C   UNK d   0     -28.742  -4.740  12.697  0.00  0.00     0.062 C 
ATOM     18  C   UNK d   0     -27.166  -5.919  11.281  0.00  0.00    -0.013 A 
ATOM     19  C   UNK d   0     -28.957  -3.622  13.462  0.00  0.00     0.067 A 
ATOM     20  N   UNK d   0     -28.675  -2.442  12.902  0.00  0.00    -0.248 NA
ATOM     21  C   UNK d   0     -29.426  -3.354  14.811  0.00  0.00    -0.011 A 
ATOM     22  C   UNK d   0     -28.925  -1.423  13.788  0.00  0.00     0.066 A 
ATOM     23  C   UNK d   0     -28.710  -0.134  13.321  0.00  0.00     0.062 C 
ATOM     24  C   UNK d   0     -29.400  -2.065  14.997  0.00  0.00    -0.020 A 
ATOM     25  C   UNK d   0     -28.354   0.262  12.023  0.00  0.00     0.041 A 
ATOM     26  N   UNK d   0     -27.504  -0.267  11.134  0.00  0.00    -0.355 N 
ATOM     27  C   UNK d   0     -28.972   1.407  11.473  0.00  0.00    -0.022 A 
ATOM     28  C   UNK d   0     -27.563   0.500  10.034  0.00  0.00     0.042 A 
ATOM     29  H   UNK d   0     -26.850  -1.159  11.291  0.00  0.00     0.166 HD
ATOM     30  C   UNK d   0     -26.891   0.403   8.805  0.00  0.00     0.062 C 
ATOM     31  C   UNK d   0     -28.477   1.564  10.215  0.00  0.00    -0.013 A 
ATOM     32  C   UNK d   0     -26.602  -0.740   8.077  0.00  0.00     0.066 A 
BRANCH   8  33
ATOM     33  C   UNK d   0     -25.475  -3.026   5.427  0.00  0.00     0.151 C 
BRANCH  33  34
ATOM     34  C   UNK d   0     -24.173  -3.668   5.684  0.00  0.00     0.143 C 
ATOM     35  O   UNK d   0     -23.403  -3.224   6.548  0.00  0.00    -0.650 OA
BRANCH  34  36
ATOM     36  O   UNK d   0     -23.810  -4.775   4.951  0.00  0.00    -0.776 OA
ATOM     37  H   UNK d   0     -23.523  -5.650   5.411  0.00  0.00     0.167 HD
ENDBRANCH  34  36
ENDBRANCH  33  34
ENDBRANCH   8  33
BRANCH  31  38
ATOM     38  C   UNK d   0     -28.859   2.651   9.237  0.00  0.00     0.151 C 
BRANCH  38  39
ATOM     39  C   UNK d   0     -30.256   2.605   8.863  0.00  0.00     0.143 C 
ATOM     40  O   UNK d   0     -31.028   3.560   9.056  0.00  0.00    -0.650 OA
BRANCH  39  41
ATOM     41  O   UNK d   0     -30.769   1.454   8.264  0.00  0.00    -0.776 OA
ATOM     42  H   UNK d   0     -30.417   0.557   8.612  0.00  0.00     0.167 HD
ENDBRANCH  39  41
ENDBRANCH  38  39
ENDBRANCH  31  38
BRANCH  27  43
ATOM     43  C   UNK d   0     -29.989   2.335  12.089  0.00  0.00     0.052 C 
BRANCH  43  44
ATOM     44  C   UNK d   0     -29.396   3.608  12.598  0.00  0.00     0.115 C 
BRANCH  44  45
ATOM     45  C   UNK d   0     -29.033   3.369  14.019  0.00  0.00     0.139 C 
ATOM     46  O   UNK d   0     -27.833   3.523  14.357  0.00  0.00    -0.650 OA
BRANCH  45  47
ATOM     47  O   UNK d   0     -29.954   2.993  14.973  0.00  0.00    -0.776 OA
ATOM     48  H   UNK d   0     -30.177   2.006  15.178  0.00  0.00     0.167 HD
ENDBRANCH  45  47
ENDBRANCH  44  45
ENDBRANCH  43  44
ENDBRANCH  27  43
BRANCH  24  49
ATOM     49  C   UNK d   0     -29.830  -1.355  16.214  0.00  0.00     0.052 C 
BRANCH  49  50
ATOM     50  C   UNK d   0     -28.667  -0.624  16.833  0.00  0.00     0.115 C 
BRANCH  50  51
ATOM     51  C   UNK d   0     -27.641  -1.433  17.478  0.00  0.00     0.139 C 
ATOM     52  O   UNK d   0     -27.729  -1.811  18.670  0.00  0.00    -0.650 OA
BRANCH  51  53
ATOM     53  O   UNK d   0     -26.514  -1.808  16.764  0.00  0.00    -0.776 OA
ATOM     54  H   UNK d   0     -26.413  -2.775  16.508  0.00  0.00     0.167 HD
ENDBRANCH  51  53
ENDBRANCH  50  51
ENDBRANCH  49  50
ENDBRANCH  24  49
BRANCH  21  55
ATOM     55  C   UNK d   0     -29.854  -4.413  15.772  0.00  0.00     0.151 C 
BRANCH  55  56
ATOM     56  C   UNK d   0     -31.316  -4.576  15.798  0.00  0.00     0.143 C 
ATOM     57  O   UNK d   0     -31.927  -5.312  14.999  0.00  0.00    -0.650 OA
BRANCH  56  58
ATOM     58  O   UNK d   0     -32.031  -3.869  16.763  0.00  0.00    -0.776 OA
ATOM     59  H   UNK d   0     -32.669  -4.445  17.342  0.00  0.00     0.167 HD
ENDBRANCH  56  58
ENDBRANCH  55  56
ENDBRANCH  21  55
BRANCH  18  60
ATOM     60  C   UNK d   0     -26.769  -7.018  12.236  0.00  0.00     0.151 C 
BRANCH  60  61
ATOM     61  C   UNK d   0     -25.517  -6.571  12.867  0.00  0.00     0.143 C 
ATOM     62  O   UNK d   0     -25.333  -5.528  13.494  0.00  0.00    -0.650 OA
BRANCH  61  63
ATOM     63  O   UNK d   0     -24.421  -7.456  12.723  0.00  0.00    -0.776 OA
ATOM     64  H   UNK d   0     -23.571  -7.160  12.276  0.00  0.00     0.167 HD
ENDBRANCH  61  63
ENDBRANCH  60  61
ENDBRANCH  18  60
BRANCH  14  65
ATOM     65  C   UNK d   0     -25.755  -6.781   9.385  0.00  0.00     0.052 C 
BRANCH  65  66
ATOM     66  C   UNK d   0     -24.377  -6.259   9.181  0.00  0.00     0.115 C 
BRANCH  66  67
ATOM     67  C   UNK d   0     -23.597  -6.723   8.069  0.00  0.00     0.139 C 
ATOM     68  O   UNK d   0     -23.794  -7.919   7.639  0.00  0.00    -0.650 OA
BRANCH  67  69
ATOM     69  O   UNK d   0     -22.616  -6.027   7.364  0.00  0.00    -0.776 OA
ATOM     70  H   UNK d   0     -22.837  -5.046   7.140  0.00  0.00     0.167 HD
ENDBRANCH  67  69
ENDBRANCH  66  67
ENDBRANCH  65  66
ENDBRANCH  14  65
ENDBRANCH   6   7
ENDBRANCH   5   6
ENDBRANCH   2   5
TORSDOF 28
ENDMDL
MODEL 20
REMARK VINA RESULT:      -7.2      2.484      3.140
REMARK  28 active torsions:
REMARK  status: ('A' for Active; 'I' for Inactive)
REMARK    1  A    between atoms: C_2  and  O_3 
REMARK    2  A    between atoms: C_2  and  C_4 
REMARK    3  A    between atoms: C_4  and  C_5 
REMARK    4  A    between atoms: C_5  and  C_6 
REMARK    5  A    between atoms: C_7  and  C_8 
REMARK    6  A    between atoms: C_8  and  C_9 
REMARK    7  A    between atoms: C_9  and  O_11 
REMARK    8  A    between atoms: C_28  and  C_29 
REMARK    9  A    between atoms: C_29  and  C_30 
REMARK   10  A    between atoms: C_30  and  O_32 
REMARK   11  A    between atoms: C_33  and  C_34 
REMARK   12  A    between atoms: C_34  and  C_35 
REMARK   13  A    between atoms: C_35  and  C_36 
REMARK   14  A    between atoms: C_36  and  O_38 
REMARK   15  A    between atoms: C_39  and  C_40 
REMARK   16  A    between atoms: C_40  and  C_41 
REMARK   17  A    between atoms: C_41  and  C_42 
REMARK   18  A    between atoms: C_42  and  O_44 
REMARK   19  A    between atoms: C_45  and  C_46 
REMARK   20  A    between atoms: C_46  and  C_47 
REMARK   21  A    between atoms: C_47  and  O_49 
REMARK   22  A    between atoms: C_50  and  C_51 
REMARK   23  A    between atoms: C_51  and  C_52 
REMARK   24  A    between atoms: C_52  and  O_54 
REMARK   25  A    between atoms: C_55  and  C_56 
REMARK   26  A    between atoms: C_56  and  C_57 
REMARK   27  A    between atoms: C_57  and  C_58 
REMARK   28  A    between atoms: C_58  and  O_60 
ROOT
ATOM      1  O   UNK d   0     -31.471  -2.127  14.515  0.00  0.00    -0.650 OA
ATOM      2  C   UNK d   0     -31.385  -1.049  15.145  0.00  0.00     0.139 C 
ENDROOT
BRANCH   2   3
ATOM      3  O   UNK d   0     -31.484  -1.061  16.515  0.00  0.00    -0.776 OA
ATOM      4  H   UNK d   0     -31.876  -1.866  17.009  0.00  0.00     0.167 HD
ENDBRANCH   2   3
BRANCH   2   5
ATOM      5  C   UNK d   0     -31.179   0.232  14.412  0.00  0.00     0.115 C 
BRANCH   5   6
ATOM      6  C   UNK d   0     -29.821   0.796  14.728  0.00  0.00     0.052 C 
BRANCH   6   7
ATOM      7  C   UNK d   0     -28.698  -0.053  14.181  0.00  0.00    -0.020 A 
ATOM      8  C   UNK d   0     -27.694  -0.570  14.842  0.00  0.00    -0.011 A 
ATOM      9  C   UNK d   0     -26.866  -1.299  13.895  0.00  0.00     0.067 A 
ATOM     10  C   UNK d   0     -25.696  -2.070  13.959  0.00  0.00     0.062 C 
ATOM     11  N   UNK d   0     -27.438  -1.168  12.680  0.00  0.00    -0.248 NA
ATOM     12  C   UNK d   0     -25.195  -2.932  12.977  0.00  0.00     0.041 A 
ATOM     13  N   UNK d   0     -25.097  -2.792  11.641  0.00  0.00    -0.355 N 
ATOM     14  C   UNK d   0     -24.744  -4.209  13.357  0.00  0.00    -0.022 A 
ATOM     15  C   UNK d   0     -24.603  -3.950  11.164  0.00  0.00     0.042 A 
ATOM     16  H   UNK d   0     -25.353  -1.886  11.049  0.00  0.00     0.166 HD
ATOM     17  C   UNK d   0     -24.303  -4.340   9.843  0.00  0.00     0.062 C 
ATOM     18  C   UNK d   0     -24.369  -4.863  12.210  0.00  0.00    -0.013 A 
ATOM     19  C   UNK d   0     -25.045  -4.166   8.703  0.00  0.00     0.067 A 
ATOM     20  N   UNK d   0     -26.102  -3.354   8.788  0.00  0.00    -0.248 NA
ATOM     21  C   UNK d   0     -25.001  -4.669   7.340  0.00  0.00    -0.011 A 
ATOM     22  C   UNK d   0     -26.752  -3.291   7.580  0.00  0.00     0.066 A 
ATOM     23  C   UNK d   0     -27.852  -2.448   7.515  0.00  0.00     0.062 C 
ATOM     24  C   UNK d   0     -26.004  -4.157   6.689  0.00  0.00    -0.020 A 
ATOM     25  C   UNK d   0     -28.331  -1.581   8.509  0.00  0.00     0.041 A 
ATOM     26  N   UNK d   0     -28.443  -1.726   9.835  0.00  0.00    -0.355 N 
ATOM     27  C   UNK d   0     -28.780  -0.298   8.127  0.00  0.00    -0.022 A 
ATOM     28  C   UNK d   0     -28.944  -0.575  10.312  0.00  0.00     0.042 A 
ATOM     29  H   UNK d   0     -28.195  -2.641  10.427  0.00  0.00     0.166 HD
ATOM     30  C   UNK d   0     -29.255  -0.177  11.622  0.00  0.00     0.062 C 
ATOM     31  C   UNK d   0     -29.168   0.345   9.261  0.00  0.00    -0.013 A 
ATOM     32  C   UNK d   0     -28.544  -0.429  12.784  0.00  0.00     0.066 A 
BRANCH   8  33
ATOM     33  C   UNK d   0     -27.427  -0.444  16.287  0.00  0.00     0.151 C 
BRANCH  33  34
ATOM     34  C   UNK d   0     -27.955  -1.578  17.066  0.00  0.00     0.143 C 
ATOM     35  O   UNK d   0     -27.587  -1.775  18.233  0.00  0.00    -0.650 OA
BRANCH  34  36
ATOM     36  O   UNK d   0     -28.867  -2.429  16.486  0.00  0.00    -0.776 OA
ATOM     37  H   UNK d   0     -29.843  -2.143  16.333  0.00  0.00     0.167 HD
ENDBRANCH  34  36
ENDBRANCH  33  34
ENDBRANCH   8  33
BRANCH  31  38
ATOM     38  C   UNK d   0     -29.708   1.754   9.347  0.00  0.00     0.151 C 
BRANCH  38  39
ATOM     39  C   UNK d   0     -31.146   1.815   9.193  0.00  0.00     0.143 C 
ATOM     40  O   UNK d   0     -31.886   0.855   9.473  0.00  0.00    -0.650 OA
BRANCH  39  41
ATOM     41  O   UNK d   0     -31.736   2.985   8.716  0.00  0.00    -0.776 OA
ATOM     42  H   UNK d   0     -32.636   3.249   9.129  0.00  0.00     0.167 HD
ENDBRANCH  39  41
ENDBRANCH  38  39
ENDBRANCH  31  38
BRANCH  27  43
ATOM     43  C   UNK d   0     -28.852   0.322   6.753  0.00  0.00     0.052 C 
BRANCH  43  44
ATOM     44  C   UNK d   0     -27.639   1.121   6.402  0.00  0.00     0.115 C 
BRANCH  44  45
ATOM     45  C   UNK d   0     -26.731   0.209   5.659  0.00  0.00     0.139 C 
ATOM     46  O   UNK d   0     -27.082  -0.174   4.515  0.00  0.00    -0.650 OA
BRANCH  45  47
ATOM     47  O   UNK d   0     -25.526  -0.224   6.169  0.00  0.00    -0.776 OA
ATOM     48  H   UNK d   0     -25.431  -0.632   7.113  0.00  0.00     0.167 HD
ENDBRANCH  45  47
ENDBRANCH  44  45
ENDBRANCH  43  44
ENDBRANCH  27  43
BRANCH  24  49
ATOM     49  C   UNK d   0     -26.316  -4.370   5.265  0.00  0.00     0.052 C 
BRANCH  49  50
ATOM     50  C   UNK d   0     -25.647  -3.317   4.419  0.00  0.00     0.115 C 
BRANCH  50  51
ATOM     51  C   UNK d   0     -25.180  -3.722   3.100  0.00  0.00     0.139 C 
ATOM     52  O   UNK d   0     -23.999  -3.547   2.718  0.00  0.00    -0.650 OA
BRANCH  51  53
ATOM     53  O   UNK d   0     -26.061  -4.326   2.216  0.00  0.00    -0.776 OA
ATOM     54  H   UNK d   0     -25.687  -4.733   1.376  0.00  0.00     0.167 HD
ENDBRANCH  51  53
ENDBRANCH  50  51
ENDBRANCH  49  50
ENDBRANCH  24  49
BRANCH  21  55
ATOM     55  C   UNK d   0     -23.957  -5.607   6.830  0.00  0.00     0.151 C 
BRANCH  55  56
ATOM     56  C   UNK d   0     -22.890  -4.901   6.103  0.00  0.00     0.143 C 
ATOM     57  O   UNK d   0     -22.299  -5.397   5.124  0.00  0.00    -0.650 OA
BRANCH  56  58
ATOM     58  O   UNK d   0     -22.540  -3.625   6.541  0.00  0.00    -0.776 OA
ATOM     59  H   UNK d   0     -21.569  -3.340   6.320  0.00  0.00     0.167 HD
ENDBRANCH  56  58
ENDBRANCH  55  56
ENDBRANCH  21  55
BRANCH  18  60
ATOM     60  C   UNK d   0     -23.830  -6.271  12.155  0.00  0.00     0.151 C 
BRANCH  60  61
ATOM     61  C   UNK d   0     -24.992  -7.140  11.916  0.00  0.00     0.143 C 
ATOM     62  O   UNK d   0     -25.868  -7.448  12.725  0.00  0.00    -0.650 OA
BRANCH  61  63
ATOM     63  O   UNK d   0     -25.092  -7.665  10.605  0.00  0.00    -0.776 OA
ATOM     64  H   UNK d   0     -25.765  -7.304   9.952  0.00  0.00     0.167 HD
ENDBRANCH  61  63
ENDBRANCH  60  61
ENDBRANCH  18  60
BRANCH  14  65
ATOM     65  C   UNK d   0     -24.550  -4.815  14.718  0.00  0.00     0.052 C 
BRANCH  65  66
ATOM     66  C   UNK d   0     -23.329  -4.319  15.408  0.00  0.00     0.115 C 
BRANCH  66  67
ATOM     67  C   UNK d   0     -22.047  -4.463  14.778  0.00  0.00     0.139 C 
ATOM     68  O   UNK d   0     -21.368  -5.531  15.005  0.00  0.00    -0.650 OA
BRANCH  67  69
ATOM     69  O   UNK d   0     -21.413  -3.567  13.918  0.00  0.00    -0.776 OA
ATOM     70  H   UNK d   0     -21.207  -3.922  12.973  0.00  0.00     0.167 HD
ENDBRANCH  67  69
ENDBRANCH  66  67
ENDBRANCH  65  66
ENDBRANCH  14  65
ENDBRANCH   6   7
ENDBRANCH   5   6
ENDBRANCH   2   5
TORSDOF 28
ENDMDL
