MODEL 1
REMARK VINA RESULT:      -9.9      0.000      0.000
REMARK  16 active torsions:
REMARK  status: ('A' for Active; 'I' for Inactive)
REMARK    1  A    between atoms: C_6  and  C_7 
REMARK    2  A    between atoms: C_7  and  C_8 
REMARK    3  A    between atoms: C_8  and  C_9 
REMARK    4  A    between atoms: C_9  and  O_11 
REMARK    5  A    between atoms: C_16  and  C_17 
REMARK    6  A    between atoms: C_17  and  C_18 
REMARK    7  A    between atoms: C_18  and  C_19 
REMARK    8  A    between atoms: C_19  and  O_21 
REMARK    9  A    between atoms: C_28  and  C_29 
REMARK   10  A    between atoms: C_29  and  C_30 
REMARK   11  A    between atoms: C_30  and  C_31 
REMARK   12  A    between atoms: C_31  and  O_33 
REMARK   13  A    between atoms: C_42  and  C_43 
REMARK   14  A    between atoms: C_43  and  C_44 
REMARK   15  A    between atoms: C_44  and  C_45 
REMARK   16  A    between atoms: C_45  and  O_47 
ROOT
HETATM    1  C   UNK     0     -28.153  -1.226  10.868  0.00  0.00     0.051 C 
HETATM    2  C   UNK     0     -27.492  -0.968   9.529  0.00  0.00    -0.031 A 
HETATM    3  C   UNK     0     -26.238  -1.349   9.080  0.00  0.00     0.021 A 
HETATM    4  N   UNK     0     -26.055  -0.872   7.826  0.00  0.00    -0.361 N 
HETATM    5  C   UNK     0     -27.168  -0.202   7.463  0.00  0.00     0.022 A 
HETATM    6  C   UNK     0     -28.087  -0.240   8.507  0.00  0.00    -0.027 A 
HETATM    7  C   UNK     0     -27.514   0.432   6.152  0.00  0.00     0.115 C 
HETATM    8  C   UNK     0     -27.162  -0.354   4.901  0.00  0.00     0.021 A 
HETATM    9  N   UNK     0     -27.196  -1.682   4.711  0.00  0.00    -0.361 N 
HETATM   10  C   UNK     0     -26.712  -1.941   3.478  0.00  0.00     0.022 A 
HETATM   11  C   UNK     0     -26.365  -0.747   2.853  0.00  0.00    -0.027 A 
HETATM   12  C   UNK     0     -26.646   0.257   3.745  0.00  0.00    -0.031 A 
HETATM   13  C   UNK     0     -26.433   1.733   3.494  0.00  0.00     0.051 C 
HETATM   14  C   UNK     0     -26.508  -3.323   2.862  0.00  0.00     0.115 C 
HETATM   15  C   UNK     0     -25.537  -4.203   3.632  0.00  0.00     0.021 A 
HETATM   16  N   UNK     0     -25.625  -4.595   4.917  0.00  0.00    -0.361 N 
HETATM   17  C   UNK     0     -24.538  -5.302   5.236  0.00  0.00     0.022 A 
HETATM   18  C   UNK     0     -23.707  -5.383   4.101  0.00  0.00    -0.027 A 
HETATM   19  C   UNK     0     -24.344  -4.692   3.103  0.00  0.00    -0.031 A 
HETATM   20  C   UNK     0     -23.805  -4.560   1.691  0.00  0.00     0.051 C 
HETATM   21  C   UNK     0     -24.122  -5.900   6.560  0.00  0.00     0.115 C 
HETATM   22  C   UNK     0     -24.504  -5.151   7.815  0.00  0.00     0.022 A 
HETATM   23  N   UNK     0     -24.484  -3.829   8.031  0.00  0.00    -0.361 N 
HETATM   24  C   UNK     0     -25.043  -3.588   9.234  0.00  0.00     0.021 A 
HETATM   25  C   UNK     0     -25.423  -4.785   9.811  0.00  0.00    -0.031 A 
HETATM   26  C   UNK     0     -26.052  -5.032  11.167  0.00  0.00     0.051 C 
HETATM   27  C   UNK     0     -25.088  -5.800   8.922  0.00  0.00    -0.027 A 
HETATM   28  C   UNK     0     -25.326  -2.240   9.875  0.00  0.00     0.115 C 
HETATM   29  H   UNK     0     -25.125  -0.978   7.221  0.00  0.00     0.165 HD
HETATM   30  H   UNK     0     -27.608  -2.436   5.426  0.00  0.00     0.165 HD
HETATM   31  H   UNK     0     -26.494  -4.409   5.601  0.00  0.00     0.165 HD
HETATM   32  H   UNK     0     -24.035  -3.057   7.355  0.00  0.00     0.165 HD
ENDROOT
BRANCH   6  33
HETATM   33  C   UNK     0     -29.468   0.357   8.606  0.00  0.00     0.051 C 
BRANCH  33  34
HETATM   34  C   UNK     0     -30.389  -0.252   7.576  0.00  0.00     0.114 C 
BRANCH  34  35
HETATM   35  C   UNK     0     -30.273  -1.734   7.692  0.00  0.00     0.139 C 
HETATM   36  O   UNK     0     -29.679  -2.399   6.794  0.00  0.00    -0.650 OA
BRANCH  35  37
HETATM   37  O   UNK     0     -30.794  -2.444   8.767  0.00  0.00    -0.776 OA
HETATM   38  H   UNK     0     -31.411  -2.019   9.440  0.00  0.00     0.167 HD
ENDBRANCH  35  37
ENDBRANCH  34  35
ENDBRANCH  33  34
ENDBRANCH   6  33
BRANCH  27  39
HETATM   39  C   UNK     0     -25.282  -7.243   9.229  0.00  0.00     0.051 C 
BRANCH  39  40
HETATM   40  C   UNK     0     -26.648  -7.741   9.389  0.00  0.00     0.114 C 
BRANCH  40  41
HETATM   41  C   UNK     0     -27.323  -8.488   8.352  0.00  0.00     0.139 C 
HETATM   42  O   UNK     0     -26.731  -9.178   7.511  0.00  0.00    -0.650 OA
BRANCH  41  43
HETATM   43  O   UNK     0     -28.744  -8.438   8.278  0.00  0.00    -0.776 OA
HETATM   44  H   UNK     0     -29.156  -7.607   8.685  0.00  0.00     0.167 HD
ENDBRANCH  41  43
ENDBRANCH  40  41
ENDBRANCH  39  40
ENDBRANCH  27  39
BRANCH  11  45
HETATM   45  C   UNK     0     -25.794  -0.535   1.477  0.00  0.00     0.051 C 
BRANCH  45  46
HETATM   46  C   UNK     0     -26.681   0.231   0.565  0.00  0.00     0.114 C 
BRANCH  46  47
HETATM   47  C   UNK     0     -27.248  -0.737  -0.417  0.00  0.00     0.139 C 
HETATM   48  O   UNK     0     -26.786  -1.886  -0.450  0.00  0.00    -0.650 OA
BRANCH  47  49
HETATM   49  O   UNK     0     -28.259  -0.366  -1.267  0.00  0.00    -0.776 OA
HETATM   50  H   UNK     0     -28.080  -0.091  -2.240  0.00  0.00     0.167 HD
ENDBRANCH  47  49
ENDBRANCH  46  47
ENDBRANCH  45  46
ENDBRANCH  11  45
BRANCH  18  51
HETATM   51  C   UNK     0     -22.387  -6.098   3.969  0.00  0.00     0.051 C 
BRANCH  51  52
HETATM   52  C   UNK     0     -21.336  -5.162   4.546  0.00  0.00     0.114 C 
BRANCH  52  53
HETATM   53  C   UNK     0     -20.473  -4.590   3.495  0.00  0.00     0.139 C 
HETATM   54  O   UNK     0     -20.046  -3.430   3.604  0.00  0.00    -0.650 OA
BRANCH  53  55
HETATM   55  O   UNK     0     -20.148  -5.347   2.395  0.00  0.00    -0.776 OA
HETATM   56  H   UNK     0     -20.505  -6.249   2.181  0.00  0.00     0.167 HD
ENDBRANCH  53  55
ENDBRANCH  52  53
ENDBRANCH  51  52
ENDBRANCH  18  51
TORSDOF 16
ENDMDL
MODEL 2
REMARK VINA RESULT:      -9.8      1.940      2.443
REMARK  16 active torsions:
REMARK  status: ('A' for Active; 'I' for Inactive)
REMARK    1  A    between atoms: C_6  and  C_7 
REMARK    2  A    between atoms: C_7  and  C_8 
REMARK    3  A    between atoms: C_8  and  C_9 
REMARK    4  A    between atoms: C_9  and  O_11 
REMARK    5  A    between atoms: C_16  and  C_17 
REMARK    6  A    between atoms: C_17  and  C_18 
REMARK    7  A    between atoms: C_18  and  C_19 
REMARK    8  A    between atoms: C_19  and  O_21 
REMARK    9  A    between atoms: C_28  and  C_29 
REMARK   10  A    between atoms: C_29  and  C_30 
REMARK   11  A    between atoms: C_30  and  C_31 
REMARK   12  A    between atoms: C_31  and  O_33 
REMARK   13  A    between atoms: C_42  and  C_43 
REMARK   14  A    between atoms: C_43  and  C_44 
REMARK   15  A    between atoms: C_44  and  C_45 
REMARK   16  A    between atoms: C_45  and  O_47 
ROOT
HETATM    1  C   UNK     0     -28.265  -1.794   9.011  0.00  0.00     0.051 C 
HETATM    2  C   UNK     0     -27.521  -1.542   7.715  0.00  0.00    -0.031 A 
HETATM    3  C   UNK     0     -26.170  -1.672   7.437  0.00  0.00     0.021 A 
HETATM    4  N   UNK     0     -25.947  -1.308   6.151  0.00  0.00    -0.361 N 
HETATM    5  C   UNK     0     -27.128  -0.958   5.602  0.00  0.00     0.022 A 
HETATM    6  C   UNK     0     -28.134  -1.089   6.554  0.00  0.00    -0.027 A 
HETATM    7  C   UNK     0     -27.445  -0.571   4.191  0.00  0.00     0.115 C 
HETATM    8  C   UNK     0     -26.784  -1.389   3.096  0.00  0.00     0.021 A 
HETATM    9  N   UNK     0     -26.507  -2.702   3.085  0.00  0.00    -0.361 N 
HETATM   10  C   UNK     0     -25.834  -2.979   1.947  0.00  0.00     0.022 A 
HETATM   11  C   UNK     0     -25.683  -1.814   1.201  0.00  0.00    -0.027 A 
HETATM   12  C   UNK     0     -26.280  -0.809   1.918  0.00  0.00    -0.031 A 
HETATM   13  C   UNK     0     -26.364   0.639   1.490  0.00  0.00     0.051 C 
HETATM   14  C   UNK     0     -25.264  -4.336   1.546  0.00  0.00     0.115 C 
HETATM   15  C   UNK     0     -24.223  -4.877   2.513  0.00  0.00     0.021 A 
HETATM   16  N   UNK     0     -24.376  -5.133   3.826  0.00  0.00    -0.361 N 
HETATM   17  C   UNK     0     -23.208  -5.530   4.334  0.00  0.00     0.022 A 
HETATM   18  C   UNK     0     -22.250  -5.544   3.301  0.00  0.00    -0.027 A 
HETATM   19  C   UNK     0     -22.899  -5.134   2.165  0.00  0.00    -0.031 A 
HETATM   20  C   UNK     0     -22.237  -5.041   0.803  0.00  0.00     0.051 C 
HETATM   21  C   UNK     0     -22.832  -5.865   5.760  0.00  0.00     0.115 C 
HETATM   22  C   UNK     0     -23.514  -5.088   6.862  0.00  0.00     0.022 A 
HETATM   23  N   UNK     0     -23.807  -3.782   6.898  0.00  0.00    -0.361 N 
HETATM   24  C   UNK     0     -24.544  -3.543   8.001  0.00  0.00     0.021 A 
HETATM   25  C   UNK     0     -24.721  -4.723   8.698  0.00  0.00    -0.031 A 
HETATM   26  C   UNK     0     -25.438  -4.956  10.012  0.00  0.00     0.051 C 
HETATM   27  C   UNK     0     -24.071  -5.726   7.989  0.00  0.00    -0.027 A 
HETATM   28  C   UNK     0     -25.187  -2.234   8.425  0.00  0.00     0.115 C 
HETATM   29  H   UNK     0     -24.951  -1.264   5.653  0.00  0.00     0.165 HD
HETATM   30  H   UNK     0     -26.827  -3.446   3.855  0.00  0.00     0.165 HD
HETATM   31  H   UNK     0     -25.340  -5.077   4.396  0.00  0.00     0.165 HD
HETATM   32  H   UNK     0     -23.459  -3.007   6.166  0.00  0.00     0.165 HD
ENDROOT
BRANCH   6  33
HETATM   33  C   UNK     0     -29.613  -0.819   6.445  0.00  0.00     0.051 C 
BRANCH  33  34
HETATM   34  C   UNK     0     -29.884   0.666   6.400  0.00  0.00     0.114 C 
BRANCH  34  35
HETATM   35  C   UNK     0     -30.554   1.037   7.680  0.00  0.00     0.139 C 
HETATM   36  O   UNK     0     -29.931   1.709   8.553  0.00  0.00    -0.650 OA
BRANCH  35  37
HETATM   37  O   UNK     0     -31.863   0.676   7.972  0.00  0.00    -0.776 OA
HETATM   38  H   UNK     0     -32.530   1.335   8.341  0.00  0.00     0.167 HD
ENDBRANCH  35  37
ENDBRANCH  34  35
ENDBRANCH  33  34
ENDBRANCH   6  33
BRANCH  27  39
HETATM   39  C   UNK     0     -23.981  -7.132   8.470  0.00  0.00     0.051 C 
BRANCH  39  40
HETATM   40  C   UNK     0     -24.835  -8.137   7.837  0.00  0.00     0.114 C 
BRANCH  40  41
HETATM   41  C   UNK     0     -25.873  -8.833   8.563  0.00  0.00     0.139 C 
HETATM   42  O   UNK     0     -27.082  -8.633   8.387  0.00  0.00    -0.650 OA
BRANCH  41  43
HETATM   43  O   UNK     0     -25.503  -9.805   9.536  0.00  0.00    -0.776 OA
HETATM   44  H   UNK     0     -25.999  -9.727  10.416  0.00  0.00     0.167 HD
ENDBRANCH  41  43
ENDBRANCH  40  41
ENDBRANCH  39  40
ENDBRANCH  27  39
BRANCH  11  45
HETATM   45  C   UNK     0     -25.013  -1.632  -0.134  0.00  0.00     0.051 C 
BRANCH  45  46
HETATM   46  C   UNK     0     -23.558  -1.930  -0.128  0.00  0.00     0.114 C 
BRANCH  46  47
HETATM   47  C   UNK     0     -23.276  -2.783  -1.318  0.00  0.00     0.139 C 
HETATM   48  O   UNK     0     -24.122  -3.621  -1.659  0.00  0.00    -0.650 OA
BRANCH  47  49
HETATM   49  O   UNK     0     -22.105  -2.645  -2.020  0.00  0.00    -0.776 OA
HETATM   50  H   UNK     0     -21.296  -3.256  -1.856  0.00  0.00     0.167 HD
ENDBRANCH  47  49
ENDBRANCH  46  47
ENDBRANCH  45  46
ENDBRANCH  11  45
BRANCH  18  51
HETATM   51  C   UNK     0     -20.800  -5.946   3.388  0.00  0.00     0.051 C 
BRANCH  51  52
HETATM   52  C   UNK     0     -20.017  -4.665   3.633  0.00  0.00     0.114 C 
BRANCH  52  53
HETATM   53  C   UNK     0     -18.561  -4.907   3.653  0.00  0.00     0.139 C 
HETATM   54  O   UNK     0     -17.849  -4.489   2.726  0.00  0.00    -0.650 OA
BRANCH  53  55
HETATM   55  O   UNK     0     -18.001  -5.598   4.700  0.00  0.00    -0.776 OA
HETATM   56  H   UNK     0     -18.432  -6.331   5.212  0.00  0.00     0.167 HD
ENDBRANCH  53  55
ENDBRANCH  52  53
ENDBRANCH  51  52
ENDBRANCH  18  51
TORSDOF 16
ENDMDL
MODEL 3
REMARK VINA RESULT:      -9.8      2.489      7.744
REMARK  16 active torsions:
REMARK  status: ('A' for Active; 'I' for Inactive)
REMARK    1  A    between atoms: C_6  and  C_7 
REMARK    2  A    between atoms: C_7  and  C_8 
REMARK    3  A    between atoms: C_8  and  C_9 
REMARK    4  A    between atoms: C_9  and  O_11 
REMARK    5  A    between atoms: C_16  and  C_17 
REMARK    6  A    between atoms: C_17  and  C_18 
REMARK    7  A    between atoms: C_18  and  C_19 
REMARK    8  A    between atoms: C_19  and  O_21 
REMARK    9  A    between atoms: C_28  and  C_29 
REMARK   10  A    between atoms: C_29  and  C_30 
REMARK   11  A    between atoms: C_30  and  C_31 
REMARK   12  A    between atoms: C_31  and  O_33 
REMARK   13  A    between atoms: C_42  and  C_43 
REMARK   14  A    between atoms: C_43  and  C_44 
REMARK   15  A    between atoms: C_44  and  C_45 
REMARK   16  A    between atoms: C_45  and  O_47 
ROOT
HETATM    1  C   UNK     0     -23.461  -7.087   8.961  0.00  0.00     0.051 C 
HETATM    2  C   UNK     0     -24.287  -5.871   9.329  0.00  0.00    -0.031 A 
HETATM    3  C   UNK     0     -24.267  -4.597   8.783  0.00  0.00     0.021 A 
HETATM    4  N   UNK     0     -25.155  -3.819   9.446  0.00  0.00    -0.361 N 
HETATM    5  C   UNK     0     -25.746  -4.572  10.397  0.00  0.00     0.022 A 
HETATM    6  C   UNK     0     -25.224  -5.860  10.353  0.00  0.00    -0.027 A 
HETATM    7  C   UNK     0     -26.859  -4.220  11.335  0.00  0.00     0.115 C 
HETATM    8  C   UNK     0     -28.017  -3.429  10.752  0.00  0.00     0.021 A 
HETATM    9  N   UNK     0     -28.556  -3.515   9.526  0.00  0.00    -0.361 N 
HETATM   10  C   UNK     0     -29.501  -2.558   9.416  0.00  0.00     0.022 A 
HETATM   11  C   UNK     0     -29.580  -1.842  10.607  0.00  0.00    -0.027 A 
HETATM   12  C   UNK     0     -28.648  -2.385  11.453  0.00  0.00    -0.031 A 
HETATM   13  C   UNK     0     -28.380  -1.926  12.869  0.00  0.00     0.051 C 
HETATM   14  C   UNK     0     -30.328  -2.247   8.171  0.00  0.00     0.115 C 
HETATM   15  C   UNK     0     -29.497  -1.827   6.969  0.00  0.00     0.021 A 
HETATM   16  N   UNK     0     -28.519  -2.526   6.362  0.00  0.00    -0.361 N 
HETATM   17  C   UNK     0     -27.988  -1.781   5.390  0.00  0.00     0.022 A 
HETATM   18  C   UNK     0     -28.657  -0.542   5.356  0.00  0.00    -0.027 A 
HETATM   19  C   UNK     0     -29.601  -0.584   6.349  0.00  0.00    -0.031 A 
HETATM   20  C   UNK     0     -30.575   0.545   6.636  0.00  0.00     0.051 C 
HETATM   21  C   UNK     0     -26.825  -2.072   4.468  0.00  0.00     0.115 C 
HETATM   22  C   UNK     0     -25.686  -2.896   5.021  0.00  0.00     0.022 A 
HETATM   23  N   UNK     0     -25.132  -2.835   6.239  0.00  0.00    -0.361 N 
HETATM   24  C   UNK     0     -24.248  -3.846   6.354  0.00  0.00     0.021 A 
HETATM   25  C   UNK     0     -24.225  -4.570   5.177  0.00  0.00    -0.031 A 
HETATM   26  C   UNK     0     -23.369  -5.765   4.810  0.00  0.00     0.051 C 
HETATM   27  C   UNK     0     -25.137  -3.982   4.309  0.00  0.00    -0.027 A 
HETATM   28  C   UNK     0     -23.442  -4.241   7.579  0.00  0.00     0.115 C 
HETATM   29  H   UNK     0     -25.330  -2.734   9.264  0.00  0.00     0.165 HD
HETATM   30  H   UNK     0     -28.305  -4.283   8.754  0.00  0.00     0.165 HD
HETATM   31  H   UNK     0     -28.230  -3.584   6.592  0.00  0.00     0.165 HD
HETATM   32  H   UNK     0     -25.328  -2.049   7.015  0.00  0.00     0.165 HD
ENDROOT
BRANCH   6  33
HETATM   33  C   UNK     0     -25.543  -7.065  11.202  0.00  0.00     0.051 C 
BRANCH  33  34
HETATM   34  C   UNK     0     -26.811  -7.733  10.727  0.00  0.00     0.114 C 
BRANCH  34  35
HETATM   35  C   UNK     0     -26.426  -8.749   9.706  0.00  0.00     0.139 C 
HETATM   36  O   UNK     0     -26.851  -8.652   8.518  0.00  0.00    -0.650 OA
BRANCH  35  37
HETATM   37  O   UNK     0     -25.600  -9.828   9.997  0.00  0.00    -0.776 OA
HETATM   38  H   UNK     0     -24.607  -9.802   9.826  0.00  0.00     0.167 HD
ENDBRANCH  35  37
ENDBRANCH  34  35
ENDBRANCH  33  34
ENDBRANCH   6  33
BRANCH  27  39
HETATM   39  C   UNK     0     -25.339  -4.445   2.910  0.00  0.00     0.051 C 
BRANCH  39  40
HETATM   40  C   UNK     0     -24.682  -3.707   1.832  0.00  0.00     0.114 C 
BRANCH  40  41
HETATM   41  C   UNK     0     -25.414  -2.846   0.930  0.00  0.00     0.139 C 
HETATM   42  O   UNK     0     -26.095  -3.266  -0.015  0.00  0.00    -0.650 OA
BRANCH  41  43
HETATM   43  O   UNK     0     -25.360  -1.436   1.124  0.00  0.00    -0.776 OA
HETATM   44  H   UNK     0     -24.955  -1.150   2.007  0.00  0.00     0.167 HD
ENDBRANCH  41  43
ENDBRANCH  40  41
ENDBRANCH  39  40
ENDBRANCH  27  39
BRANCH  11  45
HETATM   45  C   UNK     0     -30.488  -0.694  10.956  0.00  0.00     0.051 C 
BRANCH  45  46
HETATM   46  C   UNK     0     -29.987   0.632  10.513  0.00  0.00     0.114 C 
BRANCH  46  47
HETATM   47  C   UNK     0     -31.175   1.447  10.127  0.00  0.00     0.139 C 
HETATM   48  O   UNK     0     -31.000   2.625   9.787  0.00  0.00    -0.650 OA
BRANCH  47  49
HETATM   49  O   UNK     0     -32.435   0.905  10.148  0.00  0.00    -0.776 OA
HETATM   50  H   UNK     0     -33.268   1.453   9.904  0.00  0.00     0.167 HD
ENDBRANCH  47  49
ENDBRANCH  46  47
ENDBRANCH  45  46
ENDBRANCH  11  45
BRANCH  18  51
HETATM   51  C   UNK     0     -28.425   0.611   4.414  0.00  0.00     0.051 C 
BRANCH  51  52
HETATM   52  C   UNK     0     -27.569   1.615   5.173  0.00  0.00     0.114 C 
BRANCH  52  53
HETATM   53  C   UNK     0     -26.131   1.423   4.907  0.00  0.00     0.139 C 
HETATM   54  O   UNK     0     -25.383   1.004   5.805  0.00  0.00    -0.650 OA
BRANCH  53  55
HETATM   55  O   UNK     0     -25.625   1.714   3.663  0.00  0.00    -0.776 OA
HETATM   56  H   UNK     0     -25.995   2.375   3.022  0.00  0.00     0.167 HD
ENDBRANCH  53  55
ENDBRANCH  52  53
ENDBRANCH  51  52
ENDBRANCH  18  51
TORSDOF 16
ENDMDL
MODEL 4
REMARK VINA RESULT:      -9.6      2.286      7.401
REMARK  16 active torsions:
REMARK  status: ('A' for Active; 'I' for Inactive)
REMARK    1  A    between atoms: C_6  and  C_7 
REMARK    2  A    between atoms: C_7  and  C_8 
REMARK    3  A    between atoms: C_8  and  C_9 
REMARK    4  A    between atoms: C_9  and  O_11 
REMARK    5  A    between atoms: C_16  and  C_17 
REMARK    6  A    between atoms: C_17  and  C_18 
REMARK    7  A    between atoms: C_18  and  C_19 
REMARK    8  A    between atoms: C_19  and  O_21 
REMARK    9  A    between atoms: C_28  and  C_29 
REMARK   10  A    between atoms: C_29  and  C_30 
REMARK   11  A    between atoms: C_30  and  C_31 
REMARK   12  A    between atoms: C_31  and  O_33 
REMARK   13  A    between atoms: C_42  and  C_43 
REMARK   14  A    between atoms: C_43  and  C_44 
REMARK   15  A    between atoms: C_44  and  C_45 
REMARK   16  A    between atoms: C_45  and  O_47 
ROOT
HETATM    1  C   UNK     0     -25.374  -1.623  -0.576  0.00  0.00     0.051 C 
HETATM    2  C   UNK     0     -25.861  -1.825   0.845  0.00  0.00    -0.031 A 
HETATM    3  C   UNK     0     -25.909  -2.985   1.602  0.00  0.00     0.021 A 
HETATM    4  N   UNK     0     -26.449  -2.700   2.811  0.00  0.00    -0.361 N 
HETATM    5  C   UNK     0     -26.738  -1.383   2.844  0.00  0.00     0.022 A 
HETATM    6  C   UNK     0     -26.386  -0.805   1.629  0.00  0.00    -0.027 A 
HETATM    7  C   UNK     0     -27.261  -0.551   3.973  0.00  0.00     0.115 C 
HETATM    8  C   UNK     0     -26.657  -0.805   5.343  0.00  0.00     0.021 A 
HETATM    9  N   UNK     0     -25.392  -1.129   5.652  0.00  0.00    -0.361 N 
HETATM   10  C   UNK     0     -25.329  -1.350   6.982  0.00  0.00     0.022 A 
HETATM   11  C   UNK     0     -26.586  -1.154   7.547  0.00  0.00    -0.027 A 
HETATM   12  C   UNK     0     -27.427  -0.811   6.520  0.00  0.00    -0.031 A 
HETATM   13  C   UNK     0     -28.900  -0.498   6.663  0.00  0.00     0.051 C 
HETATM   14  C   UNK     0     -24.099  -1.804   7.763  0.00  0.00     0.115 C 
HETATM   15  C   UNK     0     -23.555  -3.154   7.324  0.00  0.00     0.021 A 
HETATM   16  N   UNK     0     -23.126  -3.508   6.098  0.00  0.00    -0.361 N 
HETATM   17  C   UNK     0     -22.793  -4.801   6.106  0.00  0.00     0.022 A 
HETATM   18  C   UNK     0     -23.007  -5.312   7.401  0.00  0.00    -0.027 A 
HETATM   19  C   UNK     0     -23.483  -4.271   8.155  0.00  0.00    -0.031 A 
HETATM   20  C   UNK     0     -23.813  -4.380   9.633  0.00  0.00     0.051 C 
HETATM   21  C   UNK     0     -22.327  -5.691   4.976  0.00  0.00     0.115 C 
HETATM   22  C   UNK     0     -22.886  -5.421   3.599  0.00  0.00     0.022 A 
HETATM   23  N   UNK     0     -24.140  -5.093   3.262  0.00  0.00    -0.361 N 
HETATM   24  C   UNK     0     -24.163  -4.801   1.946  0.00  0.00     0.021 A 
HETATM   25  C   UNK     0     -22.894  -4.955   1.421  0.00  0.00    -0.031 A 
HETATM   26  C   UNK     0     -22.428  -4.783  -0.010  0.00  0.00     0.051 C 
HETATM   27  C   UNK     0     -22.060  -5.351   2.459  0.00  0.00    -0.027 A 
HETATM   28  C   UNK     0     -25.335  -4.290   1.127  0.00  0.00     0.115 C 
HETATM   29  H   UNK     0     -26.659  -3.440   3.618  0.00  0.00     0.165 HD
HETATM   30  H   UNK     0     -24.530  -1.153   4.942  0.00  0.00     0.165 HD
HETATM   31  H   UNK     0     -23.009  -2.820   5.221  0.00  0.00     0.165 HD
HETATM   32  H   UNK     0     -25.032  -5.106   3.942  0.00  0.00     0.165 HD
ENDROOT
BRANCH   6  33
HETATM   33  C   UNK     0     -26.510   0.623   1.161  0.00  0.00     0.051 C 
BRANCH  33  34
HETATM   34  C   UNK     0     -25.554   1.518   1.913  0.00  0.00     0.114 C 
BRANCH  34  35
HETATM   35  C   UNK     0     -26.261   2.804   2.178  0.00  0.00     0.139 C 
HETATM   36  O   UNK     0     -25.893   3.864   1.594  0.00  0.00    -0.650 OA
BRANCH  35  37
HETATM   37  O   UNK     0     -27.334   2.902   3.055  0.00  0.00    -0.776 OA
HETATM   38  H   UNK     0     -27.890   2.102   3.312  0.00  0.00     0.167 HD
ENDBRANCH  35  37
ENDBRANCH  34  35
ENDBRANCH  33  34
ENDBRANCH   6  33
BRANCH  27  39
HETATM   39  C   UNK     0     -20.623  -5.685   2.263  0.00  0.00     0.051 C 
BRANCH  39  40
HETATM   40  C   UNK     0     -20.277  -7.044   1.846  0.00  0.00     0.114 C 
BRANCH  40  41
HETATM   41  C   UNK     0     -19.289  -7.308   0.824  0.00  0.00     0.139 C 
HETATM   42  O   UNK     0     -18.201  -7.855   1.050  0.00  0.00    -0.650 OA
BRANCH  41  43
HETATM   43  O   UNK     0     -19.566  -6.927  -0.520  0.00  0.00    -0.776 OA
HETATM   44  H   UNK     0     -18.748  -6.865  -1.115  0.00  0.00     0.167 HD
ENDBRANCH  41  43
ENDBRANCH  40  41
ENDBRANCH  39  40
ENDBRANCH  27  39
BRANCH  11  45
HETATM   45  C   UNK     0     -27.000  -1.277   8.989  0.00  0.00     0.051 C 
BRANCH  45  46
HETATM   46  C   UNK     0     -27.025  -2.673   9.495  0.00  0.00     0.114 C 
BRANCH  46  47
HETATM   47  C   UNK     0     -28.270  -3.309   8.977  0.00  0.00     0.139 C 
HETATM   48  O   UNK     0     -29.362  -2.898   9.393  0.00  0.00    -0.650 OA
BRANCH  47  49
HETATM   49  O   UNK     0     -28.209  -4.329   8.061  0.00  0.00    -0.776 OA
HETATM   50  H   UNK     0     -28.705  -4.285   7.163  0.00  0.00     0.167 HD
ENDBRANCH  47  49
ENDBRANCH  46  47
ENDBRANCH  45  46
ENDBRANCH  11  45
BRANCH  18  51
HETATM   51  C   UNK     0     -22.752  -6.711   7.899  0.00  0.00     0.051 C 
BRANCH  51  52
HETATM   52  C   UNK     0     -24.117  -7.370   8.035  0.00  0.00     0.114 C 
BRANCH  52  53
HETATM   53  C   UNK     0     -24.396  -8.292   6.918  0.00  0.00     0.139 C 
HETATM   54  O   UNK     0     -23.517  -8.530   6.073  0.00  0.00    -0.650 OA
BRANCH  53  55
HETATM   55  O   UNK     0     -25.632  -8.882   6.816  0.00  0.00    -0.776 OA
HETATM   56  H   UNK     0     -26.287  -8.743   6.082  0.00  0.00     0.167 HD
ENDBRANCH  53  55
ENDBRANCH  52  53
ENDBRANCH  51  52
ENDBRANCH  18  51
TORSDOF 16
ENDMDL
MODEL 5
REMARK VINA RESULT:      -9.5      5.621      9.561
REMARK  16 active torsions:
REMARK  status: ('A' for Active; 'I' for Inactive)
REMARK    1  A    between atoms: C_6  and  C_7 
REMARK    2  A    between atoms: C_7  and  C_8 
REMARK    3  A    between atoms: C_8  and  C_9 
REMARK    4  A    between atoms: C_9  and  O_11 
REMARK    5  A    between atoms: C_16  and  C_17 
REMARK    6  A    between atoms: C_17  and  C_18 
REMARK    7  A    between atoms: C_18  and  C_19 
REMARK    8  A    between atoms: C_19  and  O_21 
REMARK    9  A    between atoms: C_28  and  C_29 
REMARK   10  A    between atoms: C_29  and  C_30 
REMARK   11  A    between atoms: C_30  and  C_31 
REMARK   12  A    between atoms: C_31  and  O_33 
REMARK   13  A    between atoms: C_42  and  C_43 
REMARK   14  A    between atoms: C_43  and  C_44 
REMARK   15  A    between atoms: C_44  and  C_45 
REMARK   16  A    between atoms: C_45  and  O_47 
ROOT
HETATM    1  C   UNK     0     -19.001  -7.229   6.581  0.00  0.00     0.051 C 
HETATM    2  C   UNK     0     -19.566  -6.422   5.430  0.00  0.00    -0.031 A 
HETATM    3  C   UNK     0     -18.908  -5.614   4.516  0.00  0.00     0.021 A 
HETATM    4  N   UNK     0     -19.818  -5.061   3.680  0.00  0.00    -0.361 N 
HETATM    5  C   UNK     0     -21.041  -5.505   4.036  0.00  0.00     0.022 A 
HETATM    6  C   UNK     0     -20.920  -6.357   5.129  0.00  0.00    -0.027 A 
HETATM    7  C   UNK     0     -22.367  -5.271   3.381  0.00  0.00     0.115 C 
HETATM    8  C   UNK     0     -22.401  -5.346   1.865  0.00  0.00     0.021 A 
HETATM    9  N   UNK     0     -21.704  -6.155   1.051  0.00  0.00    -0.361 N 
HETATM   10  C   UNK     0     -21.983  -5.809  -0.223  0.00  0.00     0.022 A 
HETATM   11  C   UNK     0     -22.892  -4.755  -0.231  0.00  0.00    -0.027 A 
HETATM   12  C   UNK     0     -23.159  -4.458   1.081  0.00  0.00    -0.031 A 
HETATM   13  C   UNK     0     -24.103  -3.377   1.558  0.00  0.00     0.051 C 
HETATM   14  C   UNK     0     -21.367  -6.420  -1.478  0.00  0.00     0.115 C 
HETATM   15  C   UNK     0     -19.858  -6.254  -1.567  0.00  0.00     0.021 A 
HETATM   16  N   UNK     0     -18.932  -6.683  -0.689  0.00  0.00    -0.361 N 
HETATM   17  C   UNK     0     -17.725  -6.279  -1.092  0.00  0.00     0.022 A 
HETATM   18  C   UNK     0     -17.871  -5.560  -2.295  0.00  0.00    -0.027 A 
HETATM   19  C   UNK     0     -19.212  -5.553  -2.582  0.00  0.00    -0.031 A 
HETATM   20  C   UNK     0     -19.806  -4.911  -3.823  0.00  0.00     0.051 C 
HETATM   21  C   UNK     0     -16.376  -6.436  -0.429  0.00  0.00     0.115 C 
HETATM   22  C   UNK     0     -16.333  -6.408   1.081  0.00  0.00     0.022 A 
HETATM   23  N   UNK     0     -17.019  -5.617   1.916  0.00  0.00    -0.361 N 
HETATM   24  C   UNK     0     -16.785  -6.030   3.178  0.00  0.00     0.021 A 
HETATM   25  C   UNK     0     -15.921  -7.107   3.156  0.00  0.00    -0.031 A 
HETATM   26  C   UNK     0     -15.336  -7.885   4.317  0.00  0.00     0.051 C 
HETATM   27  C   UNK     0     -15.617  -7.368   1.824  0.00  0.00    -0.027 A 
HETATM   28  C   UNK     0     -17.410  -5.504   4.459  0.00  0.00     0.115 C 
HETATM   29  H   UNK     0     -19.595  -4.330   2.869  0.00  0.00     0.165 HD
HETATM   30  H   UNK     0     -21.053  -7.004   1.373  0.00  0.00     0.165 HD
HETATM   31  H   UNK     0     -19.127  -7.326   0.209  0.00  0.00     0.165 HD
HETATM   32  H   UNK     0     -17.640  -4.731   1.625  0.00  0.00     0.165 HD
ENDROOT
BRANCH   6  33
HETATM   33  C   UNK     0     -21.980  -7.101   5.901  0.00  0.00     0.051 C 
BRANCH  33  34
HETATM   34  C   UNK     0     -22.615  -6.205   6.938  0.00  0.00     0.114 C 
BRANCH  34  35
HETATM   35  C   UNK     0     -24.087  -6.438   6.888  0.00  0.00     0.139 C 
HETATM   36  O   UNK     0     -24.712  -6.329   5.793  0.00  0.00    -0.650 OA
BRANCH  35  37
HETATM   37  O   UNK     0     -24.830  -6.780   8.011  0.00  0.00    -0.776 OA
HETATM   38  H   UNK     0     -25.802  -6.533   8.105  0.00  0.00     0.167 HD
ENDBRANCH  35  37
ENDBRANCH  34  35
ENDBRANCH  33  34
ENDBRANCH   6  33
BRANCH  27  39
HETATM   39  C   UNK     0     -14.652  -8.420   1.404  0.00  0.00     0.051 C 
BRANCH  39  40
HETATM   40  C   UNK     0     -15.172  -9.745   1.067  0.00  0.00     0.114 C 
BRANCH  40  41
HETATM   41  C   UNK     0     -15.068 -10.867   1.972  0.00  0.00     0.139 C 
HETATM   42  O   UNK     0     -15.902 -11.781   2.026  0.00  0.00    -0.650 OA
BRANCH  41  43
HETATM   43  O   UNK     0     -13.953 -10.942   2.854  0.00  0.00    -0.776 OA
HETATM   44  H   UNK     0     -13.174 -11.484   2.501  0.00  0.00     0.167 HD
ENDBRANCH  41  43
ENDBRANCH  40  41
ENDBRANCH  39  40
ENDBRANCH  27  39
BRANCH  11  45
HETATM   45  C   UNK     0     -23.498  -4.043  -1.411  0.00  0.00     0.051 C 
BRANCH  45  46
HETATM   46  C   UNK     0     -24.974  -4.177  -1.506  0.00  0.00     0.114 C 
BRANCH  46  47
HETATM   47  C   UNK     0     -25.273  -5.620  -1.732  0.00  0.00     0.139 C 
HETATM   48  O   UNK     0     -26.100  -6.176  -0.996  0.00  0.00    -0.650 OA
BRANCH  47  49
HETATM   49  O   UNK     0     -24.646  -6.320  -2.732  0.00  0.00    -0.776 OA
HETATM   50  H   UNK     0     -24.488  -7.333  -2.672  0.00  0.00     0.167 HD
ENDBRANCH  47  49
ENDBRANCH  46  47
ENDBRANCH  45  46
ENDBRANCH  11  45
BRANCH  18  51
HETATM   51  C   UNK     0     -16.790  -4.932  -3.136  0.00  0.00     0.051 C 
BRANCH  51  52
HETATM   52  C   UNK     0     -16.057  -6.080  -3.814  0.00  0.00     0.114 C 
BRANCH  52  53
HETATM   53  C   UNK     0     -15.062  -5.596  -4.791  0.00  0.00     0.139 C 
HETATM   54  O   UNK     0     -13.871  -5.482  -4.461  0.00  0.00    -0.650 OA
BRANCH  53  55
HETATM   55  O   UNK     0     -15.463  -5.271  -6.064  0.00  0.00    -0.776 OA
HETATM   56  H   UNK     0     -16.306  -5.559  -6.503  0.00  0.00     0.167 HD
ENDBRANCH  53  55
ENDBRANCH  52  53
ENDBRANCH  51  52
ENDBRANCH  18  51
TORSDOF 16
ENDMDL
MODEL 6
REMARK VINA RESULT:      -9.5      1.610      7.530
REMARK  16 active torsions:
REMARK  status: ('A' for Active; 'I' for Inactive)
REMARK    1  A    between atoms: C_6  and  C_7 
REMARK    2  A    between atoms: C_7  and  C_8 
REMARK    3  A    between atoms: C_8  and  C_9 
REMARK    4  A    between atoms: C_9  and  O_11 
REMARK    5  A    between atoms: C_16  and  C_17 
REMARK    6  A    between atoms: C_17  and  C_18 
REMARK    7  A    between atoms: C_18  and  C_19 
REMARK    8  A    between atoms: C_19  and  O_21 
REMARK    9  A    between atoms: C_28  and  C_29 
REMARK   10  A    between atoms: C_29  and  C_30 
REMARK   11  A    between atoms: C_30  and  C_31 
REMARK   12  A    between atoms: C_31  and  O_33 
REMARK   13  A    between atoms: C_42  and  C_43 
REMARK   14  A    between atoms: C_43  and  C_44 
REMARK   15  A    between atoms: C_44  and  C_45 
REMARK   16  A    between atoms: C_45  and  O_47 
ROOT
HETATM    1  C   UNK     0     -25.593  -1.342   1.462  0.00  0.00     0.051 C 
HETATM    2  C   UNK     0     -26.198  -1.687   2.807  0.00  0.00    -0.031 A 
HETATM    3  C   UNK     0     -26.393  -2.928   3.392  0.00  0.00     0.021 A 
HETATM    4  N   UNK     0     -26.998  -2.761   4.592  0.00  0.00    -0.361 N 
HETATM    5  C   UNK     0     -27.185  -1.439   4.788  0.00  0.00     0.022 A 
HETATM    6  C   UNK     0     -26.699  -0.738   3.690  0.00  0.00    -0.027 A 
HETATM    7  C   UNK     0     -27.724  -0.721   5.986  0.00  0.00     0.115 C 
HETATM    8  C   UNK     0     -27.246  -1.207   7.343  0.00  0.00     0.021 A 
HETATM    9  N   UNK     0     -26.036  -1.678   7.685  0.00  0.00    -0.361 N 
HETATM   10  C   UNK     0     -26.090  -2.078   8.973  0.00  0.00     0.022 A 
HETATM   11  C   UNK     0     -27.367  -1.850   9.478  0.00  0.00    -0.027 A 
HETATM   12  C   UNK     0     -28.100  -1.301   8.457  0.00  0.00    -0.031 A 
HETATM   13  C   UNK     0     -29.550  -0.883   8.549  0.00  0.00     0.051 C 
HETATM   14  C   UNK     0     -24.961  -2.738   9.760  0.00  0.00     0.115 C 
HETATM   15  C   UNK     0     -24.493  -4.060   9.173  0.00  0.00     0.021 A 
HETATM   16  N   UNK     0     -24.002  -4.284   7.940  0.00  0.00    -0.361 N 
HETATM   17  C   UNK     0     -23.773  -5.590   7.790  0.00  0.00     0.022 A 
HETATM   18  C   UNK     0     -24.122  -6.248   8.986  0.00  0.00    -0.027 A 
HETATM   19  C   UNK     0     -24.570  -5.278   9.845  0.00  0.00    -0.031 A 
HETATM   20  C   UNK     0     -25.017  -5.554  11.269  0.00  0.00     0.051 C 
HETATM   21  C   UNK     0     -23.295  -6.360   6.580  0.00  0.00     0.115 C 
HETATM   22  C   UNK     0     -23.727  -5.862   5.220  0.00  0.00     0.022 A 
HETATM   23  N   UNK     0     -24.923  -5.384   4.853  0.00  0.00    -0.361 N 
HETATM   24  C   UNK     0     -24.824  -4.920   3.591  0.00  0.00     0.021 A 
HETATM   25  C   UNK     0     -23.536  -5.113   3.131  0.00  0.00    -0.031 A 
HETATM   26  C   UNK     0     -22.952  -4.794   1.770  0.00  0.00     0.051 C 
HETATM   27  C   UNK     0     -22.815  -5.715   4.156  0.00  0.00    -0.027 A 
HETATM   28  C   UNK     0     -25.889  -4.204   2.778  0.00  0.00     0.115 C 
HETATM   29  H   UNK     0     -27.324  -3.580   5.274  0.00  0.00     0.165 HD
HETATM   30  H   UNK     0     -25.128  -1.683   7.033  0.00  0.00     0.165 HD
HETATM   31  H   UNK     0     -23.767  -3.498   7.175  0.00  0.00     0.165 HD
HETATM   32  H   UNK     0     -25.860  -5.409   5.467  0.00  0.00     0.165 HD
ENDROOT
BRANCH   6  33
HETATM   33  C   UNK     0     -26.677   0.744   3.417  0.00  0.00     0.051 C 
BRANCH  33  34
HETATM   34  C   UNK     0     -27.974   1.192   2.785  0.00  0.00     0.114 C 
BRANCH  34  35
HETATM   35  C   UNK     0     -27.640   1.801   1.465  0.00  0.00     0.139 C 
HETATM   36  O   UNK     0     -27.129   2.957   1.408  0.00  0.00    -0.650 OA
BRANCH  35  37
HETATM   37  O   UNK     0     -27.866   1.147   0.260  0.00  0.00    -0.776 OA
HETATM   38  H   UNK     0     -27.111   0.814  -0.317  0.00  0.00     0.167 HD
ENDBRANCH  35  37
ENDBRANCH  34  35
ENDBRANCH  33  34
ENDBRANCH   6  33
BRANCH  27  39
HETATM   39  C   UNK     0     -21.397  -6.144   4.006  0.00  0.00     0.051 C 
BRANCH  39  40
HETATM   40  C   UNK     0     -20.383  -5.117   3.772  0.00  0.00     0.114 C 
BRANCH  40  41
HETATM   41  C   UNK     0     -19.030  -5.445   3.380  0.00  0.00     0.139 C 
HETATM   42  O   UNK     0     -18.205  -4.603   3.002  0.00  0.00    -0.650 OA
BRANCH  41  43
HETATM   43  O   UNK     0     -18.608  -6.804   3.426  0.00  0.00    -0.776 OA
HETATM   44  H   UNK     0     -18.379  -7.203   2.523  0.00  0.00     0.167 HD
ENDBRANCH  41  43
ENDBRANCH  40  41
ENDBRANCH  39  40
ENDBRANCH  27  39
BRANCH  11  45
HETATM   45  C   UNK     0     -27.896  -2.126  10.860  0.00  0.00     0.051 C 
BRANCH  45  46
HETATM   46  C   UNK     0     -27.798  -3.549  11.273  0.00  0.00     0.114 C 
BRANCH  46  47
HETATM   47  C   UNK     0     -28.639  -4.342  10.330  0.00  0.00     0.139 C 
HETATM   48  O   UNK     0     -29.859  -4.126  10.301  0.00  0.00    -0.650 OA
BRANCH  47  49
HETATM   49  O   UNK     0     -28.077  -5.290   9.514  0.00  0.00    -0.776 OA
HETATM   50  H   UNK     0     -28.575  -6.150   9.253  0.00  0.00     0.167 HD
ENDBRANCH  47  49
ENDBRANCH  46  47
ENDBRANCH  45  46
ENDBRANCH  11  45
BRANCH  18  51
HETATM   51  C   UNK     0     -24.015  -7.718   9.300  0.00  0.00     0.051 C 
BRANCH  51  52
HETATM   52  C   UNK     0     -25.297  -8.358   8.789  0.00  0.00     0.114 C 
BRANCH  52  53
HETATM   53  C   UNK     0     -26.193  -8.751   9.894  0.00  0.00     0.139 C 
HETATM   54  O   UNK     0     -27.341  -8.284   9.959  0.00  0.00    -0.650 OA
BRANCH  53  55
HETATM   55  O   UNK     0     -25.748  -9.633  10.849  0.00  0.00    -0.776 OA
HETATM   56  H   UNK     0     -25.788  -9.498  11.831  0.00  0.00     0.167 HD
ENDBRANCH  53  55
ENDBRANCH  52  53
ENDBRANCH  51  52
ENDBRANCH  18  51
TORSDOF 16
ENDMDL
MODEL 7
REMARK VINA RESULT:      -9.4      5.779     11.166
REMARK  16 active torsions:
REMARK  status: ('A' for Active; 'I' for Inactive)
REMARK    1  A    between atoms: C_6  and  C_7 
REMARK    2  A    between atoms: C_7  and  C_8 
REMARK    3  A    between atoms: C_8  and  C_9 
REMARK    4  A    between atoms: C_9  and  O_11 
REMARK    5  A    between atoms: C_16  and  C_17 
REMARK    6  A    between atoms: C_17  and  C_18 
REMARK    7  A    between atoms: C_18  and  C_19 
REMARK    8  A    between atoms: C_19  and  O_21 
REMARK    9  A    between atoms: C_28  and  C_29 
REMARK   10  A    between atoms: C_29  and  C_30 
REMARK   11  A    between atoms: C_30  and  C_31 
REMARK   12  A    between atoms: C_31  and  O_33 
REMARK   13  A    between atoms: C_42  and  C_43 
REMARK   14  A    between atoms: C_43  and  C_44 
REMARK   15  A    between atoms: C_44  and  C_45 
REMARK   16  A    between atoms: C_45  and  O_47 
ROOT
HETATM    1  C   UNK     0     -15.042  -6.612   3.803  0.00  0.00     0.051 C 
HETATM    2  C   UNK     0     -16.406  -5.977   3.625  0.00  0.00    -0.031 A 
HETATM    3  C   UNK     0     -16.825  -5.037   2.696  0.00  0.00     0.021 A 
HETATM    4  N   UNK     0     -18.124  -4.733   2.930  0.00  0.00    -0.361 N 
HETATM    5  C   UNK     0     -18.544  -5.465   3.983  0.00  0.00     0.022 A 
HETATM    6  C   UNK     0     -17.494  -6.252   4.443  0.00  0.00    -0.027 A 
HETATM    7  C   UNK     0     -19.911  -5.572   4.583  0.00  0.00     0.115 C 
HETATM    8  C   UNK     0     -21.076  -5.663   3.612  0.00  0.00     0.021 A 
HETATM    9  N   UNK     0     -21.126  -6.278   2.421  0.00  0.00    -0.361 N 
HETATM   10  C   UNK     0     -22.329  -6.021   1.866  0.00  0.00     0.022 A 
HETATM   11  C   UNK     0     -23.079  -5.226   2.728  0.00  0.00    -0.027 A 
HETATM   12  C   UNK     0     -22.295  -4.996   3.830  0.00  0.00    -0.031 A 
HETATM   13  C   UNK     0     -22.701  -4.180   5.036  0.00  0.00     0.051 C 
HETATM   14  C   UNK     0     -22.799  -6.468   0.484  0.00  0.00     0.115 C 
HETATM   15  C   UNK     0     -21.949  -5.934  -0.657  0.00  0.00     0.021 A 
HETATM   16  N   UNK     0     -20.630  -6.113  -0.853  0.00  0.00    -0.361 N 
HETATM   17  C   UNK     0     -20.249  -5.424  -1.931  0.00  0.00     0.022 A 
HETATM   18  C   UNK     0     -21.376  -4.772  -2.469  0.00  0.00    -0.027 A 
HETATM   19  C   UNK     0     -22.435  -5.100  -1.663  0.00  0.00    -0.031 A 
HETATM   20  C   UNK     0     -23.858  -4.634  -1.908  0.00  0.00     0.051 C 
HETATM   21  C   UNK     0     -18.873  -5.237  -2.529  0.00  0.00     0.115 C 
HETATM   22  C   UNK     0     -17.700  -5.190  -1.578  0.00  0.00     0.022 A 
HETATM   23  N   UNK     0     -17.623  -4.588  -0.384  0.00  0.00    -0.361 N 
HETATM   24  C   UNK     0     -16.447  -4.922   0.184  0.00  0.00     0.021 A 
HETATM   25  C   UNK     0     -15.745  -5.751  -0.669  0.00  0.00    -0.031 A 
HETATM   26  C   UNK     0     -14.365  -6.351  -0.494  0.00  0.00     0.051 C 
HETATM   27  C   UNK     0     -16.526  -5.936  -1.804  0.00  0.00    -0.027 A 
HETATM   28  C   UNK     0     -15.949  -4.559   1.573  0.00  0.00     0.115 C 
HETATM   29  H   UNK     0     -18.723  -3.975   2.376  0.00  0.00     0.165 HD
HETATM   30  H   UNK     0     -20.332  -6.937   1.990  0.00  0.00     0.165 HD
HETATM   31  H   UNK     0     -19.961  -6.778  -0.247  0.00  0.00     0.165 HD
HETATM   32  H   UNK     0     -18.381  -3.886   0.051  0.00  0.00     0.165 HD
ENDROOT
BRANCH   6  33
HETATM   33  C   UNK     0     -17.446  -7.232   5.589  0.00  0.00     0.051 C 
BRANCH  33  34
HETATM   34  C   UNK     0     -17.213  -6.514   6.897  0.00  0.00     0.114 C 
BRANCH  34  35
HETATM   35  C   UNK     0     -17.880  -7.309   7.968  0.00  0.00     0.139 C 
HETATM   36  O   UNK     0     -17.647  -8.547   8.081  0.00  0.00    -0.650 OA
BRANCH  35  37
HETATM   37  O   UNK     0     -18.769  -6.746   8.875  0.00  0.00    -0.776 OA
HETATM   38  H   UNK     0     -19.029  -7.213   9.729  0.00  0.00     0.167 HD
ENDBRANCH  35  37
ENDBRANCH  34  35
ENDBRANCH  33  34
ENDBRANCH   6  33
BRANCH  27  39
HETATM   39  C   UNK     0     -16.068  -6.719  -2.984  0.00  0.00     0.051 C 
BRANCH  39  40
HETATM   40  C   UNK     0     -15.169  -6.071  -3.940  0.00  0.00     0.114 C 
BRANCH  40  41
HETATM   41  C   UNK     0     -15.560  -4.901  -4.694  0.00  0.00     0.139 C 
HETATM   42  O   UNK     0     -14.846  -3.896  -4.814  0.00  0.00    -0.650 OA
BRANCH  41  43
HETATM   43  O   UNK     0     -16.829  -4.886  -5.338  0.00  0.00    -0.776 OA
HETATM   44  H   UNK     0     -17.162  -5.797  -5.631  0.00  0.00     0.167 HD
ENDBRANCH  41  43
ENDBRANCH  40  41
ENDBRANCH  39  40
ENDBRANCH  27  39
BRANCH  11  45
HETATM   45  C   UNK     0     -24.475  -4.694   2.544  0.00  0.00     0.051 C 
BRANCH  45  46
HETATM   46  C   UNK     0     -24.583  -3.609   1.536  0.00  0.00     0.114 C 
BRANCH  46  47
HETATM   47  C   UNK     0     -25.945  -3.696   0.937  0.00  0.00     0.139 C 
HETATM   48  O   UNK     0     -26.519  -2.646   0.614  0.00  0.00    -0.650 OA
BRANCH  47  49
HETATM   49  O   UNK     0     -26.553  -4.911   0.748  0.00  0.00    -0.776 OA
HETATM   50  H   UNK     0     -27.292  -5.049   0.048  0.00  0.00     0.167 HD
ENDBRANCH  47  49
ENDBRANCH  46  47
ENDBRANCH  45  46
ENDBRANCH  11  45
BRANCH  18  51
HETATM   51  C   UNK     0     -21.444  -3.901  -3.697  0.00  0.00     0.051 C 
BRANCH  51  52
HETATM   52  C   UNK     0     -21.614  -4.843  -4.879  0.00  0.00     0.114 C 
BRANCH  52  53
HETATM   53  C   UNK     0     -20.785  -4.435  -6.030  0.00  0.00     0.139 C 
HETATM   54  O   UNK     0     -19.563  -4.655  -6.025  0.00  0.00    -0.650 OA
BRANCH  53  55
HETATM   55  O   UNK     0     -21.372  -3.810  -7.103  0.00  0.00    -0.776 OA
HETATM   56  H   UNK     0     -20.904  -3.470  -7.909  0.00  0.00     0.167 HD
ENDBRANCH  53  55
ENDBRANCH  52  53
ENDBRANCH  51  52
ENDBRANCH  18  51
TORSDOF 16
ENDMDL
MODEL 8
REMARK VINA RESULT:      -9.4      2.703      8.122
REMARK  16 active torsions:
REMARK  status: ('A' for Active; 'I' for Inactive)
REMARK    1  A    between atoms: C_6  and  C_7 
REMARK    2  A    between atoms: C_7  and  C_8 
REMARK    3  A    between atoms: C_8  and  C_9 
REMARK    4  A    between atoms: C_9  and  O_11 
REMARK    5  A    between atoms: C_16  and  C_17 
REMARK    6  A    between atoms: C_17  and  C_18 
REMARK    7  A    between atoms: C_18  and  C_19 
REMARK    8  A    between atoms: C_19  and  O_21 
REMARK    9  A    between atoms: C_28  and  C_29 
REMARK   10  A    between atoms: C_29  and  C_30 
REMARK   11  A    between atoms: C_30  and  C_31 
REMARK   12  A    between atoms: C_31  and  O_33 
REMARK   13  A    between atoms: C_42  and  C_43 
REMARK   14  A    between atoms: C_43  and  C_44 
REMARK   15  A    between atoms: C_44  and  C_45 
REMARK   16  A    between atoms: C_45  and  O_47 
ROOT
HETATM    1  C   UNK     0     -23.396  -7.602   6.764  0.00  0.00     0.051 C 
HETATM    2  C   UNK     0     -24.092  -6.460   7.476  0.00  0.00    -0.031 A 
HETATM    3  C   UNK     0     -24.073  -5.104   7.191  0.00  0.00     0.021 A 
HETATM    4  N   UNK     0     -24.817  -4.449   8.114  0.00  0.00    -0.361 N 
HETATM    5  C   UNK     0     -25.317  -5.359   8.975  0.00  0.00     0.022 A 
HETATM    6  C   UNK     0     -24.881  -6.627   8.607  0.00  0.00    -0.027 A 
HETATM    7  C   UNK     0     -26.270  -5.169  10.114  0.00  0.00     0.115 C 
HETATM    8  C   UNK     0     -27.448  -4.243   9.869  0.00  0.00     0.021 A 
HETATM    9  N   UNK     0     -28.152  -4.066   8.741  0.00  0.00    -0.361 N 
HETATM   10  C   UNK     0     -29.047  -3.078   8.956  0.00  0.00     0.022 A 
HETATM   11  C   UNK     0     -28.923  -2.614  10.262  0.00  0.00    -0.027 A 
HETATM   12  C   UNK     0     -27.917  -3.343  10.843  0.00  0.00    -0.031 A 
HETATM   13  C   UNK     0     -27.434  -3.186  12.267  0.00  0.00     0.051 C 
HETATM   14  C   UNK     0     -30.015  -2.499   7.927  0.00  0.00     0.115 C 
HETATM   15  C   UNK     0     -29.331  -1.871   6.724  0.00  0.00     0.021 A 
HETATM   16  N   UNK     0     -28.487  -2.463   5.857  0.00  0.00    -0.361 N 
HETATM   17  C   UNK     0     -28.049  -1.554   4.982  0.00  0.00     0.022 A 
HETATM   18  C   UNK     0     -28.645  -0.314   5.287  0.00  0.00    -0.027 A 
HETATM   19  C   UNK     0     -29.446  -0.526   6.379  0.00  0.00    -0.031 A 
HETATM   20  C   UNK     0     -30.305   0.550   7.017  0.00  0.00     0.051 C 
HETATM   21  C   UNK     0     -27.041  -1.689   3.864  0.00  0.00     0.115 C 
HETATM   22  C   UNK     0     -25.887  -2.641   4.076  0.00  0.00     0.022 A 
HETATM   23  N   UNK     0     -25.171  -2.841   5.190  0.00  0.00    -0.361 N 
HETATM   24  C   UNK     0     -24.339  -3.881   4.977  0.00  0.00     0.021 A 
HETATM   25  C   UNK     0     -24.517  -4.355   3.692  0.00  0.00    -0.031 A 
HETATM   26  C   UNK     0     -23.790  -5.477   2.980  0.00  0.00     0.051 C 
HETATM   27  C   UNK     0     -25.503  -3.577   3.095  0.00  0.00    -0.027 A 
HETATM   28  C   UNK     0     -23.399  -4.538   5.973  0.00  0.00     0.115 C 
HETATM   29  H   UNK     0     -24.952  -3.344   8.173  0.00  0.00     0.165 HD
HETATM   30  H   UNK     0     -28.053  -4.670   7.806  0.00  0.00     0.165 HD
HETATM   31  H   UNK     0     -28.231  -3.554   5.833  0.00  0.00     0.165 HD
HETATM   32  H   UNK     0     -25.215  -2.222   6.124  0.00  0.00     0.165 HD
ENDROOT
BRANCH   6  33
HETATM   33  C   UNK     0     -25.150  -7.968   9.241  0.00  0.00     0.051 C 
BRANCH  33  34
HETATM   34  C   UNK     0     -26.269  -8.684   8.523  0.00  0.00     0.114 C 
BRANCH  34  35
HETATM   35  C   UNK     0     -27.511  -8.492   9.326  0.00  0.00     0.139 C 
HETATM   36  O   UNK     0     -27.443  -8.360  10.583  0.00  0.00    -0.650 OA
BRANCH  35  37
HETATM   37  O   UNK     0     -28.775  -8.445   8.752  0.00  0.00    -0.776 OA
HETATM   38  H   UNK     0     -29.147  -7.602   8.345  0.00  0.00     0.167 HD
ENDBRANCH  35  37
ENDBRANCH  34  35
ENDBRANCH  33  34
ENDBRANCH   6  33
BRANCH  27  39
HETATM   39  C   UNK     0     -25.919  -3.744   1.676  0.00  0.00     0.051 C 
BRANCH  39  40
HETATM   40  C   UNK     0     -26.886  -4.794   1.356  0.00  0.00     0.114 C 
BRANCH  40  41
HETATM   41  C   UNK     0     -26.582  -5.866   0.434  0.00  0.00     0.139 C 
HETATM   42  O   UNK     0     -25.923  -5.710  -0.602  0.00  0.00    -0.650 OA
BRANCH  41  43
HETATM   43  O   UNK     0     -27.059  -7.177   0.718  0.00  0.00    -0.776 OA
HETATM   44  H   UNK     0     -27.873  -7.205   1.321  0.00  0.00     0.167 HD
ENDBRANCH  41  43
ENDBRANCH  40  41
ENDBRANCH  39  40
ENDBRANCH  27  39
BRANCH  11  45
HETATM   45  C   UNK     0     -29.707  -1.532  10.955  0.00  0.00     0.051 C 
BRANCH  45  46
HETATM   46  C   UNK     0     -31.128  -1.882  11.209  0.00  0.00     0.114 C 
BRANCH  46  47
HETATM   47  C   UNK     0     -31.150  -2.836  12.355  0.00  0.00     0.139 C 
HETATM   48  O   UNK     0     -31.550  -3.992  12.156  0.00  0.00    -0.650 OA
BRANCH  47  49
HETATM   49  O   UNK     0     -30.738  -2.443  13.604  0.00  0.00    -0.776 OA
HETATM   50  H   UNK     0     -31.171  -2.809  14.460  0.00  0.00     0.167 HD
ENDBRANCH  47  49
ENDBRANCH  46  47
ENDBRANCH  45  46
ENDBRANCH  11  45
BRANCH  18  51
HETATM   51  C   UNK     0     -28.475   0.997   4.564  0.00  0.00     0.051 C 
BRANCH  51  52
HETATM   52  C   UNK     0     -27.019   1.398   4.745  0.00  0.00     0.114 C 
BRANCH  52  53
HETATM   53  C   UNK     0     -26.694   1.667   6.159  0.00  0.00     0.139 C 
HETATM   54  O   UNK     0     -25.754   1.068   6.705  0.00  0.00    -0.650 OA
BRANCH  53  55
HETATM   55  O   UNK     0     -27.439   2.580   6.865  0.00  0.00    -0.776 OA
HETATM   56  H   UNK     0     -27.520   3.548   6.664  0.00  0.00     0.167 HD
ENDBRANCH  53  55
ENDBRANCH  52  53
ENDBRANCH  51  52
ENDBRANCH  18  51
TORSDOF 16
ENDMDL
MODEL 9
REMARK VINA RESULT:      -9.1      2.786      9.167
REMARK  16 active torsions:
REMARK  status: ('A' for Active; 'I' for Inactive)
REMARK    1  A    between atoms: C_6  and  C_7 
REMARK    2  A    between atoms: C_7  and  C_8 
REMARK    3  A    between atoms: C_8  and  C_9 
REMARK    4  A    between atoms: C_9  and  O_11 
REMARK    5  A    between atoms: C_16  and  C_17 
REMARK    6  A    between atoms: C_17  and  C_18 
REMARK    7  A    between atoms: C_18  and  C_19 
REMARK    8  A    between atoms: C_19  and  O_21 
REMARK    9  A    between atoms: C_28  and  C_29 
REMARK   10  A    between atoms: C_29  and  C_30 
REMARK   11  A    between atoms: C_30  and  C_31 
REMARK   12  A    between atoms: C_31  and  O_33 
REMARK   13  A    between atoms: C_42  and  C_43 
REMARK   14  A    between atoms: C_43  and  C_44 
REMARK   15  A    between atoms: C_44  and  C_45 
REMARK   16  A    between atoms: C_45  and  O_47 
ROOT
HETATM    1  C   UNK     0     -26.552  -1.492   2.024  0.00  0.00     0.051 C 
HETATM    2  C   UNK     0     -25.931  -2.280   3.159  0.00  0.00    -0.031 A 
HETATM    3  C   UNK     0     -25.724  -1.908   4.478  0.00  0.00     0.021 A 
HETATM    4  N   UNK     0     -25.107  -2.921   5.131  0.00  0.00    -0.361 N 
HETATM    5  C   UNK     0     -24.924  -3.934   4.259  0.00  0.00     0.022 A 
HETATM    6  C   UNK     0     -25.426  -3.566   3.015  0.00  0.00    -0.027 A 
HETATM    7  C   UNK     0     -24.377  -5.307   4.496  0.00  0.00     0.115 C 
HETATM    8  C   UNK     0     -24.838  -6.016   5.757  0.00  0.00     0.021 A 
HETATM    9  N   UNK     0     -26.041  -5.971   6.350  0.00  0.00    -0.361 N 
HETATM   10  C   UNK     0     -25.972  -6.681   7.496  0.00  0.00     0.022 A 
HETATM   11  C   UNK     0     -24.691  -7.206   7.641  0.00  0.00    -0.027 A 
HETATM   12  C   UNK     0     -23.972  -6.792   6.549  0.00  0.00    -0.031 A 
HETATM   13  C   UNK     0     -22.523  -7.129   6.277  0.00  0.00     0.051 C 
HETATM   14  C   UNK     0     -27.089  -6.848   8.522  0.00  0.00     0.115 C 
HETATM   15  C   UNK     0     -27.556  -5.541   9.141  0.00  0.00     0.021 A 
HETATM   16  N   UNK     0     -28.059  -4.465   8.508  0.00  0.00    -0.361 N 
HETATM   17  C   UNK     0     -28.283  -3.496   9.398  0.00  0.00     0.022 A 
HETATM   18  C   UNK     0     -27.917  -3.967  10.675  0.00  0.00    -0.027 A 
HETATM   19  C   UNK     0     -27.465  -5.249  10.501  0.00  0.00    -0.031 A 
HETATM   20  C   UNK     0     -27.002  -6.143  11.637  0.00  0.00     0.051 C 
HETATM   21  C   UNK     0     -28.770  -2.080   9.192  0.00  0.00     0.115 C 
HETATM   22  C   UNK     0     -28.354  -1.378   7.921  0.00  0.00     0.022 A 
HETATM   23  N   UNK     0     -27.165  -1.408   7.306  0.00  0.00    -0.361 N 
HETATM   24  C   UNK     0     -27.279  -0.760   6.129  0.00  0.00     0.021 A 
HETATM   25  C   UNK     0     -28.571  -0.292   5.988  0.00  0.00    -0.031 A 
HETATM   26  C   UNK     0     -29.171   0.525   4.862  0.00  0.00     0.051 C 
HETATM   27  C   UNK     0     -29.278  -0.674   7.122  0.00  0.00    -0.027 A 
HETATM   28  C   UNK     0     -26.227  -0.610   5.044  0.00  0.00     0.115 C 
HETATM   29  H   UNK     0     -24.769  -2.898   6.193  0.00  0.00     0.165 HD
HETATM   30  H   UNK     0     -26.956  -5.480   5.937  0.00  0.00     0.165 HD
HETATM   31  H   UNK     0     -28.306  -4.403   7.416  0.00  0.00     0.165 HD
HETATM   32  H   UNK     0     -26.221  -1.851   7.717  0.00  0.00     0.165 HD
ENDROOT
BRANCH   6  33
HETATM   33  C   UNK     0     -25.459  -4.332   1.717  0.00  0.00     0.051 C 
BRANCH  33  34
HETATM   34  C   UNK     0     -26.749  -5.106   1.585  0.00  0.00     0.114 C 
BRANCH  34  35
HETATM   35  C   UNK     0     -26.548  -6.131   0.521  0.00  0.00     0.139 C 
HETATM   36  O   UNK     0     -25.995  -5.815  -0.572  0.00  0.00    -0.650 OA
BRANCH  35  37
HETATM   37  O   UNK     0     -26.944  -7.455   0.671  0.00  0.00    -0.776 OA
HETATM   38  H   UNK     0     -26.881  -8.120  -0.082  0.00  0.00     0.167 HD
ENDBRANCH  35  37
ENDBRANCH  34  35
ENDBRANCH  33  34
ENDBRANCH   6  33
BRANCH  27  39
HETATM   39  C   UNK     0     -30.695  -0.286   7.363  0.00  0.00     0.051 C 
BRANCH  39  40
HETATM   40  C   UNK     0     -30.963   1.008   7.989  0.00  0.00     0.114 C 
BRANCH  40  41
HETATM   41  C   UNK     0     -30.621   1.284   9.367  0.00  0.00     0.139 C 
HETATM   42  O   UNK     0     -30.901   0.526  10.305  0.00  0.00    -0.650 OA
BRANCH  41  43
HETATM   43  O   UNK     0     -29.925   2.486   9.679  0.00  0.00    -0.776 OA
HETATM   44  H   UNK     0     -30.465   3.157  10.211  0.00  0.00     0.167 HD
ENDBRANCH  41  43
ENDBRANCH  40  41
ENDBRANCH  39  40
ENDBRANCH  27  39
BRANCH  11  45
HETATM   45  C   UNK     0     -24.146  -8.067   8.749  0.00  0.00     0.051 C 
BRANCH  45  46
HETATM   46  C   UNK     0     -23.961  -7.351  10.037  0.00  0.00     0.114 C 
BRANCH  46  47
HETATM   47  C   UNK     0     -24.382  -8.281  11.123  0.00  0.00     0.139 C 
HETATM   48  O   UNK     0     -23.935  -8.099  12.265  0.00  0.00    -0.650 OA
BRANCH  47  49
HETATM   49  O   UNK     0     -25.244  -9.317  10.867  0.00  0.00    -0.776 OA
HETATM   50  H   UNK     0     -25.858  -9.324  10.044  0.00  0.00     0.167 HD
ENDBRANCH  47  49
ENDBRANCH  46  47
ENDBRANCH  45  46
ENDBRANCH  11  45
BRANCH  18  51
HETATM   51  C   UNK     0     -28.014  -3.242  11.993  0.00  0.00     0.051 C 
BRANCH  51  52
HETATM   52  C   UNK     0     -29.408  -3.523  12.532  0.00  0.00     0.114 C 
BRANCH  52  53
HETATM   53  C   UNK     0     -29.391  -3.803  13.981  0.00  0.00     0.139 C 
HETATM   54  O   UNK     0     -28.794  -3.037  14.755  0.00  0.00    -0.650 OA
BRANCH  53  55
HETATM   55  O   UNK     0     -30.034  -4.915  14.466  0.00  0.00    -0.776 OA
HETATM   56  H   UNK     0     -30.068  -5.807  14.030  0.00  0.00     0.167 HD
ENDBRANCH  53  55
ENDBRANCH  52  53
ENDBRANCH  51  52
ENDBRANCH  18  51
TORSDOF 16
ENDMDL
MODEL 10
REMARK VINA RESULT:      -9.1      5.961      9.614
REMARK  16 active torsions:
REMARK  status: ('A' for Active; 'I' for Inactive)
REMARK    1  A    between atoms: C_6  and  C_7 
REMARK    2  A    between atoms: C_7  and  C_8 
REMARK    3  A    between atoms: C_8  and  C_9 
REMARK    4  A    between atoms: C_9  and  O_11 
REMARK    5  A    between atoms: C_16  and  C_17 
REMARK    6  A    between atoms: C_17  and  C_18 
REMARK    7  A    between atoms: C_18  and  C_19 
REMARK    8  A    between atoms: C_19  and  O_21 
REMARK    9  A    between atoms: C_28  and  C_29 
REMARK   10  A    between atoms: C_29  and  C_30 
REMARK   11  A    between atoms: C_30  and  C_31 
REMARK   12  A    between atoms: C_31  and  O_33 
REMARK   13  A    between atoms: C_42  and  C_43 
REMARK   14  A    between atoms: C_43  and  C_44 
REMARK   15  A    between atoms: C_44  and  C_45 
REMARK   16  A    between atoms: C_45  and  O_47 
ROOT
HETATM    1  C   UNK     0     -24.409  -5.587   3.196  0.00  0.00     0.051 C 
HETATM    2  C   UNK     0     -23.217  -5.406   2.278  0.00  0.00    -0.031 A 
HETATM    3  C   UNK     0     -21.966  -4.876   2.554  0.00  0.00     0.021 A 
HETATM    4  N   UNK     0     -21.225  -4.882   1.420  0.00  0.00    -0.361 N 
HETATM    5  C   UNK     0     -21.973  -5.413   0.431  0.00  0.00     0.022 A 
HETATM    6  C   UNK     0     -23.226  -5.749   0.932  0.00  0.00    -0.027 A 
HETATM    7  C   UNK     0     -21.595  -5.728  -0.983  0.00  0.00     0.115 C 
HETATM    8  C   UNK     0     -20.235  -6.367  -1.199  0.00  0.00     0.021 A 
HETATM    9  N   UNK     0     -19.593  -7.251  -0.419  0.00  0.00    -0.361 N 
HETATM   10  C   UNK     0     -18.373  -7.473  -0.953  0.00  0.00     0.022 A 
HETATM   11  C   UNK     0     -18.229  -6.718  -2.114  0.00  0.00    -0.027 A 
HETATM   12  C   UNK     0     -19.398  -6.019  -2.274  0.00  0.00    -0.031 A 
HETATM   13  C   UNK     0     -19.698  -5.067  -3.410  0.00  0.00     0.051 C 
HETATM   14  C   UNK     0     -17.279  -8.360  -0.365  0.00  0.00     0.115 C 
HETATM   15  C   UNK     0     -16.803  -7.921   1.010  0.00  0.00     0.021 A 
HETATM   16  N   UNK     0     -17.539  -7.783   2.129  0.00  0.00    -0.361 N 
HETATM   17  C   UNK     0     -16.765  -7.310   3.108  0.00  0.00     0.022 A 
HETATM   18  C   UNK     0     -15.460  -7.139   2.605  0.00  0.00    -0.027 A 
HETATM   19  C   UNK     0     -15.497  -7.526   1.291  0.00  0.00    -0.031 A 
HETATM   20  C   UNK     0     -14.283  -7.535   0.379  0.00  0.00     0.051 C 
HETATM   21  C   UNK     0     -17.120  -6.917   4.524  0.00  0.00     0.115 C 
HETATM   22  C   UNK     0     -18.488  -6.321   4.760  0.00  0.00     0.022 A 
HETATM   23  N   UNK     0     -19.153  -5.442   3.999  0.00  0.00    -0.361 N 
HETATM   24  C   UNK     0     -20.393  -5.295   4.507  0.00  0.00     0.021 A 
HETATM   25  C   UNK     0     -20.527  -6.092   5.628  0.00  0.00    -0.031 A 
HETATM   26  C   UNK     0     -21.714  -6.237   6.558  0.00  0.00     0.051 C 
HETATM   27  C   UNK     0     -19.320  -6.757   5.810  0.00  0.00    -0.027 A 
HETATM   28  C   UNK     0     -21.540  -4.477   3.938  0.00  0.00     0.115 C 
HETATM   29  H   UNK     0     -20.192  -4.475   1.318  0.00  0.00     0.165 HD
HETATM   30  H   UNK     0     -20.017  -7.759   0.481  0.00  0.00     0.165 HD
HETATM   31  H   UNK     0     -18.617  -8.072   2.244  0.00  0.00     0.165 HD
HETATM   32  H   UNK     0     -18.738  -4.882   3.120  0.00  0.00     0.165 HD
ENDROOT
BRANCH   6  33
HETATM   33  C   UNK     0     -24.416  -6.361   0.238  0.00  0.00     0.051 C 
BRANCH  33  34
HETATM   34  C   UNK     0     -25.584  -5.402   0.233  0.00  0.00     0.114 C 
BRANCH  34  35
HETATM   35  C   UNK     0     -26.745  -6.110   0.844  0.00  0.00     0.139 C 
HETATM   36  O   UNK     0     -27.601  -5.467   1.518  0.00  0.00    -0.650 OA
BRANCH  35  37
HETATM   37  O   UNK     0     -26.945  -7.479   0.706  0.00  0.00    -0.776 OA
HETATM   38  H   UNK     0     -26.910  -7.937  -0.190  0.00  0.00     0.167 HD
ENDBRANCH  35  37
ENDBRANCH  34  35
ENDBRANCH  33  34
ENDBRANCH   6  33
BRANCH  27  39
HETATM   39  C   UNK     0     -19.058  -7.658   6.966  0.00  0.00     0.051 C 
BRANCH  39  40
HETATM   40  C   UNK     0     -18.493  -7.077   8.184  0.00  0.00     0.114 C 
BRANCH  40  41
HETATM   41  C   UNK     0     -17.584  -7.810   9.037  0.00  0.00     0.139 C 
HETATM   42  O   UNK     0     -17.047  -7.323  10.041  0.00  0.00    -0.650 OA
BRANCH  41  43
HETATM   43  O   UNK     0     -17.279  -9.164   8.720  0.00  0.00    -0.776 OA
HETATM   44  H   UNK     0     -17.643  -9.841   9.379  0.00  0.00     0.167 HD
ENDBRANCH  41  43
ENDBRANCH  40  41
ENDBRANCH  39  40
ENDBRANCH  27  39
BRANCH  11  45
HETATM   45  C   UNK     0     -17.051  -6.643  -3.048  0.00  0.00     0.051 C 
BRANCH  45  46
HETATM   46  C   UNK     0     -15.970  -5.734  -2.590  0.00  0.00     0.114 C 
BRANCH  46  47
HETATM   47  C   UNK     0     -14.937  -5.699  -3.665  0.00  0.00     0.139 C 
HETATM   48  O   UNK     0     -15.230  -6.148  -4.782  0.00  0.00    -0.650 OA
BRANCH  47  49
HETATM   49  O   UNK     0     -13.690  -5.182  -3.424  0.00  0.00    -0.776 OA
HETATM   50  H   UNK     0     -12.891  -5.375  -4.041  0.00  0.00     0.167 HD
ENDBRANCH  47  49
ENDBRANCH  46  47
ENDBRANCH  45  46
ENDBRANCH  11  45
BRANCH  18  51
HETATM   51  C   UNK     0     -14.239  -6.654   3.343  0.00  0.00     0.051 C 
BRANCH  51  52
HETATM   52  C   UNK     0     -14.003  -5.223   2.882  0.00  0.00     0.114 C 
BRANCH  52  53
HETATM   53  C   UNK     0     -15.162  -4.355   3.168  0.00  0.00     0.139 C 
HETATM   54  O   UNK     0     -15.359  -3.942   4.322  0.00  0.00    -0.650 OA
BRANCH  53  55
HETATM   55  O   UNK     0     -16.021  -4.012   2.153  0.00  0.00    -0.776 OA
HETATM   56  H   UNK     0     -15.800  -3.446   1.367  0.00  0.00     0.167 HD
ENDBRANCH  53  55
ENDBRANCH  52  53
ENDBRANCH  51  52
ENDBRANCH  18  51
TORSDOF 16
ENDMDL
MODEL 11
REMARK VINA RESULT:      -9.0      5.304     10.784
REMARK  16 active torsions:
REMARK  status: ('A' for Active; 'I' for Inactive)
REMARK    1  A    between atoms: C_6  and  C_7 
REMARK    2  A    between atoms: C_7  and  C_8 
REMARK    3  A    between atoms: C_8  and  C_9 
REMARK    4  A    between atoms: C_9  and  O_11 
REMARK    5  A    between atoms: C_16  and  C_17 
REMARK    6  A    between atoms: C_17  and  C_18 
REMARK    7  A    between atoms: C_18  and  C_19 
REMARK    8  A    between atoms: C_19  and  O_21 
REMARK    9  A    between atoms: C_28  and  C_29 
REMARK   10  A    between atoms: C_29  and  C_30 
REMARK   11  A    between atoms: C_30  and  C_31 
REMARK   12  A    between atoms: C_31  and  O_33 
REMARK   13  A    between atoms: C_42  and  C_43 
REMARK   14  A    between atoms: C_43  and  C_44 
REMARK   15  A    between atoms: C_44  and  C_45 
REMARK   16  A    between atoms: C_45  and  O_47 
ROOT
HETATM    1  C   UNK     0     -15.498  -6.312  -1.299  0.00  0.00     0.051 C 
HETATM    2  C   UNK     0     -17.005  -6.472  -1.288  0.00  0.00    -0.031 A 
HETATM    3  C   UNK     0     -17.811  -7.148  -0.386  0.00  0.00     0.021 A 
HETATM    4  N   UNK     0     -19.100  -7.053  -0.789  0.00  0.00    -0.361 N 
HETATM    5  C   UNK     0     -19.134  -6.324  -1.923  0.00  0.00     0.022 A 
HETATM    6  C   UNK     0     -17.840  -5.946  -2.265  0.00  0.00    -0.027 A 
HETATM    7  C   UNK     0     -20.312  -5.851  -2.716  0.00  0.00     0.115 C 
HETATM    8  C   UNK     0     -21.495  -5.316  -1.928  0.00  0.00     0.021 A 
HETATM    9  N   UNK     0     -21.488  -4.612  -0.785  0.00  0.00    -0.361 N 
HETATM   10  C   UNK     0     -22.768  -4.432  -0.396  0.00  0.00     0.022 A 
HETATM   11  C   UNK     0     -23.623  -5.029  -1.319  0.00  0.00    -0.027 A 
HETATM   12  C   UNK     0     -22.827  -5.587  -2.286  0.00  0.00    -0.031 A 
HETATM   13  C   UNK     0     -23.325  -6.341  -3.499  0.00  0.00     0.051 C 
HETATM   14  C   UNK     0     -23.233  -3.740   0.882  0.00  0.00     0.115 C 
HETATM   15  C   UNK     0     -22.744  -4.408   2.157  0.00  0.00     0.021 A 
HETATM   16  N   UNK     0     -21.470  -4.631   2.530  0.00  0.00    -0.361 N 
HETATM   17  C   UNK     0     -21.462  -5.305   3.682  0.00  0.00     0.022 A 
HETATM   18  C   UNK     0     -22.795  -5.524   4.083  0.00  0.00    -0.027 A 
HETATM   19  C   UNK     0     -23.588  -4.956   3.120  0.00  0.00    -0.031 A 
HETATM   20  C   UNK     0     -25.104  -4.933   3.181  0.00  0.00     0.051 C 
HETATM   21  C   UNK     0     -20.301  -5.856   4.478  0.00  0.00     0.115 C 
HETATM   22  C   UNK     0     -19.100  -6.351   3.708  0.00  0.00     0.022 A 
HETATM   23  N   UNK     0     -19.077  -7.051   2.566  0.00  0.00    -0.361 N 
HETATM   24  C   UNK     0     -17.796  -7.151   2.157  0.00  0.00     0.021 A 
HETATM   25  C   UNK     0     -16.973  -6.509   3.062  0.00  0.00    -0.031 A 
HETATM   26  C   UNK     0     -15.464  -6.385   3.058  0.00  0.00     0.051 C 
HETATM   27  C   UNK     0     -17.785  -5.989   4.064  0.00  0.00    -0.027 A 
HETATM   28  C   UNK     0     -17.277  -7.773   0.872  0.00  0.00     0.115 C 
HETATM   29  H   UNK     0     -19.973  -7.535  -0.291  0.00  0.00     0.165 HD
HETATM   30  H   UNK     0     -20.583  -4.197  -0.277  0.00  0.00     0.165 HD
HETATM   31  H   UNK     0     -20.556  -4.263   1.995  0.00  0.00     0.165 HD
HETATM   32  H   UNK     0     -19.961  -7.518   2.060  0.00  0.00     0.165 HD
ENDROOT
BRANCH   6  33
HETATM   33  C   UNK     0     -17.342  -5.137  -3.436  0.00  0.00     0.051 C 
BRANCH  33  34
HETATM   34  C   UNK     0     -16.313  -5.912  -4.224  0.00  0.00     0.114 C 
BRANCH  34  35
HETATM   35  C   UNK     0     -15.485  -4.923  -4.972  0.00  0.00     0.139 C 
HETATM   36  O   UNK     0     -14.906  -3.982  -4.355  0.00  0.00    -0.650 OA
BRANCH  35  37
HETATM   37  O   UNK     0     -15.308  -4.983  -6.349  0.00  0.00    -0.776 OA
HETATM   38  H   UNK     0     -15.259  -5.858  -6.844  0.00  0.00     0.167 HD
ENDBRANCH  35  37
ENDBRANCH  34  35
ENDBRANCH  33  34
ENDBRANCH   6  33
BRANCH  27  39
HETATM   39  C   UNK     0     -17.246  -5.286   5.260  0.00  0.00     0.051 C 
BRANCH  39  40
HETATM   40  C   UNK     0     -16.760  -6.093   6.379  0.00  0.00     0.114 C 
BRANCH  40  41
HETATM   41  C   UNK     0     -17.655  -6.707   7.334  0.00  0.00     0.139 C 
HETATM   42  O   UNK     0     -18.567  -7.482   7.015  0.00  0.00    -0.650 OA
BRANCH  41  43
HETATM   43  O   UNK     0     -17.496  -6.414   8.718  0.00  0.00    -0.776 OA
HETATM   44  H   UNK     0     -17.132  -7.183   9.269  0.00  0.00     0.167 HD
ENDBRANCH  41  43
ENDBRANCH  40  41
ENDBRANCH  39  40
ENDBRANCH  27  39
BRANCH  11  45
HETATM   45  C   UNK     0     -25.127  -5.081  -1.312  0.00  0.00     0.051 C 
BRANCH  45  46
HETATM   46  C   UNK     0     -25.715  -5.447   0.002  0.00  0.00     0.114 C 
BRANCH  46  47
HETATM   47  C   UNK     0     -25.891  -6.928   0.009  0.00  0.00     0.139 C 
HETATM   48  O   UNK     0     -25.048  -7.627  -0.569  0.00  0.00    -0.650 OA
BRANCH  47  49
HETATM   49  O   UNK     0     -26.964  -7.505   0.641  0.00  0.00    -0.776 OA
HETATM   50  H   UNK     0     -27.612  -6.960   1.222  0.00  0.00     0.167 HD
ENDBRANCH  47  49
ENDBRANCH  46  47
ENDBRANCH  45  46
ENDBRANCH  11  45
BRANCH  18  51
HETATM   51  C   UNK     0     -23.286  -6.217   5.328  0.00  0.00     0.051 C 
BRANCH  51  52
HETATM   52  C   UNK     0     -23.617  -5.118   6.326  0.00  0.00     0.114 C 
BRANCH  52  53
HETATM   53  C   UNK     0     -22.663  -5.094   7.452  0.00  0.00     0.139 C 
HETATM   54  O   UNK     0     -21.956  -6.086   7.689  0.00  0.00    -0.650 OA
BRANCH  53  55
HETATM   55  O   UNK     0     -22.567  -3.971   8.238  0.00  0.00    -0.776 OA
HETATM   56  H   UNK     0     -22.929  -3.868   9.156  0.00  0.00     0.167 HD
ENDBRANCH  53  55
ENDBRANCH  52  53
ENDBRANCH  51  52
ENDBRANCH  18  51
TORSDOF 16
ENDMDL
MODEL 12
REMARK VINA RESULT:      -8.9      2.521      3.017
REMARK  16 active torsions:
REMARK  status: ('A' for Active; 'I' for Inactive)
REMARK    1  A    between atoms: C_6  and  C_7 
REMARK    2  A    between atoms: C_7  and  C_8 
REMARK    3  A    between atoms: C_8  and  C_9 
REMARK    4  A    between atoms: C_9  and  O_11 
REMARK    5  A    between atoms: C_16  and  C_17 
REMARK    6  A    between atoms: C_17  and  C_18 
REMARK    7  A    between atoms: C_18  and  C_19 
REMARK    8  A    between atoms: C_19  and  O_21 
REMARK    9  A    between atoms: C_28  and  C_29 
REMARK   10  A    between atoms: C_29  and  C_30 
REMARK   11  A    between atoms: C_30  and  C_31 
REMARK   12  A    between atoms: C_31  and  O_33 
REMARK   13  A    between atoms: C_42  and  C_43 
REMARK   14  A    between atoms: C_43  and  C_44 
REMARK   15  A    between atoms: C_44  and  C_45 
REMARK   16  A    between atoms: C_45  and  O_47 
ROOT
HETATM    1  C   UNK     0     -28.443  -1.549   9.618  0.00  0.00     0.051 C 
HETATM    2  C   UNK     0     -27.690  -1.381   8.314  0.00  0.00    -0.031 A 
HETATM    3  C   UNK     0     -26.329  -1.467   8.066  0.00  0.00     0.021 A 
HETATM    4  N   UNK     0     -26.102  -1.214   6.756  0.00  0.00    -0.361 N 
HETATM    5  C   UNK     0     -27.290  -0.978   6.161  0.00  0.00     0.022 A 
HETATM    6  C   UNK     0     -28.304  -1.072   7.107  0.00  0.00    -0.027 A 
HETATM    7  C   UNK     0     -27.600  -0.742   4.715  0.00  0.00     0.115 C 
HETATM    8  C   UNK     0     -26.881  -1.624   3.711  0.00  0.00     0.021 A 
HETATM    9  N   UNK     0     -26.537  -2.917   3.827  0.00  0.00    -0.361 N 
HETATM   10  C   UNK     0     -25.832  -3.264   2.730  0.00  0.00     0.022 A 
HETATM   11  C   UNK     0     -25.727  -2.168   1.879  0.00  0.00    -0.027 A 
HETATM   12  C   UNK     0     -26.385  -1.132   2.490  0.00  0.00    -0.031 A 
HETATM   13  C   UNK     0     -26.535   0.263   1.926  0.00  0.00     0.051 C 
HETATM   14  C   UNK     0     -25.187  -4.621   2.465  0.00  0.00     0.115 C 
HETATM   15  C   UNK     0     -24.138  -5.015   3.493  0.00  0.00     0.021 A 
HETATM   16  N   UNK     0     -24.301  -5.154   4.822  0.00  0.00    -0.361 N 
HETATM   17  C   UNK     0     -23.123  -5.441   5.380  0.00  0.00     0.022 A 
HETATM   18  C   UNK     0     -22.148  -5.502   4.366  0.00  0.00    -0.027 A 
HETATM   19  C   UNK     0     -22.796  -5.235   3.188  0.00  0.00    -0.031 A 
HETATM   20  C   UNK     0     -22.116  -5.235   1.831  0.00  0.00     0.051 C 
HETATM   21  C   UNK     0     -22.757  -5.621   6.836  0.00  0.00     0.115 C 
HETATM   22  C   UNK     0     -23.496  -4.781   7.851  0.00  0.00     0.022 A 
HETATM   23  N   UNK     0     -23.854  -3.494   7.759  0.00  0.00    -0.361 N 
HETATM   24  C   UNK     0     -24.622  -3.191   8.826  0.00  0.00     0.021 A 
HETATM   25  C   UNK     0     -24.752  -4.308   9.629  0.00  0.00    -0.031 A 
HETATM   26  C   UNK     0     -25.479  -4.453  10.950  0.00  0.00     0.051 C 
HETATM   27  C   UNK     0     -24.040  -5.338   9.026  0.00  0.00    -0.027 A 
HETATM   28  C   UNK     0     -25.337  -1.883   9.115  0.00  0.00     0.115 C 
HETATM   29  H   UNK     0     -25.101  -1.165   6.268  0.00  0.00     0.165 HD
HETATM   30  H   UNK     0     -26.834  -3.600   4.660  0.00  0.00     0.165 HD
HETATM   31  H   UNK     0     -25.276  -5.095   5.372  0.00  0.00     0.165 HD
HETATM   32  H   UNK     0     -23.533  -2.774   6.962  0.00  0.00     0.165 HD
ENDROOT
BRANCH   6  33
HETATM   33  C   UNK     0     -29.793  -0.890   6.955  0.00  0.00     0.051 C 
BRANCH  33  34
HETATM   34  C   UNK     0     -30.137   0.569   6.767  0.00  0.00     0.114 C 
BRANCH  34  35
HETATM   35  C   UNK     0     -31.206   0.905   7.751  0.00  0.00     0.139 C 
HETATM   36  O   UNK     0     -32.116   1.730   7.446  0.00  0.00    -0.650 OA
BRANCH  35  37
HETATM   37  O   UNK     0     -31.259   0.344   9.021  0.00  0.00    -0.776 OA
HETATM   38  H   UNK     0     -30.441  -0.030   9.475  0.00  0.00     0.167 HD
ENDBRANCH  35  37
ENDBRANCH  34  35
ENDBRANCH  33  34
ENDBRANCH   6  33
BRANCH  27  39
HETATM   39  C   UNK     0     -23.888  -6.686   9.638  0.00  0.00     0.051 C 
BRANCH  39  40
HETATM   40  C   UNK     0     -22.773  -6.909  10.558  0.00  0.00     0.114 C 
BRANCH  40  41
HETATM   41  C   UNK     0     -21.573  -6.103  10.524  0.00  0.00     0.139 C 
HETATM   42  O   UNK     0     -21.316  -5.226  11.360  0.00  0.00    -0.650 OA
BRANCH  41  43
HETATM   43  O   UNK     0     -20.627  -6.316   9.482  0.00  0.00    -0.776 OA
HETATM   44  H   UNK     0     -20.684  -7.227   9.044  0.00  0.00     0.167 HD
ENDBRANCH  41  43
ENDBRANCH  40  41
ENDBRANCH  39  40
ENDBRANCH  27  39
BRANCH  11  45
HETATM   45  C   UNK     0     -25.043  -2.077   0.541  0.00  0.00     0.051 C 
BRANCH  45  46
HETATM   46  C   UNK     0     -25.805  -2.697  -0.573  0.00  0.00     0.114 C 
BRANCH  46  47
HETATM   47  C   UNK     0     -24.970  -3.808  -1.115  0.00  0.00     0.139 C 
HETATM   48  O   UNK     0     -23.752  -3.625  -1.243  0.00  0.00    -0.650 OA
BRANCH  47  49
HETATM   49  O   UNK     0     -25.538  -5.007  -1.465  0.00  0.00    -0.776 OA
HETATM   50  H   UNK     0     -25.234  -5.533  -2.293  0.00  0.00     0.167 HD
ENDBRANCH  47  49
ENDBRANCH  46  47
ENDBRANCH  45  46
ENDBRANCH  11  45
BRANCH  18  51
HETATM   51  C   UNK     0     -20.682  -5.819   4.508  0.00  0.00     0.051 C 
BRANCH  51  52
HETATM   52  C   UNK     0     -20.560  -6.743   5.711  0.00  0.00     0.114 C 
BRANCH  52  53
HETATM   53  C   UNK     0     -19.155  -6.934   6.117  0.00  0.00     0.139 C 
HETATM   54  O   UNK     0     -18.868  -7.075   7.317  0.00  0.00    -0.650 OA
BRANCH  53  55
HETATM   55  O   UNK     0     -18.168  -6.952   5.162  0.00  0.00    -0.776 OA
HETATM   56  H   UNK     0     -17.244  -7.295   5.284  0.00  0.00     0.167 HD
ENDBRANCH  53  55
ENDBRANCH  52  53
ENDBRANCH  51  52
ENDBRANCH  18  51
TORSDOF 16
ENDMDL
MODEL 13
REMARK VINA RESULT:      -8.6      2.055      7.713
REMARK  16 active torsions:
REMARK  status: ('A' for Active; 'I' for Inactive)
REMARK    1  A    between atoms: C_6  and  C_7 
REMARK    2  A    between atoms: C_7  and  C_8 
REMARK    3  A    between atoms: C_8  and  C_9 
REMARK    4  A    between atoms: C_9  and  O_11 
REMARK    5  A    between atoms: C_16  and  C_17 
REMARK    6  A    between atoms: C_17  and  C_18 
REMARK    7  A    between atoms: C_18  and  C_19 
REMARK    8  A    between atoms: C_19  and  O_21 
REMARK    9  A    between atoms: C_28  and  C_29 
REMARK   10  A    between atoms: C_29  and  C_30 
REMARK   11  A    between atoms: C_30  and  C_31 
REMARK   12  A    between atoms: C_31  and  O_33 
REMARK   13  A    between atoms: C_42  and  C_43 
REMARK   14  A    between atoms: C_43  and  C_44 
REMARK   15  A    between atoms: C_44  and  C_45 
REMARK   16  A    between atoms: C_45  and  O_47 
ROOT
HETATM    1  C   UNK     0     -24.047  -2.929  -0.512  0.00  0.00     0.051 C 
HETATM    2  C   UNK     0     -24.768  -2.939   0.821  0.00  0.00    -0.031 A 
HETATM    3  C   UNK     0     -24.890  -3.962   1.748  0.00  0.00     0.021 A 
HETATM    4  N   UNK     0     -25.651  -3.533   2.782  0.00  0.00    -0.361 N 
HETATM    5  C   UNK     0     -26.009  -2.255   2.539  0.00  0.00     0.022 A 
HETATM    6  C   UNK     0     -25.476  -1.853   1.319  0.00  0.00    -0.027 A 
HETATM    7  C   UNK     0     -26.766  -1.298   3.406  0.00  0.00     0.115 C 
HETATM    8  C   UNK     0     -26.404  -1.280   4.880  0.00  0.00     0.021 A 
HETATM    9  N   UNK     0     -25.199  -1.446   5.447  0.00  0.00    -0.361 N 
HETATM   10  C   UNK     0     -25.362  -1.446   6.787  0.00  0.00     0.022 A 
HETATM   11  C   UNK     0     -26.708  -1.264   7.092  0.00  0.00    -0.027 A 
HETATM   12  C   UNK     0     -27.370  -1.159   5.895  0.00  0.00    -0.031 A 
HETATM   13  C   UNK     0     -28.859  -0.947   5.735  0.00  0.00     0.051 C 
HETATM   14  C   UNK     0     -24.269  -1.668   7.829  0.00  0.00     0.115 C 
HETATM   15  C   UNK     0     -23.587  -3.023   7.725  0.00  0.00     0.021 A 
HETATM   16  N   UNK     0     -22.928  -3.532   6.667  0.00  0.00    -0.361 N 
HETATM   17  C   UNK     0     -22.536  -4.776   6.952  0.00  0.00     0.022 A 
HETATM   18  C   UNK     0     -22.951  -5.088   8.262  0.00  0.00    -0.027 A 
HETATM   19  C   UNK     0     -23.606  -3.982   8.736  0.00  0.00    -0.031 A 
HETATM   20  C   UNK     0     -24.188  -3.879  10.134  0.00  0.00     0.051 C 
HETATM   21  C   UNK     0     -21.831  -5.795   6.086  0.00  0.00     0.115 C 
HETATM   22  C   UNK     0     -22.149  -5.795   4.609  0.00  0.00     0.022 A 
HETATM   23  N   UNK     0     -23.338  -5.627   4.017  0.00  0.00    -0.361 N 
HETATM   24  C   UNK     0     -23.141  -5.553   2.685  0.00  0.00     0.021 A 
HETATM   25  C   UNK     0     -21.793  -5.686   2.413  0.00  0.00    -0.031 A 
HETATM   26  C   UNK     0     -21.089  -5.709   1.072  0.00  0.00     0.051 C 
HETATM   27  C   UNK     0     -21.138  -5.842   3.629  0.00  0.00    -0.027 A 
HETATM   28  C   UNK     0     -24.174  -5.276   1.606  0.00  0.00     0.115 C 
HETATM   29  H   UNK     0     -25.962  -4.148   3.658  0.00  0.00     0.165 HD
HETATM   30  H   UNK     0     -24.224  -1.514   4.905  0.00  0.00     0.165 HD
HETATM   31  H   UNK     0     -22.693  -2.986   5.717  0.00  0.00     0.165 HD
HETATM   32  H   UNK     0     -24.335  -5.603   4.530  0.00  0.00     0.165 HD
ENDROOT
BRANCH   6  33
HETATM   33  C   UNK     0     -25.589  -0.533   0.599  0.00  0.00     0.051 C 
BRANCH  33  34
HETATM   34  C   UNK     0     -26.422  -0.676  -0.653  0.00  0.00     0.114 C 
BRANCH  34  35
HETATM   35  C   UNK     0     -27.702   0.053  -0.422  0.00  0.00     0.139 C 
HETATM   36  O   UNK     0     -28.768  -0.341  -0.979  0.00  0.00    -0.650 OA
BRANCH  35  37
HETATM   37  O   UNK     0     -27.791   1.172   0.396  0.00  0.00    -0.776 OA
HETATM   38  H   UNK     0     -27.220   1.989   0.248  0.00  0.00     0.167 HD
ENDBRANCH  35  37
ENDBRANCH  34  35
ENDBRANCH  33  34
ENDBRANCH   6  33
BRANCH  27  39
HETATM   39  C   UNK     0     -19.673  -6.086   3.735  0.00  0.00     0.051 C 
BRANCH  39  40
HETATM   40  C   UNK     0     -18.779  -4.930   3.784  0.00  0.00     0.114 C 
BRANCH  40  41
HETATM   41  C   UNK     0     -17.454  -5.005   4.358  0.00  0.00     0.139 C 
HETATM   42  O   UNK     0     -16.436  -4.595   3.784  0.00  0.00    -0.650 OA
BRANCH  41  43
HETATM   43  O   UNK     0     -17.293  -5.576   5.652  0.00  0.00    -0.776 OA
HETATM   44  H   UNK     0     -16.961  -4.930   6.357  0.00  0.00     0.167 HD
ENDBRANCH  41  43
ENDBRANCH  40  41
ENDBRANCH  39  40
ENDBRANCH  27  39
BRANCH  11  45
HETATM   45  C   UNK     0     -27.366  -1.188   8.443  0.00  0.00     0.051 C 
BRANCH  45  46
HETATM   46  C   UNK     0     -27.600  -2.509   9.079  0.00  0.00     0.114 C 
BRANCH  46  47
HETATM   47  C   UNK     0     -29.070  -2.645   9.288  0.00  0.00     0.139 C 
HETATM   48  O   UNK     0     -29.789  -1.652   9.102  0.00  0.00    -0.650 OA
BRANCH  47  49
HETATM   49  O   UNK     0     -29.617  -3.841   9.678  0.00  0.00    -0.776 OA
HETATM   50  H   UNK     0     -29.571  -4.680   9.089  0.00  0.00     0.167 HD
ENDBRANCH  47  49
ENDBRANCH  46  47
ENDBRANCH  45  46
ENDBRANCH  11  45
BRANCH  18  51
HETATM   51  C   UNK     0     -22.716  -6.364   9.028  0.00  0.00     0.051 C 
BRANCH  51  52
HETATM   52  C   UNK     0     -23.898  -7.271   8.719  0.00  0.00     0.114 C 
BRANCH  52  53
HETATM   53  C   UNK     0     -24.417  -7.931   9.932  0.00  0.00     0.139 C 
HETATM   54  O   UNK     0     -25.579  -8.366   9.955  0.00  0.00    -0.650 OA
BRANCH  53  55
HETATM   55  O   UNK     0     -23.607  -8.058  11.035  0.00  0.00    -0.776 OA
HETATM   56  H   UNK     0     -23.133  -7.320  11.499  0.00  0.00     0.167 HD
ENDBRANCH  53  55
ENDBRANCH  52  53
ENDBRANCH  51  52
ENDBRANCH  18  51
TORSDOF 16
ENDMDL
MODEL 14
REMARK VINA RESULT:      -8.5      2.390      7.202
REMARK  16 active torsions:
REMARK  status: ('A' for Active; 'I' for Inactive)
REMARK    1  A    between atoms: C_6  and  C_7 
REMARK    2  A    between atoms: C_7  and  C_8 
REMARK    3  A    between atoms: C_8  and  C_9 
REMARK    4  A    between atoms: C_9  and  O_11 
REMARK    5  A    between atoms: C_16  and  C_17 
REMARK    6  A    between atoms: C_17  and  C_18 
REMARK    7  A    between atoms: C_18  and  C_19 
REMARK    8  A    between atoms: C_19  and  O_21 
REMARK    9  A    between atoms: C_28  and  C_29 
REMARK   10  A    between atoms: C_29  and  C_30 
REMARK   11  A    between atoms: C_30  and  C_31 
REMARK   12  A    between atoms: C_31  and  O_33 
REMARK   13  A    between atoms: C_42  and  C_43 
REMARK   14  A    between atoms: C_43  and  C_44 
REMARK   15  A    between atoms: C_44  and  C_45 
REMARK   16  A    between atoms: C_45  and  O_47 
ROOT
HETATM    1  C   UNK     0     -23.802  -7.850   8.590  0.00  0.00     0.051 C 
HETATM    2  C   UNK     0     -24.512  -7.107   7.477  0.00  0.00    -0.031 A 
HETATM    3  C   UNK     0     -25.829  -6.682   7.404  0.00  0.00     0.021 A 
HETATM    4  N   UNK     0     -26.034  -6.085   6.206  0.00  0.00    -0.361 N 
HETATM    5  C   UNK     0     -24.874  -6.113   5.517  0.00  0.00     0.022 A 
HETATM    6  C   UNK     0     -23.902  -6.748   6.282  0.00  0.00    -0.027 A 
HETATM    7  C   UNK     0     -24.541  -5.509   4.189  0.00  0.00     0.115 C 
HETATM    8  C   UNK     0     -25.064  -4.108   3.927  0.00  0.00     0.021 A 
HETATM    9  N   UNK     0     -25.200  -3.091   4.792  0.00  0.00    -0.361 N 
HETATM   10  C   UNK     0     -25.791  -2.065   4.143  0.00  0.00     0.022 A 
HETATM   11  C   UNK     0     -26.032  -2.427   2.821  0.00  0.00    -0.027 A 
HETATM   12  C   UNK     0     -25.577  -3.713   2.678  0.00  0.00    -0.031 A 
HETATM   13  C   UNK     0     -25.628  -4.521   1.401  0.00  0.00     0.051 C 
HETATM   14  C   UNK     0     -26.197  -0.726   4.754  0.00  0.00     0.115 C 
HETATM   15  C   UNK     0     -27.214  -0.846   5.877  0.00  0.00     0.021 A 
HETATM   16  N   UNK     0     -27.091  -1.534   7.027  0.00  0.00    -0.361 N 
HETATM   17  C   UNK     0     -28.231  -1.446   7.716  0.00  0.00     0.022 A 
HETATM   18  C   UNK     0     -29.138  -0.654   6.983  0.00  0.00    -0.027 A 
HETATM   19  C   UNK     0     -28.488  -0.283   5.834  0.00  0.00    -0.031 A 
HETATM   20  C   UNK     0     -29.098   0.613   4.772  0.00  0.00     0.051 C 
HETATM   21  C   UNK     0     -28.630  -2.092   9.023  0.00  0.00     0.115 C 
HETATM   22  C   UNK     0     -28.081  -3.468   9.317  0.00  0.00     0.022 A 
HETATM   23  N   UNK     0     -27.930  -4.499   8.474  0.00  0.00    -0.361 N 
HETATM   24  C   UNK     0     -27.270  -5.481   9.120  0.00  0.00     0.021 A 
HETATM   25  C   UNK     0     -26.999  -5.077  10.414  0.00  0.00    -0.031 A 
HETATM   26  C   UNK     0     -26.317  -5.844  11.528  0.00  0.00     0.051 C 
HETATM   27  C   UNK     0     -27.509  -3.793  10.563  0.00  0.00    -0.027 A 
HETATM   28  C   UNK     0     -26.788  -6.805   8.554  0.00  0.00     0.115 C 
HETATM   29  H   UNK     0     -27.007  -5.684   5.839  0.00  0.00     0.165 HD
HETATM   30  H   UNK     0     -24.836  -3.076   5.848  0.00  0.00     0.165 HD
HETATM   31  H   UNK     0     -26.164  -2.054   7.384  0.00  0.00     0.165 HD
HETATM   32  H   UNK     0     -28.326  -4.559   7.427  0.00  0.00     0.165 HD
ENDROOT
BRANCH   6  33
HETATM   33  C   UNK     0     -22.456  -7.037   5.967  0.00  0.00     0.051 C 
BRANCH  33  34
HETATM   34  C   UNK     0     -21.654  -5.759   5.910  0.00  0.00     0.114 C 
BRANCH  34  35
HETATM   35  C   UNK     0     -21.185  -5.588   4.505  0.00  0.00     0.139 C 
HETATM   36  O   UNK     0     -21.004  -6.600   3.766  0.00  0.00    -0.650 OA
BRANCH  35  37
HETATM   37  O   UNK     0     -20.930  -4.342   3.945  0.00  0.00    -0.776 OA
HETATM   38  H   UNK     0     -20.601  -4.238   2.999  0.00  0.00     0.167 HD
ENDBRANCH  35  37
ENDBRANCH  34  35
ENDBRANCH  33  34
ENDBRANCH   6  33
BRANCH  27  39
HETATM   39  C   UNK     0     -27.469  -3.050  11.852  0.00  0.00     0.051 C 
BRANCH  39  40
HETATM   40  C   UNK     0     -26.388  -2.088  12.066  0.00  0.00     0.114 C 
BRANCH  40  41
HETATM   41  C   UNK     0     -24.997  -2.483  12.086  0.00  0.00     0.139 C 
HETATM   42  O   UNK     0     -24.395  -2.811  13.117  0.00  0.00    -0.650 OA
BRANCH  41  43
HETATM   43  O   UNK     0     -24.267  -2.502  10.864  0.00  0.00    -0.776 OA
HETATM   44  H   UNK     0     -23.785  -3.373  10.677  0.00  0.00     0.167 HD
ENDBRANCH  41  43
ENDBRANCH  40  41
ENDBRANCH  39  40
ENDBRANCH  27  39
BRANCH  11  45
HETATM   45  C   UNK     0     -26.661  -1.614   1.722  0.00  0.00     0.051 C 
BRANCH  45  46
HETATM   46  C   UNK     0     -25.919  -0.372   1.386  0.00  0.00     0.114 C 
BRANCH  46  47
HETATM   47  C   UNK     0     -26.932   0.681   1.089  0.00  0.00     0.139 C 
HETATM   48  O   UNK     0     -27.067   1.616   1.891  0.00  0.00    -0.650 OA
BRANCH  47  49
HETATM   49  O   UNK     0     -27.701   0.616  -0.045  0.00  0.00    -0.776 OA
HETATM   50  H   UNK     0     -28.243  -0.221  -0.289  0.00  0.00     0.167 HD
ENDBRANCH  47  49
ENDBRANCH  46  47
ENDBRANCH  45  46
ENDBRANCH  11  45
BRANCH  18  51
HETATM   51  C   UNK     0     -30.539  -0.254   7.367  0.00  0.00     0.051 C 
BRANCH  51  52
HETATM   52  C   UNK     0     -30.411   1.037   8.161  0.00  0.00     0.114 C 
BRANCH  52  53
HETATM   53  C   UNK     0     -31.131   0.964   9.448  0.00  0.00     0.139 C 
HETATM   54  O   UNK     0     -30.543   0.572  10.468  0.00  0.00    -0.650 OA
BRANCH  53  55
HETATM   55  O   UNK     0     -32.454   1.330   9.508  0.00  0.00    -0.776 OA
HETATM   56  H   UNK     0     -32.805   2.259   9.497  0.00  0.00     0.167 HD
ENDBRANCH  53  55
ENDBRANCH  52  53
ENDBRANCH  51  52
ENDBRANCH  18  51
TORSDOF 16
ENDMDL
MODEL 15
REMARK VINA RESULT:      -8.5     29.339     34.162
REMARK  16 active torsions:
REMARK  status: ('A' for Active; 'I' for Inactive)
REMARK    1  A    between atoms: C_6  and  C_7 
REMARK    2  A    between atoms: C_7  and  C_8 
REMARK    3  A    between atoms: C_8  and  C_9 
REMARK    4  A    between atoms: C_9  and  O_11 
REMARK    5  A    between atoms: C_16  and  C_17 
REMARK    6  A    between atoms: C_17  and  C_18 
REMARK    7  A    between atoms: C_18  and  C_19 
REMARK    8  A    between atoms: C_19  and  O_21 
REMARK    9  A    between atoms: C_28  and  C_29 
REMARK   10  A    between atoms: C_29  and  C_30 
REMARK   11  A    between atoms: C_30  and  C_31 
REMARK   12  A    between atoms: C_31  and  O_33 
REMARK   13  A    between atoms: C_42  and  C_43 
REMARK   14  A    between atoms: C_43  and  C_44 
REMARK   15  A    between atoms: C_44  and  C_45 
REMARK   16  A    between atoms: C_45  and  O_47 
ROOT
HETATM    1  C   UNK     0       7.450   2.874   8.589  0.00  0.00     0.051 C 
HETATM    2  C   UNK     0       8.018   3.165   7.214  0.00  0.00    -0.031 A 
HETATM    3  C   UNK     0       7.990   2.387   6.068  0.00  0.00     0.021 A 
HETATM    4  N   UNK     0       8.651   3.034   5.079  0.00  0.00    -0.361 N 
HETATM    5  C   UNK     0       9.093   4.211   5.568  0.00  0.00     0.022 A 
HETATM    6  C   UNK     0       8.717   4.324   6.902  0.00  0.00    -0.027 A 
HETATM    7  C   UNK     0       9.794   5.331   4.864  0.00  0.00     0.115 C 
HETATM    8  C   UNK     0       9.272   5.703   3.487  0.00  0.00     0.021 A 
HETATM    9  N   UNK     0       8.006   5.699   3.044  0.00  0.00    -0.361 N 
HETATM   10  C   UNK     0       8.021   6.012   1.731  0.00  0.00     0.022 A 
HETATM   11  C   UNK     0       9.332   6.234   1.320  0.00  0.00    -0.027 A 
HETATM   12  C   UNK     0      10.126   6.041   2.422  0.00  0.00    -0.031 A 
HETATM   13  C   UNK     0      11.631   6.181   2.449  0.00  0.00     0.051 C 
HETATM   14  C   UNK     0       6.810   6.063   0.802  0.00  0.00     0.115 C 
HETATM   15  C   UNK     0       6.081   4.735   0.669  0.00  0.00     0.021 A 
HETATM   16  N   UNK     0       5.520   4.004   1.650  0.00  0.00    -0.361 N 
HETATM   17  C   UNK     0       5.042   2.870   1.132  0.00  0.00     0.022 A 
HETATM   18  C   UNK     0       5.295   2.867  -0.254  0.00  0.00    -0.027 A 
HETATM   19  C   UNK     0       5.945   4.042  -0.532  0.00  0.00    -0.031 A 
HETATM   20  C   UNK     0       6.373   4.460  -1.927  0.00  0.00     0.051 C 
HETATM   21  C   UNK     0       4.390   1.689   1.815  0.00  0.00     0.115 C 
HETATM   22  C   UNK     0       4.868   1.335   3.203  0.00  0.00     0.022 A 
HETATM   23  N   UNK     0       6.122   1.335   3.674  0.00  0.00    -0.361 N 
HETATM   24  C   UNK     0       6.077   1.096   5.000  0.00  0.00     0.021 A 
HETATM   25  C   UNK     0       4.762   0.929   5.391  0.00  0.00    -0.031 A 
HETATM   26  C   UNK     0       4.210   0.604   6.764  0.00  0.00     0.051 C 
HETATM   27  C   UNK     0       3.970   1.077   4.258  0.00  0.00    -0.027 A 
HETATM   28  C   UNK     0       7.234   1.091   5.984  0.00  0.00     0.115 C 
HETATM   29  H   UNK     0       8.835   2.637   4.054  0.00  0.00     0.165 HD
HETATM   30  H   UNK     0       7.095   5.524   3.666  0.00  0.00     0.165 HD
HETATM   31  H   UNK     0       5.417   4.314   2.722  0.00  0.00     0.165 HD
HETATM   32  H   UNK     0       7.056   1.460   3.066  0.00  0.00     0.165 HD
ENDROOT
BRANCH   6  33
HETATM   33  C   UNK     0       8.970   5.435   7.890  0.00  0.00     0.051 C 
BRANCH  33  34
HETATM   34  C   UNK     0      10.449   5.593   8.150  0.00  0.00     0.114 C 
BRANCH  34  35
HETATM   35  C   UNK     0      10.739   7.055   8.201  0.00  0.00     0.139 C 
HETATM   36  O   UNK     0      10.262   7.831   7.323  0.00  0.00    -0.650 OA
BRANCH  35  37
HETATM   37  O   UNK     0      11.526   7.628   9.193  0.00  0.00    -0.776 OA
HETATM   38  H   UNK     0      11.244   7.637  10.161  0.00  0.00     0.167 HD
ENDBRANCH  35  37
ENDBRANCH  34  35
ENDBRANCH  33  34
ENDBRANCH   6  33
BRANCH  27  39
HETATM   39  C   UNK     0       2.493   0.893   4.272  0.00  0.00     0.051 C 
BRANCH  39  40
HETATM   40  C   UNK     0       1.962  -0.468   4.198  0.00  0.00     0.114 C 
BRANCH  40  41
HETATM   41  C   UNK     0       0.651  -0.812   4.699  0.00  0.00     0.139 C 
HETATM   42  O   UNK     0      -0.266   0.009   4.834  0.00  0.00    -0.650 OA
BRANCH  41  43
HETATM   43  O   UNK     0       0.382  -2.162   5.062  0.00  0.00    -0.776 OA
HETATM   44  H   UNK     0       0.010  -2.279   5.997  0.00  0.00     0.167 HD
ENDBRANCH  41  43
ENDBRANCH  40  41
ENDBRANCH  39  40
ENDBRANCH  27  39
BRANCH  11  45
HETATM   45  C   UNK     0       9.839   6.615  -0.045  0.00  0.00     0.051 C 
BRANCH  45  46
HETATM   46  C   UNK     0       9.830   8.076  -0.309  0.00  0.00     0.114 C 
BRANCH  46  47
HETATM   47  C   UNK     0       8.666   8.357  -1.198  0.00  0.00     0.139 C 
HETATM   48  O   UNK     0       8.637   7.831  -2.319  0.00  0.00    -0.650 OA
BRANCH  47  49
HETATM   49  O   UNK     0       7.650   9.182  -0.785  0.00  0.00    -0.776 OA
HETATM   50  H   UNK     0       7.790   9.902  -0.067  0.00  0.00     0.167 HD
ENDBRANCH  47  49
ENDBRANCH  46  47
ENDBRANCH  45  46
ENDBRANCH  11  45
BRANCH  18  51
HETATM   51  C   UNK     0       4.918   1.813  -1.262  0.00  0.00     0.051 C 
BRANCH  51  52
HETATM   52  C   UNK     0       6.020   0.765  -1.214  0.00  0.00     0.114 C 
BRANCH  52  53
HETATM   53  C   UNK     0       6.896   0.835  -2.399  0.00  0.00     0.139 C 
HETATM   54  O   UNK     0       6.452   1.262  -3.477  0.00  0.00    -0.650 OA
BRANCH  53  55
HETATM   55  O   UNK     0       8.203   0.421  -2.303  0.00  0.00    -0.776 OA
HETATM   56  H   UNK     0       8.558  -0.249  -1.662  0.00  0.00     0.167 HD
ENDBRANCH  53  55
ENDBRANCH  52  53
ENDBRANCH  51  52
ENDBRANCH  18  51
TORSDOF 16
ENDMDL
MODEL 16
REMARK VINA RESULT:      -8.3     30.045     34.824
REMARK  16 active torsions:
REMARK  status: ('A' for Active; 'I' for Inactive)
REMARK    1  A    between atoms: C_6  and  C_7 
REMARK    2  A    between atoms: C_7  and  C_8 
REMARK    3  A    between atoms: C_8  and  C_9 
REMARK    4  A    between atoms: C_9  and  O_11 
REMARK    5  A    between atoms: C_16  and  C_17 
REMARK    6  A    between atoms: C_17  and  C_18 
REMARK    7  A    between atoms: C_18  and  C_19 
REMARK    8  A    between atoms: C_19  and  O_21 
REMARK    9  A    between atoms: C_28  and  C_29 
REMARK   10  A    between atoms: C_29  and  C_30 
REMARK   11  A    between atoms: C_30  and  C_31 
REMARK   12  A    between atoms: C_31  and  O_33 
REMARK   13  A    between atoms: C_42  and  C_43 
REMARK   14  A    between atoms: C_43  and  C_44 
REMARK   15  A    between atoms: C_44  and  C_45 
REMARK   16  A    between atoms: C_45  and  O_47 
ROOT
HETATM    1  C   UNK     0       8.952   4.634   8.689  0.00  0.00     0.051 C 
HETATM    2  C   UNK     0       9.260   4.855   7.222  0.00  0.00    -0.031 A 
HETATM    3  C   UNK     0       9.135   3.979   6.156  0.00  0.00     0.021 A 
HETATM    4  N   UNK     0       9.556   4.595   5.026  0.00  0.00    -0.361 N 
HETATM    5  C   UNK     0       9.938   5.849   5.348  0.00  0.00     0.022 A 
HETATM    6  C   UNK     0       9.768   6.044   6.715  0.00  0.00    -0.027 A 
HETATM    7  C   UNK     0      10.391   6.964   4.458  0.00  0.00     0.115 C 
HETATM    8  C   UNK     0       9.620   7.160   3.165  0.00  0.00     0.021 A 
HETATM    9  N   UNK     0       8.307   6.993   2.940  0.00  0.00    -0.361 N 
HETATM   10  C   UNK     0       8.079   7.188   1.624  0.00  0.00     0.022 A 
HETATM   11  C   UNK     0       9.276   7.498   0.985  0.00  0.00    -0.027 A 
HETATM   12  C   UNK     0      10.251   7.482   1.950  0.00  0.00    -0.031 A 
HETATM   13  C   UNK     0      11.717   7.768   1.716  0.00  0.00     0.051 C 
HETATM   14  C   UNK     0       6.739   7.039   0.910  0.00  0.00     0.115 C 
HETATM   15  C   UNK     0       6.148   5.641   0.996  0.00  0.00     0.021 A 
HETATM   16  N   UNK     0       5.833   4.949   2.107  0.00  0.00    -0.361 N 
HETATM   17  C   UNK     0       5.406   3.733   1.760  0.00  0.00     0.022 A 
HETATM   18  C   UNK     0       5.434   3.631   0.355  0.00  0.00    -0.027 A 
HETATM   19  C   UNK     0       5.899   4.833  -0.111  0.00  0.00    -0.031 A 
HETATM   20  C   UNK     0       6.052   5.164  -1.585  0.00  0.00     0.051 C 
HETATM   21  C   UNK     0       5.004   2.560   2.626  0.00  0.00     0.115 C 
HETATM   22  C   UNK     0       5.733   2.379   3.937  0.00  0.00     0.022 A 
HETATM   23  N   UNK     0       7.038   2.542   4.190  0.00  0.00    -0.361 N 
HETATM   24  C   UNK     0       7.230   2.419   5.519  0.00  0.00     0.021 A 
HETATM   25  C   UNK     0       6.021   2.161   6.135  0.00  0.00    -0.031 A 
HETATM   26  C   UNK     0       5.732   1.908   7.600  0.00  0.00     0.051 C 
HETATM   27  C   UNK     0       5.048   2.130   5.143  0.00  0.00    -0.027 A 
HETATM   28  C   UNK     0       8.522   2.613   6.293  0.00  0.00     0.115 C 
HETATM   29  H   UNK     0       9.618   4.128   4.016  0.00  0.00     0.165 HD
HETATM   30  H   UNK     0       7.531   6.787   3.717  0.00  0.00     0.165 HD
HETATM   31  H   UNK     0       5.868   5.343   3.156  0.00  0.00     0.165 HD
HETATM   32  H   UNK     0       7.844   2.702   3.427  0.00  0.00     0.165 HD
ENDROOT
BRANCH   6  33
HETATM   33  C   UNK     0      10.052   7.257   7.564  0.00  0.00     0.051 C 
BRANCH  33  34
HETATM   34  C   UNK     0       8.770   7.974   7.917  0.00  0.00     0.114 C 
BRANCH  34  35
HETATM   35  C   UNK     0       8.928   9.398   7.505  0.00  0.00     0.139 C 
HETATM   36  O   UNK     0       8.307   9.842   6.495  0.00  0.00    -0.650 OA
BRANCH  35  37
HETATM   37  O   UNK     0       9.741  10.291   8.191  0.00  0.00    -0.776 OA
HETATM   38  H   UNK     0       9.370  11.103   8.658  0.00  0.00     0.167 HD
ENDBRANCH  35  37
ENDBRANCH  34  35
ENDBRANCH  33  34
ENDBRANCH   6  33
BRANCH  27  39
HETATM   39  C   UNK     0       3.621   1.807   5.417  0.00  0.00     0.051 C 
BRANCH  39  40
HETATM   40  C   UNK     0       2.675   2.913   5.565  0.00  0.00     0.114 C 
BRANCH  40  41
HETATM   41  C   UNK     0       3.106   4.290   5.649  0.00  0.00     0.139 C 
HETATM   42  O   UNK     0       3.297   4.881   6.720  0.00  0.00    -0.650 OA
BRANCH  41  43
HETATM   43  O   UNK     0       3.327   5.020   4.447  0.00  0.00    -0.776 OA
HETATM   44  H   UNK     0       4.035   4.624   3.841  0.00  0.00     0.167 HD
ENDBRANCH  41  43
ENDBRANCH  40  41
ENDBRANCH  39  40
ENDBRANCH  27  39
BRANCH  11  45
HETATM   45  C   UNK     0       9.516   7.803  -0.469  0.00  0.00     0.051 C 
BRANCH  45  46
HETATM   46  C   UNK     0       9.656   9.251  -0.770  0.00  0.00     0.114 C 
BRANCH  46  47
HETATM   47  C   UNK     0      10.830   9.401  -1.677  0.00  0.00     0.139 C 
HETATM   48  O   UNK     0      11.661   8.483  -1.728  0.00  0.00    -0.650 OA
BRANCH  47  49
HETATM   49  O   UNK     0      10.990  10.532  -2.438  0.00  0.00    -0.776 OA
HETATM   50  H   UNK     0      10.252  11.241  -2.521  0.00  0.00     0.167 HD
ENDBRANCH  47  49
ENDBRANCH  46  47
ENDBRANCH  45  46
ENDBRANCH  11  45
BRANCH  18  51
HETATM   51  C   UNK     0       5.021   2.459  -0.497  0.00  0.00     0.051 C 
BRANCH  51  52
HETATM   52  C   UNK     0       3.721   2.865  -1.177  0.00  0.00     0.114 C 
BRANCH  52  53
HETATM   53  C   UNK     0       2.602   2.947  -0.218  0.00  0.00     0.139 C 
HETATM   54  O   UNK     0       1.986   4.014  -0.072  0.00  0.00    -0.650 OA
BRANCH  53  55
HETATM   55  O   UNK     0       2.250   1.838   0.512  0.00  0.00    -0.776 OA
HETATM   56  H   UNK     0       2.296   0.895   0.202  0.00  0.00     0.167 HD
ENDBRANCH  53  55
ENDBRANCH  52  53
ENDBRANCH  51  52
ENDBRANCH  18  51
TORSDOF 16
ENDMDL
MODEL 17
REMARK VINA RESULT:      -8.2      2.856      7.507
REMARK  16 active torsions:
REMARK  status: ('A' for Active; 'I' for Inactive)
REMARK    1  A    between atoms: C_6  and  C_7 
REMARK    2  A    between atoms: C_7  and  C_8 
REMARK    3  A    between atoms: C_8  and  C_9 
REMARK    4  A    between atoms: C_9  and  O_11 
REMARK    5  A    between atoms: C_16  and  C_17 
REMARK    6  A    between atoms: C_17  and  C_18 
REMARK    7  A    between atoms: C_18  and  C_19 
REMARK    8  A    between atoms: C_19  and  O_21 
REMARK    9  A    between atoms: C_28  and  C_29 
REMARK   10  A    between atoms: C_29  and  C_30 
REMARK   11  A    between atoms: C_30  and  C_31 
REMARK   12  A    between atoms: C_31  and  O_33 
REMARK   13  A    between atoms: C_42  and  C_43 
REMARK   14  A    between atoms: C_43  and  C_44 
REMARK   15  A    between atoms: C_44  and  C_45 
REMARK   16  A    between atoms: C_45  and  O_47 
ROOT
HETATM    1  C   UNK     0     -21.247  -7.098   6.266  0.00  0.00     0.051 C 
HETATM    2  C   UNK     0     -22.502  -6.321   5.925  0.00  0.00    -0.031 A 
HETATM    3  C   UNK     0     -23.766  -6.400   6.489  0.00  0.00     0.021 A 
HETATM    4  N   UNK     0     -24.590  -5.538   5.847  0.00  0.00    -0.361 N 
HETATM    5  C   UNK     0     -23.877  -4.905   4.893  0.00  0.00     0.022 A 
HETATM    6  C   UNK     0     -22.567  -5.373   4.912  0.00  0.00    -0.027 A 
HETATM    7  C   UNK     0     -24.289  -3.798   3.973  0.00  0.00     0.115 C 
HETATM    8  C   UNK     0     -25.119  -2.681   4.581  0.00  0.00     0.021 A 
HETATM    9  N   UNK     0     -25.038  -2.153   5.812  0.00  0.00    -0.361 N 
HETATM   10  C   UNK     0     -26.032  -1.250   5.947  0.00  0.00     0.022 A 
HETATM   11  C   UNK     0     -26.768  -1.188   4.767  0.00  0.00    -0.027 A 
HETATM   12  C   UNK     0     -26.199  -2.087   3.902  0.00  0.00    -0.031 A 
HETATM   13  C   UNK     0     -26.666  -2.358   2.490  0.00  0.00     0.051 C 
HETATM   14  C   UNK     0     -26.359  -0.451   7.206  0.00  0.00     0.115 C 
HETATM   15  C   UNK     0     -26.726  -1.312   8.403  0.00  0.00     0.021 A 
HETATM   16  N   UNK     0     -25.978  -2.266   8.989  0.00  0.00    -0.361 N 
HETATM   17  C   UNK     0     -26.686  -2.840   9.965  0.00  0.00     0.022 A 
HETATM   18  C   UNK     0     -27.951  -2.224  10.025  0.00  0.00    -0.027 A 
HETATM   19  C   UNK     0     -27.964  -1.268   9.042  0.00  0.00    -0.031 A 
HETATM   20  C   UNK     0     -29.136  -0.339   8.782  0.00  0.00     0.051 C 
HETATM   21  C   UNK     0     -26.332  -3.999  10.869  0.00  0.00     0.115 C 
HETATM   22  C   UNK     0     -25.469  -5.096  10.291  0.00  0.00     0.022 A 
HETATM   23  N   UNK     0     -25.526  -5.639   9.068  0.00  0.00    -0.361 N 
HETATM   24  C   UNK     0     -24.480  -6.478   8.928  0.00  0.00     0.021 A 
HETATM   25  C   UNK     0     -23.738  -6.484  10.094  0.00  0.00    -0.031 A 
HETATM   26  C   UNK     0     -22.503  -7.293  10.434  0.00  0.00     0.051 C 
HETATM   27  C   UNK     0     -24.352  -5.607  10.981  0.00  0.00    -0.027 A 
HETATM   28  C   UNK     0     -24.069  -7.253   7.688  0.00  0.00     0.115 C 
HETATM   29  H   UNK     0     -25.679  -5.411   6.047  0.00  0.00     0.165 HD
HETATM   30  H   UNK     0     -24.249  -2.379   6.570  0.00  0.00     0.165 HD
HETATM   31  H   UNK     0     -24.912  -2.508   8.741  0.00  0.00     0.165 HD
HETATM   32  H   UNK     0     -26.330  -5.467   8.306  0.00  0.00     0.165 HD
ENDROOT
BRANCH   6  33
HETATM   33  C   UNK     0     -21.389  -4.994   4.051  0.00  0.00     0.051 C 
BRANCH  33  34
HETATM   34  C   UNK     0     -21.146  -6.039   2.987  0.00  0.00     0.114 C 
BRANCH  34  35
HETATM   35  C   UNK     0     -21.894  -5.616   1.768  0.00  0.00     0.139 C 
HETATM   36  O   UNK     0     -22.014  -4.388   1.488  0.00  0.00    -0.650 OA
BRANCH  35  37
HETATM   37  O   UNK     0     -22.482  -6.525   0.897  0.00  0.00    -0.776 OA
HETATM   38  H   UNK     0     -22.136  -7.465   0.791  0.00  0.00     0.167 HD
ENDBRANCH  35  37
ENDBRANCH  34  35
ENDBRANCH  33  34
ENDBRANCH   6  33
BRANCH  27  39
HETATM   39  C   UNK     0     -23.876  -5.401  12.376  0.00  0.00     0.051 C 
BRANCH  39  40
HETATM   40  C   UNK     0     -22.824  -4.413  12.612  0.00  0.00     0.114 C 
BRANCH  40  41
HETATM   41  C   UNK     0     -21.469  -4.794  12.939  0.00  0.00     0.139 C 
HETATM   42  O   UNK     0     -21.158  -5.386  13.982  0.00  0.00    -0.650 OA
BRANCH  41  43
HETATM   43  O   UNK     0     -20.423  -4.479  12.026  0.00  0.00    -0.776 OA
HETATM   44  H   UNK     0     -19.535  -4.920  12.238  0.00  0.00     0.167 HD
ENDBRANCH  41  43
ENDBRANCH  40  41
ENDBRANCH  39  40
ENDBRANCH  27  39
BRANCH  11  45
HETATM   45  C   UNK     0     -27.959  -0.325   4.445  0.00  0.00     0.051 C 
BRANCH  45  46
HETATM   46  C   UNK     0     -27.669   1.132   4.445  0.00  0.00     0.114 C 
BRANCH  46  47
HETATM   47  C   UNK     0     -26.837   1.417   3.241  0.00  0.00     0.139 C 
HETATM   48  O   UNK     0     -27.334   1.236   2.121  0.00  0.00    -0.650 OA
BRANCH  47  49
HETATM   49  O   UNK     0     -25.547   1.867   3.369  0.00  0.00    -0.776 OA
HETATM   50  H   UNK     0     -24.765   1.232   3.568  0.00  0.00     0.167 HD
ENDBRANCH  47  49
ENDBRANCH  46  47
ENDBRANCH  45  46
ENDBRANCH  11  45
BRANCH  18  51
HETATM   51  C   UNK     0     -29.080  -2.515  10.980  0.00  0.00     0.051 C 
BRANCH  51  52
HETATM   52  C   UNK     0     -29.959  -3.552  10.297  0.00  0.00     0.114 C 
BRANCH  52  53
HETATM   53  C   UNK     0     -31.226  -3.762  11.023  0.00  0.00     0.139 C 
HETATM   54  O   UNK     0     -32.007  -4.658  10.664  0.00  0.00    -0.650 OA
BRANCH  53  55
HETATM   55  O   UNK     0     -31.538  -2.958  12.093  0.00  0.00    -0.776 OA
HETATM   56  H   UNK     0     -32.055  -2.112  12.057  0.00  0.00     0.167 HD
ENDBRANCH  53  55
ENDBRANCH  52  53
ENDBRANCH  51  52
ENDBRANCH  18  51
TORSDOF 16
ENDMDL
MODEL 18
REMARK VINA RESULT:      -8.2      4.016      9.221
REMARK  16 active torsions:
REMARK  status: ('A' for Active; 'I' for Inactive)
REMARK    1  A    between atoms: C_6  and  C_7 
REMARK    2  A    between atoms: C_7  and  C_8 
REMARK    3  A    between atoms: C_8  and  C_9 
REMARK    4  A    between atoms: C_9  and  O_11 
REMARK    5  A    between atoms: C_16  and  C_17 
REMARK    6  A    between atoms: C_17  and  C_18 
REMARK    7  A    between atoms: C_18  and  C_19 
REMARK    8  A    between atoms: C_19  and  O_21 
REMARK    9  A    between atoms: C_28  and  C_29 
REMARK   10  A    between atoms: C_29  and  C_30 
REMARK   11  A    between atoms: C_30  and  C_31 
REMARK   12  A    between atoms: C_31  and  O_33 
REMARK   13  A    between atoms: C_42  and  C_43 
REMARK   14  A    between atoms: C_43  and  C_44 
REMARK   15  A    between atoms: C_44  and  C_45 
REMARK   16  A    between atoms: C_45  and  O_47 
ROOT
HETATM    1  C   UNK     0     -27.283  -1.911   4.724  0.00  0.00     0.051 C 
HETATM    2  C   UNK     0     -28.353  -1.552   5.735  0.00  0.00    -0.031 A 
HETATM    3  C   UNK     0     -29.011  -2.364   6.646  0.00  0.00     0.021 A 
HETATM    4  N   UNK     0     -29.914  -1.620   7.328  0.00  0.00    -0.361 N 
HETATM    5  C   UNK     0     -29.841  -0.351   6.878  0.00  0.00     0.022 A 
HETATM    6  C   UNK     0     -28.876  -0.273   5.879  0.00  0.00    -0.027 A 
HETATM    7  C   UNK     0     -30.554   0.873   7.361  0.00  0.00     0.115 C 
HETATM    8  C   UNK     0     -30.667   1.047   8.865  0.00  0.00     0.021 A 
HETATM    9  N   UNK     0     -29.778   0.716   9.814  0.00  0.00    -0.361 N 
HETATM   10  C   UNK     0     -30.337   0.965  11.018  0.00  0.00     0.022 A 
HETATM   11  C   UNK     0     -31.617   1.480  10.838  0.00  0.00    -0.027 A 
HETATM   12  C   UNK     0     -31.832   1.534   9.485  0.00  0.00    -0.031 A 
HETATM   13  C   UNK     0     -33.094   2.035   8.819  0.00  0.00     0.051 C 
HETATM   14  C   UNK     0     -29.709   0.680  12.379  0.00  0.00     0.115 C 
HETATM   15  C   UNK     0     -29.400  -0.789  12.619  0.00  0.00     0.021 A 
HETATM   16  N   UNK     0     -28.604  -1.590  11.887  0.00  0.00    -0.361 N 
HETATM   17  C   UNK     0     -28.650  -2.828  12.385  0.00  0.00     0.022 A 
HETATM   18  C   UNK     0     -29.511  -2.831  13.501  0.00  0.00    -0.027 A 
HETATM   19  C   UNK     0     -29.972  -1.547  13.638  0.00  0.00    -0.031 A 
HETATM   20  C   UNK     0     -30.906  -1.100  14.748  0.00  0.00     0.051 C 
HETATM   21  C   UNK     0     -28.001  -4.100  11.890  0.00  0.00     0.115 C 
HETATM   22  C   UNK     0     -27.842  -4.267  10.397  0.00  0.00     0.022 A 
HETATM   23  N   UNK     0     -28.709  -3.942   9.429  0.00  0.00    -0.361 N 
HETATM   24  C   UNK     0     -28.102  -4.126   8.238  0.00  0.00     0.021 A 
HETATM   25  C   UNK     0     -26.817  -4.589   8.445  0.00  0.00    -0.031 A 
HETATM   26  C   UNK     0     -25.768  -4.977   7.424  0.00  0.00     0.051 C 
HETATM   27  C   UNK     0     -26.627  -4.688   9.819  0.00  0.00    -0.027 A 
HETATM   28  C   UNK     0     -28.649  -3.807   6.858  0.00  0.00     0.115 C 
HETATM   29  H   UNK     0     -30.625  -2.006   8.095  0.00  0.00     0.165 HD
HETATM   30  H   UNK     0     -28.736   0.353   9.637  0.00  0.00     0.165 HD
HETATM   31  H   UNK     0     -27.958  -1.267  11.030  0.00  0.00     0.165 HD
HETATM   32  H   UNK     0     -29.773  -3.622   9.576  0.00  0.00     0.165 HD
ENDROOT
BRANCH   6  33
HETATM   33  C   UNK     0     -28.421   0.908   5.059  0.00  0.00     0.051 C 
BRANCH  33  34
HETATM   34  C   UNK     0     -27.449   1.759   5.841  0.00  0.00     0.114 C 
BRANCH  34  35
HETATM   35  C   UNK     0     -26.076   1.414   5.374  0.00  0.00     0.139 C 
HETATM   36  O   UNK     0     -25.208   1.000   6.196  0.00  0.00    -0.650 OA
BRANCH  35  37
HETATM   37  O   UNK     0     -25.688   1.522   4.044  0.00  0.00    -0.776 OA
HETATM   38  H   UNK     0     -25.984   2.289   3.461  0.00  0.00     0.167 HD
ENDBRANCH  35  37
ENDBRANCH  34  35
ENDBRANCH  33  34
ENDBRANCH   6  33
BRANCH  27  39
HETATM   39  C   UNK     0     -25.379  -5.223  10.428  0.00  0.00     0.051 C 
BRANCH  39  40
HETATM   40  C   UNK     0     -25.255  -6.670  10.597  0.00  0.00     0.114 C 
BRANCH  40  41
HETATM   41  C   UNK     0     -26.407  -7.543  10.644  0.00  0.00     0.139 C 
HETATM   42  O   UNK     0     -26.915  -8.059   9.640  0.00  0.00    -0.650 OA
BRANCH  41  43
HETATM   43  O   UNK     0     -27.003  -7.833  11.904  0.00  0.00    -0.776 OA
HETATM   44  H   UNK     0     -26.490  -7.478  12.702  0.00  0.00     0.167 HD
ENDBRANCH  41  43
ENDBRANCH  40  41
ENDBRANCH  39  40
ENDBRANCH  27  39
BRANCH  11  45
HETATM   45  C   UNK     0     -32.613   1.912  11.881  0.00  0.00     0.051 C 
BRANCH  45  46
HETATM   46  C   UNK     0     -32.526   3.349  12.244  0.00  0.00     0.114 C 
BRANCH  46  47
HETATM   47  C   UNK     0     -32.284   3.419  13.714  0.00  0.00     0.139 C 
HETATM   48  O   UNK     0     -32.057   2.367  14.328  0.00  0.00    -0.650 OA
BRANCH  47  49
HETATM   49  O   UNK     0     -32.314   4.621  14.374  0.00  0.00    -0.776 OA
HETATM   50  H   UNK     0     -32.924   4.783  15.184  0.00  0.00     0.167 HD
ENDBRANCH  47  49
ENDBRANCH  46  47
ENDBRANCH  45  46
ENDBRANCH  11  45
BRANCH  18  51
HETATM   51  C   UNK     0     -29.857  -3.989  14.401  0.00  0.00     0.051 C 
BRANCH  51  52
HETATM   52  C   UNK     0     -31.164  -4.562  13.874  0.00  0.00     0.114 C 
BRANCH  52  53
HETATM   53  C   UNK     0     -32.135  -4.805  14.958  0.00  0.00     0.139 C 
HETATM   54  O   UNK     0     -32.908  -3.901  15.314  0.00  0.00    -0.650 OA
BRANCH  53  55
HETATM   55  O   UNK     0     -32.175  -6.033  15.572  0.00  0.00    -0.776 OA
HETATM   56  H   UNK     0     -32.936  -6.671  15.554  0.00  0.00     0.167 HD
ENDBRANCH  53  55
ENDBRANCH  52  53
ENDBRANCH  51  52
ENDBRANCH  18  51
TORSDOF 16
ENDMDL
MODEL 19
REMARK VINA RESULT:      -8.1     29.207     34.069
REMARK  16 active torsions:
REMARK  status: ('A' for Active; 'I' for Inactive)
REMARK    1  A    between atoms: C_6  and  C_7 
REMARK    2  A    between atoms: C_7  and  C_8 
REMARK    3  A    between atoms: C_8  and  C_9 
REMARK    4  A    between atoms: C_9  and  O_11 
REMARK    5  A    between atoms: C_16  and  C_17 
REMARK    6  A    between atoms: C_17  and  C_18 
REMARK    7  A    between atoms: C_18  and  C_19 
REMARK    8  A    between atoms: C_19  and  O_21 
REMARK    9  A    between atoms: C_28  and  C_29 
REMARK   10  A    between atoms: C_29  and  C_30 
REMARK   11  A    between atoms: C_30  and  C_31 
REMARK   12  A    between atoms: C_31  and  O_33 
REMARK   13  A    between atoms: C_42  and  C_43 
REMARK   14  A    between atoms: C_43  and  C_44 
REMARK   15  A    between atoms: C_44  and  C_45 
REMARK   16  A    between atoms: C_45  and  O_47 
ROOT
HETATM    1  C   UNK     0       8.559   4.290   7.924  0.00  0.00     0.051 C 
HETATM    2  C   UNK     0       8.902   4.231   6.449  0.00  0.00    -0.031 A 
HETATM    3  C   UNK     0       8.835   3.160   5.573  0.00  0.00     0.021 A 
HETATM    4  N   UNK     0       9.269   3.559   4.354  0.00  0.00    -0.361 N 
HETATM    5  C   UNK     0       9.602   4.864   4.432  0.00  0.00     0.022 A 
HETATM    6  C   UNK     0       9.387   5.316   5.730  0.00  0.00    -0.027 A 
HETATM    7  C   UNK     0      10.046   5.800   3.352  0.00  0.00     0.115 C 
HETATM    8  C   UNK     0       9.306   5.712   2.028  0.00  0.00     0.021 A 
HETATM    9  N   UNK     0       8.007   5.458   1.812  0.00  0.00    -0.361 N 
HETATM   10  C   UNK     0       7.810   5.384   0.478  0.00  0.00     0.022 A 
HETATM   11  C   UNK     0       9.015   5.606  -0.183  0.00  0.00    -0.027 A 
HETATM   12  C   UNK     0       9.961   5.814   0.788  0.00  0.00    -0.031 A 
HETATM   13  C   UNK     0      11.424   6.101   0.535  0.00  0.00     0.051 C 
HETATM   14  C   UNK     0       6.496   5.050  -0.222  0.00  0.00     0.115 C 
HETATM   15  C   UNK     0       5.947   3.675   0.123  0.00  0.00     0.021 A 
HETATM   16  N   UNK     0       5.623   3.202   1.341  0.00  0.00    -0.361 N 
HETATM   17  C   UNK     0       5.244   1.927   1.229  0.00  0.00     0.022 A 
HETATM   18  C   UNK     0       5.315   1.554  -0.128  0.00  0.00    -0.027 A 
HETATM   19  C   UNK     0       5.756   2.658  -0.810  0.00  0.00    -0.031 A 
HETATM   20  C   UNK     0       5.940   2.701  -2.316  0.00  0.00     0.051 C 
HETATM   21  C   UNK     0       4.854   0.932   2.299  0.00  0.00     0.115 C 
HETATM   22  C   UNK     0       5.550   1.036   3.635  0.00  0.00     0.022 A 
HETATM   23  N   UNK     0       6.842   1.292   3.881  0.00  0.00    -0.361 N 
HETATM   24  C   UNK     0       6.999   1.438   5.212  0.00  0.00     0.021 A 
HETATM   25  C   UNK     0       5.781   1.262   5.840  0.00  0.00    -0.031 A 
HETATM   26  C   UNK     0       5.458   1.289   7.319  0.00  0.00     0.051 C 
HETATM   27  C   UNK     0       4.838   1.003   4.852  0.00  0.00    -0.027 A 
HETATM   28  C   UNK     0       8.262   1.826   5.962  0.00  0.00     0.115 C 
HETATM   29  H   UNK     0       9.374   2.906   3.457  0.00  0.00     0.165 HD
HETATM   30  H   UNK     0       7.215   5.379   2.597  0.00  0.00     0.165 HD
HETATM   31  H   UNK     0       5.615   3.794   2.293  0.00  0.00     0.165 HD
HETATM   32  H   UNK     0       7.663   1.329   3.119  0.00  0.00     0.165 HD
ENDROOT
BRANCH   6  33
HETATM   33  C   UNK     0       9.608   6.681   6.332  0.00  0.00     0.051 C 
BRANCH  33  34
HETATM   34  C   UNK     0      10.871   6.703   7.159  0.00  0.00     0.114 C 
BRANCH  34  35
HETATM   35  C   UNK     0      10.692   7.736   8.220  0.00  0.00     0.139 C 
HETATM   36  O   UNK     0       9.697   8.517   8.187  0.00  0.00    -0.650 OA
BRANCH  35  37
HETATM   37  O   UNK     0      11.584   7.889   9.274  0.00  0.00    -0.776 OA
HETATM   38  H   UNK     0      11.591   7.264  10.064  0.00  0.00     0.167 HD
ENDBRANCH  35  37
ENDBRANCH  34  35
ENDBRANCH  33  34
ENDBRANCH   6  33
BRANCH  27  39
HETATM   39  C   UNK     0       3.415   0.687   5.152  0.00  0.00     0.051 C 
BRANCH  39  40
HETATM   40  C   UNK     0       2.961  -0.693   4.989  0.00  0.00     0.114 C 
BRANCH  40  41
HETATM   41  C   UNK     0       1.750  -1.027   4.274  0.00  0.00     0.139 C 
HETATM   42  O   UNK     0       0.901  -1.822   4.700  0.00  0.00    -0.650 OA
BRANCH  41  43
HETATM   43  O   UNK     0       1.503  -0.418   3.011  0.00  0.00    -0.776 OA
HETATM   44  H   UNK     0       1.421  -1.071   2.240  0.00  0.00     0.167 HD
ENDBRANCH  41  43
ENDBRANCH  40  41
ENDBRANCH  39  40
ENDBRANCH  27  39
BRANCH  11  45
HETATM   45  C   UNK     0       9.286   5.630  -1.663  0.00  0.00     0.051 C 
BRANCH  45  46
HETATM   46  C   UNK     0       9.068   6.955  -2.298  0.00  0.00     0.114 C 
BRANCH  46  47
HETATM   47  C   UNK     0       7.886   6.824  -3.197  0.00  0.00     0.139 C 
HETATM   48  O   UNK     0       7.961   6.054  -4.165  0.00  0.00    -0.650 OA
BRANCH  47  49
HETATM   49  O   UNK     0       6.741   7.542  -2.961  0.00  0.00    -0.776 OA
HETATM   50  H   UNK     0       6.174   7.929  -3.725  0.00  0.00     0.167 HD
ENDBRANCH  47  49
ENDBRANCH  46  47
ENDBRANCH  45  46
ENDBRANCH  11  45
BRANCH  18  51
HETATM   51  C   UNK     0       4.963   0.224  -0.743  0.00  0.00     0.051 C 
BRANCH  51  52
HETATM   52  C   UNK     0       3.534   0.355  -1.250  0.00  0.00     0.114 C 
BRANCH  52  53
HETATM   53  C   UNK     0       2.549  -0.035  -0.223  0.00  0.00     0.139 C 
HETATM   54  O   UNK     0       2.509  -1.205   0.188  0.00  0.00    -0.650 OA
BRANCH  53  55
HETATM   55  O   UNK     0       1.676   0.904   0.272  0.00  0.00    -0.776 OA
HETATM   56  H   UNK     0       1.870   1.562   0.989  0.00  0.00     0.167 HD
ENDBRANCH  53  55
ENDBRANCH  52  53
ENDBRANCH  51  52
ENDBRANCH  18  51
TORSDOF 16
ENDMDL
MODEL 20
REMARK VINA RESULT:      -8.1     26.207     29.912
REMARK  16 active torsions:
REMARK  status: ('A' for Active; 'I' for Inactive)
REMARK    1  A    between atoms: C_6  and  C_7 
REMARK    2  A    between atoms: C_7  and  C_8 
REMARK    3  A    between atoms: C_8  and  C_9 
REMARK    4  A    between atoms: C_9  and  O_11 
REMARK    5  A    between atoms: C_16  and  C_17 
REMARK    6  A    between atoms: C_17  and  C_18 
REMARK    7  A    between atoms: C_18  and  C_19 
REMARK    8  A    between atoms: C_19  and  O_21 
REMARK    9  A    between atoms: C_28  and  C_29 
REMARK   10  A    between atoms: C_29  and  C_30 
REMARK   11  A    between atoms: C_30  and  C_31 
REMARK   12  A    between atoms: C_31  and  O_33 
REMARK   13  A    between atoms: C_42  and  C_43 
REMARK   14  A    between atoms: C_43  and  C_44 
REMARK   15  A    between atoms: C_44  and  C_45 
REMARK   16  A    between atoms: C_45  and  O_47 
ROOT
HETATM    1  C   UNK     0      -9.024  19.684   2.234  0.00  0.00     0.051 C 
HETATM    2  C   UNK     0      -8.623  18.321   1.707  0.00  0.00    -0.031 A 
HETATM    3  C   UNK     0      -8.099  17.975   0.472  0.00  0.00     0.021 A 
HETATM    4  N   UNK     0      -7.920  16.633   0.429  0.00  0.00    -0.361 N 
HETATM    5  C   UNK     0      -8.310  16.118   1.613  0.00  0.00     0.022 A 
HETATM    6  C   UNK     0      -8.758  17.147   2.436  0.00  0.00    -0.027 A 
HETATM    7  C   UNK     0      -8.230  14.709   2.111  0.00  0.00     0.115 C 
HETATM    8  C   UNK     0      -6.948  13.952   1.812  0.00  0.00     0.021 A 
HETATM    9  N   UNK     0      -5.691  14.421   1.769  0.00  0.00    -0.361 N 
HETATM   10  C   UNK     0      -4.882  13.415   1.374  0.00  0.00     0.022 A 
HETATM   11  C   UNK     0      -5.637  12.265   1.165  0.00  0.00    -0.027 A 
HETATM   12  C   UNK     0      -6.940  12.596   1.439  0.00  0.00    -0.031 A 
HETATM   13  C   UNK     0      -8.118  11.653   1.353  0.00  0.00     0.051 C 
HETATM   14  C   UNK     0      -3.379  13.511   1.126  0.00  0.00     0.115 C 
HETATM   15  C   UNK     0      -2.997  14.498   0.034  0.00  0.00     0.021 A 
HETATM   16  N   UNK     0      -3.268  15.816  -0.014  0.00  0.00    -0.361 N 
HETATM   17  C   UNK     0      -2.824  16.313  -1.170  0.00  0.00     0.022 A 
HETATM   18  C   UNK     0      -2.226  15.271  -1.907  0.00  0.00    -0.027 A 
HETATM   19  C   UNK     0      -2.340  14.140  -1.141  0.00  0.00    -0.031 A 
HETATM   20  C   UNK     0      -1.789  12.786  -1.549  0.00  0.00     0.051 C 
HETATM   21  C   UNK     0      -2.943  17.709  -1.738  0.00  0.00     0.115 C 
HETATM   22  C   UNK     0      -4.194  18.490  -1.411  0.00  0.00     0.022 A 
HETATM   23  N   UNK     0      -5.458  18.049  -1.357  0.00  0.00    -0.361 N 
HETATM   24  C   UNK     0      -6.234  19.045  -0.886  0.00  0.00     0.021 A 
HETATM   25  C   UNK     0      -5.454  20.159  -0.641  0.00  0.00    -0.031 A 
HETATM   26  C   UNK     0      -5.874  21.527  -0.146  0.00  0.00     0.051 C 
HETATM   27  C   UNK     0      -4.144  19.828  -0.969  0.00  0.00    -0.027 A 
HETATM   28  C   UNK     0      -7.718  18.994  -0.564  0.00  0.00     0.115 C 
HETATM   29  H   UNK     0      -7.556  16.055  -0.452  0.00  0.00     0.165 HD
HETATM   30  H   UNK     0      -5.364  15.448   2.066  0.00  0.00     0.165 HD
HETATM   31  H   UNK     0      -3.741  16.418   0.805  0.00  0.00     0.165 HD
HETATM   32  H   UNK     0      -5.820  17.042  -1.692  0.00  0.00     0.165 HD
ENDROOT
BRANCH   6  33
HETATM   33  C   UNK     0      -9.300  17.098   3.842  0.00  0.00     0.051 C 
BRANCH  33  34
HETATM   34  C   UNK     0     -10.636  16.396   3.876  0.00  0.00     0.114 C 
BRANCH  34  35
HETATM   35  C   UNK     0     -11.691  17.434   3.694  0.00  0.00     0.139 C 
HETATM   36  O   UNK     0     -12.074  17.756   2.531  0.00  0.00    -0.650 OA
BRANCH  35  37
HETATM   37  O   UNK     0     -12.296  18.084   4.763  0.00  0.00    -0.776 OA
HETATM   38  H   UNK     0     -11.912  18.052   5.694  0.00  0.00     0.167 HD
ENDBRANCH  35  37
ENDBRANCH  34  35
ENDBRANCH  33  34
ENDBRANCH   6  33
BRANCH  27  39
HETATM   39  C   UNK     0      -3.021  20.802  -0.904  0.00  0.00     0.051 C 
BRANCH  39  40
HETATM   40  C   UNK     0      -1.905  20.515  -0.003  0.00  0.00     0.114 C 
BRANCH  40  41
HETATM   41  C   UNK     0      -0.528  20.574  -0.439  0.00  0.00     0.139 C 
HETATM   42  O   UNK     0       0.136  19.573  -0.742  0.00  0.00    -0.650 OA
BRANCH  41  43
HETATM   43  O   UNK     0       0.114  21.841  -0.531  0.00  0.00    -0.776 OA
HETATM   44  H   UNK     0       1.118  21.812  -0.401  0.00  0.00     0.167 HD
ENDBRANCH  41  43
ENDBRANCH  40  41
ENDBRANCH  39  40
ENDBRANCH  27  39
BRANCH  11  45
HETATM   45  C   UNK     0      -5.175  10.901   0.729  0.00  0.00     0.051 C 
BRANCH  45  46
HETATM   46  C   UNK     0      -3.895  10.468   1.346  0.00  0.00     0.114 C 
BRANCH  46  47
HETATM   47  C   UNK     0      -4.166  10.214   2.791  0.00  0.00     0.139 C 
HETATM   48  O   UNK     0      -3.745  11.029   3.624  0.00  0.00    -0.650 OA
BRANCH  47  49
HETATM   49  O   UNK     0      -4.864   9.103   3.190  0.00  0.00    -0.776 OA
HETATM   50  H   UNK     0      -4.995   8.868   4.181  0.00  0.00     0.167 HD
ENDBRANCH  47  49
ENDBRANCH  46  47
ENDBRANCH  45  46
ENDBRANCH  11  45
BRANCH  18  51
HETATM   51  C   UNK     0      -1.563  15.354  -3.258  0.00  0.00     0.051 C 
BRANCH  51  52
HETATM   52  C   UNK     0      -0.073  15.510  -2.992  0.00  0.00     0.114 C 
BRANCH  52  53
HETATM   53  C   UNK     0       0.543  16.508  -3.888  0.00  0.00     0.139 C 
HETATM   54  O   UNK     0       0.394  16.415  -5.117  0.00  0.00    -0.650 OA
BRANCH  53  55
HETATM   55  O   UNK     0       1.282  17.536  -3.355  0.00  0.00    -0.776 OA
HETATM   56  H   UNK     0       2.218  17.767  -3.594  0.00  0.00     0.167 HD
ENDBRANCH  53  55
ENDBRANCH  52  53
ENDBRANCH  51  52
ENDBRANCH  18  51
TORSDOF 16
ENDMDL
