MODEL 1
REMARK VINA RESULT:      -9.2      0.000      0.000
REMARK  28 active torsions:
REMARK  status: ('A' for Active; 'I' for Inactive)
REMARK    1  A    between atoms: C_2  and  O_3 
REMARK    2  A    between atoms: C_2  and  C_4 
REMARK    3  A    between atoms: C_4  and  C_5 
REMARK    4  A    between atoms: C_5  and  C_6 
REMARK    5  A    between atoms: C_7  and  C_8 
REMARK    6  A    between atoms: C_8  and  C_9 
REMARK    7  A    between atoms: C_9  and  O_11 
REMARK    8  A    between atoms: C_28  and  C_29 
REMARK    9  A    between atoms: C_29  and  C_30 
REMARK   10  A    between atoms: C_30  and  O_32 
REMARK   11  A    between atoms: C_33  and  C_34 
REMARK   12  A    between atoms: C_34  and  C_35 
REMARK   13  A    between atoms: C_35  and  C_36 
REMARK   14  A    between atoms: C_36  and  O_38 
REMARK   15  A    between atoms: C_39  and  C_40 
REMARK   16  A    between atoms: C_40  and  C_41 
REMARK   17  A    between atoms: C_41  and  C_42 
REMARK   18  A    between atoms: C_42  and  O_44 
REMARK   19  A    between atoms: C_45  and  C_46 
REMARK   20  A    between atoms: C_46  and  C_47 
REMARK   21  A    between atoms: C_47  and  O_49 
REMARK   22  A    between atoms: C_50  and  C_51 
REMARK   23  A    between atoms: C_51  and  C_52 
REMARK   24  A    between atoms: C_52  and  O_54 
REMARK   25  A    between atoms: C_55  and  C_56 
REMARK   26  A    between atoms: C_56  and  C_57 
REMARK   27  A    between atoms: C_57  and  C_58 
REMARK   28  A    between atoms: C_58  and  O_60 
ROOT
ATOM      1  O   UNK d   0     -18.163  -5.880  -4.846  0.00  0.00    -0.650 OA
ATOM      2  C   UNK d   0     -17.058  -6.409  -4.592  0.00  0.00     0.139 C 
ENDROOT
BRANCH   2   3
ATOM      3  O   UNK d   0     -16.012  -5.619  -4.181  0.00  0.00    -0.776 OA
ATOM      4  H   UNK d   0     -15.084  -6.016  -4.016  0.00  0.00     0.167 HD
ENDBRANCH   2   3
BRANCH   2   5
ATOM      5  C   UNK d   0     -16.883  -7.882  -4.736  0.00  0.00     0.115 C 
BRANCH   5   6
ATOM      6  C   UNK d   0     -15.541  -8.187  -5.343  0.00  0.00     0.052 C 
BRANCH   6   7
ATOM      7  C   UNK d   0     -15.597  -8.304  -6.848  0.00  0.00    -0.020 A 
ATOM      8  C   UNK d   0     -15.782  -9.387  -7.558  0.00  0.00    -0.011 A 
ATOM      9  C   UNK d   0     -15.750  -9.010  -8.961  0.00  0.00     0.067 A 
ATOM     10  C   UNK d   0     -15.899  -9.670 -10.191  0.00  0.00     0.062 C 
ATOM     11  N   UNK d   0     -15.534  -7.679  -9.014  0.00  0.00    -0.248 NA
ATOM     12  C   UNK d   0     -16.114  -9.087 -11.445  0.00  0.00     0.041 A 
ATOM     13  N   UNK d   0     -15.557  -8.009 -12.029  0.00  0.00    -0.355 N 
ATOM     14  C   UNK d   0     -17.105  -9.626 -12.285  0.00  0.00    -0.022 A 
ATOM     15  C   UNK d   0     -16.174  -7.846 -13.214  0.00  0.00     0.042 A 
ATOM     16  H   UNK d   0     -14.730  -7.388 -11.619  0.00  0.00     0.166 HD
ATOM     17  C   UNK d   0     -15.979  -6.878 -14.219  0.00  0.00     0.062 C 
ATOM     18  C   UNK d   0     -17.152  -8.841 -13.410  0.00  0.00    -0.013 A 
ATOM     19  C   UNK d   0     -15.825  -5.521 -14.092  0.00  0.00     0.067 A 
ATOM     20  N   UNK d   0     -15.634  -5.047 -12.858  0.00  0.00    -0.248 NA
ATOM     21  C   UNK d   0     -15.827  -4.381 -14.993  0.00  0.00    -0.011 A 
ATOM     22  C   UNK d   0     -15.513  -3.680 -12.887  0.00  0.00     0.066 A 
ATOM     23  C   UNK d   0     -15.272  -3.057 -11.671  0.00  0.00     0.062 C 
ATOM     24  C   UNK d   0     -15.648  -3.306 -14.281  0.00  0.00    -0.020 A 
ATOM     25  C   UNK d   0     -15.046  -3.661 -10.424  0.00  0.00     0.041 A 
ATOM     26  N   UNK d   0     -15.611  -4.724  -9.838  0.00  0.00    -0.355 N 
ATOM     27  C   UNK d   0     -14.048  -3.122  -9.584  0.00  0.00    -0.022 A 
ATOM     28  C   UNK d   0     -15.003  -4.884  -8.652  0.00  0.00     0.042 A 
ATOM     29  H   UNK d   0     -16.449  -5.341 -10.245  0.00  0.00     0.166 HD
ATOM     30  C   UNK d   0     -15.193  -5.836  -7.638  0.00  0.00     0.062 C 
ATOM     31  C   UNK d   0     -14.013  -3.890  -8.460  0.00  0.00    -0.013 A 
ATOM     32  C   UNK d   0     -15.433  -7.194  -7.775  0.00  0.00     0.066 A 
BRANCH   8  33
ATOM     33  C   UNK d   0     -15.984 -10.756  -7.048  0.00  0.00     0.151 C 
BRANCH  33  34
ATOM     34  C   UNK d   0     -17.407 -11.083  -6.840  0.00  0.00     0.143 C 
ATOM     35  O   UNK d   0     -18.277 -10.203  -6.901  0.00  0.00    -0.650 OA
BRANCH  34  36
ATOM     36  O   UNK d   0     -17.769 -12.383  -6.573  0.00  0.00    -0.776 OA
ATOM     37  H   UNK d   0     -18.740 -12.630  -6.342  0.00  0.00     0.167 HD
ENDBRANCH  34  36
ENDBRANCH  33  34
ENDBRANCH   8  33
BRANCH  31  38
ATOM     38  C   UNK d   0     -13.089  -3.702  -7.280  0.00  0.00     0.151 C 
BRANCH  38  39
ATOM     39  C   UNK d   0     -11.823  -4.384  -7.445  0.00  0.00     0.143 C 
ATOM     40  O   UNK d   0     -10.768  -3.777  -7.700  0.00  0.00    -0.650 OA
BRANCH  39  41
ATOM     41  O   UNK d   0     -11.769  -5.771  -7.314  0.00  0.00    -0.776 OA
ATOM     42  H   UNK d   0     -12.216  -6.322  -8.054  0.00  0.00     0.167 HD
ENDBRANCH  39  41
ENDBRANCH  38  39
ENDBRANCH  31  38
BRANCH  27  43
ATOM     43  C   UNK d   0     -13.150  -1.931  -9.804  0.00  0.00     0.052 C 
BRANCH  43  44
ATOM     44  C   UNK d   0     -13.277  -0.890  -8.740  0.00  0.00     0.115 C 
BRANCH  44  45
ATOM     45  C   UNK d   0     -11.907  -0.376  -8.483  0.00  0.00     0.139 C 
ATOM     46  O   UNK d   0     -11.784   0.809  -8.087  0.00  0.00    -0.650 OA
BRANCH  45  47
ATOM     47  O   UNK d   0     -10.776  -1.145  -8.654  0.00  0.00    -0.776 OA
ATOM     48  H   UNK d   0     -10.800  -2.177  -8.685  0.00  0.00     0.167 HD
ENDBRANCH  45  47
ENDBRANCH  44  45
ENDBRANCH  43  44
ENDBRANCH  27  43
BRANCH  24  49
ATOM     49  C   UNK d   0     -15.545  -1.930 -14.796  0.00  0.00     0.052 C 
BRANCH  49  50
ATOM     50  C   UNK d   0     -16.793  -1.152 -14.466  0.00  0.00     0.115 C 
BRANCH  50  51
ATOM     51  C   UNK d   0     -16.758   0.288 -14.688  0.00  0.00     0.139 C 
ATOM     52  O   UNK d   0     -16.384   0.796 -15.771  0.00  0.00    -0.650 OA
BRANCH  51  53
ATOM     53  O   UNK d   0     -17.146   1.148 -13.673  0.00  0.00    -0.776 OA
ATOM     54  H   UNK d   0     -17.892   1.796 -13.858  0.00  0.00     0.167 HD
ENDBRANCH  51  53
ENDBRANCH  50  51
ENDBRANCH  49  50
ENDBRANCH  24  49
BRANCH  21  55
ATOM     55  C   UNK d   0     -16.004  -4.484 -16.471  0.00  0.00     0.151 C 
BRANCH  55  56
ATOM     56  C   UNK d   0     -17.344  -4.970 -16.834  0.00  0.00     0.143 C 
ATOM     57  O   UNK d   0     -18.391  -4.436 -16.417  0.00  0.00    -0.650 OA
BRANCH  56  58
ATOM     58  O   UNK d   0     -17.428  -6.073 -17.682  0.00  0.00    -0.776 OA
ATOM     59  H   UNK d   0     -16.529  -6.368 -18.104  0.00  0.00     0.167 HD
ENDBRANCH  56  58
ENDBRANCH  55  56
ENDBRANCH  21  55
BRANCH  18  60
ATOM     60  C   UNK d   0     -18.085  -9.054 -14.576  0.00  0.00     0.151 C 
BRANCH  60  61
ATOM     61  C   UNK d   0     -19.206  -8.125 -14.371  0.00  0.00     0.143 C 
ATOM     62  O   UNK d   0     -20.011  -8.127 -13.438  0.00  0.00    -0.650 OA
BRANCH  61  63
ATOM     63  O   UNK d   0     -19.355  -7.131 -15.368  0.00  0.00    -0.776 OA
ATOM     64  H   UNK d   0     -19.504  -7.379 -16.329  0.00  0.00     0.167 HD
ENDBRANCH  61  63
ENDBRANCH  60  61
ENDBRANCH  18  60
BRANCH  14  65
ATOM     65  C   UNK d   0     -17.934 -10.872 -12.150  0.00  0.00     0.052 C 
BRANCH  65  66
ATOM     66  C   UNK d   0     -17.128 -12.072 -11.799  0.00  0.00     0.115 C 
BRANCH  66  67
ATOM     67  C   UNK d   0     -17.661 -13.045 -10.887  0.00  0.00     0.139 C 
ATOM     68  O   UNK d   0     -18.214 -14.100 -11.369  0.00  0.00    -0.650 OA
BRANCH  67  69
ATOM     69  O   UNK d   0     -17.659 -12.998  -9.493  0.00  0.00    -0.776 OA
ATOM     70  H   UNK d   0     -18.211 -13.728  -9.020  0.00  0.00     0.167 HD
ENDBRANCH  67  69
ENDBRANCH  66  67
ENDBRANCH  65  66
ENDBRANCH  14  65
ENDBRANCH   6   7
ENDBRANCH   5   6
ENDBRANCH   2   5
TORSDOF 28
ENDMDL
MODEL 2
REMARK VINA RESULT:      -9.1      3.390      9.635
REMARK  28 active torsions:
REMARK  status: ('A' for Active; 'I' for Inactive)
REMARK    1  A    between atoms: C_2  and  O_3 
REMARK    2  A    between atoms: C_2  and  C_4 
REMARK    3  A    between atoms: C_4  and  C_5 
REMARK    4  A    between atoms: C_5  and  C_6 
REMARK    5  A    between atoms: C_7  and  C_8 
REMARK    6  A    between atoms: C_8  and  C_9 
REMARK    7  A    between atoms: C_9  and  O_11 
REMARK    8  A    between atoms: C_28  and  C_29 
REMARK    9  A    between atoms: C_29  and  C_30 
REMARK   10  A    between atoms: C_30  and  O_32 
REMARK   11  A    between atoms: C_33  and  C_34 
REMARK   12  A    between atoms: C_34  and  C_35 
REMARK   13  A    between atoms: C_35  and  C_36 
REMARK   14  A    between atoms: C_36  and  O_38 
REMARK   15  A    between atoms: C_39  and  C_40 
REMARK   16  A    between atoms: C_40  and  C_41 
REMARK   17  A    between atoms: C_41  and  C_42 
REMARK   18  A    between atoms: C_42  and  O_44 
REMARK   19  A    between atoms: C_45  and  C_46 
REMARK   20  A    between atoms: C_46  and  C_47 
REMARK   21  A    between atoms: C_47  and  O_49 
REMARK   22  A    between atoms: C_50  and  C_51 
REMARK   23  A    between atoms: C_51  and  C_52 
REMARK   24  A    between atoms: C_52  and  O_54 
REMARK   25  A    between atoms: C_55  and  C_56 
REMARK   26  A    between atoms: C_56  and  C_57 
REMARK   27  A    between atoms: C_57  and  C_58 
REMARK   28  A    between atoms: C_58  and  O_60 
ROOT
ATOM      1  O   UNK d   0     -13.531  -8.266  -6.018  0.00  0.00    -0.650 OA
ATOM      2  C   UNK d   0     -13.232  -7.386  -6.856  0.00  0.00     0.139 C 
ENDROOT
BRANCH   2   3
ATOM      3  O   UNK d   0     -11.956  -6.877  -6.873  0.00  0.00    -0.776 OA
ATOM      4  H   UNK d   0     -11.373  -6.943  -7.710  0.00  0.00     0.167 HD
ENDBRANCH   2   3
BRANCH   2   5
ATOM      5  C   UNK d   0     -14.255  -6.896  -7.824  0.00  0.00     0.115 C 
BRANCH   5   6
ATOM      6  C   UNK d   0     -13.944  -7.403  -9.206  0.00  0.00     0.052 C 
BRANCH   6   7
ATOM      7  C   UNK d   0     -15.187  -7.649 -10.027  0.00  0.00    -0.020 A 
ATOM      8  C   UNK d   0     -15.842  -6.787 -10.761  0.00  0.00    -0.011 A 
ATOM      9  C   UNK d   0     -16.974  -7.478 -11.356  0.00  0.00     0.067 A 
ATOM     10  C   UNK d   0     -18.019  -7.143 -12.232  0.00  0.00     0.062 C 
ATOM     11  N   UNK d   0     -16.934  -8.756 -10.926  0.00  0.00    -0.248 NA
ATOM     12  C   UNK d   0     -18.864  -8.022 -12.918  0.00  0.00     0.041 A 
ATOM     13  N   UNK d   0     -19.486  -9.147 -12.518  0.00  0.00    -0.355 N 
ATOM     14  C   UNK d   0     -19.119  -7.795 -14.283  0.00  0.00    -0.022 A 
ATOM     15  C   UNK d   0     -20.123  -9.644 -13.595  0.00  0.00     0.042 A 
ATOM     16  H   UNK d   0     -19.491  -9.571 -11.490  0.00  0.00     0.166 HD
ATOM     17  C   UNK d   0     -20.921 -10.797 -13.734  0.00  0.00     0.062 C 
ATOM     18  C   UNK d   0     -19.915  -8.823 -14.721  0.00  0.00    -0.013 A 
ATOM     19  C   UNK d   0     -20.694 -12.064 -13.261  0.00  0.00     0.067 A 
ATOM     20  N   UNK d   0     -19.696 -12.214 -12.386  0.00  0.00    -0.248 NA
ATOM     21  C   UNK d   0     -21.274 -13.379 -13.476  0.00  0.00    -0.011 A 
ATOM     22  C   UNK d   0     -19.580 -13.531 -12.016  0.00  0.00     0.066 A 
ATOM     23  C   UNK d   0     -18.601 -13.824 -11.078  0.00  0.00     0.062 C 
ATOM     24  C   UNK d   0     -20.615 -14.234 -12.749  0.00  0.00    -0.020 A 
ATOM     25  C   UNK d   0     -17.771 -12.925 -10.391  0.00  0.00     0.041 A 
ATOM     26  N   UNK d   0     -17.140 -11.815 -10.793  0.00  0.00    -0.355 N 
ATOM     27  C   UNK d   0     -17.519 -13.151  -9.020  0.00  0.00    -0.022 A 
ATOM     28  C   UNK d   0     -16.497 -11.322  -9.722  0.00  0.00     0.042 A 
ATOM     29  H   UNK d   0     -17.127 -11.396 -11.829  0.00  0.00     0.166 HD
ATOM     30  C   UNK d   0     -15.693 -10.182  -9.573  0.00  0.00     0.062 C 
ATOM     31  C   UNK d   0     -16.715 -12.141  -8.589  0.00  0.00    -0.013 A 
ATOM     32  C   UNK d   0     -15.882  -8.924 -10.123  0.00  0.00     0.066 A 
BRANCH   8  33
ATOM     33  C   UNK d   0     -15.513  -5.363 -10.959  0.00  0.00     0.151 C 
BRANCH  33  34
ATOM     34  C   UNK d   0     -15.017  -5.075 -12.317  0.00  0.00     0.143 C 
ATOM     35  O   UNK d   0     -15.382  -4.060 -12.927  0.00  0.00    -0.650 OA
BRANCH  34  36
ATOM     36  O   UNK d   0     -14.137  -5.949 -12.913  0.00  0.00    -0.776 OA
ATOM     37  H   UNK d   0     -13.663  -5.711 -13.795  0.00  0.00     0.167 HD
ENDBRANCH  34  36
ENDBRANCH  33  34
ENDBRANCH   8  33
BRANCH  31  38
ATOM     38  C   UNK d   0     -16.194 -11.956  -7.183  0.00  0.00     0.151 C 
BRANCH  38  39
ATOM     39  C   UNK d   0     -16.789 -10.821  -6.509  0.00  0.00     0.143 C 
ATOM     40  O   UNK d   0     -18.019 -10.644  -6.463  0.00  0.00    -0.650 OA
BRANCH  39  41
ATOM     41  O   UNK d   0     -15.965  -9.886  -5.883  0.00  0.00    -0.776 OA
ATOM     42  H   UNK d   0     -16.344  -9.419  -5.053  0.00  0.00     0.167 HD
ENDBRANCH  39  41
ENDBRANCH  38  39
ENDBRANCH  31  38
BRANCH  27  43
ATOM     43  C   UNK d   0     -18.003 -14.267  -8.129  0.00  0.00     0.052 C 
BRANCH  43  44
ATOM     44  C   UNK d   0     -17.112 -15.467  -8.147  0.00  0.00     0.115 C 
BRANCH  44  45
ATOM     45  C   UNK d   0     -18.002 -16.656  -8.197  0.00  0.00     0.139 C 
ATOM     46  O   UNK d   0     -17.493 -17.785  -7.990  0.00  0.00    -0.650 OA
BRANCH  45  47
ATOM     47  O   UNK d   0     -19.353 -16.568  -8.454  0.00  0.00    -0.776 OA
ATOM     48  H   UNK d   0     -19.983 -17.386  -8.426  0.00  0.00     0.167 HD
ENDBRANCH  45  47
ENDBRANCH  44  45
ENDBRANCH  43  44
ENDBRANCH  27  43
BRANCH  24  49
ATOM     49  C   UNK d   0     -20.895 -15.675 -12.635  0.00  0.00     0.052 C 
BRANCH  49  50
ATOM     50  C   UNK d   0     -22.139 -15.906 -11.817  0.00  0.00     0.115 C 
BRANCH  50  51
ATOM     51  C   UNK d   0     -21.971 -16.054 -10.378  0.00  0.00     0.139 C 
ATOM     52  O   UNK d   0     -22.038 -17.165  -9.800  0.00  0.00    -0.650 OA
BRANCH  51  53
ATOM     53  O   UNK d   0     -21.729 -14.935  -9.597  0.00  0.00    -0.776 OA
ATOM     54  H   UNK d   0     -22.507 -14.347  -9.354  0.00  0.00     0.167 HD
ENDBRANCH  51  53
ENDBRANCH  50  51
ENDBRANCH  49  50
ENDBRANCH  24  49
BRANCH  21  55
ATOM     55  C   UNK d   0     -22.430 -13.643 -14.384  0.00  0.00     0.151 C 
BRANCH  55  56
ATOM     56  C   UNK d   0     -23.602 -12.826 -14.037  0.00  0.00     0.143 C 
ATOM     57  O   UNK d   0     -23.970 -11.850 -14.719  0.00  0.00    -0.650 OA
BRANCH  56  58
ATOM     58  O   UNK d   0     -24.319 -13.172 -12.893  0.00  0.00    -0.776 OA
ATOM     59  H   UNK d   0     -25.196 -12.639 -12.749  0.00  0.00     0.167 HD
ENDBRANCH  56  58
ENDBRANCH  55  56
ENDBRANCH  21  55
BRANCH  18  60
ATOM     60  C   UNK d   0     -20.424  -8.982 -16.132  0.00  0.00     0.151 C 
BRANCH  60  61
ATOM     61  C   UNK d   0     -21.875  -8.750 -16.067  0.00  0.00     0.143 C 
ATOM     62  O   UNK d   0     -22.450  -7.778 -15.577  0.00  0.00    -0.650 OA
BRANCH  61  63
ATOM     63  O   UNK d   0     -22.674  -9.771 -16.636  0.00  0.00    -0.776 OA
ATOM     64  H   UNK d   0     -23.398  -9.554 -17.298  0.00  0.00     0.167 HD
ENDBRANCH  61  63
ENDBRANCH  60  61
ENDBRANCH  18  60
BRANCH  14  65
ATOM     65  C   UNK d   0     -18.751  -6.639 -15.170  0.00  0.00     0.052 C 
BRANCH  65  66
ATOM     66  C   UNK d   0     -17.557  -6.911 -16.014  0.00  0.00     0.115 C 
BRANCH  66  67
ATOM     67  C   UNK d   0     -16.247  -6.604 -15.513  0.00  0.00     0.139 C 
ATOM     68  O   UNK d   0     -15.614  -7.509 -14.855  0.00  0.00    -0.650 OA
BRANCH  67  69
ATOM     69  O   UNK d   0     -15.540  -5.409 -15.648  0.00  0.00    -0.776 OA
ATOM     70  H   UNK d   0     -15.822  -4.808 -16.435  0.00  0.00     0.167 HD
ENDBRANCH  67  69
ENDBRANCH  66  67
ENDBRANCH  65  66
ENDBRANCH  14  65
ENDBRANCH   6   7
ENDBRANCH   5   6
ENDBRANCH   2   5
TORSDOF 28
ENDMDL
MODEL 3
REMARK VINA RESULT:      -9.1      4.727     12.821
REMARK  28 active torsions:
REMARK  status: ('A' for Active; 'I' for Inactive)
REMARK    1  A    between atoms: C_2  and  O_3 
REMARK    2  A    between atoms: C_2  and  C_4 
REMARK    3  A    between atoms: C_4  and  C_5 
REMARK    4  A    between atoms: C_5  and  C_6 
REMARK    5  A    between atoms: C_7  and  C_8 
REMARK    6  A    between atoms: C_8  and  C_9 
REMARK    7  A    between atoms: C_9  and  O_11 
REMARK    8  A    between atoms: C_28  and  C_29 
REMARK    9  A    between atoms: C_29  and  C_30 
REMARK   10  A    between atoms: C_30  and  O_32 
REMARK   11  A    between atoms: C_33  and  C_34 
REMARK   12  A    between atoms: C_34  and  C_35 
REMARK   13  A    between atoms: C_35  and  C_36 
REMARK   14  A    between atoms: C_36  and  O_38 
REMARK   15  A    between atoms: C_39  and  C_40 
REMARK   16  A    between atoms: C_40  and  C_41 
REMARK   17  A    between atoms: C_41  and  C_42 
REMARK   18  A    between atoms: C_42  and  O_44 
REMARK   19  A    between atoms: C_45  and  C_46 
REMARK   20  A    between atoms: C_46  and  C_47 
REMARK   21  A    between atoms: C_47  and  O_49 
REMARK   22  A    between atoms: C_50  and  C_51 
REMARK   23  A    between atoms: C_51  and  C_52 
REMARK   24  A    between atoms: C_52  and  O_54 
REMARK   25  A    between atoms: C_55  and  C_56 
REMARK   26  A    between atoms: C_56  and  C_57 
REMARK   27  A    between atoms: C_57  and  C_58 
REMARK   28  A    between atoms: C_58  and  O_60 
ROOT
ATOM      1  O   UNK d   0     -16.636  -5.513 -22.578  0.00  0.00    -0.650 OA
ATOM      2  C   UNK d   0     -17.001  -6.697 -22.408  0.00  0.00     0.139 C 
ENDROOT
BRANCH   2   3
ATOM      3  O   UNK d   0     -17.681  -7.343 -23.412  0.00  0.00    -0.776 OA
ATOM      4  H   UNK d   0     -18.218  -8.192 -23.225  0.00  0.00     0.167 HD
ENDBRANCH   2   3
BRANCH   2   5
ATOM      5  C   UNK d   0     -16.700  -7.397 -21.127  0.00  0.00     0.115 C 
BRANCH   5   6
ATOM      6  C   UNK d   0     -17.878  -7.303 -20.196  0.00  0.00     0.052 C 
BRANCH   6   7
ATOM      7  C   UNK d   0     -17.572  -7.832 -18.816  0.00  0.00    -0.020 A 
ATOM      8  C   UNK d   0     -16.750  -7.328 -17.932  0.00  0.00    -0.011 A 
ATOM      9  C   UNK d   0     -16.779  -8.183 -16.757  0.00  0.00     0.067 A 
ATOM     10  C   UNK d   0     -16.167  -8.191 -15.494  0.00  0.00     0.062 C 
ATOM     11  N   UNK d   0     -17.642  -9.189 -17.016  0.00  0.00    -0.248 NA
ATOM     12  C   UNK d   0     -16.533  -8.953 -14.380  0.00  0.00     0.041 A 
ATOM     13  N   UNK d   0     -16.899 -10.245 -14.271  0.00  0.00    -0.355 N 
ATOM     14  C   UNK d   0     -16.609  -8.328 -13.122  0.00  0.00    -0.022 A 
ATOM     15  C   UNK d   0     -17.213 -10.452 -12.978  0.00  0.00     0.042 A 
ATOM     16  H   UNK d   0     -16.916 -10.999 -15.088  0.00  0.00     0.166 HD
ATOM     17  C   UNK d   0     -17.654 -11.619 -12.322  0.00  0.00     0.062 C 
ATOM     18  C   UNK d   0     -17.044  -9.273 -12.227  0.00  0.00    -0.013 A 
ATOM     19  C   UNK d   0     -18.605 -12.524 -12.717  0.00  0.00     0.067 A 
ATOM     20  N   UNK d   0     -19.051 -12.424 -13.972  0.00  0.00    -0.248 NA
ATOM     21  C   UNK d   0     -19.318 -13.628 -12.097  0.00  0.00    -0.011 A 
ATOM     22  C   UNK d   0     -20.005 -13.381 -14.217  0.00  0.00     0.066 A 
ATOM     23  C   UNK d   0     -20.528 -13.415 -15.501  0.00  0.00     0.062 C 
ATOM     24  C   UNK d   0     -20.139 -14.122 -12.978  0.00  0.00    -0.020 A 
ATOM     25  C   UNK d   0     -20.138 -12.648 -16.610  0.00  0.00     0.041 A 
ATOM     26  N   UNK d   0     -19.789 -11.361 -16.721  0.00  0.00    -0.355 N 
ATOM     27  C   UNK d   0     -20.057 -13.278 -17.871  0.00  0.00    -0.022 A 
ATOM     28  C   UNK d   0     -19.483 -11.149 -18.011  0.00  0.00     0.042 A 
ATOM     29  H   UNK d   0     -19.782 -10.601 -15.901  0.00  0.00     0.166 HD
ATOM     30  C   UNK d   0     -19.052  -9.993 -18.679  0.00  0.00     0.062 C 
ATOM     31  C   UNK d   0     -19.643 -12.337 -18.763  0.00  0.00    -0.013 A 
ATOM     32  C   UNK d   0     -18.153  -9.035 -18.238  0.00  0.00     0.066 A 
BRANCH   8  33
ATOM     33  C   UNK d   0     -15.927  -6.113 -18.081  0.00  0.00     0.151 C 
BRANCH  33  34
ATOM     34  C   UNK d   0     -16.447  -4.973 -17.305  0.00  0.00     0.143 C 
ATOM     35  O   UNK d   0     -17.639  -4.642 -17.381  0.00  0.00    -0.650 OA
BRANCH  34  36
ATOM     36  O   UNK d   0     -15.595  -4.266 -16.488  0.00  0.00    -0.776 OA
ATOM     37  H   UNK d   0     -15.954  -3.666 -15.733  0.00  0.00     0.167 HD
ENDBRANCH  34  36
ENDBRANCH  33  34
ENDBRANCH   8  33
BRANCH  31  38
ATOM     38  C   UNK d   0     -19.400 -12.553 -20.238  0.00  0.00     0.151 C 
BRANCH  38  39
ATOM     39  C   UNK d   0     -18.071 -13.051 -20.521  0.00  0.00     0.143 C 
ATOM     40  O   UNK d   0     -17.060 -12.621 -19.938  0.00  0.00    -0.650 OA
BRANCH  39  41
ATOM     41  O   UNK d   0     -17.902 -14.050 -21.480  0.00  0.00    -0.776 OA
ATOM     42  H   UNK d   0     -17.007 -14.064 -21.979  0.00  0.00     0.167 HD
ENDBRANCH  39  41
ENDBRANCH  38  39
ENDBRANCH  31  38
BRANCH  27  43
ATOM     43  C   UNK d   0     -20.355 -14.708 -18.249  0.00  0.00     0.052 C 
BRANCH  43  44
ATOM     44  C   UNK d   0     -19.137 -15.573 -18.292  0.00  0.00     0.115 C 
BRANCH  44  45
ATOM     45  C   UNK d   0     -19.339 -16.533 -19.408  0.00  0.00     0.139 C 
ATOM     46  O   UNK d   0     -19.086 -17.746 -19.199  0.00  0.00    -0.650 OA
BRANCH  45  47
ATOM     47  O   UNK d   0     -19.795 -16.150 -20.651  0.00  0.00    -0.776 OA
ATOM     48  H   UNK d   0     -19.406 -15.343 -21.166  0.00  0.00     0.167 HD
ENDBRANCH  45  47
ENDBRANCH  44  45
ENDBRANCH  43  44
ENDBRANCH  27  43
BRANCH  24  49
ATOM     49  C   UNK d   0     -21.029 -15.279 -12.783  0.00  0.00     0.052 C 
BRANCH  49  50
ATOM     50  C   UNK d   0     -22.423 -14.817 -12.443  0.00  0.00     0.115 C 
BRANCH  50  51
ATOM     51  C   UNK d   0     -22.878 -15.029 -11.075  0.00  0.00     0.139 C 
ATOM     52  O   UNK d   0     -22.466 -15.976 -10.364  0.00  0.00    -0.650 OA
BRANCH  51  53
ATOM     53  O   UNK d   0     -23.806 -14.162 -10.519  0.00  0.00    -0.776 OA
ATOM     54  H   UNK d   0     -23.796 -13.201 -10.814  0.00  0.00     0.167 HD
ENDBRANCH  51  53
ENDBRANCH  50  51
ENDBRANCH  49  50
ENDBRANCH  24  49
BRANCH  21  55
ATOM     55  C   UNK d   0     -19.103 -14.076 -10.689  0.00  0.00     0.151 C 
BRANCH  55  56
ATOM     56  C   UNK d   0     -17.994 -15.036 -10.580  0.00  0.00     0.143 C 
ATOM     57  O   UNK d   0     -16.813 -14.685 -10.386  0.00  0.00    -0.650 OA
BRANCH  56  58
ATOM     58  O   UNK d   0     -18.294 -16.392 -10.702  0.00  0.00    -0.776 OA
ATOM     59  H   UNK d   0     -18.230 -16.768 -11.665  0.00  0.00     0.167 HD
ENDBRANCH  56  58
ENDBRANCH  55  56
ENDBRANCH  21  55
BRANCH  18  60
ATOM     60  C   UNK d   0     -17.275  -9.029 -10.756  0.00  0.00     0.151 C 
BRANCH  60  61
ATOM     61  C   UNK d   0     -16.172  -9.705 -10.057  0.00  0.00     0.143 C 
ATOM     62  O   UNK d   0     -14.967  -9.493 -10.192  0.00  0.00    -0.650 OA
BRANCH  61  63
ATOM     63  O   UNK d   0     -16.567 -10.703  -9.133  0.00  0.00    -0.776 OA
ATOM     64  H   UNK d   0     -16.309 -10.643  -8.164  0.00  0.00     0.167 HD
ENDBRANCH  61  63
ENDBRANCH  60  61
ENDBRANCH  18  60
BRANCH  14  65
ATOM     65  C   UNK d   0     -16.212  -6.945 -12.689  0.00  0.00     0.052 C 
BRANCH  65  66
ATOM     66  C   UNK d   0     -14.762  -6.827 -12.379  0.00  0.00     0.115 C 
BRANCH  66  67
ATOM     67  C   UNK d   0     -13.821  -6.616 -13.443  0.00  0.00     0.139 C 
ATOM     68  O   UNK d   0     -12.773  -7.358 -13.491  0.00  0.00    -0.650 OA
BRANCH  67  69
ATOM     69  O   UNK d   0     -13.894  -5.678 -14.472  0.00  0.00    -0.776 OA
ATOM     70  H   UNK d   0     -13.458  -5.956 -15.363  0.00  0.00     0.167 HD
ENDBRANCH  67  69
ENDBRANCH  66  67
ENDBRANCH  65  66
ENDBRANCH  14  65
ENDBRANCH   6   7
ENDBRANCH   5   6
ENDBRANCH   2   5
TORSDOF 28
ENDMDL
MODEL 4
REMARK VINA RESULT:      -8.9      3.289      9.363
REMARK  28 active torsions:
REMARK  status: ('A' for Active; 'I' for Inactive)
REMARK    1  A    between atoms: C_2  and  O_3 
REMARK    2  A    between atoms: C_2  and  C_4 
REMARK    3  A    between atoms: C_4  and  C_5 
REMARK    4  A    between atoms: C_5  and  C_6 
REMARK    5  A    between atoms: C_7  and  C_8 
REMARK    6  A    between atoms: C_8  and  C_9 
REMARK    7  A    between atoms: C_9  and  O_11 
REMARK    8  A    between atoms: C_28  and  C_29 
REMARK    9  A    between atoms: C_29  and  C_30 
REMARK   10  A    between atoms: C_30  and  O_32 
REMARK   11  A    between atoms: C_33  and  C_34 
REMARK   12  A    between atoms: C_34  and  C_35 
REMARK   13  A    between atoms: C_35  and  C_36 
REMARK   14  A    between atoms: C_36  and  O_38 
REMARK   15  A    between atoms: C_39  and  C_40 
REMARK   16  A    between atoms: C_40  and  C_41 
REMARK   17  A    between atoms: C_41  and  C_42 
REMARK   18  A    between atoms: C_42  and  O_44 
REMARK   19  A    between atoms: C_45  and  C_46 
REMARK   20  A    between atoms: C_46  and  C_47 
REMARK   21  A    between atoms: C_47  and  O_49 
REMARK   22  A    between atoms: C_50  and  C_51 
REMARK   23  A    between atoms: C_51  and  C_52 
REMARK   24  A    between atoms: C_52  and  O_54 
REMARK   25  A    between atoms: C_55  and  C_56 
REMARK   26  A    between atoms: C_56  and  C_57 
REMARK   27  A    between atoms: C_57  and  C_58 
REMARK   28  A    between atoms: C_58  and  O_60 
ROOT
ATOM      1  O   UNK d   0     -16.938  -5.421 -21.325  0.00  0.00    -0.650 OA
ATOM      2  C   UNK d   0     -18.166  -5.661 -21.362  0.00  0.00     0.139 C 
ENDROOT
BRANCH   2   3
ATOM      3  O   UNK d   0     -19.058  -4.631 -21.184  0.00  0.00    -0.776 OA
ATOM      4  H   UNK d   0     -18.739  -3.694 -20.932  0.00  0.00     0.167 HD
ENDBRANCH   2   3
BRANCH   2   5
ATOM      5  C   UNK d   0     -18.650  -7.051 -21.595  0.00  0.00     0.115 C 
BRANCH   5   6
ATOM      6  C   UNK d   0     -17.716  -8.039 -20.951  0.00  0.00     0.052 C 
BRANCH   6   7
ATOM      7  C   UNK d   0     -18.118  -8.382 -19.536  0.00  0.00    -0.020 A 
ATOM      8  C   UNK d   0     -19.038  -9.229 -19.151  0.00  0.00    -0.011 A 
ATOM      9  C   UNK d   0     -19.073  -9.217 -17.698  0.00  0.00     0.067 A 
ATOM     10  C   UNK d   0     -19.793  -9.887 -16.696  0.00  0.00     0.062 C 
ATOM     11  N   UNK d   0     -18.145  -8.329 -17.282  0.00  0.00    -0.248 NA
ATOM     12  C   UNK d   0     -19.492  -9.946 -15.331  0.00  0.00     0.041 A 
ATOM     13  N   UNK d   0     -19.078  -8.994 -14.473  0.00  0.00    -0.355 N 
ATOM     14  C   UNK d   0     -19.556 -11.187 -14.673  0.00  0.00    -0.022 A 
ATOM     15  C   UNK d   0     -18.869  -9.601 -13.290  0.00  0.00     0.042 A 
ATOM     16  H   UNK d   0     -18.954  -7.911 -14.695  0.00  0.00     0.166 HD
ATOM     17  C   UNK d   0     -18.435  -9.075 -12.057  0.00  0.00     0.062 C 
ATOM     18  C   UNK d   0     -19.158 -10.977 -13.376  0.00  0.00    -0.013 A 
ATOM     19  C   UNK d   0     -17.412  -8.196 -11.807  0.00  0.00     0.067 A 
ATOM     20  N   UNK d   0     -16.862  -7.592 -12.863  0.00  0.00    -0.248 NA
ATOM     21  C   UNK d   0     -16.706  -7.723 -10.628  0.00  0.00    -0.011 A 
ATOM     22  C   UNK d   0     -15.847  -6.758 -12.461  0.00  0.00     0.066 A 
ATOM     23  C   UNK d   0     -15.212  -6.035 -13.459  0.00  0.00     0.062 C 
ATOM     24  C   UNK d   0     -15.789  -6.885 -11.018  0.00  0.00    -0.020 A 
ATOM     25  C   UNK d   0     -15.537  -5.980 -14.823  0.00  0.00     0.041 A 
ATOM     26  N   UNK d   0     -15.935  -6.929 -15.679  0.00  0.00    -0.355 N 
ATOM     27  C   UNK d   0     -15.478  -4.733 -15.482  0.00  0.00    -0.022 A 
ATOM     28  C   UNK d   0     -16.135  -6.327 -16.863  0.00  0.00     0.042 A 
ATOM     29  H   UNK d   0     -16.049  -8.019 -15.458  0.00  0.00     0.166 HD
ATOM     30  C   UNK d   0     -16.558  -6.841 -18.099  0.00  0.00     0.062 C 
ATOM     31  C   UNK d   0     -15.855  -4.943 -16.773  0.00  0.00    -0.013 A 
ATOM     32  C   UNK d   0     -17.536  -7.792 -18.340  0.00  0.00     0.066 A 
BRANCH   8  33
ATOM     33  C   UNK d   0     -19.899 -10.055 -20.017  0.00  0.00     0.151 C 
BRANCH  33  34
ATOM     34  C   UNK d   0     -21.245  -9.481 -20.196  0.00  0.00     0.143 C 
ATOM     35  O   UNK d   0     -22.125  -9.640 -19.338  0.00  0.00    -0.650 OA
BRANCH  34  36
ATOM     36  O   UNK d   0     -21.526  -8.760 -21.334  0.00  0.00    -0.776 OA
ATOM     37  H   UNK d   0     -22.491  -8.648 -21.671  0.00  0.00     0.167 HD
ENDBRANCH  34  36
ENDBRANCH  33  34
ENDBRANCH   8  33
BRANCH  31  38
ATOM     38  C   UNK d   0     -15.956  -3.893 -17.854  0.00  0.00     0.151 C 
BRANCH  38  39
ATOM     39  C   UNK d   0     -17.325  -3.589 -18.214  0.00  0.00     0.143 C 
ATOM     40  O   UNK d   0     -18.288  -3.893 -17.488  0.00  0.00    -0.650 OA
BRANCH  39  41
ATOM     41  O   UNK d   0     -17.588  -2.931 -19.416  0.00  0.00    -0.776 OA
ATOM     42  H   UNK d   0     -18.155  -3.437 -20.104  0.00  0.00     0.167 HD
ENDBRANCH  39  41
ENDBRANCH  38  39
ENDBRANCH  31  38
BRANCH  27  43
ATOM     43  C   UNK d   0     -15.082  -3.381 -14.941  0.00  0.00     0.052 C 
BRANCH  43  44
ATOM     44  C   UNK d   0     -16.242  -2.459 -14.751  0.00  0.00     0.115 C 
BRANCH  44  45
ATOM     45  C   UNK d   0     -15.944  -1.646 -13.543  0.00  0.00     0.139 C 
ATOM     46  O   UNK d   0     -16.147  -0.408 -13.598  0.00  0.00    -0.650 OA
BRANCH  45  47
ATOM     47  O   UNK d   0     -15.464  -2.194 -12.374  0.00  0.00    -0.776 OA
ATOM     48  H   UNK d   0     -14.960  -1.641 -11.661  0.00  0.00     0.167 HD
ENDBRANCH  45  47
ENDBRANCH  44  45
ENDBRANCH  43  44
ENDBRANCH  27  43
BRANCH  24  49
ATOM     49  C   UNK d   0     -14.867  -6.139 -10.145  0.00  0.00     0.052 C 
BRANCH  49  50
ATOM     50  C   UNK d   0     -13.451  -6.617 -10.346  0.00  0.00     0.115 C 
BRANCH  50  51
ATOM     51  C   UNK d   0     -12.478  -6.262  -9.322  0.00  0.00     0.139 C 
ATOM     52  O   UNK d   0     -12.103  -5.082  -9.125  0.00  0.00    -0.650 OA
BRANCH  51  53
ATOM     53  O   UNK d   0     -11.929  -7.253  -8.524  0.00  0.00    -0.776 OA
ATOM     54  H   UNK d   0     -11.409  -6.975  -7.710  0.00  0.00     0.167 HD
ENDBRANCH  51  53
ENDBRANCH  50  51
ENDBRANCH  49  50
ENDBRANCH  24  49
BRANCH  21  55
ATOM     55  C   UNK d   0     -17.024  -8.155  -9.235  0.00  0.00     0.151 C 
BRANCH  55  56
ATOM     56  C   UNK d   0     -16.375  -9.429  -8.891  0.00  0.00     0.143 C 
ATOM     57  O   UNK d   0     -17.019 -10.458  -8.602  0.00  0.00    -0.650 OA
BRANCH  56  58
ATOM     58  O   UNK d   0     -14.982  -9.470  -8.892  0.00  0.00    -0.776 OA
ATOM     59  H   UNK d   0     -14.531  -8.998  -8.088  0.00  0.00     0.167 HD
ENDBRANCH  56  58
ENDBRANCH  55  56
ENDBRANCH  21  55
BRANCH  18  60
ATOM     60  C   UNK d   0     -19.069 -12.046 -12.315  0.00  0.00     0.151 C 
BRANCH  60  61
ATOM     61  C   UNK d   0     -17.634 -12.239 -12.057  0.00  0.00     0.143 C 
ATOM     62  O   UNK d   0     -16.735 -12.332 -12.893  0.00  0.00    -0.650 OA
BRANCH  61  63
ATOM     63  O   UNK d   0     -17.274 -12.324 -10.690  0.00  0.00    -0.776 OA
ATOM     64  H   UNK d   0     -16.349 -12.604 -10.414  0.00  0.00     0.167 HD
ENDBRANCH  61  63
ENDBRANCH  60  61
ENDBRANCH  18  60
BRANCH  14  65
ATOM     65  C   UNK d   0     -20.053 -12.524 -15.146  0.00  0.00     0.052 C 
BRANCH  65  66
ATOM     66  C   UNK d   0     -21.489 -12.506 -15.534  0.00  0.00     0.115 C 
BRANCH  66  67
ATOM     67  C   UNK d   0     -22.488 -12.193 -14.551  0.00  0.00     0.139 C 
ATOM     68  O   UNK d   0     -22.892 -10.976 -14.454  0.00  0.00    -0.650 OA
BRANCH  67  69
ATOM     69  O   UNK d   0     -23.103 -13.063 -13.653  0.00  0.00    -0.776 OA
ATOM     70  H   UNK d   0     -23.860 -13.646 -14.040  0.00  0.00     0.167 HD
ENDBRANCH  67  69
ENDBRANCH  66  67
ENDBRANCH  65  66
ENDBRANCH  14  65
ENDBRANCH   6   7
ENDBRANCH   5   6
ENDBRANCH   2   5
TORSDOF 28
ENDMDL
MODEL 5
REMARK VINA RESULT:      -8.8      3.674      9.904
REMARK  28 active torsions:
REMARK  status: ('A' for Active; 'I' for Inactive)
REMARK    1  A    between atoms: C_2  and  O_3 
REMARK    2  A    between atoms: C_2  and  C_4 
REMARK    3  A    between atoms: C_4  and  C_5 
REMARK    4  A    between atoms: C_5  and  C_6 
REMARK    5  A    between atoms: C_7  and  C_8 
REMARK    6  A    between atoms: C_8  and  C_9 
REMARK    7  A    between atoms: C_9  and  O_11 
REMARK    8  A    between atoms: C_28  and  C_29 
REMARK    9  A    between atoms: C_29  and  C_30 
REMARK   10  A    between atoms: C_30  and  O_32 
REMARK   11  A    between atoms: C_33  and  C_34 
REMARK   12  A    between atoms: C_34  and  C_35 
REMARK   13  A    between atoms: C_35  and  C_36 
REMARK   14  A    between atoms: C_36  and  O_38 
REMARK   15  A    between atoms: C_39  and  C_40 
REMARK   16  A    between atoms: C_40  and  C_41 
REMARK   17  A    between atoms: C_41  and  C_42 
REMARK   18  A    between atoms: C_42  and  O_44 
REMARK   19  A    between atoms: C_45  and  C_46 
REMARK   20  A    between atoms: C_46  and  C_47 
REMARK   21  A    between atoms: C_47  and  O_49 
REMARK   22  A    between atoms: C_50  and  C_51 
REMARK   23  A    between atoms: C_51  and  C_52 
REMARK   24  A    between atoms: C_52  and  O_54 
REMARK   25  A    between atoms: C_55  and  C_56 
REMARK   26  A    between atoms: C_56  and  C_57 
REMARK   27  A    between atoms: C_57  and  C_58 
REMARK   28  A    between atoms: C_58  and  O_60 
ROOT
ATOM      1  O   UNK d   0     -15.610  -4.049 -13.380  0.00  0.00    -0.650 OA
ATOM      2  C   UNK d   0     -15.263  -3.650 -14.514  0.00  0.00     0.139 C 
ENDROOT
BRANCH   2   3
ATOM      3  O   UNK d   0     -14.473  -2.531 -14.621  0.00  0.00    -0.776 OA
ATOM      4  H   UNK d   0     -13.762  -2.318 -13.919  0.00  0.00     0.167 HD
ENDBRANCH   2   3
BRANCH   2   5
ATOM      5  C   UNK d   0     -15.705  -4.384 -15.733  0.00  0.00     0.115 C 
BRANCH   5   6
ATOM      6  C   UNK d   0     -15.228  -5.810 -15.680  0.00  0.00     0.052 C 
BRANCH   6   7
ATOM      7  C   UNK d   0     -16.365  -6.800 -15.585  0.00  0.00    -0.020 A 
ATOM      8  C   UNK d   0     -17.406  -6.897 -16.371  0.00  0.00    -0.011 A 
ATOM      9  C   UNK d   0     -18.231  -7.989 -15.883  0.00  0.00     0.067 A 
ATOM     10  C   UNK d   0     -19.431  -8.605 -16.273  0.00  0.00     0.062 C 
ATOM     11  N   UNK d   0     -17.619  -8.498 -14.793  0.00  0.00    -0.248 NA
ATOM     12  C   UNK d   0     -19.934  -9.835 -15.835  0.00  0.00     0.041 A 
ATOM     13  N   UNK d   0     -19.987 -10.385 -14.607  0.00  0.00    -0.355 N 
ATOM     14  C   UNK d   0     -20.443 -10.739 -16.786  0.00  0.00    -0.022 A 
ATOM     15  C   UNK d   0     -20.509 -11.617 -14.755  0.00  0.00     0.042 A 
ATOM     16  H   UNK d   0     -19.679  -9.904 -13.653  0.00  0.00     0.166 HD
ATOM     17  C   UNK d   0     -20.783 -12.614 -13.797  0.00  0.00     0.062 C 
ATOM     18  C   UNK d   0     -20.807 -11.875 -16.107  0.00  0.00    -0.013 A 
ATOM     19  C   UNK d   0     -20.000 -13.050 -12.758  0.00  0.00     0.067 A 
ATOM     20  N   UNK d   0     -18.918 -12.323 -12.470  0.00  0.00    -0.248 NA
ATOM     21  C   UNK d   0     -20.023 -14.170 -11.832  0.00  0.00    -0.011 A 
ATOM     22  C   UNK d   0     -18.229 -12.888 -11.424  0.00  0.00     0.066 A 
ATOM     23  C   UNK d   0     -17.097 -12.211 -10.995  0.00  0.00     0.062 C 
ATOM     24  C   UNK d   0     -18.982 -14.072 -11.057  0.00  0.00    -0.020 A 
ATOM     25  C   UNK d   0     -16.617 -10.970 -11.439  0.00  0.00     0.041 A 
ATOM     26  N   UNK d   0     -16.550 -10.429 -12.661  0.00  0.00    -0.355 N 
ATOM     27  C   UNK d   0     -16.110 -10.061 -10.484  0.00  0.00    -0.022 A 
ATOM     28  C   UNK d   0     -16.022  -9.203 -12.518  0.00  0.00     0.042 A 
ATOM     29  H   UNK d   0     -16.850 -10.917 -13.621  0.00  0.00     0.166 HD
ATOM     30  C   UNK d   0     -15.735  -8.205 -13.462  0.00  0.00     0.062 C 
ATOM     31  C   UNK d   0     -15.732  -8.941 -11.158  0.00  0.00    -0.013 A 
ATOM     32  C   UNK d   0     -16.490  -7.826 -14.561  0.00  0.00     0.066 A 
BRANCH   8  33
ATOM     33  C   UNK d   0     -17.712  -6.056 -17.543  0.00  0.00     0.151 C 
BRANCH  33  34
ATOM     34  C   UNK d   0     -17.243  -6.650 -18.808  0.00  0.00     0.143 C 
ATOM     35  O   UNK d   0     -16.034  -6.706 -19.075  0.00  0.00    -0.650 OA
BRANCH  34  36
ATOM     36  O   UNK d   0     -18.162  -7.145 -19.704  0.00  0.00    -0.776 OA
ATOM     37  H   UNK d   0     -17.933  -7.251 -20.701  0.00  0.00     0.167 HD
ENDBRANCH  34  36
ENDBRANCH  33  34
ENDBRANCH   8  33
BRANCH  31  38
ATOM     38  C   UNK d   0     -15.144  -7.690 -10.548  0.00  0.00     0.151 C 
BRANCH  38  39
ATOM     39  C   UNK d   0     -13.721  -7.800 -10.304  0.00  0.00     0.143 C 
ATOM     40  O   UNK d   0     -12.932  -8.244 -11.156  0.00  0.00    -0.650 OA
BRANCH  39  41
ATOM     41  O   UNK d   0     -13.203  -7.396  -9.074  0.00  0.00    -0.776 OA
ATOM     42  H   UNK d   0     -13.425  -7.984  -8.264  0.00  0.00     0.167 HD
ENDBRANCH  39  41
ENDBRANCH  38  39
ENDBRANCH  31  38
BRANCH  27  43
ATOM     43  C   UNK d   0     -15.974 -10.218  -8.990  0.00  0.00     0.052 C 
BRANCH  43  44
ATOM     44  C   UNK d   0     -17.034  -9.498  -8.221  0.00  0.00     0.115 C 
BRANCH  44  45
ATOM     45  C   UNK d   0     -17.308 -10.314  -7.009  0.00  0.00     0.139 C 
ATOM     46  O   UNK d   0     -18.488 -10.359  -6.580  0.00  0.00    -0.650 OA
BRANCH  45  47
ATOM     47  O   UNK d   0     -16.328 -11.021  -6.347  0.00  0.00    -0.776 OA
ATOM     48  H   UNK d   0     -15.323 -10.794  -6.426  0.00  0.00     0.167 HD
ENDBRANCH  45  47
ENDBRANCH  44  45
ENDBRANCH  43  44
ENDBRANCH  27  43
BRANCH  24  49
ATOM     49  C   UNK d   0     -18.636 -14.977  -9.949  0.00  0.00     0.052 C 
BRANCH  49  50
ATOM     50  C   UNK d   0     -17.489 -15.874 -10.342  0.00  0.00     0.115 C 
BRANCH  50  51
ATOM     51  C   UNK d   0     -16.338 -15.911  -9.450  0.00  0.00     0.139 C 
ATOM     52  O   UNK d   0     -16.089 -14.997  -8.629  0.00  0.00    -0.650 OA
BRANCH  51  53
ATOM     53  O   UNK d   0     -15.470 -16.991  -9.495  0.00  0.00    -0.776 OA
ATOM     54  H   UNK d   0     -14.785 -17.081  -8.765  0.00  0.00     0.167 HD
ENDBRANCH  51  53
ENDBRANCH  50  51
ENDBRANCH  49  50
ENDBRANCH  24  49
BRANCH  21  55
ATOM     55  C   UNK d   0     -21.085 -15.219 -11.816  0.00  0.00     0.151 C 
BRANCH  55  56
ATOM     56  C   UNK d   0     -22.238 -14.823 -10.994  0.00  0.00     0.143 C 
ATOM     57  O   UNK d   0     -23.294 -14.374 -11.483  0.00  0.00    -0.650 OA
BRANCH  56  58
ATOM     58  O   UNK d   0     -22.128 -14.963  -9.611  0.00  0.00    -0.776 OA
ATOM     59  H   UNK d   0     -22.572 -15.815  -9.222  0.00  0.00     0.167 HD
ENDBRANCH  56  58
ENDBRANCH  55  56
ENDBRANCH  21  55
BRANCH  18  60
ATOM     60  C   UNK d   0     -21.396 -13.110 -16.742  0.00  0.00     0.151 C 
BRANCH  60  61
ATOM     61  C   UNK d   0     -20.287 -14.068 -16.867  0.00  0.00     0.143 C 
ATOM     62  O   UNK d   0     -19.105 -13.810 -17.095  0.00  0.00    -0.650 OA
BRANCH  61  63
ATOM     63  O   UNK d   0     -20.644 -15.428 -16.702  0.00  0.00    -0.776 OA
ATOM     64  H   UNK d   0     -20.003 -16.087 -16.296  0.00  0.00     0.167 HD
ENDBRANCH  61  63
ENDBRANCH  60  61
ENDBRANCH  18  60
BRANCH  14  65
ATOM     65  C   UNK d   0     -20.699 -10.574 -18.257  0.00  0.00     0.052 C 
BRANCH  65  66
ATOM     66  C   UNK d   0     -19.675 -11.242 -19.104  0.00  0.00     0.115 C 
BRANCH  66  67
ATOM     67  C   UNK d   0     -18.289 -10.899 -18.949  0.00  0.00     0.139 C 
ATOM     68  O   UNK d   0     -17.788 -10.006 -19.727  0.00  0.00    -0.650 OA
BRANCH  67  69
ATOM     69  O   UNK d   0     -17.378 -11.423 -18.034  0.00  0.00    -0.776 OA
ATOM     70  H   UNK d   0     -17.182 -10.837 -17.210  0.00  0.00     0.167 HD
ENDBRANCH  67  69
ENDBRANCH  66  67
ENDBRANCH  65  66
ENDBRANCH  14  65
ENDBRANCH   6   7
ENDBRANCH   5   6
ENDBRANCH   2   5
TORSDOF 28
ENDMDL
MODEL 6
REMARK VINA RESULT:      -8.8      3.708     10.041
REMARK  28 active torsions:
REMARK  status: ('A' for Active; 'I' for Inactive)
REMARK    1  A    between atoms: C_2  and  O_3 
REMARK    2  A    between atoms: C_2  and  C_4 
REMARK    3  A    between atoms: C_4  and  C_5 
REMARK    4  A    between atoms: C_5  and  C_6 
REMARK    5  A    between atoms: C_7  and  C_8 
REMARK    6  A    between atoms: C_8  and  C_9 
REMARK    7  A    between atoms: C_9  and  O_11 
REMARK    8  A    between atoms: C_28  and  C_29 
REMARK    9  A    between atoms: C_29  and  C_30 
REMARK   10  A    between atoms: C_30  and  O_32 
REMARK   11  A    between atoms: C_33  and  C_34 
REMARK   12  A    between atoms: C_34  and  C_35 
REMARK   13  A    between atoms: C_35  and  C_36 
REMARK   14  A    between atoms: C_36  and  O_38 
REMARK   15  A    between atoms: C_39  and  C_40 
REMARK   16  A    between atoms: C_40  and  C_41 
REMARK   17  A    between atoms: C_41  and  C_42 
REMARK   18  A    between atoms: C_42  and  O_44 
REMARK   19  A    between atoms: C_45  and  C_46 
REMARK   20  A    between atoms: C_46  and  C_47 
REMARK   21  A    between atoms: C_47  and  O_49 
REMARK   22  A    between atoms: C_50  and  C_51 
REMARK   23  A    between atoms: C_51  and  C_52 
REMARK   24  A    between atoms: C_52  and  O_54 
REMARK   25  A    between atoms: C_55  and  C_56 
REMARK   26  A    between atoms: C_56  and  C_57 
REMARK   27  A    between atoms: C_57  and  C_58 
REMARK   28  A    between atoms: C_58  and  O_60 
ROOT
ATOM      1  O   UNK d   0     -14.527  -2.981 -15.180  0.00  0.00    -0.650 OA
ATOM      2  C   UNK d   0     -15.241  -3.942 -14.815  0.00  0.00     0.139 C 
ENDROOT
BRANCH   2   3
ATOM      3  O   UNK d   0     -16.600  -3.770 -14.712  0.00  0.00    -0.776 OA
ATOM      4  H   UNK d   0     -17.077  -3.861 -13.812  0.00  0.00     0.167 HD
ENDBRANCH   2   3
BRANCH   2   5
ATOM      5  C   UNK d   0     -14.618  -5.257 -14.495  0.00  0.00     0.115 C 
BRANCH   5   6
ATOM      6  C   UNK d   0     -14.538  -6.107 -15.734  0.00  0.00     0.052 C 
BRANCH   6   7
ATOM      7  C   UNK d   0     -15.672  -7.099 -15.833  0.00  0.00    -0.020 A 
ATOM      8  C   UNK d   0     -16.525  -7.242 -16.814  0.00  0.00    -0.011 A 
ATOM      9  C   UNK d   0     -17.438  -8.315 -16.459  0.00  0.00     0.067 A 
ATOM     10  C   UNK d   0     -18.530  -8.957 -17.062  0.00  0.00     0.062 C 
ATOM     11  N   UNK d   0     -17.071  -8.766 -15.241  0.00  0.00    -0.248 NA
ATOM     12  C   UNK d   0     -19.117 -10.169 -16.681  0.00  0.00     0.041 A 
ATOM     13  N   UNK d   0     -19.429 -10.659 -15.467  0.00  0.00    -0.355 N 
ATOM     14  C   UNK d   0     -19.417 -11.121 -17.673  0.00  0.00    -0.022 A 
ATOM     15  C   UNK d   0     -19.912 -11.901 -15.661  0.00  0.00     0.042 A 
ATOM     16  H   UNK d   0     -19.329 -10.131 -14.493  0.00  0.00     0.166 HD
ATOM     17  C   UNK d   0     -20.385 -12.853 -14.735  0.00  0.00     0.062 C 
ATOM     18  C   UNK d   0     -19.920 -12.226 -17.032  0.00  0.00    -0.013 A 
ATOM     19  C   UNK d   0     -19.840 -13.233 -13.535  0.00  0.00     0.067 A 
ATOM     20  N   UNK d   0     -18.840 -12.485 -13.061  0.00  0.00    -0.248 NA
ATOM     21  C   UNK d   0     -20.061 -14.307 -12.582  0.00  0.00    -0.011 A 
ATOM     22  C   UNK d   0     -18.390 -12.994 -11.868  0.00  0.00     0.066 A 
ATOM     23  C   UNK d   0     -17.371 -12.289 -11.243  0.00  0.00     0.062 C 
ATOM     24  C   UNK d   0     -19.206 -14.164 -11.610  0.00  0.00    -0.020 A 
ATOM     25  C   UNK d   0     -16.804 -11.067 -11.635  0.00  0.00     0.041 A 
ATOM     26  N   UNK d   0     -16.480 -10.585 -12.841  0.00  0.00    -0.355 N 
ATOM     27  C   UNK d   0     -16.508 -10.110 -10.640  0.00  0.00    -0.022 A 
ATOM     28  C   UNK d   0     -15.990  -9.350 -12.649  0.00  0.00     0.042 A 
ATOM     29  H   UNK d   0     -16.572 -11.121 -13.818  0.00  0.00     0.166 HD
ATOM     30  C   UNK d   0     -15.508  -8.397 -13.560  0.00  0.00     0.062 C 
ATOM     31  C   UNK d   0     -15.993  -9.021 -11.273  0.00  0.00    -0.013 A 
ATOM     32  C   UNK d   0     -16.014  -8.076 -14.810  0.00  0.00     0.066 A 
BRANCH   8  33
ATOM     33  C   UNK d   0     -16.575  -6.460 -18.064  0.00  0.00     0.151 C 
BRANCH  33  34
ATOM     34  C   UNK d   0     -16.874  -5.035 -17.835  0.00  0.00     0.143 C 
ATOM     35  O   UNK d   0     -17.894  -4.690 -17.223  0.00  0.00    -0.650 OA
BRANCH  34  36
ATOM     36  O   UNK d   0     -16.007  -4.078 -18.310  0.00  0.00    -0.776 OA
ATOM     37  H   UNK d   0     -15.854  -3.949 -19.319  0.00  0.00     0.167 HD
ENDBRANCH  34  36
ENDBRANCH  33  34
ENDBRANCH   8  33
BRANCH  31  38
ATOM     38  C   UNK d   0     -15.542  -7.738 -10.615  0.00  0.00     0.151 C 
BRANCH  38  39
ATOM     39  C   UNK d   0     -14.218  -7.837 -10.038  0.00  0.00     0.143 C 
ATOM     40  O   UNK d   0     -13.928  -7.321  -8.944  0.00  0.00    -0.650 OA
BRANCH  39  41
ATOM     41  O   UNK d   0     -13.223  -8.534 -10.722  0.00  0.00    -0.776 OA
ATOM     42  H   UNK d   0     -13.531  -9.168 -11.466  0.00  0.00     0.167 HD
ENDBRANCH  39  41
ENDBRANCH  38  39
ENDBRANCH  31  38
BRANCH  27  43
ATOM     43  C   UNK d   0     -16.690 -10.194  -9.145  0.00  0.00     0.052 C 
BRANCH  43  44
ATOM     44  C   UNK d   0     -15.480 -10.703  -8.430  0.00  0.00     0.115 C 
BRANCH  44  45
ATOM     45  C   UNK d   0     -15.444 -10.014  -7.114  0.00  0.00     0.139 C 
ATOM     46  O   UNK d   0     -16.396 -10.206  -6.319  0.00  0.00    -0.650 OA
BRANCH  45  47
ATOM     47  O   UNK d   0     -14.411  -9.184  -6.734  0.00  0.00    -0.776 OA
ATOM     48  H   UNK d   0     -14.493  -8.508  -5.957  0.00  0.00     0.167 HD
ENDBRANCH  45  47
ENDBRANCH  44  45
ENDBRANCH  43  44
ENDBRANCH  27  43
BRANCH  24  49
ATOM     49  C   UNK d   0     -19.104 -15.013 -10.411  0.00  0.00     0.052 C 
BRANCH  49  50
ATOM     50  C   UNK d   0     -18.026 -16.052 -10.594  0.00  0.00     0.115 C 
BRANCH  50  51
ATOM     51  C   UNK d   0     -16.859 -15.958  -9.728  0.00  0.00     0.139 C 
ATOM     52  O   UNK d   0     -16.520 -14.891  -9.163  0.00  0.00    -0.650 OA
BRANCH  51  53
ATOM     53  O   UNK d   0     -16.077 -17.081  -9.507  0.00  0.00    -0.776 OA
ATOM     54  H   UNK d   0     -15.217 -16.969  -8.999  0.00  0.00     0.167 HD
ENDBRANCH  51  53
ENDBRANCH  50  51
ENDBRANCH  49  50
ENDBRANCH  24  49
BRANCH  21  55
ATOM     55  C   UNK d   0     -21.105 -15.362 -12.739  0.00  0.00     0.151 C 
BRANCH  55  56
ATOM     56  C   UNK d   0     -22.364 -14.994 -12.073  0.00  0.00     0.143 C 
ATOM     57  O   UNK d   0     -23.140 -14.130 -12.526  0.00  0.00    -0.650 OA
BRANCH  56  58
ATOM     58  O   UNK d   0     -22.687 -15.652 -10.887  0.00  0.00    -0.776 OA
ATOM     59  H   UNK d   0     -22.540 -16.677 -10.902  0.00  0.00     0.167 HD
ENDBRANCH  56  58
ENDBRANCH  55  56
ENDBRANCH  21  55
BRANCH  18  60
ATOM     60  C   UNK d   0     -20.365 -13.494 -17.716  0.00  0.00     0.151 C 
BRANCH  60  61
ATOM     61  C   UNK d   0     -19.155 -14.314 -17.876  0.00  0.00     0.143 C 
ATOM     62  O   UNK d   0     -17.986 -13.940 -17.769  0.00  0.00    -0.650 OA
BRANCH  61  63
ATOM     63  O   UNK d   0     -19.386 -15.676 -18.185  0.00  0.00    -0.776 OA
ATOM     64  H   UNK d   0     -18.843 -16.404 -17.755  0.00  0.00     0.167 HD
ENDBRANCH  61  63
ENDBRANCH  60  61
ENDBRANCH  18  60
BRANCH  14  65
ATOM     65  C   UNK d   0     -19.358 -11.029 -19.171  0.00  0.00     0.052 C 
BRANCH  65  66
ATOM     66  C   UNK d   0     -20.575 -10.412 -19.765  0.00  0.00     0.115 C 
BRANCH  66  67
ATOM     67  C   UNK d   0     -20.461  -9.196 -20.518  0.00  0.00     0.139 C 
ATOM     68  O   UNK d   0     -19.344  -8.558 -20.489  0.00  0.00    -0.650 OA
BRANCH  67  69
ATOM     69  O   UNK d   0     -21.435  -8.586 -21.307  0.00  0.00    -0.776 OA
ATOM     70  H   UNK d   0     -21.651  -7.606 -21.075  0.00  0.00     0.167 HD
ENDBRANCH  67  69
ENDBRANCH  66  67
ENDBRANCH  65  66
ENDBRANCH  14  65
ENDBRANCH   6   7
ENDBRANCH   5   6
ENDBRANCH   2   5
TORSDOF 28
ENDMDL
MODEL 7
REMARK VINA RESULT:      -8.8      2.859      9.322
REMARK  28 active torsions:
REMARK  status: ('A' for Active; 'I' for Inactive)
REMARK    1  A    between atoms: C_2  and  O_3 
REMARK    2  A    between atoms: C_2  and  C_4 
REMARK    3  A    between atoms: C_4  and  C_5 
REMARK    4  A    between atoms: C_5  and  C_6 
REMARK    5  A    between atoms: C_7  and  C_8 
REMARK    6  A    between atoms: C_8  and  C_9 
REMARK    7  A    between atoms: C_9  and  O_11 
REMARK    8  A    between atoms: C_28  and  C_29 
REMARK    9  A    between atoms: C_29  and  C_30 
REMARK   10  A    between atoms: C_30  and  O_32 
REMARK   11  A    between atoms: C_33  and  C_34 
REMARK   12  A    between atoms: C_34  and  C_35 
REMARK   13  A    between atoms: C_35  and  C_36 
REMARK   14  A    between atoms: C_36  and  O_38 
REMARK   15  A    between atoms: C_39  and  C_40 
REMARK   16  A    between atoms: C_40  and  C_41 
REMARK   17  A    between atoms: C_41  and  C_42 
REMARK   18  A    between atoms: C_42  and  O_44 
REMARK   19  A    between atoms: C_45  and  C_46 
REMARK   20  A    between atoms: C_46  and  C_47 
REMARK   21  A    between atoms: C_47  and  O_49 
REMARK   22  A    between atoms: C_50  and  C_51 
REMARK   23  A    between atoms: C_51  and  C_52 
REMARK   24  A    between atoms: C_52  and  O_54 
REMARK   25  A    between atoms: C_55  and  C_56 
REMARK   26  A    between atoms: C_56  and  C_57 
REMARK   27  A    between atoms: C_57  and  C_58 
REMARK   28  A    between atoms: C_58  and  O_60 
ROOT
ATOM      1  O   UNK d   0     -15.349  -2.674 -12.594  0.00  0.00    -0.650 OA
ATOM      2  C   UNK d   0     -15.869  -2.033 -13.534  0.00  0.00     0.139 C 
ENDROOT
BRANCH   2   3
ATOM      3  O   UNK d   0     -16.140  -0.696 -13.368  0.00  0.00    -0.776 OA
ATOM      4  H   UNK d   0     -15.745   0.005 -13.999  0.00  0.00     0.167 HD
ENDBRANCH   2   3
BRANCH   2   5
ATOM      5  C   UNK d   0     -16.191  -2.716 -14.819  0.00  0.00     0.115 C 
BRANCH   5   6
ATOM      6  C   UNK d   0     -15.398  -3.989 -14.941  0.00  0.00     0.052 C 
BRANCH   6   7
ATOM      7  C   UNK d   0     -16.275  -5.217 -15.001  0.00  0.00    -0.020 A 
ATOM      8  C   UNK d   0     -17.148  -5.530 -15.924  0.00  0.00    -0.011 A 
ATOM      9  C   UNK d   0     -17.755  -6.797 -15.551  0.00  0.00     0.067 A 
ATOM     10  C   UNK d   0     -18.713  -7.661 -16.102  0.00  0.00     0.062 C 
ATOM     11  N   UNK d   0     -17.196  -7.181 -14.384  0.00  0.00    -0.248 NA
ATOM     12  C   UNK d   0     -18.970  -8.986 -15.734  0.00  0.00     0.041 A 
ATOM     13  N   UNK d   0     -19.061  -9.568 -14.523  0.00  0.00    -0.355 N 
ATOM     14  C   UNK d   0     -19.120  -9.956 -16.742  0.00  0.00    -0.022 A 
ATOM     15  C   UNK d   0     -19.256 -10.883 -14.737  0.00  0.00     0.042 A 
ATOM     16  H   UNK d   0     -19.007  -9.057 -13.537  0.00  0.00     0.166 HD
ATOM     17  C   UNK d   0     -19.419 -11.943 -13.823  0.00  0.00     0.062 C 
ATOM     18  C   UNK d   0     -19.299 -11.165 -16.116  0.00  0.00    -0.013 A 
ATOM     19  C   UNK d   0     -18.706 -12.216 -12.683  0.00  0.00     0.067 A 
ATOM     20  N   UNK d   0     -17.872 -11.267 -12.250  0.00  0.00    -0.248 NA
ATOM     21  C   UNK d   0     -18.593 -13.337 -11.765  0.00  0.00    -0.011 A 
ATOM     22  C   UNK d   0     -17.221 -11.687 -11.116  0.00  0.00     0.066 A 
ATOM     23  C   UNK d   0     -16.347 -10.779 -10.535  0.00  0.00     0.062 C 
ATOM     24  C   UNK d   0     -17.720 -13.022 -10.852  0.00  0.00    -0.020 A 
ATOM     25  C   UNK d   0     -16.113  -9.448 -10.913  0.00  0.00     0.041 A 
ATOM     26  N   UNK d   0     -16.008  -8.872 -12.116  0.00  0.00    -0.355 N 
ATOM     27  C   UNK d   0     -15.967  -8.475  -9.900  0.00  0.00    -0.022 A 
ATOM     28  C   UNK d   0     -15.804  -7.562 -11.906  0.00  0.00     0.042 A 
ATOM     29  H   UNK d   0     -16.051  -9.389 -13.106  0.00  0.00     0.166 HD
ATOM     30  C   UNK d   0     -15.632  -6.498 -12.805  0.00  0.00     0.062 C 
ATOM     31  C   UNK d   0     -15.772  -7.279 -10.520  0.00  0.00    -0.013 A 
ATOM     32  C   UNK d   0     -16.297  -6.273 -14.000  0.00  0.00     0.066 A 
BRANCH   8  33
ATOM     33  C   UNK d   0     -17.478  -4.749 -17.131  0.00  0.00     0.151 C 
BRANCH  33  34
ATOM     34  C   UNK d   0     -16.812  -5.262 -18.342  0.00  0.00     0.143 C 
ATOM     35  O   UNK d   0     -17.324  -5.115 -19.461  0.00  0.00    -0.650 OA
BRANCH  34  36
ATOM     36  O   UNK d   0     -15.606  -5.914 -18.224  0.00  0.00    -0.776 OA
ATOM     37  H   UNK d   0     -15.434  -6.588 -17.465  0.00  0.00     0.167 HD
ENDBRANCH  34  36
ENDBRANCH  33  34
ENDBRANCH   8  33
BRANCH  31  38
ATOM     38  C   UNK d   0     -15.581  -5.943  -9.839  0.00  0.00     0.151 C 
BRANCH  38  39
ATOM     39  C   UNK d   0     -14.223  -5.451  -9.941  0.00  0.00     0.143 C 
ATOM     40  O   UNK d   0     -13.235  -6.174  -9.721  0.00  0.00    -0.650 OA
BRANCH  39  41
ATOM     41  O   UNK d   0     -14.000  -4.122 -10.299  0.00  0.00    -0.776 OA
ATOM     42  H   UNK d   0     -14.827  -3.523 -10.387  0.00  0.00     0.167 HD
ENDBRANCH  39  41
ENDBRANCH  38  39
ENDBRANCH  31  38
BRANCH  27  43
ATOM     43  C   UNK d   0     -16.004  -8.638  -8.401  0.00  0.00     0.052 C 
BRANCH  43  44
ATOM     44  C   UNK d   0     -17.387  -8.603  -7.837  0.00  0.00     0.115 C 
BRANCH  44  45
ATOM     45  C   UNK d   0     -17.488  -9.745  -6.890  0.00  0.00     0.139 C 
ATOM     46  O   UNK d   0     -16.429 -10.185  -6.379  0.00  0.00    -0.650 OA
BRANCH  45  47
ATOM     47  O   UNK d   0     -18.688 -10.330  -6.551  0.00  0.00    -0.776 OA
ATOM     48  H   UNK d   0     -19.583 -10.073  -6.997  0.00  0.00     0.167 HD
ENDBRANCH  45  47
ENDBRANCH  44  45
ENDBRANCH  43  44
ENDBRANCH  27  43
BRANCH  24  49
ATOM     49  C   UNK d   0     -17.327 -13.855  -9.702  0.00  0.00     0.052 C 
BRANCH  49  50
ATOM     50  C   UNK d   0     -17.241 -13.017  -8.453  0.00  0.00     0.115 C 
BRANCH  50  51
ATOM     51  C   UNK d   0     -17.317 -13.715  -7.177  0.00  0.00     0.139 C 
ATOM     52  O   UNK d   0     -16.488 -14.592  -6.835  0.00  0.00    -0.650 OA
BRANCH  51  53
ATOM     53  O   UNK d   0     -18.340 -13.416  -6.290  0.00  0.00    -0.776 OA
ATOM     54  H   UNK d   0     -18.810 -12.533  -6.388  0.00  0.00     0.167 HD
ENDBRANCH  51  53
ENDBRANCH  50  51
ENDBRANCH  49  50
ENDBRANCH  24  49
BRANCH  21  55
ATOM     55  C   UNK d   0     -19.374 -14.603 -11.892  0.00  0.00     0.151 C 
BRANCH  55  56
ATOM     56  C   UNK d   0     -20.639 -14.548 -11.144  0.00  0.00     0.143 C 
ATOM     57  O   UNK d   0     -20.716 -14.811  -9.928  0.00  0.00    -0.650 OA
BRANCH  56  58
ATOM     58  O   UNK d   0     -21.790 -14.186 -11.842  0.00  0.00    -0.776 OA
ATOM     59  H   UNK d   0     -21.649 -13.462 -12.570  0.00  0.00     0.167 HD
ENDBRANCH  56  58
ENDBRANCH  55  56
ENDBRANCH  21  55
BRANCH  18  60
ATOM     60  C   UNK d   0     -19.491 -12.484 -16.822  0.00  0.00     0.151 C 
BRANCH  60  61
ATOM     61  C   UNK d   0     -18.147 -12.931 -17.216  0.00  0.00     0.143 C 
ATOM     62  O   UNK d   0     -17.093 -12.740 -16.608  0.00  0.00    -0.650 OA
BRANCH  61  63
ATOM     63  O   UNK d   0     -18.085 -13.657 -18.430  0.00  0.00    -0.776 OA
ATOM     64  H   UNK d   0     -17.222 -13.747 -18.937  0.00  0.00     0.167 HD
ENDBRANCH  61  63
ENDBRANCH  60  61
ENDBRANCH  18  60
BRANCH  14  65
ATOM     65  C   UNK d   0     -19.204  -9.813 -18.235  0.00  0.00     0.052 C 
BRANCH  65  66
ATOM     66  C   UNK d   0     -17.870  -9.725 -18.888  0.00  0.00     0.115 C 
BRANCH  66  67
ATOM     67  C   UNK d   0     -17.556  -8.595 -19.715  0.00  0.00     0.139 C 
ATOM     68  O   UNK d   0     -16.321  -8.350 -19.977  0.00  0.00    -0.650 OA
BRANCH  67  69
ATOM     69  O   UNK d   0     -18.444  -7.690 -20.296  0.00  0.00    -0.776 OA
ATOM     70  H   UNK d   0     -18.026  -7.004 -20.942  0.00  0.00     0.167 HD
ENDBRANCH  67  69
ENDBRANCH  66  67
ENDBRANCH  65  66
ENDBRANCH  14  65
ENDBRANCH   6   7
ENDBRANCH   5   6
ENDBRANCH   2   5
TORSDOF 28
ENDMDL
MODEL 8
REMARK VINA RESULT:      -8.8      3.831     10.603
REMARK  28 active torsions:
REMARK  status: ('A' for Active; 'I' for Inactive)
REMARK    1  A    between atoms: C_2  and  O_3 
REMARK    2  A    between atoms: C_2  and  C_4 
REMARK    3  A    between atoms: C_4  and  C_5 
REMARK    4  A    between atoms: C_5  and  C_6 
REMARK    5  A    between atoms: C_7  and  C_8 
REMARK    6  A    between atoms: C_8  and  C_9 
REMARK    7  A    between atoms: C_9  and  O_11 
REMARK    8  A    between atoms: C_28  and  C_29 
REMARK    9  A    between atoms: C_29  and  C_30 
REMARK   10  A    between atoms: C_30  and  O_32 
REMARK   11  A    between atoms: C_33  and  C_34 
REMARK   12  A    between atoms: C_34  and  C_35 
REMARK   13  A    between atoms: C_35  and  C_36 
REMARK   14  A    between atoms: C_36  and  O_38 
REMARK   15  A    between atoms: C_39  and  C_40 
REMARK   16  A    between atoms: C_40  and  C_41 
REMARK   17  A    between atoms: C_41  and  C_42 
REMARK   18  A    between atoms: C_42  and  O_44 
REMARK   19  A    between atoms: C_45  and  C_46 
REMARK   20  A    between atoms: C_46  and  C_47 
REMARK   21  A    between atoms: C_47  and  O_49 
REMARK   22  A    between atoms: C_50  and  C_51 
REMARK   23  A    between atoms: C_51  and  C_52 
REMARK   24  A    between atoms: C_52  and  O_54 
REMARK   25  A    between atoms: C_55  and  C_56 
REMARK   26  A    between atoms: C_56  and  C_57 
REMARK   27  A    between atoms: C_57  and  C_58 
REMARK   28  A    between atoms: C_58  and  O_60 
ROOT
ATOM      1  O   UNK d   0     -20.807 -17.408 -16.635  0.00  0.00    -0.650 OA
ATOM      2  C   UNK d   0     -21.008 -16.239 -16.237  0.00  0.00     0.139 C 
ENDROOT
BRANCH   2   3
ATOM      3  O   UNK d   0     -21.021 -15.979 -14.888  0.00  0.00    -0.776 OA
ATOM      4  H   UNK d   0     -21.891 -16.011 -14.353  0.00  0.00     0.167 HD
ENDBRANCH   2   3
BRANCH   2   5
ATOM      5  C   UNK d   0     -21.232 -15.142 -17.221  0.00  0.00     0.115 C 
BRANCH   5   6
ATOM      6  C   UNK d   0     -21.557 -13.861 -16.503  0.00  0.00     0.052 C 
BRANCH   6   7
ATOM      7  C   UNK d   0     -20.361 -12.949 -16.372  0.00  0.00    -0.020 A 
ATOM      8  C   UNK d   0     -19.749 -12.292 -17.325  0.00  0.00    -0.011 A 
ATOM      9  C   UNK d   0     -18.650 -11.556 -16.724  0.00  0.00     0.067 A 
ATOM     10  C   UNK d   0     -17.657 -10.672 -17.174  0.00  0.00     0.062 C 
ATOM     11  N   UNK d   0     -18.663 -11.826 -15.402  0.00  0.00    -0.248 NA
ATOM     12  C   UNK d   0     -16.849  -9.838 -16.395  0.00  0.00     0.041 A 
ATOM     13  N   UNK d   0     -16.202 -10.061 -15.235  0.00  0.00    -0.355 N 
ATOM     14  C   UNK d   0     -16.670  -8.500 -16.792  0.00  0.00    -0.022 A 
ATOM     15  C   UNK d   0     -15.625  -8.897 -14.881  0.00  0.00     0.042 A 
ATOM     16  H   UNK d   0     -16.139 -11.027 -14.687  0.00  0.00     0.166 HD
ATOM     17  C   UNK d   0     -14.832  -8.574 -13.762  0.00  0.00     0.062 C 
ATOM     18  C   UNK d   0     -15.896  -7.895 -15.833  0.00  0.00    -0.013 A 
ATOM     19  C   UNK d   0     -15.029  -8.898 -12.444  0.00  0.00     0.067 A 
ATOM     20  N   UNK d   0     -15.977  -9.800 -12.178  0.00  0.00    -0.248 NA
ATOM     21  C   UNK d   0     -14.458  -8.489 -11.171  0.00  0.00    -0.011 A 
ATOM     22  C   UNK d   0     -16.069 -10.010 -10.823  0.00  0.00     0.066 A 
ATOM     23  C   UNK d   0     -16.993 -10.956 -10.407  0.00  0.00     0.062 C 
ATOM     24  C   UNK d   0     -15.074  -9.140 -10.227  0.00  0.00    -0.020 A 
ATOM     25  C   UNK d   0     -17.787 -11.793 -11.207  0.00  0.00     0.041 A 
ATOM     26  N   UNK d   0     -18.442 -11.568 -12.352  0.00  0.00    -0.355 N 
ATOM     27  C   UNK d   0     -17.961 -13.137 -10.811  0.00  0.00    -0.022 A 
ATOM     28  C   UNK d   0     -19.025 -12.724 -12.702  0.00  0.00     0.042 A 
ATOM     29  H   UNK d   0     -18.513 -10.594 -12.896  0.00  0.00     0.166 HD
ATOM     30  C   UNK d   0     -19.823 -13.058 -13.808  0.00  0.00     0.062 C 
ATOM     31  C   UNK d   0     -18.743 -13.734 -11.752  0.00  0.00    -0.013 A 
ATOM     32  C   UNK d   0     -19.669 -12.658 -15.126  0.00  0.00     0.066 A 
BRANCH   8  33
ATOM     33  C   UNK d   0     -20.092 -12.291 -18.759  0.00  0.00     0.151 C 
BRANCH  33  34
ATOM     34  C   UNK d   0     -19.070 -12.949 -19.592  0.00  0.00     0.143 C 
ATOM     35  O   UNK d   0     -18.870 -14.169 -19.508  0.00  0.00    -0.650 OA
BRANCH  34  36
ATOM     36  O   UNK d   0     -18.327 -12.196 -20.472  0.00  0.00    -0.776 OA
ATOM     37  H   UNK d   0     -18.140 -12.524 -21.429  0.00  0.00     0.167 HD
ENDBRANCH  34  36
ENDBRANCH  33  34
ENDBRANCH   8  33
BRANCH  31  38
ATOM     38  C   UNK d   0     -19.187 -15.178 -11.757  0.00  0.00     0.151 C 
BRANCH  38  39
ATOM     39  C   UNK d   0     -20.502 -15.364 -11.182  0.00  0.00     0.143 C 
ATOM     40  O   UNK d   0     -21.419 -15.942 -11.792  0.00  0.00    -0.650 OA
BRANCH  39  41
ATOM     41  O   UNK d   0     -20.764 -14.885  -9.899  0.00  0.00    -0.776 OA
ATOM     42  H   UNK d   0     -21.460 -14.137  -9.819  0.00  0.00     0.167 HD
ENDBRANCH  39  41
ENDBRANCH  38  39
ENDBRANCH  31  38
BRANCH  27  43
ATOM     43  C   UNK d   0     -17.426 -13.856  -9.597  0.00  0.00     0.052 C 
BRANCH  43  44
ATOM     44  C   UNK d   0     -16.602 -15.056  -9.937  0.00  0.00     0.115 C 
BRANCH  44  45
ATOM     45  C   UNK d   0     -16.147 -15.637  -8.647  0.00  0.00     0.139 C 
ATOM     46  O   UNK d   0     -15.858 -14.849  -7.713  0.00  0.00    -0.650 OA
BRANCH  45  47
ATOM     47  O   UNK d   0     -16.035 -16.994  -8.437  0.00  0.00    -0.776 OA
ATOM     48  H   UNK d   0     -15.971 -17.412  -7.495  0.00  0.00     0.167 HD
ENDBRANCH  45  47
ENDBRANCH  44  45
ENDBRANCH  43  44
ENDBRANCH  27  43
BRANCH  24  49
ATOM     49  C   UNK d   0     -14.784  -9.059  -8.785  0.00  0.00     0.052 C 
BRANCH  49  50
ATOM     50  C   UNK d   0     -15.653  -8.013  -8.134  0.00  0.00     0.115 C 
BRANCH  50  51
ATOM     51  C   UNK d   0     -16.742  -8.484  -7.289  0.00  0.00     0.139 C 
ATOM     52  O   UNK d   0     -17.767  -9.036  -7.753  0.00  0.00    -0.650 OA
BRANCH  51  53
ATOM     53  O   UNK d   0     -16.662  -8.325  -5.914  0.00  0.00    -0.776 OA
ATOM     54  H   UNK d   0     -15.865  -7.843  -5.537  0.00  0.00     0.167 HD
ENDBRANCH  51  53
ENDBRANCH  50  51
ENDBRANCH  49  50
ENDBRANCH  24  49
BRANCH  21  55
ATOM     55  C   UNK d   0     -13.354  -7.494 -11.032  0.00  0.00     0.151 C 
BRANCH  55  56
ATOM     56  C   UNK d   0     -13.864  -6.123 -10.877  0.00  0.00     0.143 C 
ATOM     57  O   UNK d   0     -14.454  -5.515 -11.791  0.00  0.00    -0.650 OA
BRANCH  56  58
ATOM     58  O   UNK d   0     -13.669  -5.494  -9.649  0.00  0.00    -0.776 OA
ATOM     59  H   UNK d   0     -12.871  -5.853  -9.096  0.00  0.00     0.167 HD
ENDBRANCH  56  58
ENDBRANCH  55  56
ENDBRANCH  21  55
BRANCH  18  60
ATOM     60  C   UNK d   0     -15.466  -6.449 -15.855  0.00  0.00     0.151 C 
BRANCH  60  61
ATOM     61  C   UNK d   0     -16.548  -5.695 -15.204  0.00  0.00     0.143 C 
ATOM     62  O   UNK d   0     -17.551  -5.224 -15.741  0.00  0.00    -0.650 OA
BRANCH  61  63
ATOM     63  O   UNK d   0     -16.397  -5.505 -13.810  0.00  0.00    -0.776 OA
ATOM     64  H   UNK d   0     -15.943  -4.687 -13.444  0.00  0.00     0.167 HD
ENDBRANCH  61  63
ENDBRANCH  60  61
ENDBRANCH  18  60
BRANCH  14  65
ATOM     65  C   UNK d   0     -17.089  -7.784 -18.044  0.00  0.00     0.052 C 
BRANCH  65  66
ATOM     66  C   UNK d   0     -16.004  -7.704 -19.059  0.00  0.00     0.115 C 
BRANCH  66  67
ATOM     67  C   UNK d   0     -16.026  -8.583 -20.194  0.00  0.00     0.139 C 
ATOM     68  O   UNK d   0     -15.427  -8.211 -21.270  0.00  0.00    -0.650 OA
BRANCH  67  69
ATOM     69  O   UNK d   0     -16.634  -9.834 -20.294  0.00  0.00    -0.776 OA
ATOM     70  H   UNK d   0     -17.148 -10.014 -21.168  0.00  0.00     0.167 HD
ENDBRANCH  67  69
ENDBRANCH  66  67
ENDBRANCH  65  66
ENDBRANCH  14  65
ENDBRANCH   6   7
ENDBRANCH   5   6
ENDBRANCH   2   5
TORSDOF 28
ENDMDL
MODEL 9
REMARK VINA RESULT:      -8.8      3.395      9.495
REMARK  28 active torsions:
REMARK  status: ('A' for Active; 'I' for Inactive)
REMARK    1  A    between atoms: C_2  and  O_3 
REMARK    2  A    between atoms: C_2  and  C_4 
REMARK    3  A    between atoms: C_4  and  C_5 
REMARK    4  A    between atoms: C_5  and  C_6 
REMARK    5  A    between atoms: C_7  and  C_8 
REMARK    6  A    between atoms: C_8  and  C_9 
REMARK    7  A    between atoms: C_9  and  O_11 
REMARK    8  A    between atoms: C_28  and  C_29 
REMARK    9  A    between atoms: C_29  and  C_30 
REMARK   10  A    between atoms: C_30  and  O_32 
REMARK   11  A    between atoms: C_33  and  C_34 
REMARK   12  A    between atoms: C_34  and  C_35 
REMARK   13  A    between atoms: C_35  and  C_36 
REMARK   14  A    between atoms: C_36  and  O_38 
REMARK   15  A    between atoms: C_39  and  C_40 
REMARK   16  A    between atoms: C_40  and  C_41 
REMARK   17  A    between atoms: C_41  and  C_42 
REMARK   18  A    between atoms: C_42  and  O_44 
REMARK   19  A    between atoms: C_45  and  C_46 
REMARK   20  A    between atoms: C_46  and  C_47 
REMARK   21  A    between atoms: C_47  and  O_49 
REMARK   22  A    between atoms: C_50  and  C_51 
REMARK   23  A    between atoms: C_51  and  C_52 
REMARK   24  A    between atoms: C_52  and  O_54 
REMARK   25  A    between atoms: C_55  and  C_56 
REMARK   26  A    between atoms: C_56  and  C_57 
REMARK   27  A    between atoms: C_57  and  C_58 
REMARK   28  A    between atoms: C_58  and  O_60 
ROOT
ATOM      1  O   UNK d   0     -12.609  -6.682  -6.582  0.00  0.00    -0.650 OA
ATOM      2  C   UNK d   0     -13.540  -7.512  -6.677  0.00  0.00     0.139 C 
ENDROOT
BRANCH   2   3
ATOM      3  O   UNK d   0     -13.463  -8.694  -5.980  0.00  0.00    -0.776 OA
ATOM      4  H   UNK d   0     -14.291  -9.100  -5.538  0.00  0.00     0.167 HD
ENDBRANCH   2   3
BRANCH   2   5
ATOM      5  C   UNK d   0     -14.718  -7.219  -7.541  0.00  0.00     0.115 C 
BRANCH   5   6
ATOM      6  C   UNK d   0     -14.344  -7.356  -8.992  0.00  0.00     0.052 C 
BRANCH   6   7
ATOM      7  C   UNK d   0     -15.532  -7.663  -9.872  0.00  0.00    -0.020 A 
ATOM      8  C   UNK d   0     -16.212  -6.828 -10.615  0.00  0.00    -0.011 A 
ATOM      9  C   UNK d   0     -17.269  -7.577 -11.274  0.00  0.00     0.067 A 
ATOM     10  C   UNK d   0     -18.296  -7.290 -12.187  0.00  0.00     0.062 C 
ATOM     11  N   UNK d   0     -17.162  -8.861 -10.870  0.00  0.00    -0.248 NA
ATOM     12  C   UNK d   0     -19.051  -8.206 -12.928  0.00  0.00     0.041 A 
ATOM     13  N   UNK d   0     -19.613  -9.379 -12.580  0.00  0.00    -0.355 N 
ATOM     14  C   UNK d   0     -19.263  -7.963 -14.297  0.00  0.00    -0.022 A 
ATOM     15  C   UNK d   0     -20.169  -9.890 -13.694  0.00  0.00     0.042 A 
ATOM     16  H   UNK d   0     -19.633  -9.828 -11.562  0.00  0.00     0.166 HD
ATOM     17  C   UNK d   0     -20.881 -11.090 -13.892  0.00  0.00     0.062 C 
ATOM     18  C   UNK d   0     -19.969  -9.030 -14.792  0.00  0.00    -0.013 A 
ATOM     19  C   UNK d   0     -20.591 -12.351 -13.438  0.00  0.00     0.067 A 
ATOM     20  N   UNK d   0     -19.622 -12.456 -12.524  0.00  0.00    -0.248 NA
ATOM     21  C   UNK d   0     -21.072 -13.695 -13.707  0.00  0.00    -0.011 A 
ATOM     22  C   UNK d   0     -19.434 -13.771 -12.178  0.00  0.00     0.066 A 
ATOM     23  C   UNK d   0     -18.478 -14.022 -11.205  0.00  0.00     0.062 C 
ATOM     24  C   UNK d   0     -20.388 -14.522 -12.970  0.00  0.00    -0.020 A 
ATOM     25  C   UNK d   0     -17.740 -13.087 -10.463  0.00  0.00     0.041 A 
ATOM     26  N   UNK d   0     -17.168 -11.929 -10.813  0.00  0.00    -0.355 N 
ATOM     27  C   UNK d   0     -17.531 -13.330  -9.088  0.00  0.00    -0.022 A 
ATOM     28  C   UNK d   0     -16.605 -11.421  -9.704  0.00  0.00     0.042 A 
ATOM     29  H   UNK d   0     -17.140 -11.484 -11.838  0.00  0.00     0.166 HD
ATOM     30  C   UNK d   0     -15.886 -10.234  -9.495  0.00  0.00     0.062 C 
ATOM     31  C   UNK d   0     -16.815 -12.281  -8.600  0.00  0.00    -0.013 A 
ATOM     32  C   UNK d   0     -16.135  -8.979 -10.026  0.00  0.00     0.066 A 
BRANCH   8  33
ATOM     33  C   UNK d   0     -15.971  -5.381 -10.767  0.00  0.00     0.151 C 
BRANCH  33  34
ATOM     34  C   UNK d   0     -15.142  -5.062 -11.943  0.00  0.00     0.143 C 
ATOM     35  O   UNK d   0     -14.302  -5.868 -12.368  0.00  0.00    -0.650 OA
BRANCH  34  36
ATOM     36  O   UNK d   0     -15.303  -3.850 -12.574  0.00  0.00    -0.776 OA
ATOM     37  H   UNK d   0     -14.902  -2.986 -12.183  0.00  0.00     0.167 HD
ENDBRANCH  34  36
ENDBRANCH  33  34
ENDBRANCH   8  33
BRANCH  31  38
ATOM     38  C   UNK d   0     -16.367 -12.096  -7.169  0.00  0.00     0.151 C 
BRANCH  38  39
ATOM     39  C   UNK d   0     -16.894 -10.890  -6.567  0.00  0.00     0.143 C 
ATOM     40  O   UNK d   0     -16.165 -10.049  -6.013  0.00  0.00    -0.650 OA
BRANCH  39  41
ATOM     41  O   UNK d   0     -18.268 -10.650  -6.601  0.00  0.00    -0.776 OA
ATOM     42  H   UNK d   0     -18.841 -11.321  -7.123  0.00  0.00     0.167 HD
ENDBRANCH  39  41
ENDBRANCH  38  39
ENDBRANCH  31  38
BRANCH  27  43
ATOM     43  C   UNK d   0     -17.976 -14.498  -8.243  0.00  0.00     0.052 C 
BRANCH  43  44
ATOM     44  C   UNK d   0     -16.853 -15.396  -7.838  0.00  0.00     0.115 C 
BRANCH  44  45
ATOM     45  C   UNK d   0     -17.027 -15.666  -6.387  0.00  0.00     0.139 C 
ATOM     46  O   UNK d   0     -16.229 -16.462  -5.833  0.00  0.00    -0.650 OA
BRANCH  45  47
ATOM     47  O   UNK d   0     -18.017 -15.078  -5.631  0.00  0.00    -0.776 OA
ATOM     48  H   UNK d   0     -18.163 -15.295  -4.632  0.00  0.00     0.167 HD
ENDBRANCH  45  47
ENDBRANCH  44  45
ENDBRANCH  43  44
ENDBRANCH  27  43
BRANCH  24  49
ATOM     49  C   UNK d   0     -20.575 -15.982 -12.901  0.00  0.00     0.052 C 
BRANCH  49  50
ATOM     50  C   UNK d   0     -21.012 -16.389 -11.517  0.00  0.00     0.115 C 
BRANCH  50  51
ATOM     51  C   UNK d   0     -22.163 -15.697 -10.952  0.00  0.00     0.139 C 
ATOM     52  O   UNK d   0     -22.068 -14.901  -9.988  0.00  0.00    -0.650 OA
BRANCH  51  53
ATOM     53  O   UNK d   0     -23.424 -15.915 -11.485  0.00  0.00    -0.776 OA
ATOM     54  H   UNK d   0     -23.526 -15.904 -12.485  0.00  0.00     0.167 HD
ENDBRANCH  51  53
ENDBRANCH  50  51
ENDBRANCH  49  50
ENDBRANCH  24  49
BRANCH  21  55
ATOM     55  C   UNK d   0     -22.168 -14.012 -14.670  0.00  0.00     0.151 C 
BRANCH  55  56
ATOM     56  C   UNK d   0     -21.687 -14.053 -16.059  0.00  0.00     0.143 C 
ATOM     57  O   UNK d   0     -21.410 -15.117 -16.647  0.00  0.00    -0.650 OA
BRANCH  56  58
ATOM     58  O   UNK d   0     -21.541 -12.840 -16.731  0.00  0.00    -0.776 OA
ATOM     59  H   UNK d   0     -22.291 -12.626 -17.413  0.00  0.00     0.167 HD
ENDBRANCH  56  58
ENDBRANCH  55  56
ENDBRANCH  21  55
BRANCH  18  60
ATOM     60  C   UNK d   0     -20.407  -9.187 -16.227  0.00  0.00     0.151 C 
BRANCH  60  61
ATOM     61  C   UNK d   0     -21.876  -9.123 -16.211  0.00  0.00     0.143 C 
ATOM     62  O   UNK d   0     -22.661  -9.987 -16.602  0.00  0.00    -0.650 OA
BRANCH  61  63
ATOM     63  O   UNK d   0     -22.421  -7.928 -15.682  0.00  0.00    -0.776 OA
ATOM     64  H   UNK d   0     -23.333  -7.917 -15.259  0.00  0.00     0.167 HD
ENDBRANCH  61  63
ENDBRANCH  60  61
ENDBRANCH  18  60
BRANCH  14  65
ATOM     65  C   UNK d   0     -18.937  -6.764 -15.142  0.00  0.00     0.052 C 
BRANCH  65  66
ATOM     66  C   UNK d   0     -17.582  -6.834 -15.753  0.00  0.00     0.115 C 
BRANCH  66  67
ATOM     67  C   UNK d   0     -16.544  -5.961 -15.285  0.00  0.00     0.139 C 
ATOM     68  O   UNK d   0     -16.873  -4.802 -14.834  0.00  0.00    -0.650 OA
BRANCH  67  69
ATOM     69  O   UNK d   0     -15.172  -6.207 -15.251  0.00  0.00    -0.776 OA
ATOM     70  H   UNK d   0     -14.641  -5.899 -16.078  0.00  0.00     0.167 HD
ENDBRANCH  67  69
ENDBRANCH  66  67
ENDBRANCH  65  66
ENDBRANCH  14  65
ENDBRANCH   6   7
ENDBRANCH   5   6
ENDBRANCH   2   5
TORSDOF 28
ENDMDL
MODEL 10
REMARK VINA RESULT:      -8.7      3.911     11.915
REMARK  28 active torsions:
REMARK  status: ('A' for Active; 'I' for Inactive)
REMARK    1  A    between atoms: C_2  and  O_3 
REMARK    2  A    between atoms: C_2  and  C_4 
REMARK    3  A    between atoms: C_4  and  C_5 
REMARK    4  A    between atoms: C_5  and  C_6 
REMARK    5  A    between atoms: C_7  and  C_8 
REMARK    6  A    between atoms: C_8  and  C_9 
REMARK    7  A    between atoms: C_9  and  O_11 
REMARK    8  A    between atoms: C_28  and  C_29 
REMARK    9  A    between atoms: C_29  and  C_30 
REMARK   10  A    between atoms: C_30  and  O_32 
REMARK   11  A    between atoms: C_33  and  C_34 
REMARK   12  A    between atoms: C_34  and  C_35 
REMARK   13  A    between atoms: C_35  and  C_36 
REMARK   14  A    between atoms: C_36  and  O_38 
REMARK   15  A    between atoms: C_39  and  C_40 
REMARK   16  A    between atoms: C_40  and  C_41 
REMARK   17  A    between atoms: C_41  and  C_42 
REMARK   18  A    between atoms: C_42  and  O_44 
REMARK   19  A    between atoms: C_45  and  C_46 
REMARK   20  A    between atoms: C_46  and  C_47 
REMARK   21  A    between atoms: C_47  and  O_49 
REMARK   22  A    between atoms: C_50  and  C_51 
REMARK   23  A    between atoms: C_51  and  C_52 
REMARK   24  A    between atoms: C_52  and  O_54 
REMARK   25  A    between atoms: C_55  and  C_56 
REMARK   26  A    between atoms: C_56  and  C_57 
REMARK   27  A    between atoms: C_57  and  C_58 
REMARK   28  A    between atoms: C_58  and  O_60 
ROOT
ATOM      1  O   UNK d   0     -16.673  -8.077 -20.255  0.00  0.00    -0.650 OA
ATOM      2  C   UNK d   0     -16.915  -6.972 -19.722  0.00  0.00     0.139 C 
ENDROOT
BRANCH   2   3
ATOM      3  O   UNK d   0     -18.028  -6.266 -20.109  0.00  0.00    -0.776 OA
ATOM      4  H   UNK d   0     -18.942  -6.449 -19.688  0.00  0.00     0.167 HD
ENDBRANCH   2   3
BRANCH   2   5
ATOM      5  C   UNK d   0     -16.001  -6.430 -18.676  0.00  0.00     0.115 C 
BRANCH   5   6
ATOM      6  C   UNK d   0     -16.794  -5.971 -17.483  0.00  0.00     0.052 C 
BRANCH   6   7
ATOM      7  C   UNK d   0     -16.629  -6.882 -16.290  0.00  0.00    -0.020 A 
ATOM      8  C   UNK d   0     -15.832  -6.718 -15.265  0.00  0.00    -0.011 A 
ATOM      9  C   UNK d   0     -16.013  -7.854 -14.376  0.00  0.00     0.067 A 
ATOM     10  C   UNK d   0     -15.493  -8.263 -13.138  0.00  0.00     0.062 C 
ATOM     11  N   UNK d   0     -16.934  -8.662 -14.941  0.00  0.00    -0.248 NA
ATOM     12  C   UNK d   0     -15.997  -9.260 -12.296  0.00  0.00     0.041 A 
ATOM     13  N   UNK d   0     -16.473 -10.491 -12.565  0.00  0.00    -0.355 N 
ATOM     14  C   UNK d   0     -16.110  -8.995 -10.919  0.00  0.00    -0.022 A 
ATOM     15  C   UNK d   0     -16.893 -11.010 -11.396  0.00  0.00     0.042 A 
ATOM     16  H   UNK d   0     -16.494 -10.990 -13.559  0.00  0.00     0.166 HD
ATOM     17  C   UNK d   0     -17.472 -12.262 -11.107  0.00  0.00     0.062 C 
ATOM     18  C   UNK d   0     -16.682 -10.101 -10.341  0.00  0.00    -0.013 A 
ATOM     19  C   UNK d   0     -18.464 -12.929 -11.780  0.00  0.00     0.067 A 
ATOM     20  N   UNK d   0     -18.811 -12.449 -12.977  0.00  0.00    -0.248 NA
ATOM     21  C   UNK d   0     -19.306 -14.085 -11.522  0.00  0.00    -0.011 A 
ATOM     22  C   UNK d   0     -19.820 -13.206 -13.520  0.00  0.00     0.066 A 
ATOM     23  C   UNK d   0     -20.253 -12.839 -14.786  0.00  0.00     0.062 C 
ATOM     24  C   UNK d   0     -20.100 -14.239 -12.542  0.00  0.00    -0.020 A 
ATOM     25  C   UNK d   0     -19.725 -11.842 -15.620  0.00  0.00     0.041 A 
ATOM     26  N   UNK d   0     -19.266 -10.614 -15.355  0.00  0.00    -0.355 N 
ATOM     27  C   UNK d   0     -19.608 -12.111 -17.002  0.00  0.00    -0.022 A 
ATOM     28  C   UNK d   0     -18.855 -10.090 -16.521  0.00  0.00     0.042 A 
ATOM     29  H   UNK d   0     -19.255 -10.109 -14.358  0.00  0.00     0.166 HD
ATOM     30  C   UNK d   0     -18.286  -8.843 -16.823  0.00  0.00     0.062 C 
ATOM     31  C   UNK d   0     -19.057 -11.008 -17.579  0.00  0.00    -0.013 A 
ATOM     32  C   UNK d   0     -17.345  -8.134 -16.094  0.00  0.00     0.066 A 
BRANCH   8  33
ATOM     33  C   UNK d   0     -14.905  -5.595 -15.035  0.00  0.00     0.151 C 
BRANCH  33  34
ATOM     34  C   UNK d   0     -15.458  -4.576 -14.125  0.00  0.00     0.143 C 
ATOM     35  O   UNK d   0     -16.127  -3.628 -14.562  0.00  0.00    -0.650 OA
BRANCH  34  36
ATOM     36  O   UNK d   0     -15.226  -4.680 -12.773  0.00  0.00    -0.776 OA
ATOM     37  H   UNK d   0     -14.721  -5.485 -12.378  0.00  0.00     0.167 HD
ENDBRANCH  34  36
ENDBRANCH  33  34
ENDBRANCH   8  33
BRANCH  31  38
ATOM     38  C   UNK d   0     -18.730 -10.838 -19.044  0.00  0.00     0.151 C 
BRANCH  38  39
ATOM     39  C   UNK d   0     -17.464 -11.437 -19.410  0.00  0.00     0.143 C 
ATOM     40  O   UNK d   0     -16.422 -11.239 -18.760  0.00  0.00    -0.650 OA
BRANCH  39  41
ATOM     41  O   UNK d   0     -17.395 -12.269 -20.527  0.00  0.00    -0.776 OA
ATOM     42  H   UNK d   0     -17.681 -11.862 -21.423  0.00  0.00     0.167 HD
ENDBRANCH  39  41
ENDBRANCH  38  39
ENDBRANCH  31  38
BRANCH  27  43
ATOM     43  C   UNK d   0     -19.993 -13.348 -17.773  0.00  0.00     0.052 C 
BRANCH  43  44
ATOM     44  C   UNK d   0     -18.858 -14.300 -17.969  0.00  0.00     0.115 C 
BRANCH  44  45
ATOM     45  C   UNK d   0     -19.218 -15.156 -19.129  0.00  0.00     0.139 C 
ATOM     46  O   UNK d   0     -19.741 -16.275 -18.899  0.00  0.00    -0.650 OA
BRANCH  45  47
ATOM     47  O   UNK d   0     -19.007 -14.773 -20.436  0.00  0.00    -0.776 OA
ATOM     48  H   UNK d   0     -18.115 -14.368 -20.763  0.00  0.00     0.167 HD
ENDBRANCH  45  47
ENDBRANCH  44  45
ENDBRANCH  43  44
ENDBRANCH  27  43
BRANCH  24  49
ATOM     49  C   UNK d   0     -21.093 -15.313 -12.715  0.00  0.00     0.052 C 
BRANCH  49  50
ATOM     50  C   UNK d   0     -22.434 -14.879 -12.183  0.00  0.00     0.115 C 
BRANCH  50  51
ATOM     51  C   UNK d   0     -22.774 -15.284 -10.826  0.00  0.00     0.139 C 
ATOM     52  O   UNK d   0     -23.447 -14.561 -10.053  0.00  0.00    -0.650 OA
BRANCH  51  53
ATOM     53  O   UNK d   0     -22.343 -16.512 -10.348  0.00  0.00    -0.776 OA
ATOM     54  H   UNK d   0     -21.995 -16.560  -9.406  0.00  0.00     0.167 HD
ENDBRANCH  51  53
ENDBRANCH  50  51
ENDBRANCH  49  50
ENDBRANCH  24  49
BRANCH  21  55
ATOM     55  C   UNK d   0     -19.226 -14.917 -10.286  0.00  0.00     0.151 C 
BRANCH  55  56
ATOM     56  C   UNK d   0     -18.605 -16.226 -10.541  0.00  0.00     0.143 C 
ATOM     57  O   UNK d   0     -19.259 -17.287 -10.578  0.00  0.00    -0.650 OA
BRANCH  56  58
ATOM     58  O   UNK d   0     -17.227 -16.261 -10.748  0.00  0.00    -0.776 OA
ATOM     59  H   UNK d   0     -16.937 -16.527 -11.706  0.00  0.00     0.167 HD
ENDBRANCH  56  58
ENDBRANCH  55  56
ENDBRANCH  21  55
BRANCH  18  60
ATOM     60  C   UNK d   0     -16.995 -10.244  -8.872  0.00  0.00     0.151 C 
BRANCH  60  61
ATOM     61  C   UNK d   0     -15.840 -10.934  -8.278  0.00  0.00     0.143 C 
ATOM     62  O   UNK d   0     -15.714 -12.144  -8.090  0.00  0.00    -0.650 OA
BRANCH  61  63
ATOM     63  O   UNK d   0     -14.770 -10.092  -7.890  0.00  0.00    -0.776 OA
ATOM     64  H   UNK d   0     -14.145 -10.356  -7.149  0.00  0.00     0.167 HD
ENDBRANCH  61  63
ENDBRANCH  60  61
ENDBRANCH  18  60
BRANCH  14  65
ATOM     65  C   UNK d   0     -15.633  -7.827 -10.102  0.00  0.00     0.052 C 
BRANCH  65  66
ATOM     66  C   UNK d   0     -16.624  -6.719 -10.038  0.00  0.00     0.115 C 
BRANCH  66  67
ATOM     67  C   UNK d   0     -16.309  -5.524  -9.307  0.00  0.00     0.139 C 
ATOM     68  O   UNK d   0     -16.047  -4.452  -9.967  0.00  0.00    -0.650 OA
BRANCH  67  69
ATOM     69  O   UNK d   0     -16.246  -5.362  -7.924  0.00  0.00    -0.776 OA
ATOM     70  H   UNK d   0     -17.133  -5.491  -7.417  0.00  0.00     0.167 HD
ENDBRANCH  67  69
ENDBRANCH  66  67
ENDBRANCH  65  66
ENDBRANCH  14  65
ENDBRANCH   6   7
ENDBRANCH   5   6
ENDBRANCH   2   5
TORSDOF 28
ENDMDL
MODEL 11
REMARK VINA RESULT:      -8.6      3.543      7.266
REMARK  28 active torsions:
REMARK  status: ('A' for Active; 'I' for Inactive)
REMARK    1  A    between atoms: C_2  and  O_3 
REMARK    2  A    between atoms: C_2  and  C_4 
REMARK    3  A    between atoms: C_4  and  C_5 
REMARK    4  A    between atoms: C_5  and  C_6 
REMARK    5  A    between atoms: C_7  and  C_8 
REMARK    6  A    between atoms: C_8  and  C_9 
REMARK    7  A    between atoms: C_9  and  O_11 
REMARK    8  A    between atoms: C_28  and  C_29 
REMARK    9  A    between atoms: C_29  and  C_30 
REMARK   10  A    between atoms: C_30  and  O_32 
REMARK   11  A    between atoms: C_33  and  C_34 
REMARK   12  A    between atoms: C_34  and  C_35 
REMARK   13  A    between atoms: C_35  and  C_36 
REMARK   14  A    between atoms: C_36  and  O_38 
REMARK   15  A    between atoms: C_39  and  C_40 
REMARK   16  A    between atoms: C_40  and  C_41 
REMARK   17  A    between atoms: C_41  and  C_42 
REMARK   18  A    between atoms: C_42  and  O_44 
REMARK   19  A    between atoms: C_45  and  C_46 
REMARK   20  A    between atoms: C_46  and  C_47 
REMARK   21  A    between atoms: C_47  and  O_49 
REMARK   22  A    between atoms: C_50  and  C_51 
REMARK   23  A    between atoms: C_51  and  C_52 
REMARK   24  A    between atoms: C_52  and  O_54 
REMARK   25  A    between atoms: C_55  and  C_56 
REMARK   26  A    between atoms: C_56  and  C_57 
REMARK   27  A    between atoms: C_57  and  C_58 
REMARK   28  A    between atoms: C_58  and  O_60 
ROOT
ATOM      1  O   UNK d   0     -16.718  -4.224  -9.278  0.00  0.00    -0.650 OA
ATOM      2  C   UNK d   0     -16.814  -4.877  -8.215  0.00  0.00     0.139 C 
ENDROOT
BRANCH   2   3
ATOM      3  O   UNK d   0     -16.833  -4.210  -7.014  0.00  0.00    -0.776 OA
ATOM      4  H   UNK d   0     -17.136  -3.235  -6.957  0.00  0.00     0.167 HD
ENDBRANCH   2   3
BRANCH   2   5
ATOM      5  C   UNK d   0     -16.905  -6.364  -8.256  0.00  0.00     0.115 C 
BRANCH   5   6
ATOM      6  C   UNK d   0     -15.769  -6.931  -9.065  0.00  0.00     0.052 C 
BRANCH   6   7
ATOM      7  C   UNK d   0     -16.180  -8.133  -9.880  0.00  0.00    -0.020 A 
ATOM      8  C   UNK d   0     -16.109  -9.393  -9.535  0.00  0.00    -0.011 A 
ATOM      9  C   UNK d   0     -16.609 -10.187 -10.646  0.00  0.00     0.067 A 
ATOM     10  C   UNK d   0     -16.814 -11.552 -10.904  0.00  0.00     0.062 C 
ATOM     11  N   UNK d   0     -16.957  -9.329 -11.627  0.00  0.00    -0.248 NA
ATOM     12  C   UNK d   0     -17.572 -12.114 -11.937  0.00  0.00     0.041 A 
ATOM     13  N   UNK d   0     -17.664 -11.797 -13.242  0.00  0.00    -0.355 N 
ATOM     14  C   UNK d   0     -18.458 -13.165 -11.636  0.00  0.00    -0.022 A 
ATOM     15  C   UNK d   0     -18.592 -12.614 -13.776  0.00  0.00     0.042 A 
ATOM     16  H   UNK d   0     -17.071 -11.024 -13.779  0.00  0.00     0.166 HD
ATOM     17  C   UNK d   0     -19.074 -12.708 -15.097  0.00  0.00     0.062 C 
ATOM     18  C   UNK d   0     -19.112 -13.485 -12.800  0.00  0.00    -0.013 A 
ATOM     19  C   UNK d   0     -19.438 -11.703 -15.956  0.00  0.00     0.067 A 
ATOM     20  N   UNK d   0     -19.122 -10.456 -15.596  0.00  0.00    -0.248 NA
ATOM     21  C   UNK d   0     -20.133 -11.618 -17.230  0.00  0.00    -0.011 A 
ATOM     22  C   UNK d   0     -19.561  -9.562 -16.542  0.00  0.00     0.066 A 
ATOM     23  C   UNK d   0     -19.265  -8.226 -16.312  0.00  0.00     0.062 C 
ATOM     24  C   UNK d   0     -20.205 -10.362 -17.565  0.00  0.00    -0.020 A 
ATOM     25  C   UNK d   0     -18.492  -7.683 -15.274  0.00  0.00     0.041 A 
ATOM     26  N   UNK d   0     -18.411  -7.988 -13.974  0.00  0.00    -0.355 N 
ATOM     27  C   UNK d   0     -17.599  -6.632 -15.577  0.00  0.00    -0.022 A 
ATOM     28  C   UNK d   0     -17.492  -7.169 -13.437  0.00  0.00     0.042 A 
ATOM     29  H   UNK d   0     -19.015  -8.758 -13.433  0.00  0.00     0.166 HD
ATOM     30  C   UNK d   0     -17.010  -7.058 -12.124  0.00  0.00     0.062 C 
ATOM     31  C   UNK d   0     -16.962  -6.301 -14.421  0.00  0.00    -0.013 A 
ATOM     32  C   UNK d   0     -16.724  -8.077 -11.229  0.00  0.00     0.066 A 
BRANCH   8  33
ATOM     33  C   UNK d   0     -15.610  -9.935  -8.258  0.00  0.00     0.151 C 
BRANCH  33  34
ATOM     34  C   UNK d   0     -16.680 -10.123  -7.261  0.00  0.00     0.143 C 
ATOM     35  O   UNK d   0     -16.820  -9.330  -6.319  0.00  0.00    -0.650 OA
BRANCH  34  36
ATOM     36  O   UNK d   0     -17.533 -11.196  -7.380  0.00  0.00    -0.776 OA
ATOM     37  H   UNK d   0     -18.554 -11.070  -7.377  0.00  0.00     0.167 HD
ENDBRANCH  34  36
ENDBRANCH  33  34
ENDBRANCH   8  33
BRANCH  31  38
ATOM     38  C   UNK d   0     -15.904  -5.235 -14.259  0.00  0.00     0.151 C 
BRANCH  38  39
ATOM     39  C   UNK d   0     -14.559  -5.758 -14.369  0.00  0.00     0.143 C 
ATOM     40  O   UNK d   0     -13.926  -6.179 -13.385  0.00  0.00    -0.650 OA
BRANCH  39  41
ATOM     41  O   UNK d   0     -13.938  -5.797 -15.617  0.00  0.00    -0.776 OA
ATOM     42  H   UNK d   0     -14.283  -5.141 -16.325  0.00  0.00     0.167 HD
ENDBRANCH  39  41
ENDBRANCH  38  39
ENDBRANCH  31  38
BRANCH  27  43
ATOM     43  C   UNK d   0     -17.338  -5.946 -16.895  0.00  0.00     0.052 C 
BRANCH  43  44
ATOM     44  C   UNK d   0     -16.442  -6.726 -17.800  0.00  0.00     0.115 C 
BRANCH  44  45
ATOM     45  C   UNK d   0     -17.011  -6.607 -19.168  0.00  0.00     0.139 C 
ATOM     46  O   UNK d   0     -17.844  -5.693 -19.384  0.00  0.00    -0.650 OA
BRANCH  45  47
ATOM     47  O   UNK d   0     -16.659  -7.450 -20.200  0.00  0.00    -0.776 OA
ATOM     48  H   UNK d   0     -15.683  -7.739 -20.379  0.00  0.00     0.167 HD
ENDBRANCH  45  47
ENDBRANCH  44  45
ENDBRANCH  43  44
ENDBRANCH  27  43
BRANCH  24  49
ATOM     49  C   UNK d   0     -20.796  -9.827 -18.804  0.00  0.00     0.052 C 
BRANCH  49  50
ATOM     50  C   UNK d   0     -19.715  -9.313 -19.721  0.00  0.00     0.115 C 
BRANCH  50  51
ATOM     51  C   UNK d   0     -20.139  -8.539 -20.879  0.00  0.00     0.139 C 
ATOM     52  O   UNK d   0     -19.351  -7.818 -21.536  0.00  0.00    -0.650 OA
BRANCH  51  53
ATOM     53  O   UNK d   0     -21.463  -8.584 -21.288  0.00  0.00    -0.776 OA
ATOM     54  H   UNK d   0     -21.912  -7.722 -21.542  0.00  0.00     0.167 HD
ENDBRANCH  51  53
ENDBRANCH  50  51
ENDBRANCH  49  50
ENDBRANCH  24  49
BRANCH  21  55
ATOM     55  C   UNK d   0     -20.647 -12.801 -17.981  0.00  0.00     0.151 C 
BRANCH  55  56
ATOM     56  C   UNK d   0     -19.581 -13.487 -18.727  0.00  0.00     0.143 C 
ATOM     57  O   UNK d   0     -19.210 -14.647 -18.462  0.00  0.00    -0.650 OA
BRANCH  56  58
ATOM     58  O   UNK d   0     -18.971 -12.794 -19.772  0.00  0.00    -0.776 OA
ATOM     59  H   UNK d   0     -19.050 -11.763 -19.717  0.00  0.00     0.167 HD
ENDBRANCH  56  58
ENDBRANCH  55  56
ENDBRANCH  21  55
BRANCH  18  60
ATOM     60  C   UNK d   0     -20.164 -14.558 -12.932  0.00  0.00     0.151 C 
BRANCH  60  61
ATOM     61  C   UNK d   0     -21.452 -13.896 -12.675  0.00  0.00     0.143 C 
ATOM     62  O   UNK d   0     -22.031 -13.090 -13.403  0.00  0.00    -0.650 OA
BRANCH  61  63
ATOM     63  O   UNK d   0     -22.072 -14.241 -11.450  0.00  0.00    -0.776 OA
ATOM     64  H   UNK d   0     -22.452 -13.535 -10.844  0.00  0.00     0.167 HD
ENDBRANCH  61  63
ENDBRANCH  60  61
ENDBRANCH  18  60
BRANCH  14  65
ATOM     65  C   UNK d   0     -18.660 -13.946 -10.369  0.00  0.00     0.052 C 
BRANCH  65  66
ATOM     66  C   UNK d   0     -17.386 -14.448  -9.787  0.00  0.00     0.115 C 
BRANCH  66  67
ATOM     67  C   UNK d   0     -17.185 -14.397  -8.366  0.00  0.00     0.139 C 
ATOM     68  O   UNK d   0     -15.994 -14.557  -7.909  0.00  0.00    -0.650 OA
BRANCH  67  69
ATOM     69  O   UNK d   0     -18.144 -14.190  -7.375  0.00  0.00    -0.776 OA
ATOM     70  H   UNK d   0     -17.891 -13.512  -6.641  0.00  0.00     0.167 HD
ENDBRANCH  67  69
ENDBRANCH  66  67
ENDBRANCH  65  66
ENDBRANCH  14  65
ENDBRANCH   6   7
ENDBRANCH   5   6
ENDBRANCH   2   5
TORSDOF 28
ENDMDL
MODEL 12
REMARK VINA RESULT:      -8.6      5.073     13.350
REMARK  28 active torsions:
REMARK  status: ('A' for Active; 'I' for Inactive)
REMARK    1  A    between atoms: C_2  and  O_3 
REMARK    2  A    between atoms: C_2  and  C_4 
REMARK    3  A    between atoms: C_4  and  C_5 
REMARK    4  A    between atoms: C_5  and  C_6 
REMARK    5  A    between atoms: C_7  and  C_8 
REMARK    6  A    between atoms: C_8  and  C_9 
REMARK    7  A    between atoms: C_9  and  O_11 
REMARK    8  A    between atoms: C_28  and  C_29 
REMARK    9  A    between atoms: C_29  and  C_30 
REMARK   10  A    between atoms: C_30  and  O_32 
REMARK   11  A    between atoms: C_33  and  C_34 
REMARK   12  A    between atoms: C_34  and  C_35 
REMARK   13  A    between atoms: C_35  and  C_36 
REMARK   14  A    between atoms: C_36  and  O_38 
REMARK   15  A    between atoms: C_39  and  C_40 
REMARK   16  A    between atoms: C_40  and  C_41 
REMARK   17  A    between atoms: C_41  and  C_42 
REMARK   18  A    between atoms: C_42  and  O_44 
REMARK   19  A    between atoms: C_45  and  C_46 
REMARK   20  A    between atoms: C_46  and  C_47 
REMARK   21  A    between atoms: C_47  and  O_49 
REMARK   22  A    between atoms: C_50  and  C_51 
REMARK   23  A    between atoms: C_51  and  C_52 
REMARK   24  A    between atoms: C_52  and  O_54 
REMARK   25  A    between atoms: C_55  and  C_56 
REMARK   26  A    between atoms: C_56  and  C_57 
REMARK   27  A    between atoms: C_57  and  C_58 
REMARK   28  A    between atoms: C_58  and  O_60 
ROOT
ATOM      1  O   UNK d   0     -21.246  -9.662 -22.283  0.00  0.00    -0.650 OA
ATOM      2  C   UNK d   0     -20.936  -8.957 -21.297  0.00  0.00     0.139 C 
ENDROOT
BRANCH   2   3
ATOM      3  O   UNK d   0     -20.501  -7.669 -21.499  0.00  0.00    -0.776 OA
ATOM      4  H   UNK d   0     -20.661  -6.942 -20.799  0.00  0.00     0.167 HD
ENDBRANCH   2   3
BRANCH   2   5
ATOM      5  C   UNK d   0     -21.040  -9.512 -19.917  0.00  0.00     0.115 C 
BRANCH   5   6
ATOM      6  C   UNK d   0     -20.175 -10.737 -19.787  0.00  0.00     0.052 C 
BRANCH   6   7
ATOM      7  C   UNK d   0     -19.406 -10.770 -18.488  0.00  0.00    -0.020 A 
ATOM      8  C   UNK d   0     -18.410 -10.001 -18.131  0.00  0.00    -0.011 A 
ATOM      9  C   UNK d   0     -17.987 -10.409 -16.801  0.00  0.00     0.067 A 
ATOM     10  C   UNK d   0     -17.019  -9.993 -15.874  0.00  0.00     0.062 C 
ATOM     11  N   UNK d   0     -18.778 -11.438 -16.428  0.00  0.00    -0.248 NA
ATOM     12  C   UNK d   0     -16.943 -10.332 -14.519  0.00  0.00     0.041 A 
ATOM     13  N   UNK d   0     -17.121 -11.508 -13.888  0.00  0.00    -0.355 N 
ATOM     14  C   UNK d   0     -16.694  -9.317 -13.576  0.00  0.00    -0.022 A 
ATOM     15  C   UNK d   0     -17.000 -11.264 -12.569  0.00  0.00     0.042 A 
ATOM     16  H   UNK d   0     -17.310 -12.494 -14.366  0.00  0.00     0.166 HD
ATOM     17  C   UNK d   0     -17.093 -12.137 -11.466  0.00  0.00     0.062 C 
ATOM     18  C   UNK d   0     -16.732  -9.902 -12.335  0.00  0.00    -0.013 A 
ATOM     19  C   UNK d   0     -18.021 -13.117 -11.218  0.00  0.00     0.067 A 
ATOM     20  N   UNK d   0     -18.838 -13.444 -12.222  0.00  0.00    -0.248 NA
ATOM     21  C   UNK d   0     -18.390 -13.942 -10.080  0.00  0.00    -0.011 A 
ATOM     22  C   UNK d   0     -19.716 -14.421 -11.823  0.00  0.00     0.066 A 
ATOM     23  C   UNK d   0     -20.602 -14.884 -12.784  0.00  0.00     0.062 C 
ATOM     24  C   UNK d   0     -19.385 -14.700 -10.439  0.00  0.00    -0.020 A 
ATOM     25  C   UNK d   0     -20.654 -14.540 -14.144  0.00  0.00     0.041 A 
ATOM     26  N   UNK d   0     -20.492 -13.369 -14.770  0.00  0.00    -0.355 N 
ATOM     27  C   UNK d   0     -20.900 -15.560 -15.089  0.00  0.00    -0.022 A 
ATOM     28  C   UNK d   0     -20.621 -13.607 -16.084  0.00  0.00     0.042 A 
ATOM     29  H   UNK d   0     -20.313 -12.376 -14.287  0.00  0.00     0.166 HD
ATOM     30  C   UNK d   0     -20.540 -12.747 -17.191  0.00  0.00     0.062 C 
ATOM     31  C   UNK d   0     -20.880 -14.979 -16.319  0.00  0.00    -0.013 A 
ATOM     32  C   UNK d   0     -19.653 -11.703 -17.398  0.00  0.00     0.066 A 
BRANCH   8  33
ATOM     33  C   UNK d   0     -17.803  -8.914 -18.921  0.00  0.00     0.151 C 
BRANCH  33  34
ATOM     34  C   UNK d   0     -16.691  -9.377 -19.770  0.00  0.00     0.143 C 
ATOM     35  O   UNK d   0     -15.797  -8.597 -20.129  0.00  0.00    -0.650 OA
BRANCH  34  36
ATOM     36  O   UNK d   0     -16.648 -10.693 -20.168  0.00  0.00    -0.776 OA
ATOM     37  H   UNK d   0     -16.058 -10.993 -20.956  0.00  0.00     0.167 HD
ENDBRANCH  34  36
ENDBRANCH  33  34
ENDBRANCH   8  33
BRANCH  31  38
ATOM     38  C   UNK d   0     -21.081 -15.682 -17.641  0.00  0.00     0.151 C 
BRANCH  38  39
ATOM     39  C   UNK d   0     -19.844 -16.176 -18.209  0.00  0.00     0.143 C 
ATOM     40  O   UNK d   0     -18.987 -15.418 -18.696  0.00  0.00    -0.650 OA
BRANCH  39  41
ATOM     41  O   UNK d   0     -19.591 -17.547 -18.215  0.00  0.00    -0.776 OA
ATOM     42  H   UNK d   0     -20.357 -18.156 -18.519  0.00  0.00     0.167 HD
ENDBRANCH  39  41
ENDBRANCH  38  39
ENDBRANCH  31  38
BRANCH  27  43
ATOM     43  C   UNK d   0     -21.148 -17.031 -14.869  0.00  0.00     0.052 C 
BRANCH  43  44
ATOM     44  C   UNK d   0     -20.379 -17.595 -13.719  0.00  0.00     0.115 C 
BRANCH  44  45
ATOM     45  C   UNK d   0     -20.022 -18.989 -14.090  0.00  0.00     0.139 C 
ATOM     46  O   UNK d   0     -20.468 -19.447 -15.170  0.00  0.00    -0.650 OA
BRANCH  45  47
ATOM     47  O   UNK d   0     -19.221 -19.789 -13.304  0.00  0.00    -0.776 OA
ATOM     48  H   UNK d   0     -18.308 -20.152 -13.621  0.00  0.00     0.167 HD
ENDBRANCH  45  47
ENDBRANCH  44  45
ENDBRANCH  43  44
ENDBRANCH  27  43
BRANCH  24  49
ATOM     49  C   UNK d   0     -20.047 -15.717  -9.604  0.00  0.00     0.052 C 
BRANCH  49  50
ATOM     50  C   UNK d   0     -19.896 -17.083 -10.224  0.00  0.00     0.115 C 
BRANCH  50  51
ATOM     51  C   UNK d   0     -18.582 -17.707 -10.145  0.00  0.00     0.139 C 
ATOM     52  O   UNK d   0     -18.020 -18.227 -11.137  0.00  0.00    -0.650 OA
BRANCH  51  53
ATOM     53  O   UNK d   0     -17.910 -17.740  -8.933  0.00  0.00    -0.776 OA
ATOM     54  H   UNK d   0     -17.264 -18.492  -8.768  0.00  0.00     0.167 HD
ENDBRANCH  51  53
ENDBRANCH  50  51
ENDBRANCH  49  50
ENDBRANCH  24  49
BRANCH  21  55
ATOM     55  C   UNK d   0     -17.706 -13.889  -8.754  0.00  0.00     0.151 C 
BRANCH  55  56
ATOM     56  C   UNK d   0     -16.470 -14.686  -8.739  0.00  0.00     0.143 C 
ATOM     57  O   UNK d   0     -15.698 -14.715  -7.760  0.00  0.00    -0.650 OA
BRANCH  56  58
ATOM     58  O   UNK d   0     -16.165 -15.433  -9.875  0.00  0.00    -0.776 OA
ATOM     59  H   UNK d   0     -16.987 -15.771 -10.408  0.00  0.00     0.167 HD
ENDBRANCH  56  58
ENDBRANCH  55  56
ENDBRANCH  21  55
BRANCH  18  60
ATOM     60  C   UNK d   0     -16.524  -9.174 -11.030  0.00  0.00     0.151 C 
BRANCH  60  61
ATOM     61  C   UNK d   0     -15.089  -9.286 -10.729  0.00  0.00     0.143 C 
ATOM     62  O   UNK d   0     -14.151  -9.111 -11.508  0.00  0.00    -0.650 OA
BRANCH  61  63
ATOM     63  O   UNK d   0     -14.779  -9.635  -9.392  0.00  0.00    -0.776 OA
ATOM     64  H   UNK d   0     -13.832  -9.621  -9.059  0.00  0.00     0.167 HD
ENDBRANCH  61  63
ENDBRANCH  60  61
ENDBRANCH  18  60
BRANCH  14  65
ATOM     65  C   UNK d   0     -16.329  -7.872 -13.764  0.00  0.00     0.052 C 
BRANCH  65  66
ATOM     66  C   UNK d   0     -14.966  -7.685 -14.329  0.00  0.00     0.115 C 
BRANCH  66  67
ATOM     67  C   UNK d   0     -14.129  -6.629 -13.833  0.00  0.00     0.139 C 
ATOM     68  O   UNK d   0     -13.632  -5.793 -14.675  0.00  0.00    -0.650 OA
BRANCH  67  69
ATOM     69  O   UNK d   0     -13.768  -6.375 -12.510  0.00  0.00    -0.776 OA
ATOM     70  H   UNK d   0     -14.533  -6.087 -11.884  0.00  0.00     0.167 HD
ENDBRANCH  67  69
ENDBRANCH  66  67
ENDBRANCH  65  66
ENDBRANCH  14  65
ENDBRANCH   6   7
ENDBRANCH   5   6
ENDBRANCH   2   5
TORSDOF 28
ENDMDL
MODEL 13
REMARK VINA RESULT:      -8.5      4.541     10.915
REMARK  28 active torsions:
REMARK  status: ('A' for Active; 'I' for Inactive)
REMARK    1  A    between atoms: C_2  and  O_3 
REMARK    2  A    between atoms: C_2  and  C_4 
REMARK    3  A    between atoms: C_4  and  C_5 
REMARK    4  A    between atoms: C_5  and  C_6 
REMARK    5  A    between atoms: C_7  and  C_8 
REMARK    6  A    between atoms: C_8  and  C_9 
REMARK    7  A    between atoms: C_9  and  O_11 
REMARK    8  A    between atoms: C_28  and  C_29 
REMARK    9  A    between atoms: C_29  and  C_30 
REMARK   10  A    between atoms: C_30  and  O_32 
REMARK   11  A    between atoms: C_33  and  C_34 
REMARK   12  A    between atoms: C_34  and  C_35 
REMARK   13  A    between atoms: C_35  and  C_36 
REMARK   14  A    between atoms: C_36  and  O_38 
REMARK   15  A    between atoms: C_39  and  C_40 
REMARK   16  A    between atoms: C_40  and  C_41 
REMARK   17  A    between atoms: C_41  and  C_42 
REMARK   18  A    between atoms: C_42  and  O_44 
REMARK   19  A    between atoms: C_45  and  C_46 
REMARK   20  A    between atoms: C_46  and  C_47 
REMARK   21  A    between atoms: C_47  and  O_49 
REMARK   22  A    between atoms: C_50  and  C_51 
REMARK   23  A    between atoms: C_51  and  C_52 
REMARK   24  A    between atoms: C_52  and  O_54 
REMARK   25  A    between atoms: C_55  and  C_56 
REMARK   26  A    between atoms: C_56  and  C_57 
REMARK   27  A    between atoms: C_57  and  C_58 
REMARK   28  A    between atoms: C_58  and  O_60 
ROOT
ATOM      1  O   UNK d   0     -15.405  -8.821 -20.469  0.00  0.00    -0.650 OA
ATOM      2  C   UNK d   0     -16.570  -8.885 -20.018  0.00  0.00     0.139 C 
ENDROOT
BRANCH   2   3
ATOM      3  O   UNK d   0     -17.579  -8.210 -20.662  0.00  0.00    -0.776 OA
ATOM      4  H   UNK d   0     -17.436  -7.805 -21.589  0.00  0.00     0.167 HD
ENDBRANCH   2   3
BRANCH   2   5
ATOM      5  C   UNK d   0     -16.856  -9.687 -18.795  0.00  0.00     0.115 C 
BRANCH   5   6
ATOM      6  C   UNK d   0     -18.142  -9.227 -18.164  0.00  0.00     0.052 C 
BRANCH   6   7
ATOM      7  C   UNK d   0     -18.763 -10.280 -17.276  0.00  0.00    -0.020 A 
ATOM      8  C   UNK d   0     -19.764 -11.074 -17.559  0.00  0.00    -0.011 A 
ATOM      9  C   UNK d   0     -20.012 -11.908 -16.396  0.00  0.00     0.067 A 
ATOM     10  C   UNK d   0     -20.900 -12.943 -16.063  0.00  0.00     0.062 C 
ATOM     11  N   UNK d   0     -19.120 -11.551 -15.448  0.00  0.00    -0.248 NA
ATOM     12  C   UNK d   0     -20.807 -13.824 -14.980  0.00  0.00     0.041 A 
ATOM     13  N   UNK d   0     -20.484 -13.612 -13.690  0.00  0.00    -0.355 N 
ATOM     14  C   UNK d   0     -21.019 -15.198 -15.200  0.00  0.00    -0.022 A 
ATOM     15  C   UNK d   0     -20.478 -14.816 -13.087  0.00  0.00     0.042 A 
ATOM     16  H   UNK d   0     -20.283 -12.629 -13.211  0.00  0.00     0.166 HD
ATOM     17  C   UNK d   0     -20.209 -15.166 -11.749  0.00  0.00     0.062 C 
ATOM     18  C   UNK d   0     -20.809 -15.835 -14.002  0.00  0.00    -0.013 A 
ATOM     19  C   UNK d   0     -19.197 -14.732 -10.931  0.00  0.00     0.067 A 
ATOM     20  N   UNK d   0     -18.473 -13.696 -11.362  0.00  0.00    -0.248 NA
ATOM     21  C   UNK d   0     -18.654 -15.126  -9.642  0.00  0.00    -0.011 A 
ATOM     22  C   UNK d   0     -17.495 -13.386 -10.450  0.00  0.00     0.066 A 
ATOM     23  C   UNK d   0     -16.689 -12.299 -10.756  0.00  0.00     0.062 C 
ATOM     24  C   UNK d   0     -17.655 -14.338  -9.368  0.00  0.00    -0.020 A 
ATOM     25  C   UNK d   0     -16.807 -11.419 -11.843  0.00  0.00     0.041 A 
ATOM     26  N   UNK d   0     -17.113 -11.632 -13.128  0.00  0.00    -0.355 N 
ATOM     27  C   UNK d   0     -16.598 -10.040 -11.621  0.00  0.00    -0.022 A 
ATOM     28  C   UNK d   0     -17.111 -10.434 -13.734  0.00  0.00     0.042 A 
ATOM     29  H   UNK d   0     -17.304 -12.622 -13.611  0.00  0.00     0.166 HD
ATOM     30  C   UNK d   0     -17.368 -10.072 -15.065  0.00  0.00     0.062 C 
ATOM     31  C   UNK d   0     -16.789  -9.409 -12.812  0.00  0.00    -0.013 A 
ATOM     32  C   UNK d   0     -18.339 -10.576 -15.916  0.00  0.00     0.066 A 
BRANCH   8  33
ATOM     33  C   UNK d   0     -20.522 -11.126 -18.823  0.00  0.00     0.151 C 
BRANCH  33  34
ATOM     34  C   UNK d   0     -21.509 -10.037 -18.941  0.00  0.00     0.143 C 
ATOM     35  O   UNK d   0     -22.262  -9.755 -17.999  0.00  0.00    -0.650 OA
BRANCH  34  36
ATOM     36  O   UNK d   0     -21.592  -9.326 -20.116  0.00  0.00    -0.776 OA
ATOM     37  H   UNK d   0     -22.226  -9.618 -20.873  0.00  0.00     0.167 HD
ENDBRANCH  34  36
ENDBRANCH  33  34
ENDBRANCH   8  33
BRANCH  31  38
ATOM     38  C   UNK d   0     -16.686  -7.923 -13.059  0.00  0.00     0.151 C 
BRANCH  38  39
ATOM     39  C   UNK d   0     -17.864  -7.199 -12.630  0.00  0.00     0.143 C 
ATOM     40  O   UNK d   0     -18.914  -7.182 -13.296  0.00  0.00    -0.650 OA
BRANCH  39  41
ATOM     41  O   UNK d   0     -17.834  -6.491 -11.429  0.00  0.00    -0.776 OA
ATOM     42  H   UNK d   0     -17.793  -7.045 -10.568  0.00  0.00     0.167 HD
ENDBRANCH  39  41
ENDBRANCH  38  39
ENDBRANCH  31  38
BRANCH  27  43
ATOM     43  C   UNK d   0     -16.230  -9.320 -10.348  0.00  0.00     0.052 C 
BRANCH  43  44
ATOM     44  C   UNK d   0     -14.783  -8.956 -10.272  0.00  0.00     0.115 C 
BRANCH  44  45
ATOM     45  C   UNK d   0     -14.693  -7.751  -9.407  0.00  0.00     0.139 C 
ATOM     46  O   UNK d   0     -15.324  -6.723  -9.756  0.00  0.00    -0.650 OA
BRANCH  45  47
ATOM     47  O   UNK d   0     -13.954  -7.720  -8.243  0.00  0.00    -0.776 OA
ATOM     48  H   UNK d   0     -13.694  -6.841  -7.768  0.00  0.00     0.167 HD
ENDBRANCH  45  47
ENDBRANCH  44  45
ENDBRANCH  43  44
ENDBRANCH  27  43
BRANCH  24  49
ATOM     49  C   UNK d   0     -16.841 -14.360  -8.141  0.00  0.00     0.052 C 
BRANCH  49  50
ATOM     50  C   UNK d   0     -17.394 -13.391  -7.127  0.00  0.00     0.115 C 
BRANCH  50  51
ATOM     51  C   UNK d   0     -16.962 -12.004  -7.231  0.00  0.00     0.139 C 
ATOM     52  O   UNK d   0     -17.759 -11.039  -7.144  0.00  0.00    -0.650 OA
BRANCH  51  53
ATOM     53  O   UNK d   0     -15.622 -11.715  -7.436  0.00  0.00    -0.776 OA
ATOM     54  H   UNK d   0     -15.027 -12.444  -7.790  0.00  0.00     0.167 HD
ENDBRANCH  51  53
ENDBRANCH  50  51
ENDBRANCH  49  50
ENDBRANCH  24  49
BRANCH  21  55
ATOM     55  C   UNK d   0     -19.192 -16.248  -8.817  0.00  0.00     0.151 C 
BRANCH  55  56
ATOM     56  C   UNK d   0     -18.438 -17.494  -9.022  0.00  0.00     0.143 C 
ATOM     57  O   UNK d   0     -17.562 -17.891  -8.229  0.00  0.00    -0.650 OA
BRANCH  56  58
ATOM     58  O   UNK d   0     -18.731 -18.251 -10.155  0.00  0.00    -0.776 OA
ATOM     59  H   UNK d   0     -17.936 -18.386 -10.806  0.00  0.00     0.167 HD
ENDBRANCH  56  58
ENDBRANCH  55  56
ENDBRANCH  21  55
BRANCH  18  60
ATOM     60  C   UNK d   0     -20.922 -17.323 -13.783  0.00  0.00     0.151 C 
BRANCH  60  61
ATOM     61  C   UNK d   0     -21.769 -17.493 -12.592  0.00  0.00     0.143 C 
ATOM     62  O   UNK d   0     -22.905 -17.049 -12.420  0.00  0.00    -0.650 OA
BRANCH  61  63
ATOM     63  O   UNK d   0     -21.192 -18.252 -11.546  0.00  0.00    -0.776 OA
ATOM     64  H   UNK d   0     -20.911 -17.818 -10.685  0.00  0.00     0.167 HD
ENDBRANCH  61  63
ENDBRANCH  60  61
ENDBRANCH  18  60
BRANCH  14  65
ATOM     65  C   UNK d   0     -21.496 -15.934 -16.419  0.00  0.00     0.052 C 
BRANCH  65  66
ATOM     66  C   UNK d   0     -20.385 -16.511 -17.222  0.00  0.00     0.115 C 
BRANCH  66  67
ATOM     67  C   UNK d   0     -20.177 -16.066 -18.572  0.00  0.00     0.139 C 
ATOM     68  O   UNK d   0     -19.760 -16.917 -19.441  0.00  0.00    -0.650 OA
BRANCH  67  69
ATOM     69  O   UNK d   0     -20.373 -14.786 -19.088  0.00  0.00    -0.776 OA
ATOM     70  H   UNK d   0     -19.643 -14.446 -19.731  0.00  0.00     0.167 HD
ENDBRANCH  67  69
ENDBRANCH  66  67
ENDBRANCH  65  66
ENDBRANCH  14  65
ENDBRANCH   6   7
ENDBRANCH   5   6
ENDBRANCH   2   5
TORSDOF 28
ENDMDL
MODEL 14
REMARK VINA RESULT:      -8.4      3.276      9.171
REMARK  28 active torsions:
REMARK  status: ('A' for Active; 'I' for Inactive)
REMARK    1  A    between atoms: C_2  and  O_3 
REMARK    2  A    between atoms: C_2  and  C_4 
REMARK    3  A    between atoms: C_4  and  C_5 
REMARK    4  A    between atoms: C_5  and  C_6 
REMARK    5  A    between atoms: C_7  and  C_8 
REMARK    6  A    between atoms: C_8  and  C_9 
REMARK    7  A    between atoms: C_9  and  O_11 
REMARK    8  A    between atoms: C_28  and  C_29 
REMARK    9  A    between atoms: C_29  and  C_30 
REMARK   10  A    between atoms: C_30  and  O_32 
REMARK   11  A    between atoms: C_33  and  C_34 
REMARK   12  A    between atoms: C_34  and  C_35 
REMARK   13  A    between atoms: C_35  and  C_36 
REMARK   14  A    between atoms: C_36  and  O_38 
REMARK   15  A    between atoms: C_39  and  C_40 
REMARK   16  A    between atoms: C_40  and  C_41 
REMARK   17  A    between atoms: C_41  and  C_42 
REMARK   18  A    between atoms: C_42  and  O_44 
REMARK   19  A    between atoms: C_45  and  C_46 
REMARK   20  A    between atoms: C_46  and  C_47 
REMARK   21  A    between atoms: C_47  and  O_49 
REMARK   22  A    between atoms: C_50  and  C_51 
REMARK   23  A    between atoms: C_51  and  C_52 
REMARK   24  A    between atoms: C_52  and  O_54 
REMARK   25  A    between atoms: C_55  and  C_56 
REMARK   26  A    between atoms: C_56  and  C_57 
REMARK   27  A    between atoms: C_57  and  C_58 
REMARK   28  A    between atoms: C_58  and  O_60 
ROOT
ATOM      1  O   UNK d   0     -17.515 -17.952 -11.447  0.00  0.00    -0.650 OA
ATOM      2  C   UNK d   0     -18.028 -16.879 -11.058  0.00  0.00     0.139 C 
ENDROOT
BRANCH   2   3
ATOM      3  O   UNK d   0     -19.344 -16.616 -11.353  0.00  0.00    -0.776 OA
ATOM      4  H   UNK d   0     -19.731 -16.828 -12.275  0.00  0.00     0.167 HD
ENDBRANCH   2   3
BRANCH   2   5
ATOM      5  C   UNK d   0     -17.216 -15.900 -10.282  0.00  0.00     0.115 C 
BRANCH   5   6
ATOM      6  C   UNK d   0     -18.112 -14.862  -9.660  0.00  0.00     0.052 C 
BRANCH   6   7
ATOM      7  C   UNK d   0     -17.755 -13.458 -10.085  0.00  0.00    -0.020 A 
ATOM      8  C   UNK d   0     -17.149 -12.539  -9.376  0.00  0.00    -0.011 A 
ATOM      9  C   UNK d   0     -17.033 -11.347 -10.200  0.00  0.00     0.067 A 
ATOM     10  C   UNK d   0     -16.485 -10.063 -10.051  0.00  0.00     0.062 C 
ATOM     11  N   UNK d   0     -17.599 -11.627 -11.392  0.00  0.00    -0.248 NA
ATOM     12  C   UNK d   0     -16.220  -9.133 -11.062  0.00  0.00     0.041 A 
ATOM     13  N   UNK d   0     -16.942  -8.761 -12.136  0.00  0.00    -0.355 N 
ATOM     14  C   UNK d   0     -14.983  -8.463 -11.062  0.00  0.00    -0.022 A 
ATOM     15  C   UNK d   0     -16.192  -7.878 -12.822  0.00  0.00     0.042 A 
ATOM     16  H   UNK d   0     -17.970  -9.101 -12.393  0.00  0.00     0.166 HD
ATOM     17  C   UNK d   0     -16.465  -7.180 -14.015  0.00  0.00     0.062 C 
ATOM     18  C   UNK d   0     -14.957  -7.666 -12.180  0.00  0.00    -0.013 A 
ATOM     19  C   UNK d   0     -17.013  -7.649 -15.182  0.00  0.00     0.067 A 
ATOM     20  N   UNK d   0     -17.548  -8.872 -15.150  0.00  0.00    -0.248 NA
ATOM     21  C   UNK d   0     -17.168  -7.150 -16.538  0.00  0.00    -0.011 A 
ATOM     22  C   UNK d   0     -18.040  -9.210 -16.387  0.00  0.00     0.066 A 
ATOM     23  C   UNK d   0     -18.661 -10.446 -16.488  0.00  0.00     0.062 C 
ATOM     24  C   UNK d   0     -17.766  -8.069 -17.239  0.00  0.00    -0.020 A 
ATOM     25  C   UNK d   0     -18.929 -11.360 -15.458  0.00  0.00     0.041 A 
ATOM     26  N   UNK d   0     -18.205 -11.741 -14.398  0.00  0.00    -0.355 N 
ATOM     27  C   UNK d   0     -20.172 -12.029 -15.455  0.00  0.00    -0.022 A 
ATOM     28  C   UNK d   0     -18.947 -12.629 -13.717  0.00  0.00     0.042 A 
ATOM     29  H   UNK d   0     -17.169 -11.407 -14.146  0.00  0.00     0.166 HD
ATOM     30  C   UNK d   0     -18.684 -13.337 -12.534  0.00  0.00     0.062 C 
ATOM     31  C   UNK d   0     -20.193 -12.833 -14.357  0.00  0.00    -0.013 A 
ATOM     32  C   UNK d   0     -18.053 -12.881 -11.387  0.00  0.00     0.066 A 
BRANCH   8  33
ATOM     33  C   UNK d   0     -16.668 -12.666  -7.989  0.00  0.00     0.151 C 
BRANCH  33  34
ATOM     34  C   UNK d   0     -16.808 -11.417  -7.219  0.00  0.00     0.143 C 
ATOM     35  O   UNK d   0     -17.923 -10.916  -7.016  0.00  0.00    -0.650 OA
BRANCH  34  36
ATOM     36  O   UNK d   0     -15.683 -10.800  -6.722  0.00  0.00    -0.776 OA
ATOM     37  H   UNK d   0     -15.476  -9.814  -6.935  0.00  0.00     0.167 HD
ENDBRANCH  34  36
ENDBRANCH  33  34
ENDBRANCH   8  33
BRANCH  31  38
ATOM     38  C   UNK d   0     -21.330 -13.732 -13.932  0.00  0.00     0.151 C 
BRANCH  38  39
ATOM     39  C   UNK d   0     -21.183 -15.090 -14.413  0.00  0.00     0.143 C 
ATOM     40  O   UNK d   0     -21.060 -15.358 -15.621  0.00  0.00    -0.650 OA
BRANCH  39  41
ATOM     41  O   UNK d   0     -21.176 -16.144 -13.500  0.00  0.00    -0.776 OA
ATOM     42  H   UNK d   0     -21.367 -17.079 -13.874  0.00  0.00     0.167 HD
ENDBRANCH  39  41
ENDBRANCH  38  39
ENDBRANCH  31  38
BRANCH  27  43
ATOM     43  C   UNK d   0     -21.313 -11.935 -16.438  0.00  0.00     0.052 C 
BRANCH  43  44
ATOM     44  C   UNK d   0     -22.455 -11.111 -15.939  0.00  0.00     0.115 C 
BRANCH  44  45
ATOM     45  C   UNK d   0     -22.517  -9.904 -16.805  0.00  0.00     0.139 C 
ATOM     46  O   UNK d   0     -22.395 -10.059 -18.045  0.00  0.00    -0.650 OA
BRANCH  45  47
ATOM     47  O   UNK d   0     -22.708  -8.634 -16.304  0.00  0.00    -0.776 OA
ATOM     48  H   UNK d   0     -23.599  -8.325 -15.885  0.00  0.00     0.167 HD
ENDBRANCH  45  47
ENDBRANCH  44  45
ENDBRANCH  43  44
ENDBRANCH  27  43
BRANCH  24  49
ATOM     49  C   UNK d   0     -18.155  -7.965 -18.656  0.00  0.00     0.052 C 
BRANCH  49  50
ATOM     50  C   UNK d   0     -17.135  -8.646 -19.532  0.00  0.00     0.115 C 
BRANCH  50  51
ATOM     51  C   UNK d   0     -16.262  -7.790 -20.324  0.00  0.00     0.139 C 
ATOM     52  O   UNK d   0     -15.205  -8.208 -20.854  0.00  0.00    -0.650 OA
BRANCH  51  53
ATOM     53  O   UNK d   0     -16.592  -6.457 -20.510  0.00  0.00    -0.776 OA
ATOM     54  H   UNK d   0     -15.970  -5.884 -21.053  0.00  0.00     0.167 HD
ENDBRANCH  51  53
ENDBRANCH  50  51
ENDBRANCH  49  50
ENDBRANCH  24  49
BRANCH  21  55
ATOM     55  C   UNK d   0     -16.707  -5.804 -16.990  0.00  0.00     0.151 C 
BRANCH  55  56
ATOM     56  C   UNK d   0     -17.449  -4.717 -16.334  0.00  0.00     0.143 C 
ATOM     57  O   UNK d   0     -18.695  -4.669 -16.311  0.00  0.00    -0.650 OA
BRANCH  56  58
ATOM     58  O   UNK d   0     -16.713  -3.707 -15.718  0.00  0.00    -0.776 OA
ATOM     59  H   UNK d   0     -16.936  -3.551 -14.718  0.00  0.00     0.167 HD
ENDBRANCH  56  58
ENDBRANCH  55  56
ENDBRANCH  21  55
BRANCH  18  60
ATOM     60  C   UNK d   0     -13.807  -6.774 -12.579  0.00  0.00     0.151 C 
BRANCH  60  61
ATOM     61  C   UNK d   0     -12.732  -7.676 -13.020  0.00  0.00     0.143 C 
ATOM     62  O   UNK d   0     -12.830  -8.622 -13.802  0.00  0.00    -0.650 OA
BRANCH  61  63
ATOM     63  O   UNK d   0     -11.455  -7.404 -12.471  0.00  0.00    -0.776 OA
ATOM     64  H   UNK d   0     -10.623  -7.488 -13.028  0.00  0.00     0.167 HD
ENDBRANCH  61  63
ENDBRANCH  60  61
ENDBRANCH  18  60
BRANCH  14  65
ATOM     65  C   UNK d   0     -13.877  -8.444 -10.046  0.00  0.00     0.052 C 
BRANCH  65  66
ATOM     66  C   UNK d   0     -14.060  -7.395  -9.007  0.00  0.00     0.115 C 
BRANCH  66  67
ATOM     67  C   UNK d   0     -13.291  -6.184  -9.076  0.00  0.00     0.139 C 
ATOM     68  O   UNK d   0     -13.885  -5.100  -9.430  0.00  0.00    -0.650 OA
BRANCH  67  69
ATOM     69  O   UNK d   0     -11.934  -6.018  -8.801  0.00  0.00    -0.776 OA
ATOM     70  H   UNK d   0     -11.677  -5.139  -8.330  0.00  0.00     0.167 HD
ENDBRANCH  67  69
ENDBRANCH  66  67
ENDBRANCH  65  66
ENDBRANCH  14  65
ENDBRANCH   6   7
ENDBRANCH   5   6
ENDBRANCH   2   5
TORSDOF 28
ENDMDL
MODEL 15
REMARK VINA RESULT:      -8.4      3.829      5.855
REMARK  28 active torsions:
REMARK  status: ('A' for Active; 'I' for Inactive)
REMARK    1  A    between atoms: C_2  and  O_3 
REMARK    2  A    between atoms: C_2  and  C_4 
REMARK    3  A    between atoms: C_4  and  C_5 
REMARK    4  A    between atoms: C_5  and  C_6 
REMARK    5  A    between atoms: C_7  and  C_8 
REMARK    6  A    between atoms: C_8  and  C_9 
REMARK    7  A    between atoms: C_9  and  O_11 
REMARK    8  A    between atoms: C_28  and  C_29 
REMARK    9  A    between atoms: C_29  and  C_30 
REMARK   10  A    between atoms: C_30  and  O_32 
REMARK   11  A    between atoms: C_33  and  C_34 
REMARK   12  A    between atoms: C_34  and  C_35 
REMARK   13  A    between atoms: C_35  and  C_36 
REMARK   14  A    between atoms: C_36  and  O_38 
REMARK   15  A    between atoms: C_39  and  C_40 
REMARK   16  A    between atoms: C_40  and  C_41 
REMARK   17  A    between atoms: C_41  and  C_42 
REMARK   18  A    between atoms: C_42  and  O_44 
REMARK   19  A    between atoms: C_45  and  C_46 
REMARK   20  A    between atoms: C_46  and  C_47 
REMARK   21  A    between atoms: C_47  and  O_49 
REMARK   22  A    between atoms: C_50  and  C_51 
REMARK   23  A    between atoms: C_51  and  C_52 
REMARK   24  A    between atoms: C_52  and  O_54 
REMARK   25  A    between atoms: C_55  and  C_56 
REMARK   26  A    between atoms: C_56  and  C_57 
REMARK   27  A    between atoms: C_57  and  C_58 
REMARK   28  A    between atoms: C_58  and  O_60 
ROOT
ATOM      1  O   UNK d   0     -16.080  -7.490  -5.427  0.00  0.00    -0.650 OA
ATOM      2  C   UNK d   0     -14.976  -7.929  -5.818  0.00  0.00     0.139 C 
ENDROOT
BRANCH   2   3
ATOM      3  O   UNK d   0     -13.871  -7.113  -5.768  0.00  0.00    -0.776 OA
ATOM      4  H   UNK d   0     -12.941  -7.495  -5.587  0.00  0.00     0.167 HD
ENDBRANCH   2   3
BRANCH   2   5
ATOM      5  C   UNK d   0     -14.864  -9.323  -6.332  0.00  0.00     0.115 C 
BRANCH   5   6
ATOM      6  C   UNK d   0     -16.191 -10.023  -6.224  0.00  0.00     0.052 C 
BRANCH   6   7
ATOM      7  C   UNK d   0     -16.579 -10.736  -7.497  0.00  0.00    -0.020 A 
ATOM      8  C   UNK d   0     -16.833 -12.010  -7.653  0.00  0.00    -0.011 A 
ATOM      9  C   UNK d   0     -17.151 -12.232  -9.054  0.00  0.00     0.067 A 
ATOM     10  C   UNK d   0     -17.523 -13.329  -9.846  0.00  0.00     0.062 C 
ATOM     11  N   UNK d   0     -17.061 -11.039  -9.679  0.00  0.00    -0.248 NA
ATOM     12  C   UNK d   0     -18.064 -13.298 -11.136  0.00  0.00     0.041 A 
ATOM     13  N   UNK d   0     -17.743 -12.557 -12.215  0.00  0.00    -0.355 N 
ATOM     14  C   UNK d   0     -19.174 -14.111 -11.429  0.00  0.00    -0.022 A 
ATOM     15  C   UNK d   0     -18.625 -12.875 -13.181  0.00  0.00     0.042 A 
ATOM     16  H   UNK d   0     -16.898 -11.839 -12.297  0.00  0.00     0.166 HD
ATOM     17  C   UNK d   0     -18.743 -12.398 -14.502  0.00  0.00     0.062 C 
ATOM     18  C   UNK d   0     -19.538 -13.845 -12.725  0.00  0.00    -0.013 A 
ATOM     19  C   UNK d   0     -18.675 -11.109 -14.963  0.00  0.00     0.067 A 
ATOM     20  N   UNK d   0     -18.247 -10.181 -14.103  0.00  0.00    -0.248 NA
ATOM     21  C   UNK d   0     -18.974 -10.428 -16.212  0.00  0.00    -0.011 A 
ATOM     22  C   UNK d   0     -18.246  -8.943 -14.699  0.00  0.00     0.066 A 
ATOM     23  C   UNK d   0     -17.785  -7.888 -13.925  0.00  0.00     0.062 C 
ATOM     24  C   UNK d   0     -18.725  -9.161 -16.049  0.00  0.00    -0.020 A 
ATOM     25  C   UNK d   0     -17.234  -7.942 -12.636  0.00  0.00     0.041 A 
ATOM     26  N   UNK d   0     -17.562  -8.667 -11.560  0.00  0.00    -0.355 N 
ATOM     27  C   UNK d   0     -16.117  -7.128 -12.345  0.00  0.00    -0.022 A 
ATOM     28  C   UNK d   0     -16.689  -8.346 -10.592  0.00  0.00     0.042 A 
ATOM     29  H   UNK d   0     -18.418  -9.380 -11.475  0.00  0.00     0.166 HD
ATOM     30  C   UNK d   0     -16.566  -8.805  -9.271  0.00  0.00     0.062 C 
ATOM     31  C   UNK d   0     -15.766  -7.378 -11.054  0.00  0.00    -0.013 A 
ATOM     32  C   UNK d   0     -16.720 -10.098  -8.797  0.00  0.00     0.066 A 
BRANCH   8  33
ATOM     33  C   UNK d   0     -16.802 -13.053  -6.611  0.00  0.00     0.151 C 
BRANCH  33  34
ATOM     34  C   UNK d   0     -16.928 -14.414  -7.162  0.00  0.00     0.143 C 
ATOM     35  O   UNK d   0     -15.928 -15.045  -7.532  0.00  0.00    -0.650 OA
BRANCH  34  36
ATOM     36  O   UNK d   0     -18.174 -14.988  -7.268  0.00  0.00    -0.776 OA
ATOM     37  H   UNK d   0     -18.734 -15.206  -6.432  0.00  0.00     0.167 HD
ENDBRANCH  34  36
ENDBRANCH  33  34
ENDBRANCH   8  33
BRANCH  31  38
ATOM     38  C   UNK d   0     -14.615  -6.747 -10.305  0.00  0.00     0.151 C 
BRANCH  38  39
ATOM     39  C   UNK d   0     -13.354  -7.417 -10.546  0.00  0.00     0.143 C 
ATOM     40  O   UNK d   0     -12.273  -6.804 -10.591  0.00  0.00    -0.650 OA
BRANCH  39  41
ATOM     41  O   UNK d   0     -13.336  -8.798 -10.734  0.00  0.00    -0.776 OA
ATOM     42  H   UNK d   0     -14.079  -9.336 -10.278  0.00  0.00     0.167 HD
ENDBRANCH  39  41
ENDBRANCH  38  39
ENDBRANCH  31  38
BRANCH  27  43
ATOM     43  C   UNK d   0     -15.392  -6.144 -13.228  0.00  0.00     0.052 C 
BRANCH  43  44
ATOM     44  C   UNK d   0     -14.767  -6.777 -14.429  0.00  0.00     0.115 C 
BRANCH  44  45
ATOM     45  C   UNK d   0     -13.448  -7.304 -13.993  0.00  0.00     0.139 C 
ATOM     46  O   UNK d   0     -13.325  -8.546 -13.853  0.00  0.00    -0.650 OA
BRANCH  45  47
ATOM     47  O   UNK d   0     -12.363  -6.492 -13.745  0.00  0.00    -0.776 OA
ATOM     48  H   UNK d   0     -11.778  -6.582 -12.899  0.00  0.00     0.167 HD
ENDBRANCH  45  47
ENDBRANCH  44  45
ENDBRANCH  43  44
ENDBRANCH  27  43
BRANCH  24  49
ATOM     49  C   UNK d   0     -18.853  -8.112 -17.075  0.00  0.00     0.052 C 
BRANCH  49  50
ATOM     50  C   UNK d   0     -17.502  -7.769 -17.647  0.00  0.00     0.115 C 
BRANCH  50  51
ATOM     51  C   UNK d   0     -17.319  -7.957 -19.080  0.00  0.00     0.139 C 
ATOM     52  O   UNK d   0     -16.381  -7.423 -19.718  0.00  0.00    -0.650 OA
BRANCH  51  53
ATOM     53  O   UNK d   0     -18.207  -8.753 -19.786  0.00  0.00    -0.776 OA
ATOM     54  H   UNK d   0     -18.822  -8.310 -20.445  0.00  0.00     0.167 HD
ENDBRANCH  51  53
ENDBRANCH  50  51
ENDBRANCH  49  50
ENDBRANCH  24  49
BRANCH  21  55
ATOM     55  C   UNK d   0     -19.473 -11.117 -17.439  0.00  0.00     0.151 C 
BRANCH  55  56
ATOM     56  C   UNK d   0     -18.420 -11.906 -18.096  0.00  0.00     0.143 C 
ATOM     57  O   UNK d   0     -17.413 -11.387 -18.616  0.00  0.00    -0.650 OA
BRANCH  56  58
ATOM     58  O   UNK d   0     -18.572 -13.291 -18.129  0.00  0.00    -0.776 OA
ATOM     59  H   UNK d   0     -17.874 -13.820 -17.576  0.00  0.00     0.167 HD
ENDBRANCH  56  58
ENDBRANCH  55  56
ENDBRANCH  21  55
BRANCH  18  60
ATOM     60  C   UNK d   0     -20.692 -14.494 -13.449  0.00  0.00     0.151 C 
BRANCH  60  61
ATOM     61  C   UNK d   0     -21.855 -13.625 -13.216  0.00  0.00     0.143 C 
ATOM     62  O   UNK d   0     -22.173 -12.622 -13.856  0.00  0.00    -0.650 OA
BRANCH  61  63
ATOM     63  O   UNK d   0     -22.683 -14.005 -12.132  0.00  0.00    -0.776 OA
ATOM     64  H   UNK d   0     -22.365 -14.663 -11.443  0.00  0.00     0.167 HD
ENDBRANCH  61  63
ENDBRANCH  60  61
ENDBRANCH  18  60
BRANCH  14  65
ATOM     65  C   UNK d   0     -19.847 -15.181 -10.617  0.00  0.00     0.052 C 
BRANCH  65  66
ATOM     66  C   UNK d   0     -19.426 -16.555 -11.002  0.00  0.00     0.115 C 
BRANCH  66  67
ATOM     67  C   UNK d   0     -18.146 -17.051 -10.583  0.00  0.00     0.139 C 
ATOM     68  O   UNK d   0     -17.424 -17.686 -11.438  0.00  0.00    -0.650 OA
BRANCH  67  69
ATOM     69  O   UNK d   0     -17.555 -16.934  -9.326  0.00  0.00    -0.776 OA
ATOM     70  H   UNK d   0     -17.108 -17.787  -8.960  0.00  0.00     0.167 HD
ENDBRANCH  67  69
ENDBRANCH  66  67
ENDBRANCH  65  66
ENDBRANCH  14  65
ENDBRANCH   6   7
ENDBRANCH   5   6
ENDBRANCH   2   5
TORSDOF 28
ENDMDL
MODEL 16
REMARK VINA RESULT:      -8.4      3.088      9.864
REMARK  28 active torsions:
REMARK  status: ('A' for Active; 'I' for Inactive)
REMARK    1  A    between atoms: C_2  and  O_3 
REMARK    2  A    between atoms: C_2  and  C_4 
REMARK    3  A    between atoms: C_4  and  C_5 
REMARK    4  A    between atoms: C_5  and  C_6 
REMARK    5  A    between atoms: C_7  and  C_8 
REMARK    6  A    between atoms: C_8  and  C_9 
REMARK    7  A    between atoms: C_9  and  O_11 
REMARK    8  A    between atoms: C_28  and  C_29 
REMARK    9  A    between atoms: C_29  and  C_30 
REMARK   10  A    between atoms: C_30  and  O_32 
REMARK   11  A    between atoms: C_33  and  C_34 
REMARK   12  A    between atoms: C_34  and  C_35 
REMARK   13  A    between atoms: C_35  and  C_36 
REMARK   14  A    between atoms: C_36  and  O_38 
REMARK   15  A    between atoms: C_39  and  C_40 
REMARK   16  A    between atoms: C_40  and  C_41 
REMARK   17  A    between atoms: C_41  and  C_42 
REMARK   18  A    between atoms: C_42  and  O_44 
REMARK   19  A    between atoms: C_45  and  C_46 
REMARK   20  A    between atoms: C_46  and  C_47 
REMARK   21  A    between atoms: C_47  and  O_49 
REMARK   22  A    between atoms: C_50  and  C_51 
REMARK   23  A    between atoms: C_51  and  C_52 
REMARK   24  A    between atoms: C_52  and  O_54 
REMARK   25  A    between atoms: C_55  and  C_56 
REMARK   26  A    between atoms: C_56  and  C_57 
REMARK   27  A    between atoms: C_57  and  C_58 
REMARK   28  A    between atoms: C_58  and  O_60 
ROOT
ATOM      1  O   UNK d   0     -21.959 -14.150 -14.172  0.00  0.00    -0.650 OA
ATOM      2  C   UNK d   0     -22.223 -13.076 -14.756  0.00  0.00     0.139 C 
ENDROOT
BRANCH   2   3
ATOM      3  O   UNK d   0     -23.114 -12.199 -14.184  0.00  0.00    -0.776 OA
ATOM      4  H   UNK d   0     -22.896 -11.723 -13.306  0.00  0.00     0.167 HD
ENDBRANCH   2   3
BRANCH   2   5
ATOM      5  C   UNK d   0     -21.578 -12.754 -16.060  0.00  0.00     0.115 C 
BRANCH   5   6
ATOM      6  C   UNK d   0     -20.223 -13.405 -16.141  0.00  0.00     0.052 C 
BRANCH   6   7
ATOM      7  C   UNK d   0     -19.096 -12.432 -15.892  0.00  0.00    -0.020 A 
ATOM      8  C   UNK d   0     -18.432 -11.736 -16.779  0.00  0.00    -0.011 A 
ATOM      9  C   UNK d   0     -17.436 -10.948 -16.072  0.00  0.00     0.067 A 
ATOM     10  C   UNK d   0     -16.452 -10.009 -16.421  0.00  0.00     0.062 C 
ATOM     11  N   UNK d   0     -17.561 -11.231 -14.758  0.00  0.00    -0.248 NA
ATOM     12  C   UNK d   0     -15.768  -9.141 -15.564  0.00  0.00     0.041 A 
ATOM     13  N   UNK d   0     -15.224  -9.341 -14.348  0.00  0.00    -0.355 N 
ATOM     14  C   UNK d   0     -15.624  -7.792 -15.935  0.00  0.00    -0.022 A 
ATOM     15  C   UNK d   0     -14.746  -8.152 -13.935  0.00  0.00     0.042 A 
ATOM     16  H   UNK d   0     -15.163 -10.307 -13.801  0.00  0.00     0.166 HD
ATOM     17  C   UNK d   0     -14.083  -7.798 -12.743  0.00  0.00     0.062 C 
ATOM     18  C   UNK d   0     -14.979  -7.156 -14.904  0.00  0.00    -0.013 A 
ATOM     19  C   UNK d   0     -14.388  -8.144 -11.451  0.00  0.00     0.067 A 
ATOM     20  N   UNK d   0     -15.308  -9.097 -11.282  0.00  0.00    -0.248 NA
ATOM     21  C   UNK d   0     -13.964  -7.718 -10.128  0.00  0.00    -0.011 A 
ATOM     22  C   UNK d   0     -15.517  -9.325  -9.943  0.00  0.00     0.066 A 
ATOM     23  C   UNK d   0     -16.426 -10.322  -9.622  0.00  0.00     0.062 C 
ATOM     24  C   UNK d   0     -14.631  -8.410  -9.250  0.00  0.00    -0.020 A 
ATOM     25  C   UNK d   0     -17.093 -11.192 -10.498  0.00  0.00     0.041 A 
ATOM     26  N   UNK d   0     -17.646 -10.990 -11.700  0.00  0.00    -0.355 N 
ATOM     27  C   UNK d   0     -17.233 -12.547 -10.127  0.00  0.00    -0.022 A 
ATOM     28  C   UNK d   0     -18.132 -12.173 -12.110  0.00  0.00     0.042 A 
ATOM     29  H   UNK d   0     -17.717 -10.016 -12.244  0.00  0.00     0.166 HD
ATOM     30  C   UNK d   0     -18.801 -12.537 -13.289  0.00  0.00     0.062 C 
ATOM     31  C   UNK d   0     -17.889 -13.175 -11.141  0.00  0.00    -0.013 A 
ATOM     32  C   UNK d   0     -18.542 -12.117 -14.584  0.00  0.00     0.066 A 
BRANCH   8  33
ATOM     33  C   UNK d   0     -18.635 -11.738 -18.240  0.00  0.00     0.151 C 
BRANCH  33  34
ATOM     34  C   UNK d   0     -17.432 -12.153 -18.983  0.00  0.00     0.143 C 
ATOM     35  O   UNK d   0     -17.198 -11.707 -20.115  0.00  0.00    -0.650 OA
BRANCH  34  36
ATOM     36  O   UNK d   0     -16.559 -13.048 -18.409  0.00  0.00    -0.776 OA
ATOM     37  H   UNK d   0     -16.514 -14.027 -18.725  0.00  0.00     0.167 HD
ENDBRANCH  34  36
ENDBRANCH  33  34
ENDBRANCH   8  33
BRANCH  31  38
ATOM     38  C   UNK d   0     -18.252 -14.641 -11.195  0.00  0.00     0.151 C 
BRANCH  38  39
ATOM     39  C   UNK d   0     -19.659 -14.880 -10.954  0.00  0.00     0.143 C 
ATOM     40  O   UNK d   0     -20.203 -14.609  -9.869  0.00  0.00    -0.650 OA
BRANCH  39  41
ATOM     41  O   UNK d   0     -20.444 -15.433 -11.965  0.00  0.00    -0.776 OA
ATOM     42  H   UNK d   0     -20.134 -16.329 -12.352  0.00  0.00     0.167 HD
ENDBRANCH  39  41
ENDBRANCH  38  39
ENDBRANCH  31  38
BRANCH  27  43
ATOM     43  C   UNK d   0     -16.779 -13.249  -8.871  0.00  0.00     0.052 C 
BRANCH  43  44
ATOM     44  C   UNK d   0     -17.226 -12.566  -7.619  0.00  0.00     0.115 C 
BRANCH  44  45
ATOM     45  C   UNK d   0     -17.528 -13.639  -6.635  0.00  0.00     0.139 C 
ATOM     46  O   UNK d   0     -16.682 -14.555  -6.481  0.00  0.00    -0.650 OA
BRANCH  45  47
ATOM     47  O   UNK d   0     -18.686 -13.665  -5.889  0.00  0.00    -0.776 OA
ATOM     48  H   UNK d   0     -18.693 -13.565  -4.861  0.00  0.00     0.167 HD
ENDBRANCH  45  47
ENDBRANCH  44  45
ENDBRANCH  43  44
ENDBRANCH  27  43
BRANCH  24  49
ATOM     49  C   UNK d   0     -14.486  -8.327  -7.787  0.00  0.00     0.052 C 
BRANCH  49  50
ATOM     50  C   UNK d   0     -15.559  -7.443  -7.203  0.00  0.00     0.115 C 
BRANCH  50  51
ATOM     51  C   UNK d   0     -15.236  -6.730  -5.974  0.00  0.00     0.139 C 
ATOM     52  O   UNK d   0     -16.064  -6.575  -5.045  0.00  0.00    -0.650 OA
BRANCH  51  53
ATOM     53  O   UNK d   0     -13.970  -6.191  -5.805  0.00  0.00    -0.776 OA
ATOM     54  H   UNK d   0     -13.804  -5.255  -6.131  0.00  0.00     0.167 HD
ENDBRANCH  51  53
ENDBRANCH  50  51
ENDBRANCH  49  50
ENDBRANCH  24  49
BRANCH  21  55
ATOM     55  C   UNK d   0     -12.933  -6.668  -9.879  0.00  0.00     0.151 C 
BRANCH  55  56
ATOM     56  C   UNK d   0     -13.537  -5.359  -9.591  0.00  0.00     0.143 C 
ATOM     57  O   UNK d   0     -13.513  -4.838  -8.459  0.00  0.00    -0.650 OA
BRANCH  56  58
ATOM     58  O   UNK d   0     -14.160  -4.686 -10.642  0.00  0.00    -0.776 OA
ATOM     59  H   UNK d   0     -15.037  -4.197 -10.388  0.00  0.00     0.167 HD
ENDBRANCH  56  58
ENDBRANCH  55  56
ENDBRANCH  21  55
BRANCH  18  60
ATOM     60  C   UNK d   0     -14.626  -5.689 -14.878  0.00  0.00     0.151 C 
BRANCH  60  61
ATOM     61  C   UNK d   0     -15.651  -5.042 -14.045  0.00  0.00     0.143 C 
ATOM     62  O   UNK d   0     -15.466  -4.372 -13.029  0.00  0.00    -0.650 OA
BRANCH  61  63
ATOM     63  O   UNK d   0     -16.985  -5.224 -14.482  0.00  0.00    -0.776 OA
ATOM     64  H   UNK d   0     -17.699  -4.552 -14.262  0.00  0.00     0.167 HD
ENDBRANCH  61  63
ENDBRANCH  60  61
ENDBRANCH  18  60
BRANCH  14  65
ATOM     65  C   UNK d   0     -15.958  -7.087 -17.219  0.00  0.00     0.052 C 
BRANCH  65  66
ATOM     66  C   UNK d   0     -17.350  -7.343 -17.678  0.00  0.00     0.115 C 
BRANCH  66  67
ATOM     67  C   UNK d   0     -17.593  -7.696 -19.049  0.00  0.00     0.139 C 
ATOM     68  O   UNK d   0     -18.343  -6.927 -19.756  0.00  0.00    -0.650 OA
BRANCH  67  69
ATOM     69  O   UNK d   0     -17.108  -8.802 -19.744  0.00  0.00    -0.776 OA
ATOM     70  H   UNK d   0     -17.780  -9.569 -19.891  0.00  0.00     0.167 HD
ENDBRANCH  67  69
ENDBRANCH  66  67
ENDBRANCH  65  66
ENDBRANCH  14  65
ENDBRANCH   6   7
ENDBRANCH   5   6
ENDBRANCH   2   5
TORSDOF 28
ENDMDL
MODEL 17
REMARK VINA RESULT:      -8.4      3.386     11.981
REMARK  28 active torsions:
REMARK  status: ('A' for Active; 'I' for Inactive)
REMARK    1  A    between atoms: C_2  and  O_3 
REMARK    2  A    between atoms: C_2  and  C_4 
REMARK    3  A    between atoms: C_4  and  C_5 
REMARK    4  A    between atoms: C_5  and  C_6 
REMARK    5  A    between atoms: C_7  and  C_8 
REMARK    6  A    between atoms: C_8  and  C_9 
REMARK    7  A    between atoms: C_9  and  O_11 
REMARK    8  A    between atoms: C_28  and  C_29 
REMARK    9  A    between atoms: C_29  and  C_30 
REMARK   10  A    between atoms: C_30  and  O_32 
REMARK   11  A    between atoms: C_33  and  C_34 
REMARK   12  A    between atoms: C_34  and  C_35 
REMARK   13  A    between atoms: C_35  and  C_36 
REMARK   14  A    between atoms: C_36  and  O_38 
REMARK   15  A    between atoms: C_39  and  C_40 
REMARK   16  A    between atoms: C_40  and  C_41 
REMARK   17  A    between atoms: C_41  and  C_42 
REMARK   18  A    between atoms: C_42  and  O_44 
REMARK   19  A    between atoms: C_45  and  C_46 
REMARK   20  A    between atoms: C_46  and  C_47 
REMARK   21  A    between atoms: C_47  and  O_49 
REMARK   22  A    between atoms: C_50  and  C_51 
REMARK   23  A    between atoms: C_51  and  C_52 
REMARK   24  A    between atoms: C_52  and  O_54 
REMARK   25  A    between atoms: C_55  and  C_56 
REMARK   26  A    between atoms: C_56  and  C_57 
REMARK   27  A    between atoms: C_57  and  C_58 
REMARK   28  A    between atoms: C_58  and  O_60 
ROOT
ATOM      1  O   UNK d   0     -18.234  -7.012 -19.630  0.00  0.00    -0.650 OA
ATOM      2  C   UNK d   0     -17.079  -7.490 -19.680  0.00  0.00     0.139 C 
ENDROOT
BRANCH   2   3
ATOM      3  O   UNK d   0     -16.824  -8.549 -20.519  0.00  0.00    -0.776 OA
ATOM      4  H   UNK d   0     -16.690  -9.493 -20.151  0.00  0.00     0.167 HD
ENDBRANCH   2   3
BRANCH   2   5
ATOM      5  C   UNK d   0     -15.993  -6.915 -18.836  0.00  0.00     0.115 C 
BRANCH   5   6
ATOM      6  C   UNK d   0     -16.583  -6.182 -17.663  0.00  0.00     0.052 C 
BRANCH   6   7
ATOM      7  C   UNK d   0     -16.370  -6.908 -16.356  0.00  0.00    -0.020 A 
ATOM      8  C   UNK d   0     -15.637  -6.526 -15.341  0.00  0.00    -0.011 A 
ATOM      9  C   UNK d   0     -15.730  -7.552 -14.315  0.00  0.00     0.067 A 
ATOM     10  C   UNK d   0     -15.220  -7.738 -13.021  0.00  0.00     0.062 C 
ATOM     11  N   UNK d   0     -16.536  -8.524 -14.792  0.00  0.00    -0.248 NA
ATOM     12  C   UNK d   0     -15.647  -8.669 -12.068  0.00  0.00     0.041 A 
ATOM     13  N   UNK d   0     -15.977  -9.970 -12.185  0.00  0.00    -0.355 N 
ATOM     14  C   UNK d   0     -15.844  -8.244 -10.742  0.00  0.00    -0.022 A 
ATOM     15  C   UNK d   0     -16.385 -10.378 -10.969  0.00  0.00     0.042 A 
ATOM     16  H   UNK d   0     -15.904 -10.591 -13.105  0.00  0.00     0.166 HD
ATOM     17  C   UNK d   0     -16.837 -11.640 -10.533  0.00  0.00     0.062 C 
ATOM     18  C   UNK d   0     -16.316  -9.324 -10.038  0.00  0.00    -0.013 A 
ATOM     19  C   UNK d   0     -17.723 -12.495 -11.138  0.00  0.00     0.067 A 
ATOM     20  N   UNK d   0     -18.071 -12.214 -12.396  0.00  0.00    -0.248 NA
ATOM     21  C   UNK d   0     -18.446 -13.695 -10.752  0.00  0.00    -0.011 A 
ATOM     22  C   UNK d   0     -18.970 -13.143 -12.861  0.00  0.00     0.066 A 
ATOM     23  C   UNK d   0     -19.389 -12.992 -14.174  0.00  0.00     0.062 C 
ATOM     24  C   UNK d   0     -19.177 -14.067 -11.763  0.00  0.00    -0.020 A 
ATOM     25  C   UNK d   0     -18.938 -12.057 -15.119  0.00  0.00     0.041 A 
ATOM     26  N   UNK d   0     -18.625 -10.761 -15.006  0.00  0.00    -0.355 N 
ATOM     27  C   UNK d   0     -18.737 -12.486 -16.449  0.00  0.00    -0.022 A 
ATOM     28  C   UNK d   0     -18.226 -10.349 -16.220  0.00  0.00     0.042 A 
ATOM     29  H   UNK d   0     -18.709 -10.135 -14.084  0.00  0.00     0.166 HD
ATOM     30  C   UNK d   0     -17.783  -9.095 -16.669  0.00  0.00     0.062 C 
ATOM     31  C   UNK d   0     -18.286 -11.411 -17.152  0.00  0.00    -0.013 A 
ATOM     32  C   UNK d   0     -16.954  -8.197 -16.016  0.00  0.00     0.066 A 
BRANCH   8  33
ATOM     33  C   UNK d   0     -14.847  -5.286 -15.237  0.00  0.00     0.151 C 
BRANCH  33  34
ATOM     34  C   UNK d   0     -15.584  -4.193 -14.579  0.00  0.00     0.143 C 
ATOM     35  O   UNK d   0     -15.492  -4.009 -13.357  0.00  0.00    -0.650 OA
BRANCH  34  36
ATOM     36  O   UNK d   0     -16.386  -3.368 -15.334  0.00  0.00    -0.776 OA
ATOM     37  H   UNK d   0     -16.298  -2.344 -15.282  0.00  0.00     0.167 HD
ENDBRANCH  34  36
ENDBRANCH  33  34
ENDBRANCH   8  33
BRANCH  31  38
ATOM     38  C   UNK d   0     -17.920 -11.395 -18.618  0.00  0.00     0.151 C 
BRANCH  38  39
ATOM     39  C   UNK d   0     -19.037 -11.052 -19.472  0.00  0.00     0.143 C 
ATOM     40  O   UNK d   0     -19.509 -11.849 -20.302  0.00  0.00    -0.650 OA
BRANCH  39  41
ATOM     41  O   UNK d   0     -19.615  -9.787 -19.371  0.00  0.00    -0.776 OA
ATOM     42  H   UNK d   0     -20.422  -9.598 -19.974  0.00  0.00     0.167 HD
ENDBRANCH  39  41
ENDBRANCH  38  39
ENDBRANCH  31  38
BRANCH  27  43
ATOM     43  C   UNK d   0     -18.956 -13.847 -17.061  0.00  0.00     0.052 C 
BRANCH  43  44
ATOM     44  C   UNK d   0     -20.313 -14.013 -17.664  0.00  0.00     0.115 C 
BRANCH  44  45
ATOM     45  C   UNK d   0     -21.049 -14.969 -16.797  0.00  0.00     0.139 C 
ATOM     46  O   UNK d   0     -20.845 -16.197 -16.963  0.00  0.00    -0.650 OA
BRANCH  45  47
ATOM     47  O   UNK d   0     -21.934 -14.564 -15.821  0.00  0.00    -0.776 OA
ATOM     48  H   UNK d   0     -22.959 -14.629 -15.933  0.00  0.00     0.167 HD
ENDBRANCH  45  47
ENDBRANCH  44  45
ENDBRANCH  43  44
ENDBRANCH  27  43
BRANCH  24  49
ATOM     49  C   UNK d   0     -20.040 -15.259 -11.818  0.00  0.00     0.052 C 
BRANCH  49  50
ATOM     50  C   UNK d   0     -19.244 -16.464 -12.249  0.00  0.00     0.115 C 
BRANCH  50  51
ATOM     51  C   UNK d   0     -18.956 -17.468 -11.233  0.00  0.00     0.139 C 
ATOM     52  O   UNK d   0     -19.841 -17.947 -10.486  0.00  0.00    -0.650 OA
BRANCH  51  53
ATOM     53  O   UNK d   0     -17.657 -17.923 -11.067  0.00  0.00    -0.776 OA
ATOM     54  H   UNK d   0     -17.520 -18.882 -10.798  0.00  0.00     0.167 HD
ENDBRANCH  51  53
ENDBRANCH  50  51
ENDBRANCH  49  50
ENDBRANCH  24  49
BRANCH  21  55
ATOM     55  C   UNK d   0     -18.327 -14.348  -9.415  0.00  0.00     0.151 C 
BRANCH  55  56
ATOM     56  C   UNK d   0     -16.944 -14.753  -9.120  0.00  0.00     0.143 C 
ATOM     57  O   UNK d   0     -16.340 -15.622  -9.779  0.00  0.00    -0.650 OA
BRANCH  56  58
ATOM     58  O   UNK d   0     -16.297 -14.128  -8.055  0.00  0.00    -0.776 OA
ATOM     59  H   UNK d   0     -16.916 -13.846  -7.274  0.00  0.00     0.167 HD
ENDBRANCH  56  58
ENDBRANCH  55  56
ENDBRANCH  21  55
BRANCH  18  60
ATOM     60  C   UNK d   0     -16.671  -9.312  -8.572  0.00  0.00     0.151 C 
BRANCH  60  61
ATOM     61  C   UNK d   0     -15.573 -10.010  -7.885  0.00  0.00     0.143 C 
ATOM     62  O   UNK d   0     -15.541 -11.194  -7.549  0.00  0.00    -0.650 OA
BRANCH  61  63
ATOM     63  O   UNK d   0     -14.443  -9.210  -7.589  0.00  0.00    -0.776 OA
ATOM     64  H   UNK d   0     -13.516  -9.598  -7.603  0.00  0.00     0.167 HD
ENDBRANCH  61  63
ENDBRANCH  60  61
ENDBRANCH  18  60
BRANCH  14  65
ATOM     65  C   UNK d   0     -15.529  -6.936 -10.074  0.00  0.00     0.052 C 
BRANCH  65  66
ATOM     66  C   UNK d   0     -14.072  -6.635 -10.041  0.00  0.00     0.115 C 
BRANCH  66  67
ATOM     67  C   UNK d   0     -13.436  -6.333  -8.790  0.00  0.00     0.139 C 
ATOM     68  O   UNK d   0     -13.860  -5.326  -8.113  0.00  0.00    -0.650 OA
BRANCH  67  69
ATOM     69  O   UNK d   0     -12.378  -7.011  -8.186  0.00  0.00    -0.776 OA
ATOM     70  H   UNK d   0     -11.530  -6.453  -8.009  0.00  0.00     0.167 HD
ENDBRANCH  67  69
ENDBRANCH  66  67
ENDBRANCH  65  66
ENDBRANCH  14  65
ENDBRANCH   6   7
ENDBRANCH   5   6
ENDBRANCH   2   5
TORSDOF 28
ENDMDL
MODEL 18
REMARK VINA RESULT:      -8.3      3.799     11.017
REMARK  28 active torsions:
REMARK  status: ('A' for Active; 'I' for Inactive)
REMARK    1  A    between atoms: C_2  and  O_3 
REMARK    2  A    between atoms: C_2  and  C_4 
REMARK    3  A    between atoms: C_4  and  C_5 
REMARK    4  A    between atoms: C_5  and  C_6 
REMARK    5  A    between atoms: C_7  and  C_8 
REMARK    6  A    between atoms: C_8  and  C_9 
REMARK    7  A    between atoms: C_9  and  O_11 
REMARK    8  A    between atoms: C_28  and  C_29 
REMARK    9  A    between atoms: C_29  and  C_30 
REMARK   10  A    between atoms: C_30  and  O_32 
REMARK   11  A    between atoms: C_33  and  C_34 
REMARK   12  A    between atoms: C_34  and  C_35 
REMARK   13  A    between atoms: C_35  and  C_36 
REMARK   14  A    between atoms: C_36  and  O_38 
REMARK   15  A    between atoms: C_39  and  C_40 
REMARK   16  A    between atoms: C_40  and  C_41 
REMARK   17  A    between atoms: C_41  and  C_42 
REMARK   18  A    between atoms: C_42  and  O_44 
REMARK   19  A    between atoms: C_45  and  C_46 
REMARK   20  A    between atoms: C_46  and  C_47 
REMARK   21  A    between atoms: C_47  and  O_49 
REMARK   22  A    between atoms: C_50  and  C_51 
REMARK   23  A    between atoms: C_51  and  C_52 
REMARK   24  A    between atoms: C_52  and  O_54 
REMARK   25  A    between atoms: C_55  and  C_56 
REMARK   26  A    between atoms: C_56  and  C_57 
REMARK   27  A    between atoms: C_57  and  C_58 
REMARK   28  A    between atoms: C_58  and  O_60 
ROOT
ATOM      1  O   UNK d   0     -15.769  -7.186 -15.596  0.00  0.00    -0.650 OA
ATOM      2  C   UNK d   0     -16.332  -6.487 -14.724  0.00  0.00     0.139 C 
ENDROOT
BRANCH   2   3
ATOM      3  O   UNK d   0     -17.578  -5.967 -14.978  0.00  0.00    -0.776 OA
ATOM      4  H   UNK d   0     -18.425  -6.492 -14.754  0.00  0.00     0.167 HD
ENDBRANCH   2   3
BRANCH   2   5
ATOM      5  C   UNK d   0     -15.653  -6.224 -13.423  0.00  0.00     0.115 C 
BRANCH   5   6
ATOM      6  C   UNK d   0     -16.645  -6.311 -12.295  0.00  0.00     0.052 C 
BRANCH   6   7
ATOM      7  C   UNK d   0     -16.617  -7.651 -11.599  0.00  0.00    -0.020 A 
ATOM      8  C   UNK d   0     -15.952  -7.976 -10.520  0.00  0.00    -0.011 A 
ATOM      9  C   UNK d   0     -16.229  -9.374 -10.232  0.00  0.00     0.067 A 
ATOM     10  C   UNK d   0     -15.859 -10.296  -9.240  0.00  0.00     0.062 C 
ATOM     11  N   UNK d   0     -17.067  -9.822 -11.190  0.00  0.00    -0.248 NA
ATOM     12  C   UNK d   0     -16.452 -11.534  -8.971  0.00  0.00     0.041 A 
ATOM     13  N   UNK d   0     -16.880 -12.509  -9.795  0.00  0.00    -0.355 N 
ATOM     14  C   UNK d   0     -16.734 -11.878  -7.636  0.00  0.00    -0.022 A 
ATOM     15  C   UNK d   0     -17.434 -13.460  -9.018  0.00  0.00     0.042 A 
ATOM     16  H   UNK d   0     -16.776 -12.534 -10.902  0.00  0.00     0.166 HD
ATOM     17  C   UNK d   0     -18.031 -14.688  -9.364  0.00  0.00     0.062 C 
ATOM     18  C   UNK d   0     -17.361 -13.099  -7.659  0.00  0.00    -0.013 A 
ATOM     19  C   UNK d   0     -18.928 -14.959 -10.366  0.00  0.00     0.067 A 
ATOM     20  N   UNK d   0     -19.132 -13.999 -11.272  0.00  0.00    -0.248 NA
ATOM     21  C   UNK d   0     -19.784 -16.077 -10.728  0.00  0.00    -0.011 A 
ATOM     22  C   UNK d   0     -20.060 -14.407 -12.198  0.00  0.00     0.066 A 
ATOM     23  C   UNK d   0     -20.340 -13.515 -13.223  0.00  0.00     0.062 C 
ATOM     24  C   UNK d   0     -20.447 -15.745 -11.798  0.00  0.00    -0.020 A 
ATOM     25  C   UNK d   0     -19.724 -12.281 -13.483  0.00  0.00     0.041 A 
ATOM     26  N   UNK d   0     -19.312 -11.305 -12.665  0.00  0.00    -0.355 N 
ATOM     27  C   UNK d   0     -19.438 -11.938 -14.822  0.00  0.00    -0.022 A 
ATOM     28  C   UNK d   0     -18.767 -10.352 -13.437  0.00  0.00     0.042 A 
ATOM     29  H   UNK d   0     -19.427 -11.277 -11.553  0.00  0.00     0.166 HD
ATOM     30  C   UNK d   0     -18.178  -9.122 -13.108  0.00  0.00     0.062 C 
ATOM     31  C   UNK d   0     -18.832 -10.720 -14.803  0.00  0.00    -0.013 A 
ATOM     32  C   UNK d   0     -17.339  -8.834 -12.043  0.00  0.00     0.066 A 
BRANCH   8  33
ATOM     33  C   UNK d   0     -15.071  -7.101  -9.726  0.00  0.00     0.151 C 
BRANCH  33  34
ATOM     34  C   UNK d   0     -13.641  -7.390  -9.936  0.00  0.00     0.143 C 
ATOM     35  O   UNK d   0     -13.206  -7.669 -11.062  0.00  0.00    -0.650 OA
BRANCH  34  36
ATOM     36  O   UNK d   0     -12.779  -7.349  -8.864  0.00  0.00    -0.776 OA
ATOM     37  H   UNK d   0     -11.787  -7.104  -8.985  0.00  0.00     0.167 HD
ENDBRANCH  34  36
ENDBRANCH  33  34
ENDBRANCH   8  33
BRANCH  31  38
ATOM     38  C   UNK d   0     -18.330  -9.954 -16.005  0.00  0.00     0.151 C 
BRANCH  38  39
ATOM     39  C   UNK d   0     -17.029 -10.402 -16.453  0.00  0.00     0.143 C 
ATOM     40  O   UNK d   0     -16.876 -11.070 -17.490  0.00  0.00    -0.650 OA
BRANCH  39  41
ATOM     41  O   UNK d   0     -15.897 -10.079 -15.705  0.00  0.00    -0.776 OA
ATOM     42  H   UNK d   0     -15.623  -9.091 -15.686  0.00  0.00     0.167 HD
ENDBRANCH  39  41
ENDBRANCH  38  39
ENDBRANCH  31  38
BRANCH  27  43
ATOM     43  C   UNK d   0     -19.715 -12.709 -16.089  0.00  0.00     0.052 C 
BRANCH  43  44
ATOM     44  C   UNK d   0     -20.991 -12.309 -16.756  0.00  0.00     0.115 C 
BRANCH  44  45
ATOM     45  C   UNK d   0     -20.614 -11.507 -17.949  0.00  0.00     0.139 C 
ATOM     46  O   UNK d   0     -21.266 -10.462 -18.189  0.00  0.00    -0.650 OA
BRANCH  45  47
ATOM     47  O   UNK d   0     -19.581 -11.860 -18.790  0.00  0.00    -0.776 OA
ATOM     48  H   UNK d   0     -19.420 -11.402 -19.702  0.00  0.00     0.167 HD
ENDBRANCH  45  47
ENDBRANCH  44  45
ENDBRANCH  43  44
ENDBRANCH  27  43
BRANCH  24  49
ATOM     49  C   UNK d   0     -21.401 -16.598 -12.527  0.00  0.00     0.052 C 
BRANCH  49  50
ATOM     50  C   UNK d   0     -22.774 -16.494 -11.913  0.00  0.00     0.115 C 
BRANCH  50  51
ATOM     51  C   UNK d   0     -23.169 -15.195 -11.386  0.00  0.00     0.139 C 
ATOM     52  O   UNK d   0     -23.547 -14.253 -12.121  0.00  0.00    -0.650 OA
BRANCH  51  53
ATOM     53  O   UNK d   0     -23.131 -14.969 -10.018  0.00  0.00    -0.776 OA
ATOM     54  H   UNK d   0     -23.003 -15.758  -9.409  0.00  0.00     0.167 HD
ENDBRANCH  51  53
ENDBRANCH  50  51
ENDBRANCH  49  50
ENDBRANCH  24  49
BRANCH  21  55
ATOM     55  C   UNK d   0     -19.847 -17.360  -9.968  0.00  0.00     0.151 C 
BRANCH  55  56
ATOM     56  C   UNK d   0     -20.736 -17.267  -8.800  0.00  0.00     0.143 C 
ATOM     57  O   UNK d   0     -21.979 -17.268  -8.895  0.00  0.00    -0.650 OA
BRANCH  56  58
ATOM     58  O   UNK d   0     -20.145 -17.174  -7.541  0.00  0.00    -0.776 OA
ATOM     59  H   UNK d   0     -19.624 -18.017  -7.240  0.00  0.00     0.167 HD
ENDBRANCH  56  58
ENDBRANCH  55  56
ENDBRANCH  21  55
BRANCH  18  60
ATOM     60  C   UNK d   0     -17.849 -13.843  -6.440  0.00  0.00     0.151 C 
BRANCH  60  61
ATOM     61  C   UNK d   0     -17.091 -15.103  -6.406  0.00  0.00     0.143 C 
ATOM     62  O   UNK d   0     -15.879 -15.245  -6.568  0.00  0.00    -0.650 OA
BRANCH  61  63
ATOM     63  O   UNK d   0     -17.864 -16.264  -6.159  0.00  0.00    -0.776 OA
ATOM     64  H   UNK d   0     -17.993 -16.962  -6.870  0.00  0.00     0.167 HD
ENDBRANCH  61  63
ENDBRANCH  60  61
ENDBRANCH  18  60
BRANCH  14  65
ATOM     65  C   UNK d   0     -16.371 -11.194  -6.349  0.00  0.00     0.052 C 
BRANCH  65  66
ATOM     66  C   UNK d   0     -16.917  -9.814  -6.250  0.00  0.00     0.115 C 
BRANCH  66  67
ATOM     67  C   UNK d   0     -18.312  -9.581  -6.497  0.00  0.00     0.139 C 
ATOM     68  O   UNK d   0     -19.172 -10.351  -5.932  0.00  0.00    -0.650 OA
BRANCH  67  69
ATOM     69  O   UNK d   0     -18.883  -8.593  -7.299  0.00  0.00    -0.776 OA
ATOM     70  H   UNK d   0     -19.656  -8.901  -7.906  0.00  0.00     0.167 HD
ENDBRANCH  67  69
ENDBRANCH  66  67
ENDBRANCH  65  66
ENDBRANCH  14  65
ENDBRANCH   6   7
ENDBRANCH   5   6
ENDBRANCH   2   5
TORSDOF 28
ENDMDL
MODEL 19
REMARK VINA RESULT:      -8.2      3.669      9.707
REMARK  28 active torsions:
REMARK  status: ('A' for Active; 'I' for Inactive)
REMARK    1  A    between atoms: C_2  and  O_3 
REMARK    2  A    between atoms: C_2  and  C_4 
REMARK    3  A    between atoms: C_4  and  C_5 
REMARK    4  A    between atoms: C_5  and  C_6 
REMARK    5  A    between atoms: C_7  and  C_8 
REMARK    6  A    between atoms: C_8  and  C_9 
REMARK    7  A    between atoms: C_9  and  O_11 
REMARK    8  A    between atoms: C_28  and  C_29 
REMARK    9  A    between atoms: C_29  and  C_30 
REMARK   10  A    between atoms: C_30  and  O_32 
REMARK   11  A    between atoms: C_33  and  C_34 
REMARK   12  A    between atoms: C_34  and  C_35 
REMARK   13  A    between atoms: C_35  and  C_36 
REMARK   14  A    between atoms: C_36  and  O_38 
REMARK   15  A    between atoms: C_39  and  C_40 
REMARK   16  A    between atoms: C_40  and  C_41 
REMARK   17  A    between atoms: C_41  and  C_42 
REMARK   18  A    between atoms: C_42  and  O_44 
REMARK   19  A    between atoms: C_45  and  C_46 
REMARK   20  A    between atoms: C_46  and  C_47 
REMARK   21  A    between atoms: C_47  and  O_49 
REMARK   22  A    between atoms: C_50  and  C_51 
REMARK   23  A    between atoms: C_51  and  C_52 
REMARK   24  A    between atoms: C_52  and  O_54 
REMARK   25  A    between atoms: C_55  and  C_56 
REMARK   26  A    between atoms: C_56  and  C_57 
REMARK   27  A    between atoms: C_57  and  C_58 
REMARK   28  A    between atoms: C_58  and  O_60 
ROOT
ATOM      1  O   UNK d   0     -13.368  -7.808 -14.499  0.00  0.00    -0.650 OA
ATOM      2  C   UNK d   0     -13.657  -6.688 -14.023  0.00  0.00     0.139 C 
ENDROOT
BRANCH   2   3
ATOM      3  O   UNK d   0     -13.248  -6.371 -12.750  0.00  0.00    -0.776 OA
ATOM      4  H   UNK d   0     -12.275  -6.131 -12.552  0.00  0.00     0.167 HD
ENDBRANCH   2   3
BRANCH   2   5
ATOM      5  C   UNK d   0     -14.437  -5.709 -14.832  0.00  0.00     0.115 C 
BRANCH   5   6
ATOM      6  C   UNK d   0     -15.697  -5.325 -14.106  0.00  0.00     0.052 C 
BRANCH   6   7
ATOM      7  C   UNK d   0     -16.767  -6.386 -14.198  0.00  0.00    -0.020 A 
ATOM      8  C   UNK d   0     -17.795  -6.415 -15.007  0.00  0.00    -0.011 A 
ATOM      9  C   UNK d   0     -18.551  -7.624 -14.723  0.00  0.00     0.067 A 
ATOM     10  C   UNK d   0     -19.705  -8.239 -15.232  0.00  0.00     0.062 C 
ATOM     11  N   UNK d   0     -17.914  -8.268 -13.723  0.00  0.00    -0.248 NA
ATOM     12  C   UNK d   0     -20.130  -9.555 -15.015  0.00  0.00     0.041 A 
ATOM     13  N   UNK d   0     -20.155 -10.305 -13.898  0.00  0.00    -0.355 N 
ATOM     14  C   UNK d   0     -20.572 -10.316 -16.112  0.00  0.00    -0.022 A 
ATOM     15  C   UNK d   0     -20.594 -11.526 -14.259  0.00  0.00     0.042 A 
ATOM     16  H   UNK d   0     -19.886  -9.973 -12.871  0.00  0.00     0.166 HD
ATOM     17  C   UNK d   0     -20.809 -12.684 -13.486  0.00  0.00     0.062 C 
ATOM     18  C   UNK d   0     -20.866 -11.571 -15.640  0.00  0.00    -0.013 A 
ATOM     19  C   UNK d   0     -20.008 -13.239 -12.521  0.00  0.00     0.067 A 
ATOM     20  N   UNK d   0     -18.976 -12.504 -12.096  0.00  0.00    -0.248 NA
ATOM     21  C   UNK d   0     -19.963 -14.497 -11.796  0.00  0.00    -0.011 A 
ATOM     22  C   UNK d   0     -18.260 -13.192 -11.147  0.00  0.00     0.066 A 
ATOM     23  C   UNK d   0     -17.178 -12.527 -10.591  0.00  0.00     0.062 C 
ATOM     24  C   UNK d   0     -18.936 -14.465 -10.997  0.00  0.00    -0.020 A 
ATOM     25  C   UNK d   0     -16.776 -11.200 -10.812  0.00  0.00     0.041 A 
ATOM     26  N   UNK d   0     -16.736 -10.459 -11.926  0.00  0.00    -0.355 N 
ATOM     27  C   UNK d   0     -16.336 -10.435  -9.710  0.00  0.00    -0.022 A 
ATOM     28  C   UNK d   0     -16.290  -9.244 -11.570  0.00  0.00     0.042 A 
ATOM     29  H   UNK d   0     -16.997 -10.797 -12.959  0.00  0.00     0.166 HD
ATOM     30  C   UNK d   0     -16.063  -8.085 -12.329  0.00  0.00     0.062 C 
ATOM     31  C   UNK d   0     -16.028  -9.196 -10.180  0.00  0.00    -0.013 A 
ATOM     32  C   UNK d   0     -16.833  -7.575 -13.362  0.00  0.00     0.066 A 
BRANCH   8  33
ATOM     33  C   UNK d   0     -18.147  -5.410 -16.028  0.00  0.00     0.151 C 
BRANCH  33  34
ATOM     34  C   UNK d   0     -17.421  -5.606 -17.295  0.00  0.00     0.143 C 
ATOM     35  O   UNK d   0     -17.391  -4.715 -18.156  0.00  0.00    -0.650 OA
BRANCH  34  36
ATOM     36  O   UNK d   0     -16.769  -6.796 -17.523  0.00  0.00    -0.776 OA
ATOM     37  H   UNK d   0     -17.175  -7.693 -17.226  0.00  0.00     0.167 HD
ENDBRANCH  34  36
ENDBRANCH  33  34
ENDBRANCH   8  33
BRANCH  31  38
ATOM     38  C   UNK d   0     -15.526  -8.031  -9.360  0.00  0.00     0.151 C 
BRANCH  38  39
ATOM     39  C   UNK d   0     -14.091  -7.862  -9.443  0.00  0.00     0.143 C 
ATOM     40  O   UNK d   0     -13.469  -7.079  -8.703  0.00  0.00    -0.650 OA
BRANCH  39  41
ATOM     41  O   UNK d   0     -13.366  -8.597 -10.381  0.00  0.00    -0.776 OA
ATOM     42  H   UNK d   0     -12.376  -8.760 -10.174  0.00  0.00     0.167 HD
ENDBRANCH  39  41
ENDBRANCH  38  39
ENDBRANCH  31  38
BRANCH  27  43
ATOM     43  C   UNK d   0     -16.200 -10.832  -8.261  0.00  0.00     0.052 C 
BRANCH  43  44
ATOM     44  C   UNK d   0     -17.218 -10.190  -7.375  0.00  0.00     0.115 C 
BRANCH  44  45
ATOM     45  C   UNK d   0     -16.464  -9.434  -6.342  0.00  0.00     0.139 C 
ATOM     46  O   UNK d   0     -15.250  -9.709  -6.174  0.00  0.00    -0.650 OA
BRANCH  45  47
ATOM     47  O   UNK d   0     -17.039  -8.446  -5.571  0.00  0.00    -0.776 OA
ATOM     48  H   UNK d   0     -16.554  -8.006  -4.772  0.00  0.00     0.167 HD
ENDBRANCH  45  47
ENDBRANCH  44  45
ENDBRANCH  43  44
ENDBRANCH  27  43
BRANCH  24  49
ATOM     49  C   UNK d   0     -18.539 -15.521 -10.049  0.00  0.00     0.052 C 
BRANCH  49  50
ATOM     50  C   UNK d   0     -17.227 -16.134 -10.466  0.00  0.00     0.115 C 
BRANCH  50  51
ATOM     51  C   UNK d   0     -16.160 -16.157  -9.475  0.00  0.00     0.139 C 
ATOM     52  O   UNK d   0     -15.966 -15.218  -8.667  0.00  0.00    -0.650 OA
BRANCH  51  53
ATOM     53  O   UNK d   0     -15.311 -17.252  -9.407  0.00  0.00    -0.776 OA
ATOM     54  H   UNK d   0     -14.354 -17.129  -9.686  0.00  0.00     0.167 HD
ENDBRANCH  51  53
ENDBRANCH  50  51
ENDBRANCH  49  50
ENDBRANCH  24  49
BRANCH  21  55
ATOM     55  C   UNK d   0     -20.955 -15.599 -11.974  0.00  0.00     0.151 C 
BRANCH  55  56
ATOM     56  C   UNK d   0     -20.568 -16.520 -13.054  0.00  0.00     0.143 C 
ATOM     57  O   UNK d   0     -19.915 -17.562 -12.851  0.00  0.00    -0.650 OA
BRANCH  56  58
ATOM     58  O   UNK d   0     -20.957 -16.197 -14.353  0.00  0.00    -0.776 OA
ATOM     59  H   UNK d   0     -21.936 -16.441 -14.588  0.00  0.00     0.167 HD
ENDBRANCH  56  58
ENDBRANCH  55  56
ENDBRANCH  21  55
BRANCH  18  60
ATOM     60  C   UNK d   0     -21.369 -12.717 -16.483  0.00  0.00     0.151 C 
BRANCH  60  61
ATOM     61  C   UNK d   0     -20.186 -13.528 -16.809  0.00  0.00     0.143 C 
ATOM     62  O   UNK d   0     -19.045 -13.122 -17.027  0.00  0.00    -0.650 OA
BRANCH  61  63
ATOM     63  O   UNK d   0     -20.412 -14.924 -16.870  0.00  0.00    -0.776 OA
ATOM     64  H   UNK d   0     -20.223 -15.515 -16.080  0.00  0.00     0.167 HD
ENDBRANCH  61  63
ENDBRANCH  60  61
ENDBRANCH  18  60
BRANCH  14  65
ATOM     65  C   UNK d   0     -20.829  -9.924 -17.539  0.00  0.00     0.052 C 
BRANCH  65  66
ATOM     66  C   UNK d   0     -19.617 -10.022 -18.397  0.00  0.00     0.115 C 
BRANCH  66  67
ATOM     67  C   UNK d   0     -19.687 -10.717 -19.651  0.00  0.00     0.139 C 
ATOM     68  O   UNK d   0     -20.340 -10.176 -20.617  0.00  0.00    -0.650 OA
BRANCH  67  69
ATOM     69  O   UNK d   0     -19.120 -11.949 -19.976  0.00  0.00    -0.776 OA
ATOM     70  H   UNK d   0     -18.795 -12.049 -20.949  0.00  0.00     0.167 HD
ENDBRANCH  67  69
ENDBRANCH  66  67
ENDBRANCH  65  66
ENDBRANCH  14  65
ENDBRANCH   6   7
ENDBRANCH   5   6
ENDBRANCH   2   5
TORSDOF 28
ENDMDL
MODEL 20
REMARK VINA RESULT:      -8.2      3.161      9.686
REMARK  28 active torsions:
REMARK  status: ('A' for Active; 'I' for Inactive)
REMARK    1  A    between atoms: C_2  and  O_3 
REMARK    2  A    between atoms: C_2  and  C_4 
REMARK    3  A    between atoms: C_4  and  C_5 
REMARK    4  A    between atoms: C_5  and  C_6 
REMARK    5  A    between atoms: C_7  and  C_8 
REMARK    6  A    between atoms: C_8  and  C_9 
REMARK    7  A    between atoms: C_9  and  O_11 
REMARK    8  A    between atoms: C_28  and  C_29 
REMARK    9  A    between atoms: C_29  and  C_30 
REMARK   10  A    between atoms: C_30  and  O_32 
REMARK   11  A    between atoms: C_33  and  C_34 
REMARK   12  A    between atoms: C_34  and  C_35 
REMARK   13  A    between atoms: C_35  and  C_36 
REMARK   14  A    between atoms: C_36  and  O_38 
REMARK   15  A    between atoms: C_39  and  C_40 
REMARK   16  A    between atoms: C_40  and  C_41 
REMARK   17  A    between atoms: C_41  and  C_42 
REMARK   18  A    between atoms: C_42  and  O_44 
REMARK   19  A    between atoms: C_45  and  C_46 
REMARK   20  A    between atoms: C_46  and  C_47 
REMARK   21  A    between atoms: C_47  and  O_49 
REMARK   22  A    between atoms: C_50  and  C_51 
REMARK   23  A    between atoms: C_51  and  C_52 
REMARK   24  A    between atoms: C_52  and  O_54 
REMARK   25  A    between atoms: C_55  and  C_56 
REMARK   26  A    between atoms: C_56  and  C_57 
REMARK   27  A    between atoms: C_57  and  C_58 
REMARK   28  A    between atoms: C_58  and  O_60 
ROOT
ATOM      1  O   UNK d   0     -12.599  -5.207  -8.160  0.00  0.00    -0.650 OA
ATOM      2  C   UNK d   0     -12.830  -5.977  -9.119  0.00  0.00     0.139 C 
ENDROOT
BRANCH   2   3
ATOM      3  O   UNK d   0     -11.979  -7.028  -9.358  0.00  0.00    -0.776 OA
ATOM      4  H   UNK d   0     -12.190  -7.726 -10.075  0.00  0.00     0.167 HD
ENDBRANCH   2   3
BRANCH   2   5
ATOM      5  C   UNK d   0     -14.018  -5.751  -9.990  0.00  0.00     0.115 C 
BRANCH   5   6
ATOM      6  C   UNK d   0     -13.753  -6.278 -11.374  0.00  0.00     0.052 C 
BRANCH   6   7
ATOM      7  C   UNK d   0     -14.970  -6.922 -11.994  0.00  0.00    -0.020 A 
ATOM      8  C   UNK d   0     -15.696  -6.467 -12.983  0.00  0.00    -0.011 A 
ATOM      9  C   UNK d   0     -16.765  -7.423 -13.226  0.00  0.00     0.067 A 
ATOM     10  C   UNK d   0     -17.834  -7.538 -14.128  0.00  0.00     0.062 C 
ATOM     11  N   UNK d   0     -16.615  -8.425 -12.335  0.00  0.00    -0.248 NA
ATOM     12  C   UNK d   0     -18.601  -8.679 -14.391  0.00  0.00     0.041 A 
ATOM     13  N   UNK d   0     -19.124  -9.605 -13.566  0.00  0.00    -0.355 N 
ATOM     14  C   UNK d   0     -18.874  -9.021 -15.728  0.00  0.00    -0.022 A 
ATOM     15  C   UNK d   0     -19.716 -10.530 -14.344  0.00  0.00     0.042 A 
ATOM     16  H   UNK d   0     -19.094  -9.594 -12.454  0.00  0.00     0.166 HD
ATOM     17  C   UNK d   0     -20.412 -11.705 -13.998  0.00  0.00     0.062 C 
ATOM     18  C   UNK d   0     -19.579 -10.199 -15.706  0.00  0.00    -0.013 A 
ATOM     19  C   UNK d   0     -20.078 -12.667 -13.079  0.00  0.00     0.067 A 
ATOM     20  N   UNK d   0     -19.071 -12.385 -12.249  0.00  0.00    -0.248 NA
ATOM     21  C   UNK d   0     -20.544 -14.003 -12.749  0.00  0.00    -0.011 A 
ATOM     22  C   UNK d   0     -18.843 -13.441 -11.401  0.00  0.00     0.066 A 
ATOM     23  C   UNK d   0     -17.842 -13.268 -10.455  0.00  0.00     0.062 C 
ATOM     24  C   UNK d   0     -19.814 -14.452 -11.769  0.00  0.00    -0.020 A 
ATOM     25  C   UNK d   0     -17.092 -12.110 -10.199  0.00  0.00     0.041 A 
ATOM     26  N   UNK d   0     -16.559 -11.197 -11.020  0.00  0.00    -0.355 N 
ATOM     27  C   UNK d   0     -16.823 -11.764  -8.856  0.00  0.00    -0.022 A 
ATOM     28  C   UNK d   0     -15.961 -10.278 -10.246  0.00  0.00     0.042 A 
ATOM     29  H   UNK d   0     -16.582 -11.215 -12.137  0.00  0.00     0.166 HD
ATOM     30  C   UNK d   0     -15.257  -9.109 -10.577  0.00  0.00     0.062 C 
ATOM     31  C   UNK d   0     -16.108 -10.606  -8.877  0.00  0.00    -0.013 A 
ATOM     32  C   UNK d   0     -15.553  -8.184 -11.566  0.00  0.00     0.066 A 
BRANCH   8  33
ATOM     33  C   UNK d   0     -15.491  -5.212 -13.728  0.00  0.00     0.151 C 
BRANCH  33  34
ATOM     34  C   UNK d   0     -14.655  -5.391 -14.930  0.00  0.00     0.143 C 
ATOM     35  O   UNK d   0     -13.426  -5.515 -14.837  0.00  0.00    -0.650 OA
BRANCH  34  36
ATOM     36  O   UNK d   0     -15.252  -5.420 -16.169  0.00  0.00    -0.776 OA
ATOM     37  H   UNK d   0     -15.001  -6.135 -16.866  0.00  0.00     0.167 HD
ENDBRANCH  34  36
ENDBRANCH  33  34
ENDBRANCH   8  33
BRANCH  31  38
ATOM     38  C   UNK d   0     -15.605  -9.847  -7.671  0.00  0.00     0.151 C 
BRANCH  38  39
ATOM     39  C   UNK d   0     -16.568  -8.893  -7.166  0.00  0.00     0.143 C 
ATOM     40  O   UNK d   0     -16.311  -8.122  -6.225  0.00  0.00    -0.650 OA
BRANCH  39  41
ATOM     41  O   UNK d   0     -17.835  -8.824  -7.746  0.00  0.00    -0.776 OA
ATOM     42  H   UNK d   0     -18.624  -9.129  -7.168  0.00  0.00     0.167 HD
ENDBRANCH  39  41
ENDBRANCH  38  39
ENDBRANCH  31  38
BRANCH  27  43
ATOM     43  C   UNK d   0     -17.209 -12.480  -7.586  0.00  0.00     0.052 C 
BRANCH  43  44
ATOM     44  C   UNK d   0     -16.720 -13.891  -7.531  0.00  0.00     0.115 C 
BRANCH  44  45
ATOM     45  C   UNK d   0     -17.467 -14.556  -6.432  0.00  0.00     0.139 C 
ATOM     46  O   UNK d   0     -17.042 -15.660  -6.011  0.00  0.00    -0.650 OA
BRANCH  45  47
ATOM     47  O   UNK d   0     -18.596 -14.011  -5.859  0.00  0.00    -0.776 OA
ATOM     48  H   UNK d   0     -18.668 -13.807  -4.849  0.00  0.00     0.167 HD
ENDBRANCH  45  47
ENDBRANCH  44  45
ENDBRANCH  43  44
ENDBRANCH  27  43
BRANCH  24  49
ATOM     49  C   UNK d   0     -19.969 -15.754 -11.096  0.00  0.00     0.052 C 
BRANCH  49  50
ATOM     50  C   UNK d   0     -19.373 -16.853 -11.938  0.00  0.00     0.115 C 
BRANCH  50  51
ATOM     51  C   UNK d   0     -18.153 -17.479 -11.447  0.00  0.00     0.139 C 
ATOM     52  O   UNK d   0     -17.386 -16.917 -10.630  0.00  0.00    -0.650 OA
BRANCH  51  53
ATOM     53  O   UNK d   0     -17.805 -18.746 -11.890  0.00  0.00    -0.776 OA
ATOM     54  H   UNK d   0     -17.492 -19.418 -11.211  0.00  0.00     0.167 HD
ENDBRANCH  51  53
ENDBRANCH  50  51
ENDBRANCH  49  50
ENDBRANCH  24  49
BRANCH  21  55
ATOM     55  C   UNK d   0     -21.672 -14.690 -13.444  0.00  0.00     0.151 C 
BRANCH  55  56
ATOM     56  C   UNK d   0     -22.982 -14.206 -12.981  0.00  0.00     0.143 C 
ATOM     57  O   UNK d   0     -23.703 -13.453 -13.665  0.00  0.00    -0.650 OA
BRANCH  56  58
ATOM     58  O   UNK d   0     -23.417 -14.617 -11.722  0.00  0.00    -0.776 OA
ATOM     59  H   UNK d   0     -23.093 -15.557 -11.434  0.00  0.00     0.167 HD
ENDBRANCH  56  58
ENDBRANCH  55  56
ENDBRANCH  21  55
BRANCH  18  60
ATOM     60  C   UNK d   0     -20.073 -10.933 -16.928  0.00  0.00     0.151 C 
BRANCH  60  61
ATOM     61  C   UNK d   0     -21.344 -10.293 -17.299  0.00  0.00     0.143 C 
ATOM     62  O   UNK d   0     -22.253  -9.954 -16.541  0.00  0.00    -0.650 OA
BRANCH  61  63
ATOM     63  O   UNK d   0     -21.515 -10.050 -18.683  0.00  0.00    -0.776 OA
ATOM     64  H   UNK d   0     -20.735  -9.801 -19.266  0.00  0.00     0.167 HD
ENDBRANCH  61  63
ENDBRANCH  60  61
ENDBRANCH  18  60
BRANCH  14  65
ATOM     65  C   UNK d   0     -18.607  -8.277 -17.005  0.00  0.00     0.052 C 
BRANCH  65  66
ATOM     66  C   UNK d   0     -17.313  -8.651 -17.636  0.00  0.00     0.115 C 
BRANCH  66  67
ATOM     67  C   UNK d   0     -17.308  -9.427 -18.844  0.00  0.00     0.139 C 
ATOM     68  O   UNK d   0     -18.297  -9.304 -19.657  0.00  0.00    -0.650 OA
BRANCH  67  69
ATOM     69  O   UNK d   0     -16.338 -10.333 -19.273  0.00  0.00    -0.776 OA
ATOM     70  H   UNK d   0     -15.360 -10.030 -19.157  0.00  0.00     0.167 HD
ENDBRANCH  67  69
ENDBRANCH  66  67
ENDBRANCH  65  66
ENDBRANCH  14  65
ENDBRANCH   6   7
ENDBRANCH   5   6
ENDBRANCH   2   5
TORSDOF 28
ENDMDL
