MODEL 1
REMARK VINA RESULT:      -7.4      0.000      0.000
REMARK  28 active torsions:
REMARK  status: ('A' for Active; 'I' for Inactive)
REMARK    1  A    between atoms: C_2  and  O_3 
REMARK    2  A    between atoms: C_2  and  C_4 
REMARK    3  A    between atoms: C_4  and  C_5 
REMARK    4  A    between atoms: C_5  and  C_6 
REMARK    5  A    between atoms: C_7  and  C_8 
REMARK    6  A    between atoms: C_8  and  C_9 
REMARK    7  A    between atoms: C_9  and  O_11 
REMARK    8  A    between atoms: C_28  and  C_29 
REMARK    9  A    between atoms: C_29  and  C_30 
REMARK   10  A    between atoms: C_30  and  O_32 
REMARK   11  A    between atoms: C_33  and  C_34 
REMARK   12  A    between atoms: C_34  and  C_35 
REMARK   13  A    between atoms: C_35  and  C_36 
REMARK   14  A    between atoms: C_36  and  O_38 
REMARK   15  A    between atoms: C_39  and  C_40 
REMARK   16  A    between atoms: C_40  and  C_41 
REMARK   17  A    between atoms: C_41  and  C_42 
REMARK   18  A    between atoms: C_42  and  O_44 
REMARK   19  A    between atoms: C_45  and  C_46 
REMARK   20  A    between atoms: C_46  and  C_47 
REMARK   21  A    between atoms: C_47  and  O_49 
REMARK   22  A    between atoms: C_50  and  C_51 
REMARK   23  A    between atoms: C_51  and  C_52 
REMARK   24  A    between atoms: C_52  and  O_54 
REMARK   25  A    between atoms: C_55  and  C_56 
REMARK   26  A    between atoms: C_56  and  C_57 
REMARK   27  A    between atoms: C_57  and  C_58 
REMARK   28  A    between atoms: C_58  and  O_60 
ROOT
ATOM      1  O   UNK d   0     -26.930  -7.823  13.089  0.00  0.00    -0.650 OA
ATOM      2  C   UNK d   0     -26.093  -8.579  12.548  0.00  0.00     0.139 C 
ENDROOT
BRANCH   2   3
ATOM      3  O   UNK d   0     -25.552  -9.613  13.273  0.00  0.00    -0.776 OA
ATOM      4  H   UNK d   0     -24.771 -10.162  12.907  0.00  0.00     0.167 HD
ENDBRANCH   2   3
BRANCH   2   5
ATOM      5  C   UNK d   0     -25.690  -8.355  11.131  0.00  0.00     0.115 C 
BRANCH   5   6
ATOM      6  C   UNK d   0     -24.546  -7.380  11.066  0.00  0.00     0.052 C 
BRANCH   6   7
ATOM      7  C   UNK d   0     -24.975  -6.011  10.596  0.00  0.00    -0.020 A 
ATOM      8  C   UNK d   0     -25.014  -5.565   9.366  0.00  0.00    -0.011 A 
ATOM      9  C   UNK d   0     -25.483  -4.191   9.406  0.00  0.00     0.067 A 
ATOM     10  C   UNK d   0     -25.759  -3.187   8.464  0.00  0.00     0.062 C 
ATOM     11  N   UNK d   0     -25.701  -3.879  10.701  0.00  0.00    -0.248 NA
ATOM     12  C   UNK d   0     -26.475  -2.003   8.672  0.00  0.00     0.041 A 
ATOM     13  N   UNK d   0     -26.451  -1.120   9.688  0.00  0.00    -0.355 N 
ATOM     14  C   UNK d   0     -27.449  -1.623   7.731  0.00  0.00    -0.022 A 
ATOM     15  C   UNK d   0     -27.390  -0.193   9.420  0.00  0.00     0.042 A 
ATOM     16  H   UNK d   0     -25.771  -1.140  10.567  0.00  0.00     0.166 HD
ATOM     17  C   UNK d   0     -27.780   0.949  10.147  0.00  0.00     0.062 C 
ATOM     18  C   UNK d   0     -28.037  -0.475   8.201  0.00  0.00    -0.013 A 
ATOM     19  C   UNK d   0     -28.013   1.077  11.493  0.00  0.00     0.067 A 
ATOM     20  N   UNK d   0     -27.642   0.056  12.270  0.00  0.00    -0.248 NA
ATOM     21  C   UNK d   0     -28.606   2.081  12.360  0.00  0.00    -0.011 A 
ATOM     22  C   UNK d   0     -27.951   0.320  13.582  0.00  0.00     0.066 A 
ATOM     23  C   UNK d   0     -27.584  -0.646  14.507  0.00  0.00     0.062 C 
ATOM     24  C   UNK d   0     -28.570   1.630  13.580  0.00  0.00    -0.020 A 
ATOM     25  C   UNK d   0     -26.853  -1.823  14.280  0.00  0.00     0.041 A 
ATOM     26  N   UNK d   0     -26.888  -2.709  13.277  0.00  0.00    -0.355 N 
ATOM     27  C   UNK d   0     -25.873  -2.202  15.222  0.00  0.00    -0.022 A 
ATOM     28  C   UNK d   0     -25.958  -3.639  13.547  0.00  0.00     0.042 A 
ATOM     29  H   UNK d   0     -27.579  -2.693  12.399  0.00  0.00     0.166 HD
ATOM     30  C   UNK d   0     -25.566  -4.785  12.837  0.00  0.00     0.062 C 
ATOM     31  C   UNK d   0     -25.301  -3.350  14.766  0.00  0.00    -0.013 A 
ATOM     32  C   UNK d   0     -25.415  -4.932  11.467  0.00  0.00     0.066 A 
BRANCH   8  33
ATOM     33  C   UNK d   0     -24.646  -6.305   8.144  0.00  0.00     0.151 C 
BRANCH  33  34
ATOM     34  C   UNK d   0     -23.377  -5.840   7.556  0.00  0.00     0.143 C 
ATOM     35  O   UNK d   0     -22.323  -5.875   8.206  0.00  0.00    -0.650 OA
BRANCH  34  36
ATOM     36  O   UNK d   0     -23.367  -5.359   6.267  0.00  0.00    -0.776 OA
ATOM     37  H   UNK d   0     -22.586  -5.560   5.628  0.00  0.00     0.167 HD
ENDBRANCH  34  36
ENDBRANCH  33  34
ENDBRANCH   8  33
BRANCH  31  38
ATOM     38  C   UNK d   0     -24.189  -4.120  15.439  0.00  0.00     0.151 C 
BRANCH  38  39
ATOM     39  C   UNK d   0     -22.948  -4.078  14.696  0.00  0.00     0.143 C 
ATOM     40  O   UNK d   0     -22.330  -5.108  14.373  0.00  0.00    -0.650 OA
BRANCH  39  41
ATOM     41  O   UNK d   0     -22.414  -2.845  14.321  0.00  0.00    -0.776 OA
ATOM     42  H   UNK d   0     -22.212  -2.713  13.325  0.00  0.00     0.167 HD
ENDBRANCH  39  41
ENDBRANCH  38  39
ENDBRANCH  31  38
BRANCH  27  43
ATOM     43  C   UNK d   0     -25.472  -1.529  16.511  0.00  0.00     0.052 C 
BRANCH  43  44
ATOM     44  C   UNK d   0     -24.483  -0.425  16.319  0.00  0.00     0.115 C 
BRANCH  44  45
ATOM     45  C   UNK d   0     -24.307   0.223  17.644  0.00  0.00     0.139 C 
ATOM     46  O   UNK d   0     -24.359  -0.501  18.669  0.00  0.00    -0.650 OA
BRANCH  45  47
ATOM     47  O   UNK d   0     -24.087   1.576  17.791  0.00  0.00    -0.776 OA
ATOM     48  H   UNK d   0     -24.062   2.229  16.992  0.00  0.00     0.167 HD
ENDBRANCH  45  47
ENDBRANCH  44  45
ENDBRANCH  43  44
ENDBRANCH  27  43
BRANCH  24  49
ATOM     49  C   UNK d   0     -29.032   2.344  14.784  0.00  0.00     0.052 C 
BRANCH  49  50
ATOM     50  C   UNK d   0     -27.989   3.331  15.241  0.00  0.00     0.115 C 
BRANCH  50  51
ATOM     51  C   UNK d   0     -26.847   2.801  15.972  0.00  0.00     0.139 C 
ATOM     52  O   UNK d   0     -25.694   2.749  15.481  0.00  0.00    -0.650 OA
BRANCH  51  53
ATOM     53  O   UNK d   0     -27.018   2.327  17.263  0.00  0.00    -0.776 OA
ATOM     54  H   UNK d   0     -26.564   2.817  18.014  0.00  0.00     0.167 HD
ENDBRANCH  51  53
ENDBRANCH  50  51
ENDBRANCH  49  50
ENDBRANCH  24  49
BRANCH  21  55
ATOM     55  C   UNK d   0     -29.142   3.389  11.878  0.00  0.00     0.151 C 
BRANCH  55  56
ATOM     56  C   UNK d   0     -30.387   3.225  11.111  0.00  0.00     0.143 C 
ATOM     57  O   UNK d   0     -31.263   2.392  11.416  0.00  0.00    -0.650 OA
BRANCH  56  58
ATOM     58  O   UNK d   0     -30.577   4.046  10.000  0.00  0.00    -0.776 OA
ATOM     59  H   UNK d   0     -30.067   4.947  10.031  0.00  0.00     0.167 HD
ENDBRANCH  56  58
ENDBRANCH  55  56
ENDBRANCH  21  55
BRANCH  18  60
ATOM     60  C   UNK d   0     -29.146   0.276   7.505  0.00  0.00     0.151 C 
BRANCH  60  61
ATOM     61  C   UNK d   0     -30.323   0.159   8.379  0.00  0.00     0.143 C 
ATOM     62  O   UNK d   0     -30.714  -0.851   8.966  0.00  0.00    -0.650 OA
BRANCH  61  63
ATOM     63  O   UNK d   0     -31.070   1.350   8.547  0.00  0.00    -0.776 OA
ATOM     64  H   UNK d   0     -31.746   1.638   7.862  0.00  0.00     0.167 HD
ENDBRANCH  61  63
ENDBRANCH  60  61
ENDBRANCH  18  60
BRANCH  14  65
ATOM     65  C   UNK d   0     -27.794  -2.200   6.388  0.00  0.00     0.052 C 
BRANCH  65  66
ATOM     66  C   UNK d   0     -26.728  -1.990   5.372  0.00  0.00     0.115 C 
BRANCH  66  67
ATOM     67  C   UNK d   0     -25.963  -3.109   4.900  0.00  0.00     0.139 C 
ATOM     68  O   UNK d   0     -26.575  -4.216   4.669  0.00  0.00    -0.650 OA
BRANCH  67  69
ATOM     69  O   UNK d   0     -24.592  -3.162   4.650  0.00  0.00    -0.776 OA
ATOM     70  H   UNK d   0     -24.305  -3.747   3.852  0.00  0.00     0.167 HD
ENDBRANCH  67  69
ENDBRANCH  66  67
ENDBRANCH  65  66
ENDBRANCH  14  65
ENDBRANCH   6   7
ENDBRANCH   5   6
ENDBRANCH   2   5
TORSDOF 28
ENDMDL
MODEL 2
REMARK VINA RESULT:      -7.2      1.622      2.001
REMARK  28 active torsions:
REMARK  status: ('A' for Active; 'I' for Inactive)
REMARK    1  A    between atoms: C_2  and  O_3 
REMARK    2  A    between atoms: C_2  and  C_4 
REMARK    3  A    between atoms: C_4  and  C_5 
REMARK    4  A    between atoms: C_5  and  C_6 
REMARK    5  A    between atoms: C_7  and  C_8 
REMARK    6  A    between atoms: C_8  and  C_9 
REMARK    7  A    between atoms: C_9  and  O_11 
REMARK    8  A    between atoms: C_28  and  C_29 
REMARK    9  A    between atoms: C_29  and  C_30 
REMARK   10  A    between atoms: C_30  and  O_32 
REMARK   11  A    between atoms: C_33  and  C_34 
REMARK   12  A    between atoms: C_34  and  C_35 
REMARK   13  A    between atoms: C_35  and  C_36 
REMARK   14  A    between atoms: C_36  and  O_38 
REMARK   15  A    between atoms: C_39  and  C_40 
REMARK   16  A    between atoms: C_40  and  C_41 
REMARK   17  A    between atoms: C_41  and  C_42 
REMARK   18  A    between atoms: C_42  and  O_44 
REMARK   19  A    between atoms: C_45  and  C_46 
REMARK   20  A    between atoms: C_46  and  C_47 
REMARK   21  A    between atoms: C_47  and  O_49 
REMARK   22  A    between atoms: C_50  and  C_51 
REMARK   23  A    between atoms: C_51  and  C_52 
REMARK   24  A    between atoms: C_52  and  O_54 
REMARK   25  A    between atoms: C_55  and  C_56 
REMARK   26  A    between atoms: C_56  and  C_57 
REMARK   27  A    between atoms: C_57  and  C_58 
REMARK   28  A    between atoms: C_58  and  O_60 
ROOT
ATOM      1  O   UNK d   0     -24.529  -8.103   7.607  0.00  0.00    -0.650 OA
ATOM      2  C   UNK d   0     -25.410  -8.182   8.491  0.00  0.00     0.139 C 
ENDROOT
BRANCH   2   3
ATOM      3  O   UNK d   0     -26.571  -8.868   8.226  0.00  0.00    -0.776 OA
ATOM      4  H   UNK d   0     -27.318  -8.446   7.671  0.00  0.00     0.167 HD
ENDBRANCH   2   3
BRANCH   2   5
ATOM      5  C   UNK d   0     -25.199  -7.535   9.818  0.00  0.00     0.115 C 
BRANCH   5   6
ATOM      6  C   UNK d   0     -24.173  -6.440   9.703  0.00  0.00     0.052 C 
BRANCH   6   7
ATOM      7  C   UNK d   0     -24.794  -5.064   9.665  0.00  0.00    -0.020 A 
ATOM      8  C   UNK d   0     -25.045  -4.330   8.612  0.00  0.00    -0.011 A 
ATOM      9  C   UNK d   0     -25.635  -3.083   9.069  0.00  0.00     0.067 A 
ATOM     10  C   UNK d   0     -26.134  -1.918   8.465  0.00  0.00     0.062 C 
ATOM     11  N   UNK d   0     -25.700  -3.140  10.415  0.00  0.00    -0.248 NA
ATOM     12  C   UNK d   0     -26.924  -0.928   9.059  0.00  0.00     0.041 A 
ATOM     13  N   UNK d   0     -26.845  -0.336  10.266  0.00  0.00    -0.355 N 
ATOM     14  C   UNK d   0     -28.051  -0.451   8.365  0.00  0.00    -0.022 A 
ATOM     15  C   UNK d   0     -27.897   0.500  10.359  0.00  0.00     0.042 A 
ATOM     16  H   UNK d   0     -26.051  -0.490  11.028  0.00  0.00     0.166 HD
ATOM     17  C   UNK d   0     -28.291   1.360  11.403  0.00  0.00     0.062 C 
ATOM     18  C   UNK d   0     -28.676   0.455   9.186  0.00  0.00    -0.013 A 
ATOM     19  C   UNK d   0     -28.346   1.111  12.751  0.00  0.00     0.067 A 
ATOM     20  N   UNK d   0     -27.774  -0.016  13.181  0.00  0.00    -0.248 NA
ATOM     21  C   UNK d   0     -28.907   1.778  13.914  0.00  0.00    -0.011 A 
ATOM     22  C   UNK d   0     -27.922  -0.136  14.542  0.00  0.00     0.066 A 
ATOM     23  C   UNK d   0     -27.339  -1.249  15.129  0.00  0.00     0.062 C 
ATOM     24  C   UNK d   0     -28.659   1.041  14.958  0.00  0.00    -0.020 A 
ATOM     25  C   UNK d   0     -26.538  -2.225  14.517  0.00  0.00     0.041 A 
ATOM     26  N   UNK d   0     -26.625  -2.825  13.324  0.00  0.00    -0.355 N 
ATOM     27  C   UNK d   0     -25.404  -2.701  15.212  0.00  0.00    -0.022 A 
ATOM     28  C   UNK d   0     -25.582  -3.665  13.232  0.00  0.00     0.042 A 
ATOM     29  H   UNK d   0     -27.430  -2.676  12.563  0.00  0.00     0.166 HD
ATOM     30  C   UNK d   0     -25.184  -4.533  12.204  0.00  0.00     0.062 C 
ATOM     31  C   UNK d   0     -24.794  -3.612  14.406  0.00  0.00    -0.013 A 
ATOM     32  C   UNK d   0     -25.210  -4.307  10.837  0.00  0.00     0.066 A 
BRANCH   8  33
ATOM     33  C   UNK d   0     -24.780  -4.683   7.204  0.00  0.00     0.151 C 
BRANCH  33  34
ATOM     34  C   UNK d   0     -23.637  -3.945   6.637  0.00  0.00     0.143 C 
ATOM     35  O   UNK d   0     -23.731  -2.740   6.361  0.00  0.00    -0.650 OA
BRANCH  34  36
ATOM     36  O   UNK d   0     -22.453  -4.606   6.409  0.00  0.00    -0.776 OA
ATOM     37  H   UNK d   0     -22.402  -5.634   6.429  0.00  0.00     0.167 HD
ENDBRANCH  34  36
ENDBRANCH  33  34
ENDBRANCH   8  33
BRANCH  31  38
ATOM     38  C   UNK d   0     -23.530  -4.377  14.723  0.00  0.00     0.151 C 
BRANCH  38  39
ATOM     39  C   UNK d   0     -22.351  -3.785  14.128  0.00  0.00     0.143 C 
ATOM     40  O   UNK d   0     -21.440  -4.472  13.633  0.00  0.00    -0.650 OA
BRANCH  39  41
ATOM     41  O   UNK d   0     -22.219  -2.397  14.101  0.00  0.00    -0.776 OA
ATOM     42  H   UNK d   0     -23.033  -1.862  13.784  0.00  0.00     0.167 HD
ENDBRANCH  39  41
ENDBRANCH  38  39
ENDBRANCH  31  38
BRANCH  27  43
ATOM     43  C   UNK d   0     -24.896  -2.330  16.583  0.00  0.00     0.052 C 
BRANCH  43  44
ATOM     44  C   UNK d   0     -24.123  -1.051  16.600  0.00  0.00     0.115 C 
BRANCH  44  45
ATOM     45  C   UNK d   0     -24.329  -0.449  17.943  0.00  0.00     0.139 C 
ATOM     46  O   UNK d   0     -24.420  -1.221  18.930  0.00  0.00    -0.650 OA
BRANCH  45  47
ATOM     47  O   UNK d   0     -24.418   0.911  18.147  0.00  0.00    -0.776 OA
ATOM     48  H   UNK d   0     -24.544   1.330  19.082  0.00  0.00     0.167 HD
ENDBRANCH  45  47
ENDBRANCH  44  45
ENDBRANCH  43  44
ENDBRANCH  27  43
BRANCH  24  49
ATOM     49  C   UNK d   0     -29.017   1.360  16.351  0.00  0.00     0.052 C 
BRANCH  49  50
ATOM     50  C   UNK d   0     -27.776   1.630  17.162  0.00  0.00     0.115 C 
BRANCH  50  51
ATOM     51  C   UNK d   0     -27.173   2.950  17.037  0.00  0.00     0.139 C 
ATOM     52  O   UNK d   0     -25.933   3.133  17.067  0.00  0.00    -0.650 OA
BRANCH  51  53
ATOM     53  O   UNK d   0     -27.985   4.063  16.880  0.00  0.00    -0.776 OA
ATOM     54  H   UNK d   0     -28.484   4.169  16.014  0.00  0.00     0.167 HD
ENDBRANCH  51  53
ENDBRANCH  50  51
ENDBRANCH  49  50
ENDBRANCH  24  49
BRANCH  21  55
ATOM     55  C   UNK d   0     -29.628   3.084  13.861  0.00  0.00     0.151 C 
BRANCH  55  56
ATOM     56  C   UNK d   0     -30.994   2.938  13.336  0.00  0.00     0.143 C 
ATOM     57  O   UNK d   0     -31.925   2.446  14.004  0.00  0.00    -0.650 OA
BRANCH  56  58
ATOM     58  O   UNK d   0     -31.240   3.375  12.036  0.00  0.00    -0.776 OA
ATOM     59  H   UNK d   0     -31.296   4.404  11.924  0.00  0.00     0.167 HD
ENDBRANCH  56  58
ENDBRANCH  55  56
ENDBRANCH  21  55
BRANCH  18  60
ATOM     60  C   UNK d   0     -29.937   1.208   8.841  0.00  0.00     0.151 C 
BRANCH  60  61
ATOM     61  C   UNK d   0     -31.033   0.488   9.510  0.00  0.00     0.143 C 
ATOM     62  O   UNK d   0     -31.150  -0.730   9.640  0.00  0.00    -0.650 OA
BRANCH  61  63
ATOM     63  O   UNK d   0     -32.049   1.310  10.054  0.00  0.00    -0.776 OA
ATOM     64  H   UNK d   0     -31.840   1.994  10.760  0.00  0.00     0.167 HD
ENDBRANCH  61  63
ENDBRANCH  60  61
ENDBRANCH  18  60
BRANCH  14  65
ATOM     65  C   UNK d   0     -28.522  -0.709   6.962  0.00  0.00     0.052 C 
BRANCH  65  66
ATOM     66  C   UNK d   0     -27.825   0.131   5.951  0.00  0.00     0.115 C 
BRANCH  66  67
ATOM     67  C   UNK d   0     -26.795  -0.447   5.134  0.00  0.00     0.139 C 
ATOM     68  O   UNK d   0     -26.142   0.322   4.335  0.00  0.00    -0.650 OA
BRANCH  67  69
ATOM     69  O   UNK d   0     -26.392  -1.780   5.085  0.00  0.00    -0.776 OA
ATOM     70  H   UNK d   0     -26.884  -2.421   5.726  0.00  0.00     0.167 HD
ENDBRANCH  67  69
ENDBRANCH  66  67
ENDBRANCH  65  66
ENDBRANCH  14  65
ENDBRANCH   6   7
ENDBRANCH   5   6
ENDBRANCH   2   5
TORSDOF 28
ENDMDL
MODEL 3
REMARK VINA RESULT:      -7.1      3.150      8.359
REMARK  28 active torsions:
REMARK  status: ('A' for Active; 'I' for Inactive)
REMARK    1  A    between atoms: C_2  and  O_3 
REMARK    2  A    between atoms: C_2  and  C_4 
REMARK    3  A    between atoms: C_4  and  C_5 
REMARK    4  A    between atoms: C_5  and  C_6 
REMARK    5  A    between atoms: C_7  and  C_8 
REMARK    6  A    between atoms: C_8  and  C_9 
REMARK    7  A    between atoms: C_9  and  O_11 
REMARK    8  A    between atoms: C_28  and  C_29 
REMARK    9  A    between atoms: C_29  and  C_30 
REMARK   10  A    between atoms: C_30  and  O_32 
REMARK   11  A    between atoms: C_33  and  C_34 
REMARK   12  A    between atoms: C_34  and  C_35 
REMARK   13  A    between atoms: C_35  and  C_36 
REMARK   14  A    between atoms: C_36  and  O_38 
REMARK   15  A    between atoms: C_39  and  C_40 
REMARK   16  A    between atoms: C_40  and  C_41 
REMARK   17  A    between atoms: C_41  and  C_42 
REMARK   18  A    between atoms: C_42  and  O_44 
REMARK   19  A    between atoms: C_45  and  C_46 
REMARK   20  A    between atoms: C_46  and  C_47 
REMARK   21  A    between atoms: C_47  and  O_49 
REMARK   22  A    between atoms: C_50  and  C_51 
REMARK   23  A    between atoms: C_51  and  C_52 
REMARK   24  A    between atoms: C_52  and  O_54 
REMARK   25  A    between atoms: C_55  and  C_56 
REMARK   26  A    between atoms: C_56  and  C_57 
REMARK   27  A    between atoms: C_57  and  C_58 
REMARK   28  A    between atoms: C_58  and  O_60 
ROOT
ATOM      1  O   UNK d   0     -24.279  -2.203   0.588  0.00  0.00    -0.650 OA
ATOM      2  C   UNK d   0     -24.556  -1.714   1.706  0.00  0.00     0.139 C 
ENDROOT
BRANCH   2   3
ATOM      3  O   UNK d   0     -24.099  -0.458   2.024  0.00  0.00    -0.776 OA
ATOM      4  H   UNK d   0     -24.085  -0.131   2.992  0.00  0.00     0.167 HD
ENDBRANCH   2   3
BRANCH   2   5
ATOM      5  C   UNK d   0     -25.374  -2.491   2.680  0.00  0.00     0.115 C 
BRANCH   5   6
ATOM      6  C   UNK d   0     -26.684  -1.793   2.929  0.00  0.00     0.052 C 
BRANCH   6   7
ATOM      7  C   UNK d   0     -26.843  -1.352   4.364  0.00  0.00    -0.020 A 
ATOM      8  C   UNK d   0     -27.123  -0.152   4.804  0.00  0.00    -0.011 A 
ATOM      9  C   UNK d   0     -27.166  -0.209   6.256  0.00  0.00     0.067 A 
ATOM     10  C   UNK d   0     -27.425   0.696   7.297  0.00  0.00     0.062 C 
ATOM     11  N   UNK d   0     -26.895  -1.481   6.615  0.00  0.00    -0.248 NA
ATOM     12  C   UNK d   0     -27.695   0.392   8.636  0.00  0.00     0.041 A 
ATOM     13  N   UNK d   0     -27.131  -0.498   9.475  0.00  0.00    -0.355 N 
ATOM     14  C   UNK d   0     -28.762   1.044   9.280  0.00  0.00    -0.022 A 
ATOM     15  C   UNK d   0     -27.817  -0.432  10.631  0.00  0.00     0.042 A 
ATOM     16  H   UNK d   0     -26.252  -1.145   9.260  0.00  0.00     0.166 HD
ATOM     17  C   UNK d   0     -27.646  -1.142  11.836  0.00  0.00     0.062 C 
ATOM     18  C   UNK d   0     -28.848   0.524  10.547  0.00  0.00    -0.013 A 
ATOM     19  C   UNK d   0     -27.425  -2.482  12.023  0.00  0.00     0.067 A 
ATOM     20  N   UNK d   0     -27.132  -3.204  10.938  0.00  0.00    -0.248 NA
ATOM     21  C   UNK d   0     -27.436  -3.395  13.154  0.00  0.00    -0.011 A 
ATOM     22  C   UNK d   0     -26.953  -4.523  11.277  0.00  0.00     0.066 A 
ATOM     23  C   UNK d   0     -26.605  -5.383  10.246  0.00  0.00     0.062 C 
ATOM     24  C   UNK d   0     -27.163  -4.589  12.710  0.00  0.00    -0.020 A 
ATOM     25  C   UNK d   0     -26.325  -5.055   8.910  0.00  0.00     0.041 A 
ATOM     26  N   UNK d   0     -26.896  -4.182   8.072  0.00  0.00    -0.355 N 
ATOM     27  C   UNK d   0     -25.251  -5.707   8.266  0.00  0.00    -0.022 A 
ATOM     28  C   UNK d   0     -26.219  -4.252   6.915  0.00  0.00     0.042 A 
ATOM     29  H   UNK d   0     -27.786  -3.540   8.286  0.00  0.00     0.166 HD
ATOM     30  C   UNK d   0     -26.384  -3.558   5.705  0.00  0.00     0.062 C 
ATOM     31  C   UNK d   0     -25.177  -5.205   7.003  0.00  0.00    -0.013 A 
ATOM     32  C   UNK d   0     -26.692  -2.220   5.523  0.00  0.00     0.066 A 
BRANCH   8  33
ATOM     33  C   UNK d   0     -27.351   1.057   3.992  0.00  0.00     0.151 C 
BRANCH  33  34
ATOM     34  C   UNK d   0     -26.232   1.350   3.078  0.00  0.00     0.143 C 
ATOM     35  O   UNK d   0     -26.406   1.394   1.852  0.00  0.00    -0.650 OA
BRANCH  34  36
ATOM     36  O   UNK d   0     -24.978   1.577   3.596  0.00  0.00    -0.776 OA
ATOM     37  H   UNK d   0     -24.439   0.821   4.040  0.00  0.00     0.167 HD
ENDBRANCH  34  36
ENDBRANCH  33  34
ENDBRANCH   8  33
BRANCH  31  38
ATOM     38  C   UNK d   0     -24.169  -5.594   5.947  0.00  0.00     0.151 C 
BRANCH  38  39
ATOM     39  C   UNK d   0     -22.912  -4.890   6.083  0.00  0.00     0.143 C 
ATOM     40  O   UNK d   0     -21.823  -5.404   5.772  0.00  0.00    -0.650 OA
BRANCH  39  41
ATOM     41  O   UNK d   0     -22.906  -3.586   6.579  0.00  0.00    -0.776 OA
ATOM     42  H   UNK d   0     -22.579  -2.852   5.943  0.00  0.00     0.167 HD
ENDBRANCH  39  41
ENDBRANCH  38  39
ENDBRANCH  31  38
BRANCH  27  43
ATOM     43  C   UNK d   0     -24.318  -6.767   8.795  0.00  0.00     0.052 C 
BRANCH  43  44
ATOM     44  C   UNK d   0     -24.574  -8.122   8.218  0.00  0.00     0.115 C 
BRANCH  44  45
ATOM     45  C   UNK d   0     -25.773  -8.659   8.911  0.00  0.00     0.139 C 
ATOM     46  O   UNK d   0     -26.889  -8.531   8.349  0.00  0.00    -0.650 OA
BRANCH  45  47
ATOM     47  O   UNK d   0     -25.709  -9.292  10.133  0.00  0.00    -0.776 OA
ATOM     48  H   UNK d   0     -25.437 -10.283  10.238  0.00  0.00     0.167 HD
ENDBRANCH  45  47
ENDBRANCH  44  45
ENDBRANCH  43  44
ENDBRANCH  27  43
BRANCH  24  49
ATOM     49  C   UNK d   0     -27.034  -5.809  13.524  0.00  0.00     0.052 C 
BRANCH  49  50
ATOM     50  C   UNK d   0     -25.866  -6.635  13.049  0.00  0.00     0.115 C 
BRANCH  50  51
ATOM     51  C   UNK d   0     -26.081  -8.068  12.901  0.00  0.00     0.139 C 
ATOM     52  O   UNK d   0     -27.171  -8.552  12.512  0.00  0.00    -0.650 OA
BRANCH  51  53
ATOM     53  O   UNK d   0     -25.055  -8.951  13.198  0.00  0.00    -0.776 OA
ATOM     54  H   UNK d   0     -24.521  -9.333  12.438  0.00  0.00     0.167 HD
ENDBRANCH  51  53
ENDBRANCH  50  51
ENDBRANCH  49  50
ENDBRANCH  24  49
BRANCH  21  55
ATOM     55  C   UNK d   0     -27.713  -2.979  14.561  0.00  0.00     0.151 C 
BRANCH  55  56
ATOM     56  C   UNK d   0     -29.127  -3.166  14.922  0.00  0.00     0.143 C 
ATOM     57  O   UNK d   0     -29.512  -4.059  15.703  0.00  0.00    -0.650 OA
BRANCH  56  58
ATOM     58  O   UNK d   0     -30.061  -2.298  14.359  0.00  0.00    -0.776 OA
ATOM     59  H   UNK d   0     -29.924  -1.298  14.593  0.00  0.00     0.167 HD
ENDBRANCH  56  58
ENDBRANCH  55  56
ENDBRANCH  21  55
BRANCH  18  60
ATOM     60  C   UNK d   0     -29.864   0.935  11.584  0.00  0.00     0.151 C 
BRANCH  60  61
ATOM     61  C   UNK d   0     -31.014   0.037  11.400  0.00  0.00     0.143 C 
ATOM     62  O   UNK d   0     -31.110  -1.133  11.773  0.00  0.00    -0.650 OA
BRANCH  61  63
ATOM     63  O   UNK d   0     -32.118   0.603  10.717  0.00  0.00    -0.776 OA
ATOM     64  H   UNK d   0     -32.869   1.042  11.219  0.00  0.00     0.167 HD
ENDBRANCH  61  63
ENDBRANCH  60  61
ENDBRANCH  18  60
BRANCH  14  65
ATOM     65  C   UNK d   0     -29.635   2.180   8.826  0.00  0.00     0.052 C 
BRANCH  65  66
ATOM     66  C   UNK d   0     -29.437   3.420   9.623  0.00  0.00     0.115 C 
BRANCH  66  67
ATOM     67  C   UNK d   0     -30.574   4.101  10.175  0.00  0.00     0.139 C 
ATOM     68  O   UNK d   0     -30.424   5.307  10.595  0.00  0.00    -0.650 OA
BRANCH  67  69
ATOM     69  O   UNK d   0     -31.872   3.612  10.324  0.00  0.00    -0.776 OA
ATOM     70  H   UNK d   0     -32.580   4.302  10.613  0.00  0.00     0.167 HD
ENDBRANCH  67  69
ENDBRANCH  66  67
ENDBRANCH  65  66
ENDBRANCH  14  65
ENDBRANCH   6   7
ENDBRANCH   5   6
ENDBRANCH   2   5
TORSDOF 28
ENDMDL
MODEL 4
REMARK VINA RESULT:      -7.1      3.291     10.494
REMARK  28 active torsions:
REMARK  status: ('A' for Active; 'I' for Inactive)
REMARK    1  A    between atoms: C_2  and  O_3 
REMARK    2  A    between atoms: C_2  and  C_4 
REMARK    3  A    between atoms: C_4  and  C_5 
REMARK    4  A    between atoms: C_5  and  C_6 
REMARK    5  A    between atoms: C_7  and  C_8 
REMARK    6  A    between atoms: C_8  and  C_9 
REMARK    7  A    between atoms: C_9  and  O_11 
REMARK    8  A    between atoms: C_28  and  C_29 
REMARK    9  A    between atoms: C_29  and  C_30 
REMARK   10  A    between atoms: C_30  and  O_32 
REMARK   11  A    between atoms: C_33  and  C_34 
REMARK   12  A    between atoms: C_34  and  C_35 
REMARK   13  A    between atoms: C_35  and  C_36 
REMARK   14  A    between atoms: C_36  and  O_38 
REMARK   15  A    between atoms: C_39  and  C_40 
REMARK   16  A    between atoms: C_40  and  C_41 
REMARK   17  A    between atoms: C_41  and  C_42 
REMARK   18  A    between atoms: C_42  and  O_44 
REMARK   19  A    between atoms: C_45  and  C_46 
REMARK   20  A    between atoms: C_46  and  C_47 
REMARK   21  A    between atoms: C_47  and  O_49 
REMARK   22  A    between atoms: C_50  and  C_51 
REMARK   23  A    between atoms: C_51  and  C_52 
REMARK   24  A    between atoms: C_52  and  O_54 
REMARK   25  A    between atoms: C_55  and  C_56 
REMARK   26  A    between atoms: C_56  and  C_57 
REMARK   27  A    between atoms: C_57  and  C_58 
REMARK   28  A    between atoms: C_58  and  O_60 
ROOT
ATOM      1  O   UNK d   0     -33.319   2.501   9.688  0.00  0.00    -0.650 OA
ATOM      2  C   UNK d   0     -32.354   3.221   9.344  0.00  0.00     0.139 C 
ENDROOT
BRANCH   2   3
ATOM      3  O   UNK d   0     -32.370   4.560   9.652  0.00  0.00    -0.776 OA
ATOM      4  H   UNK d   0     -31.501   5.088   9.754  0.00  0.00     0.167 HD
ENDBRANCH   2   3
BRANCH   2   5
ATOM      5  C   UNK d   0     -31.202   2.627   8.608  0.00  0.00     0.115 C 
BRANCH   5   6
ATOM      6  C   UNK d   0     -29.930   2.836   9.383  0.00  0.00     0.052 C 
BRANCH   6   7
ATOM      7  C   UNK d   0     -29.638   1.705  10.339  0.00  0.00    -0.020 A 
ATOM      8  C   UNK d   0     -29.859   1.672  11.628  0.00  0.00    -0.011 A 
ATOM      9  C   UNK d   0     -29.409   0.382  12.124  0.00  0.00     0.067 A 
ATOM     10  C   UNK d   0     -29.383  -0.273  13.365  0.00  0.00     0.062 C 
ATOM     11  N   UNK d   0     -28.922  -0.305  11.069  0.00  0.00    -0.248 NA
ATOM     12  C   UNK d   0     -29.162  -1.634  13.601  0.00  0.00     0.041 A 
ATOM     13  N   UNK d   0     -28.272  -2.493  13.067  0.00  0.00    -0.355 N 
ATOM     14  C   UNK d   0     -30.005  -2.315  14.497  0.00  0.00    -0.022 A 
ATOM     15  C   UNK d   0     -28.535  -3.703  13.596  0.00  0.00     0.042 A 
ATOM     16  H   UNK d   0     -27.463  -2.245  12.346  0.00  0.00     0.166 HD
ATOM     17  C   UNK d   0     -27.908  -4.947  13.384  0.00  0.00     0.062 C 
ATOM     18  C   UNK d   0     -29.615  -3.631  14.497  0.00  0.00    -0.013 A 
ATOM     19  C   UNK d   0     -27.519  -5.527  12.204  0.00  0.00     0.067 A 
ATOM     20  N   UNK d   0     -27.544  -4.756  11.114  0.00  0.00    -0.248 NA
ATOM     21  C   UNK d   0     -27.070  -6.845  11.786  0.00  0.00    -0.011 A 
ATOM     22  C   UNK d   0     -27.145  -5.474  10.013  0.00  0.00     0.066 A 
ATOM     23  C   UNK d   0     -27.089  -4.781   8.813  0.00  0.00     0.062 C 
ATOM     24  C   UNK d   0     -26.857  -6.808  10.502  0.00  0.00    -0.020 A 
ATOM     25  C   UNK d   0     -27.302  -3.410   8.600  0.00  0.00     0.041 A 
ATOM     26  N   UNK d   0     -28.196  -2.560   9.119  0.00  0.00    -0.355 N 
ATOM     27  C   UNK d   0     -26.452  -2.726   7.703  0.00  0.00    -0.022 A 
ATOM     28  C   UNK d   0     -27.942  -1.354   8.587  0.00  0.00     0.042 A 
ATOM     29  H   UNK d   0     -29.015  -2.813   9.836  0.00  0.00     0.166 HD
ATOM     30  C   UNK d   0     -28.562  -0.110   8.781  0.00  0.00     0.062 C 
ATOM     31  C   UNK d   0     -26.850  -1.425   7.690  0.00  0.00    -0.013 A 
ATOM     32  C   UNK d   0     -29.031   0.436   9.965  0.00  0.00     0.066 A 
BRANCH   8  33
ATOM     33  C   UNK d   0     -30.452   2.742  12.451  0.00  0.00     0.151 C 
BRANCH  33  34
ATOM     34  C   UNK d   0     -31.749   2.357  13.039  0.00  0.00     0.143 C 
ATOM     35  O   UNK d   0     -32.443   1.470  12.523  0.00  0.00    -0.650 OA
BRANCH  34  36
ATOM     36  O   UNK d   0     -32.191   2.995  14.174  0.00  0.00    -0.776 OA
ATOM     37  H   UNK d   0     -32.445   3.992  14.162  0.00  0.00     0.167 HD
ENDBRANCH  34  36
ENDBRANCH  33  34
ENDBRANCH   8  33
BRANCH  31  38
ATOM     38  C   UNK d   0     -26.223  -0.310   6.884  0.00  0.00     0.151 C 
BRANCH  38  39
ATOM     39  C   UNK d   0     -26.889  -0.090   5.617  0.00  0.00     0.143 C 
ATOM     40  O   UNK d   0     -26.673  -0.801   4.620  0.00  0.00    -0.650 OA
BRANCH  39  41
ATOM     41  O   UNK d   0     -27.807   0.952   5.497  0.00  0.00    -0.776 OA
ATOM     42  H   UNK d   0     -27.521   1.865   5.863  0.00  0.00     0.167 HD
ENDBRANCH  39  41
ENDBRANCH  38  39
ENDBRANCH  31  38
BRANCH  27  43
ATOM     43  C   UNK d   0     -25.306  -3.254   6.878  0.00  0.00     0.052 C 
BRANCH  43  44
ATOM     44  C   UNK d   0     -25.741  -3.873   5.589  0.00  0.00     0.115 C 
BRANCH  44  45
ATOM     45  C   UNK d   0     -24.506  -4.321   4.895  0.00  0.00     0.139 C 
ATOM     46  O   UNK d   0     -24.326  -3.951   3.708  0.00  0.00    -0.650 OA
BRANCH  45  47
ATOM     47  O   UNK d   0     -23.555  -5.115   5.499  0.00  0.00    -0.776 OA
ATOM     48  H   UNK d   0     -23.740  -5.653   6.361  0.00  0.00     0.167 HD
ENDBRANCH  45  47
ENDBRANCH  44  45
ENDBRANCH  43  44
ENDBRANCH  27  43
BRANCH  24  49
ATOM     49  C   UNK d   0     -26.355  -7.917   9.673  0.00  0.00     0.052 C 
BRANCH  49  50
ATOM     50  C   UNK d   0     -24.903  -7.702   9.332  0.00  0.00     0.115 C 
BRANCH  50  51
ATOM     51  C   UNK d   0     -24.539  -7.729   7.922  0.00  0.00     0.139 C 
ATOM     52  O   UNK d   0     -25.190  -7.114   7.044  0.00  0.00    -0.650 OA
BRANCH  51  53
ATOM     53  O   UNK d   0     -23.434  -8.458   7.512  0.00  0.00    -0.776 OA
ATOM     54  H   UNK d   0     -23.067  -9.156   8.135  0.00  0.00     0.167 HD
ENDBRANCH  51  53
ENDBRANCH  50  51
ENDBRANCH  49  50
ENDBRANCH  24  49
BRANCH  21  55
ATOM     55  C   UNK d   0     -26.896  -8.001  12.713  0.00  0.00     0.151 C 
BRANCH  55  56
ATOM     56  C   UNK d   0     -25.481  -8.248  13.029  0.00  0.00     0.143 C 
ATOM     57  O   UNK d   0     -24.607  -7.362  12.947  0.00  0.00    -0.650 OA
BRANCH  56  58
ATOM     58  O   UNK d   0     -25.120  -9.532  13.434  0.00  0.00    -0.776 OA
ATOM     59  H   UNK d   0     -25.336  -9.754  14.422  0.00  0.00     0.167 HD
ENDBRANCH  56  58
ENDBRANCH  55  56
ENDBRANCH  21  55
BRANCH  18  60
ATOM     60  C   UNK d   0     -30.258  -4.724  15.315  0.00  0.00     0.151 C 
BRANCH  60  61
ATOM     61  C   UNK d   0     -31.534  -5.029  14.650  0.00  0.00     0.143 C 
ATOM     62  O   UNK d   0     -31.777  -4.962  13.444  0.00  0.00    -0.650 OA
BRANCH  61  63
ATOM     63  O   UNK d   0     -32.578  -5.443  15.511  0.00  0.00    -0.776 OA
ATOM     64  H   UNK d   0     -33.203  -4.775  15.926  0.00  0.00     0.167 HD
ENDBRANCH  61  63
ENDBRANCH  60  61
ENDBRANCH  18  60
BRANCH  14  65
ATOM     65  C   UNK d   0     -31.076  -1.803  15.418  0.00  0.00     0.052 C 
BRANCH  65  66
ATOM     66  C   UNK d   0     -32.365  -1.541  14.722  0.00  0.00     0.115 C 
BRANCH  66  67
ATOM     67  C   UNK d   0     -33.559  -2.204  15.164  0.00  0.00     0.139 C 
ATOM     68  O   UNK d   0     -34.557  -2.275  14.355  0.00  0.00    -0.650 OA
BRANCH  67  69
ATOM     69  O   UNK d   0     -33.795  -2.806  16.400  0.00  0.00    -0.776 OA
ATOM     70  H   UNK d   0     -34.343  -3.678  16.376  0.00  0.00     0.167 HD
ENDBRANCH  67  69
ENDBRANCH  66  67
ENDBRANCH  65  66
ENDBRANCH  14  65
ENDBRANCH   6   7
ENDBRANCH   5   6
ENDBRANCH   2   5
TORSDOF 28
ENDMDL
MODEL 5
REMARK VINA RESULT:      -6.9      3.387      8.549
REMARK  28 active torsions:
REMARK  status: ('A' for Active; 'I' for Inactive)
REMARK    1  A    between atoms: C_2  and  O_3 
REMARK    2  A    between atoms: C_2  and  C_4 
REMARK    3  A    between atoms: C_4  and  C_5 
REMARK    4  A    between atoms: C_5  and  C_6 
REMARK    5  A    between atoms: C_7  and  C_8 
REMARK    6  A    between atoms: C_8  and  C_9 
REMARK    7  A    between atoms: C_9  and  O_11 
REMARK    8  A    between atoms: C_28  and  C_29 
REMARK    9  A    between atoms: C_29  and  C_30 
REMARK   10  A    between atoms: C_30  and  O_32 
REMARK   11  A    between atoms: C_33  and  C_34 
REMARK   12  A    between atoms: C_34  and  C_35 
REMARK   13  A    between atoms: C_35  and  C_36 
REMARK   14  A    between atoms: C_36  and  O_38 
REMARK   15  A    between atoms: C_39  and  C_40 
REMARK   16  A    between atoms: C_40  and  C_41 
REMARK   17  A    between atoms: C_41  and  C_42 
REMARK   18  A    between atoms: C_42  and  O_44 
REMARK   19  A    between atoms: C_45  and  C_46 
REMARK   20  A    between atoms: C_46  and  C_47 
REMARK   21  A    between atoms: C_47  and  O_49 
REMARK   22  A    between atoms: C_50  and  C_51 
REMARK   23  A    between atoms: C_51  and  C_52 
REMARK   24  A    between atoms: C_52  and  O_54 
REMARK   25  A    between atoms: C_55  and  C_56 
REMARK   26  A    between atoms: C_56  and  C_57 
REMARK   27  A    between atoms: C_57  and  C_58 
REMARK   28  A    between atoms: C_58  and  O_60 
ROOT
ATOM      1  O   UNK d   0     -33.994  -2.383  14.449  0.00  0.00    -0.650 OA
ATOM      2  C   UNK d   0     -33.684  -1.720  15.464  0.00  0.00     0.139 C 
ENDROOT
BRANCH   2   3
ATOM      3  O   UNK d   0     -33.646  -2.342  16.689  0.00  0.00    -0.776 OA
ATOM      4  H   UNK d   0     -33.499  -1.807  17.547  0.00  0.00     0.167 HD
ENDBRANCH   2   3
BRANCH   2   5
ATOM      5  C   UNK d   0     -33.360  -0.271  15.340  0.00  0.00     0.115 C 
BRANCH   5   6
ATOM      6  C   UNK d   0     -31.880  -0.085  15.145  0.00  0.00     0.052 C 
BRANCH   6   7
ATOM      7  C   UNK d   0     -31.440  -0.373  13.730  0.00  0.00    -0.020 A 
ATOM      8  C   UNK d   0     -31.891   0.168  12.628  0.00  0.00    -0.011 A 
ATOM      9  C   UNK d   0     -31.174  -0.428  11.513  0.00  0.00     0.067 A 
ATOM     10  C   UNK d   0     -31.166  -0.279  10.118  0.00  0.00     0.062 C 
ATOM     11  N   UNK d   0     -30.309  -1.327  12.028  0.00  0.00    -0.248 NA
ATOM     12  C   UNK d   0     -30.200  -0.747   9.220  0.00  0.00     0.041 A 
ATOM     13  N   UNK d   0     -29.550  -1.924   9.153  0.00  0.00    -0.355 N 
ATOM     14  C   UNK d   0     -29.731   0.117   8.214  0.00  0.00    -0.022 A 
ATOM     15  C   UNK d   0     -28.674  -1.826   8.135  0.00  0.00     0.042 A 
ATOM     16  H   UNK d   0     -29.720  -2.813   9.799  0.00  0.00     0.166 HD
ATOM     17  C   UNK d   0     -27.750  -2.764   7.632  0.00  0.00     0.062 C 
ATOM     18  C   UNK d   0     -28.758  -0.561   7.522  0.00  0.00    -0.013 A 
ATOM     19  C   UNK d   0     -26.888  -3.579   8.319  0.00  0.00     0.067 A 
ATOM     20  N   UNK d   0     -27.058  -3.662   9.641  0.00  0.00    -0.248 NA
ATOM     21  C   UNK d   0     -25.754  -4.424   7.981  0.00  0.00    -0.011 A 
ATOM     22  C   UNK d   0     -26.118  -4.498  10.192  0.00  0.00     0.066 A 
ATOM     23  C   UNK d   0     -26.202  -4.704  11.561  0.00  0.00     0.062 C 
ATOM     24  C   UNK d   0     -25.306  -4.955   9.081  0.00  0.00    -0.020 A 
ATOM     25  C   UNK d   0     -27.189  -4.235  12.442  0.00  0.00     0.041 A 
ATOM     26  N   UNK d   0     -27.824  -3.060  12.519  0.00  0.00    -0.355 N 
ATOM     27  C   UNK d   0     -27.662  -5.104  13.449  0.00  0.00    -0.022 A 
ATOM     28  C   UNK d   0     -28.692  -3.152  13.539  0.00  0.00     0.042 A 
ATOM     29  H   UNK d   0     -27.645  -2.164  11.875  0.00  0.00     0.166 HD
ATOM     30  C   UNK d   0     -29.610  -2.224  14.056  0.00  0.00     0.062 C 
ATOM     31  C   UNK d   0     -28.615  -4.427  14.147  0.00  0.00    -0.013 A 
ATOM     32  C   UNK d   0     -30.419  -1.341  13.357  0.00  0.00     0.066 A 
BRANCH   8  33
ATOM     33  C   UNK d   0     -32.942   1.196  12.513  0.00  0.00     0.151 C 
BRANCH  33  34
ATOM     34  C   UNK d   0     -32.407   2.568  12.569  0.00  0.00     0.143 C 
ATOM     35  O   UNK d   0     -31.189   2.773  12.666  0.00  0.00    -0.650 OA
BRANCH  34  36
ATOM     36  O   UNK d   0     -33.275   3.634  12.515  0.00  0.00    -0.776 OA
ATOM     37  H   UNK d   0     -33.946   3.816  13.274  0.00  0.00     0.167 HD
ENDBRANCH  34  36
ENDBRANCH  33  34
ENDBRANCH   8  33
BRANCH  31  38
ATOM     38  C   UNK d   0     -29.414  -4.960  15.313  0.00  0.00     0.151 C 
BRANCH  38  39
ATOM     39  C   UNK d   0     -30.830  -4.689  15.195  0.00  0.00     0.143 C 
ATOM     40  O   UNK d   0     -31.478  -4.968  14.171  0.00  0.00    -0.650 OA
BRANCH  39  41
ATOM     41  O   UNK d   0     -31.506  -4.093  16.259  0.00  0.00    -0.776 OA
ATOM     42  H   UNK d   0     -31.425  -4.551  17.172  0.00  0.00     0.167 HD
ENDBRANCH  39  41
ENDBRANCH  38  39
ENDBRANCH  31  38
BRANCH  27  43
ATOM     43  C   UNK d   0     -27.251  -6.520  13.765  0.00  0.00     0.052 C 
BRANCH  43  44
ATOM     44  C   UNK d   0     -26.865  -7.307  12.554  0.00  0.00     0.115 C 
BRANCH  44  45
ATOM     45  C   UNK d   0     -25.691  -8.132  12.941  0.00  0.00     0.139 C 
ATOM     46  O   UNK d   0     -24.572  -7.567  13.026  0.00  0.00    -0.650 OA
BRANCH  45  47
ATOM     47  O   UNK d   0     -25.781  -9.480  13.213  0.00  0.00    -0.776 OA
ATOM     48  H   UNK d   0     -26.522 -10.082  12.819  0.00  0.00     0.167 HD
ENDBRANCH  45  47
ENDBRANCH  44  45
ENDBRANCH  43  44
ENDBRANCH  27  43
BRANCH  24  49
ATOM     49  C   UNK d   0     -24.188  -5.908   9.193  0.00  0.00     0.052 C 
BRANCH  49  50
ATOM     50  C   UNK d   0     -24.707  -7.294   9.477  0.00  0.00     0.115 C 
BRANCH  50  51
ATOM     51  C   UNK d   0     -25.135  -8.091   8.335  0.00  0.00     0.139 C 
ATOM     52  O   UNK d   0     -24.510  -8.105   7.248  0.00  0.00    -0.650 OA
BRANCH  51  53
ATOM     53  O   UNK d   0     -26.278  -8.870   8.431  0.00  0.00    -0.776 OA
ATOM     54  H   UNK d   0     -26.297  -9.748   7.942  0.00  0.00     0.167 HD
ENDBRANCH  51  53
ENDBRANCH  50  51
ENDBRANCH  49  50
ENDBRANCH  24  49
BRANCH  21  55
ATOM     55  C   UNK d   0     -25.241  -4.615   6.592  0.00  0.00     0.151 C 
BRANCH  55  56
ATOM     56  C   UNK d   0     -24.205  -3.630   6.246  0.00  0.00     0.143 C 
ATOM     57  O   UNK d   0     -22.989  -3.840   6.420  0.00  0.00    -0.650 OA
BRANCH  56  58
ATOM     58  O   UNK d   0     -24.620  -2.415   5.702  0.00  0.00    -0.776 OA
ATOM     59  H   UNK d   0     -24.368  -2.274   4.707  0.00  0.00     0.167 HD
ENDBRANCH  56  58
ENDBRANCH  55  56
ENDBRANCH  21  55
BRANCH  18  60
ATOM     60  C   UNK d   0     -27.978  -0.003   6.358  0.00  0.00     0.151 C 
BRANCH  60  61
ATOM     61  C   UNK d   0     -26.711   0.490   6.920  0.00  0.00     0.143 C 
ATOM     62  O   UNK d   0     -26.568   1.208   7.910  0.00  0.00    -0.650 OA
BRANCH  61  63
ATOM     63  O   UNK d   0     -25.545   0.080   6.230  0.00  0.00    -0.776 OA
ATOM     64  H   UNK d   0     -25.595  -0.583   5.477  0.00  0.00     0.167 HD
ENDBRANCH  61  63
ENDBRANCH  60  61
ENDBRANCH  18  60
BRANCH  14  65
ATOM     65  C   UNK d   0     -30.196   1.484   7.799  0.00  0.00     0.052 C 
BRANCH  65  66
ATOM     66  C   UNK d   0     -30.161   2.472   8.910  0.00  0.00     0.115 C 
BRANCH  66  67
ATOM     67  C   UNK d   0     -28.901   2.859   9.480  0.00  0.00     0.139 C 
ATOM     68  O   UNK d   0     -28.632   2.491  10.682  0.00  0.00    -0.650 OA
BRANCH  67  69
ATOM     69  O   UNK d   0     -27.889   3.609   8.883  0.00  0.00    -0.776 OA
ATOM     70  H   UNK d   0     -28.132   4.582   8.647  0.00  0.00     0.167 HD
ENDBRANCH  67  69
ENDBRANCH  66  67
ENDBRANCH  65  66
ENDBRANCH  14  65
ENDBRANCH   6   7
ENDBRANCH   5   6
ENDBRANCH   2   5
TORSDOF 28
ENDMDL
MODEL 6
REMARK VINA RESULT:      -6.9      1.247      1.889
REMARK  28 active torsions:
REMARK  status: ('A' for Active; 'I' for Inactive)
REMARK    1  A    between atoms: C_2  and  O_3 
REMARK    2  A    between atoms: C_2  and  C_4 
REMARK    3  A    between atoms: C_4  and  C_5 
REMARK    4  A    between atoms: C_5  and  C_6 
REMARK    5  A    between atoms: C_7  and  C_8 
REMARK    6  A    between atoms: C_8  and  C_9 
REMARK    7  A    between atoms: C_9  and  O_11 
REMARK    8  A    between atoms: C_28  and  C_29 
REMARK    9  A    between atoms: C_29  and  C_30 
REMARK   10  A    between atoms: C_30  and  O_32 
REMARK   11  A    between atoms: C_33  and  C_34 
REMARK   12  A    between atoms: C_34  and  C_35 
REMARK   13  A    between atoms: C_35  and  C_36 
REMARK   14  A    between atoms: C_36  and  O_38 
REMARK   15  A    between atoms: C_39  and  C_40 
REMARK   16  A    between atoms: C_40  and  C_41 
REMARK   17  A    between atoms: C_41  and  C_42 
REMARK   18  A    between atoms: C_42  and  O_44 
REMARK   19  A    between atoms: C_45  and  C_46 
REMARK   20  A    between atoms: C_46  and  C_47 
REMARK   21  A    between atoms: C_47  and  O_49 
REMARK   22  A    between atoms: C_50  and  C_51 
REMARK   23  A    between atoms: C_51  and  C_52 
REMARK   24  A    between atoms: C_52  and  O_54 
REMARK   25  A    between atoms: C_55  and  C_56 
REMARK   26  A    between atoms: C_56  and  C_57 
REMARK   27  A    between atoms: C_57  and  C_58 
REMARK   28  A    between atoms: C_58  and  O_60 
ROOT
ATOM      1  O   UNK d   0     -26.719  -7.708  13.091  0.00  0.00    -0.650 OA
ATOM      2  C   UNK d   0     -25.897  -8.486  12.558  0.00  0.00     0.139 C 
ENDROOT
BRANCH   2   3
ATOM      3  O   UNK d   0     -25.445  -9.575  13.263  0.00  0.00    -0.776 OA
ATOM      4  H   UNK d   0     -25.678  -9.697  14.251  0.00  0.00     0.167 HD
ENDBRANCH   2   3
BRANCH   2   5
ATOM      5  C   UNK d   0     -25.416  -8.230  11.170  0.00  0.00     0.115 C 
BRANCH   5   6
ATOM      6  C   UNK d   0     -24.308  -7.212  11.186  0.00  0.00     0.052 C 
BRANCH   6   7
ATOM      7  C   UNK d   0     -24.761  -5.854  10.704  0.00  0.00    -0.020 A 
ATOM      8  C   UNK d   0     -24.750  -5.399   9.477  0.00  0.00    -0.011 A 
ATOM      9  C   UNK d   0     -25.269  -4.042   9.502  0.00  0.00     0.067 A 
ATOM     10  C   UNK d   0     -25.530  -3.040   8.554  0.00  0.00     0.062 C 
ATOM     11  N   UNK d   0     -25.566  -3.750  10.786  0.00  0.00    -0.248 NA
ATOM     12  C   UNK d   0     -26.298  -1.884   8.732  0.00  0.00     0.041 A 
ATOM     13  N   UNK d   0     -26.359  -1.010   9.755  0.00  0.00    -0.355 N 
ATOM     14  C   UNK d   0     -27.233  -1.529   7.743  0.00  0.00    -0.022 A 
ATOM     15  C   UNK d   0     -27.315  -0.114   9.443  0.00  0.00     0.042 A 
ATOM     16  H   UNK d   0     -25.726  -1.015  10.669  0.00  0.00     0.166 HD
ATOM     17  C   UNK d   0     -27.783   1.007  10.157  0.00  0.00     0.062 C 
ATOM     18  C   UNK d   0     -27.886  -0.407   8.190  0.00  0.00    -0.013 A 
ATOM     19  C   UNK d   0     -28.092   1.114  11.489  0.00  0.00     0.067 A 
ATOM     20  N   UNK d   0     -27.727   0.100  12.278  0.00  0.00    -0.248 NA
ATOM     21  C   UNK d   0     -28.765   2.089  12.331  0.00  0.00    -0.011 A 
ATOM     22  C   UNK d   0     -28.114   0.340  13.573  0.00  0.00     0.066 A 
ATOM     23  C   UNK d   0     -27.762  -0.621  14.510  0.00  0.00     0.062 C 
ATOM     24  C   UNK d   0     -28.778   1.628  13.548  0.00  0.00    -0.020 A 
ATOM     25  C   UNK d   0     -26.980  -1.769  14.313  0.00  0.00     0.041 A 
ATOM     26  N   UNK d   0     -26.929  -2.646  13.304  0.00  0.00    -0.355 N 
ATOM     27  C   UNK d   0     -26.038  -2.122  15.304  0.00  0.00    -0.022 A 
ATOM     28  C   UNK d   0     -25.983  -3.546  13.616  0.00  0.00     0.042 A 
ATOM     29  H   UNK d   0     -27.573  -2.646  12.390  0.00  0.00     0.166 HD
ATOM     30  C   UNK d   0     -25.513  -4.671  12.919  0.00  0.00     0.062 C 
ATOM     31  C   UNK d   0     -25.403  -3.245  14.871  0.00  0.00    -0.013 A 
ATOM     32  C   UNK d   0     -25.284  -4.799  11.559  0.00  0.00     0.066 A 
BRANCH   8  33
ATOM     33  C   UNK d   0     -24.291  -6.114   8.272  0.00  0.00     0.151 C 
BRANCH  33  34
ATOM     34  C   UNK d   0     -25.406  -6.640   7.462  0.00  0.00     0.143 C 
ATOM     35  O   UNK d   0     -25.630  -6.199   6.326  0.00  0.00    -0.650 OA
BRANCH  34  36
ATOM     36  O   UNK d   0     -26.206  -7.632   7.979  0.00  0.00    -0.776 OA
ATOM     37  H   UNK d   0     -25.839  -8.320   8.649  0.00  0.00     0.167 HD
ENDBRANCH  34  36
ENDBRANCH  33  34
ENDBRANCH   8  33
BRANCH  31  38
ATOM     38  C   UNK d   0     -24.301  -3.982  15.596  0.00  0.00     0.151 C 
BRANCH  38  39
ATOM     39  C   UNK d   0     -23.030  -3.913  14.906  0.00  0.00     0.143 C 
ATOM     40  O   UNK d   0     -22.279  -4.898  14.796  0.00  0.00    -0.650 OA
BRANCH  39  41
ATOM     41  O   UNK d   0     -22.622  -2.706  14.339  0.00  0.00    -0.776 OA
ATOM     42  H   UNK d   0     -21.616  -2.587  14.182  0.00  0.00     0.167 HD
ENDBRANCH  39  41
ENDBRANCH  38  39
ENDBRANCH  31  38
BRANCH  27  43
ATOM     43  C   UNK d   0     -25.730  -1.447  16.618  0.00  0.00     0.052 C 
BRANCH  43  44
ATOM     44  C   UNK d   0     -24.898  -0.215  16.468  0.00  0.00     0.115 C 
BRANCH  44  45
ATOM     45  C   UNK d   0     -24.424   0.144  17.830  0.00  0.00     0.139 C 
ATOM     46  O   UNK d   0     -24.385  -0.760  18.701  0.00  0.00    -0.650 OA
BRANCH  45  47
ATOM     47  O   UNK d   0     -24.024   1.419  18.170  0.00  0.00    -0.776 OA
ATOM     48  H   UNK d   0     -23.049   1.745  18.072  0.00  0.00     0.167 HD
ENDBRANCH  45  47
ENDBRANCH  44  45
ENDBRANCH  43  44
ENDBRANCH  27  43
BRANCH  24  49
ATOM     49  C   UNK d   0     -29.329   2.314  14.730  0.00  0.00     0.052 C 
BRANCH  49  50
ATOM     50  C   UNK d   0     -30.484   1.531  15.300  0.00  0.00     0.115 C 
BRANCH  50  51
ATOM     51  C   UNK d   0     -31.634   1.317  14.432  0.00  0.00     0.139 C 
ATOM     52  O   UNK d   0     -32.014   0.174  14.082  0.00  0.00    -0.650 OA
BRANCH  51  53
ATOM     53  O   UNK d   0     -32.350   2.406  13.960  0.00  0.00    -0.776 OA
ATOM     54  H   UNK d   0     -31.949   2.954  13.220  0.00  0.00     0.167 HD
ENDBRANCH  51  53
ENDBRANCH  50  51
ENDBRANCH  49  50
ENDBRANCH  24  49
BRANCH  21  55
ATOM     55  C   UNK d   0     -29.321   3.381  11.831  0.00  0.00     0.151 C 
BRANCH  55  56
ATOM     56  C   UNK d   0     -30.477   3.178  10.945  0.00  0.00     0.143 C 
ATOM     57  O   UNK d   0     -31.385   2.361  11.196  0.00  0.00    -0.650 OA
BRANCH  56  58
ATOM     58  O   UNK d   0     -30.543   3.940   9.779  0.00  0.00    -0.776 OA
ATOM     59  H   UNK d   0     -30.040   4.844   9.820  0.00  0.00     0.167 HD
ENDBRANCH  56  58
ENDBRANCH  55  56
ENDBRANCH  21  55
BRANCH  18  60
ATOM     60  C   UNK d   0     -28.981   0.311   7.441  0.00  0.00     0.151 C 
BRANCH  60  61
ATOM     61  C   UNK d   0     -30.203   0.127   8.240  0.00  0.00     0.143 C 
ATOM     62  O   UNK d   0     -30.574  -0.904   8.801  0.00  0.00    -0.650 OA
BRANCH  61  63
ATOM     63  O   UNK d   0     -31.022   1.276   8.360  0.00  0.00    -0.776 OA
ATOM     64  H   UNK d   0     -31.874   1.362   7.835  0.00  0.00     0.167 HD
ENDBRANCH  61  63
ENDBRANCH  60  61
ENDBRANCH  18  60
BRANCH  14  65
ATOM     65  C   UNK d   0     -27.485  -2.106   6.379  0.00  0.00     0.052 C 
BRANCH  65  66
ATOM     66  C   UNK d   0     -26.459  -1.706   5.380  0.00  0.00     0.115 C 
BRANCH  66  67
ATOM     67  C   UNK d   0     -26.249  -0.315   5.093  0.00  0.00     0.139 C 
ATOM     68  O   UNK d   0     -25.117   0.211   5.400  0.00  0.00    -0.650 OA
BRANCH  67  69
ATOM     69  O   UNK d   0     -27.143   0.579   4.504  0.00  0.00    -0.776 OA
ATOM     70  H   UNK d   0     -27.658   0.224   3.686  0.00  0.00     0.167 HD
ENDBRANCH  67  69
ENDBRANCH  66  67
ENDBRANCH  65  66
ENDBRANCH  14  65
ENDBRANCH   6   7
ENDBRANCH   5   6
ENDBRANCH   2   5
TORSDOF 28
ENDMDL
MODEL 7
REMARK VINA RESULT:      -6.9      1.929      7.450
REMARK  28 active torsions:
REMARK  status: ('A' for Active; 'I' for Inactive)
REMARK    1  A    between atoms: C_2  and  O_3 
REMARK    2  A    between atoms: C_2  and  C_4 
REMARK    3  A    between atoms: C_4  and  C_5 
REMARK    4  A    between atoms: C_5  and  C_6 
REMARK    5  A    between atoms: C_7  and  C_8 
REMARK    6  A    between atoms: C_8  and  C_9 
REMARK    7  A    between atoms: C_9  and  O_11 
REMARK    8  A    between atoms: C_28  and  C_29 
REMARK    9  A    between atoms: C_29  and  C_30 
REMARK   10  A    between atoms: C_30  and  O_32 
REMARK   11  A    between atoms: C_33  and  C_34 
REMARK   12  A    between atoms: C_34  and  C_35 
REMARK   13  A    between atoms: C_35  and  C_36 
REMARK   14  A    between atoms: C_36  and  O_38 
REMARK   15  A    between atoms: C_39  and  C_40 
REMARK   16  A    between atoms: C_40  and  C_41 
REMARK   17  A    between atoms: C_41  and  C_42 
REMARK   18  A    between atoms: C_42  and  O_44 
REMARK   19  A    between atoms: C_45  and  C_46 
REMARK   20  A    between atoms: C_46  and  C_47 
REMARK   21  A    between atoms: C_47  and  O_49 
REMARK   22  A    between atoms: C_50  and  C_51 
REMARK   23  A    between atoms: C_51  and  C_52 
REMARK   24  A    between atoms: C_52  and  O_54 
REMARK   25  A    between atoms: C_55  and  C_56 
REMARK   26  A    between atoms: C_56  and  C_57 
REMARK   27  A    between atoms: C_57  and  C_58 
REMARK   28  A    between atoms: C_58  and  O_60 
ROOT
ATOM      1  O   UNK d   0     -26.497  -0.922   3.835  0.00  0.00    -0.650 OA
ATOM      2  C   UNK d   0     -26.070  -0.746   4.997  0.00  0.00     0.139 C 
ENDROOT
BRANCH   2   3
ATOM      3  O   UNK d   0     -26.279   0.464   5.616  0.00  0.00    -0.776 OA
ATOM      4  H   UNK d   0     -26.190   1.342   5.101  0.00  0.00     0.167 HD
ENDBRANCH   2   3
BRANCH   2   5
ATOM      5  C   UNK d   0     -25.343  -1.840   5.701  0.00  0.00     0.115 C 
BRANCH   5   6
ATOM      6  C   UNK d   0     -26.305  -2.921   6.113  0.00  0.00     0.052 C 
BRANCH   6   7
ATOM      7  C   UNK d   0     -26.171  -3.295   7.569  0.00  0.00    -0.020 A 
ATOM      8  C   UNK d   0     -25.771  -4.437   8.066  0.00  0.00    -0.011 A 
ATOM      9  C   UNK d   0     -25.814  -4.331   9.515  0.00  0.00     0.067 A 
ATOM     10  C   UNK d   0     -25.503  -5.165  10.601  0.00  0.00     0.062 C 
ATOM     11  N   UNK d   0     -26.256  -3.092   9.814  0.00  0.00    -0.248 NA
ATOM     12  C   UNK d   0     -25.344  -4.789  11.939  0.00  0.00     0.041 A 
ATOM     13  N   UNK d   0     -26.057  -3.951  12.716  0.00  0.00    -0.355 N 
ATOM     14  C   UNK d   0     -24.242  -5.285  12.659  0.00  0.00    -0.022 A 
ATOM     15  C   UNK d   0     -25.431  -3.896  13.906  0.00  0.00     0.042 A 
ATOM     16  H   UNK d   0     -26.995  -3.424  12.434  0.00  0.00     0.166 HD
ATOM     17  C   UNK d   0     -25.751  -3.176  15.074  0.00  0.00     0.062 C 
ATOM     18  C   UNK d   0     -24.288  -4.720  13.909  0.00  0.00    -0.013 A 
ATOM     19  C   UNK d   0     -26.144  -1.868  15.201  0.00  0.00     0.067 A 
ATOM     20  N   UNK d   0     -26.463  -1.222  14.077  0.00  0.00    -0.248 NA
ATOM     21  C   UNK d   0     -26.305  -0.927  16.296  0.00  0.00    -0.011 A 
ATOM     22  C   UNK d   0     -26.820   0.075  14.357  0.00  0.00     0.066 A 
ATOM     23  C   UNK d   0     -27.213   0.853  13.279  0.00  0.00     0.062 C 
ATOM     24  C   UNK d   0     -26.697   0.209  15.796  0.00  0.00    -0.020 A 
ATOM     25  C   UNK d   0     -27.379   0.453  11.944  0.00  0.00     0.041 A 
ATOM     26  N   UNK d   0     -26.662  -0.368  11.168  0.00  0.00    -0.355 N 
ATOM     27  C   UNK d   0     -28.488   0.948  11.224  0.00  0.00    -0.022 A 
ATOM     28  C   UNK d   0     -27.279  -0.418   9.977  0.00  0.00     0.042 A 
ATOM     29  H   UNK d   0     -25.714  -0.889  11.449  0.00  0.00     0.166 HD
ATOM     30  C   UNK d   0     -26.966  -1.122   8.804  0.00  0.00     0.062 C 
ATOM     31  C   UNK d   0     -28.433   0.402   9.978  0.00  0.00    -0.013 A 
ATOM     32  C   UNK d   0     -26.488  -2.418   8.686  0.00  0.00     0.066 A 
BRANCH   8  33
ATOM     33  C   UNK d   0     -25.354  -5.633   7.311  0.00  0.00     0.151 C 
BRANCH  33  34
ATOM     34  C   UNK d   0     -23.897  -5.855   7.352  0.00  0.00     0.143 C 
ATOM     35  O   UNK d   0     -23.106  -4.924   7.143  0.00  0.00    -0.650 OA
BRANCH  34  36
ATOM     36  O   UNK d   0     -23.413  -7.113   7.626  0.00  0.00    -0.776 OA
ATOM     37  H   UNK d   0     -23.383  -7.476   8.589  0.00  0.00     0.167 HD
ENDBRANCH  34  36
ENDBRANCH  33  34
ENDBRANCH   8  33
BRANCH  31  38
ATOM     38  C   UNK d   0     -29.422   0.631   8.860  0.00  0.00     0.151 C 
BRANCH  38  39
ATOM     39  C   UNK d   0     -30.659  -0.097   9.045  0.00  0.00     0.143 C 
ATOM     40  O   UNK d   0     -31.732   0.471   9.317  0.00  0.00    -0.650 OA
BRANCH  39  41
ATOM     41  O   UNK d   0     -30.664  -1.486   8.917  0.00  0.00    -0.776 OA
ATOM     42  H   UNK d   0     -30.460  -2.028   9.763  0.00  0.00     0.167 HD
ENDBRANCH  39  41
ENDBRANCH  38  39
ENDBRANCH  31  38
BRANCH  27  43
ATOM     43  C   UNK d   0     -29.571   1.900  11.666  0.00  0.00     0.052 C 
BRANCH  43  44
ATOM     44  C   UNK d   0     -29.147   3.333  11.634  0.00  0.00     0.115 C 
BRANCH  44  45
ATOM     45  C   UNK d   0     -29.373   3.810  10.245  0.00  0.00     0.139 C 
ATOM     46  O   UNK d   0     -30.556   3.893   9.832  0.00  0.00    -0.650 OA
BRANCH  45  47
ATOM     47  O   UNK d   0     -28.343   4.168   9.401  0.00  0.00    -0.776 OA
ATOM     48  H   UNK d   0     -28.421   4.123   8.372  0.00  0.00     0.167 HD
ENDBRANCH  45  47
ENDBRANCH  44  45
ENDBRANCH  43  44
ENDBRANCH  27  43
BRANCH  24  49
ATOM     49  C   UNK d   0     -27.017   1.429  16.556  0.00  0.00     0.052 C 
BRANCH  49  50
ATOM     50  C   UNK d   0     -25.761   2.208  16.852  0.00  0.00     0.115 C 
BRANCH  50  51
ATOM     51  C   UNK d   0     -24.932   2.588  15.716  0.00  0.00     0.139 C 
ATOM     52  O   UNK d   0     -23.781   2.124  15.534  0.00  0.00    -0.650 OA
BRANCH  51  53
ATOM     53  O   UNK d   0     -25.413   3.499  14.789  0.00  0.00    -0.776 OA
ATOM     54  H   UNK d   0     -24.879   3.652  13.952  0.00  0.00     0.167 HD
ENDBRANCH  51  53
ENDBRANCH  50  51
ENDBRANCH  49  50
ENDBRANCH  24  49
BRANCH  21  55
ATOM     55  C   UNK d   0     -26.056  -1.262  17.729  0.00  0.00     0.151 C 
BRANCH  55  56
ATOM     56  C   UNK d   0     -24.661  -1.007  18.120  0.00  0.00     0.143 C 
ATOM     57  O   UNK d   0     -24.218  -1.274  19.255  0.00  0.00    -0.650 OA
BRANCH  56  58
ATOM     58  O   UNK d   0     -23.812  -0.443  17.168  0.00  0.00    -0.776 OA
ATOM     59  H   UNK d   0     -22.811  -0.423  17.434  0.00  0.00     0.167 HD
ENDBRANCH  56  58
ENDBRANCH  55  56
ENDBRANCH  21  55
BRANCH  18  60
ATOM     60  C   UNK d   0     -23.287  -4.970  15.009  0.00  0.00     0.151 C 
BRANCH  60  61
ATOM     61  C   UNK d   0     -22.172  -4.044  14.758  0.00  0.00     0.143 C 
ATOM     62  O   UNK d   0     -22.249  -2.872  14.389  0.00  0.00    -0.650 OA
BRANCH  61  63
ATOM     63  O   UNK d   0     -20.881  -4.584  14.973  0.00  0.00    -0.776 OA
ATOM     64  H   UNK d   0     -20.057  -4.024  14.846  0.00  0.00     0.167 HD
ENDBRANCH  61  63
ENDBRANCH  60  61
ENDBRANCH  18  60
BRANCH  14  65
ATOM     65  C   UNK d   0     -23.214  -6.318  12.291  0.00  0.00     0.052 C 
BRANCH  65  66
ATOM     66  C   UNK d   0     -22.018  -5.737  11.626  0.00  0.00     0.115 C 
BRANCH  66  67
ATOM     67  C   UNK d   0     -20.720  -6.299  11.876  0.00  0.00     0.139 C 
ATOM     68  O   UNK d   0     -20.426  -6.651  13.077  0.00  0.00    -0.650 OA
BRANCH  67  69
ATOM     69  O   UNK d   0     -19.696  -6.523  10.957  0.00  0.00    -0.776 OA
ATOM     70  H   UNK d   0     -19.390  -5.701  10.417  0.00  0.00     0.167 HD
ENDBRANCH  67  69
ENDBRANCH  66  67
ENDBRANCH  65  66
ENDBRANCH  14  65
ENDBRANCH   6   7
ENDBRANCH   5   6
ENDBRANCH   2   5
TORSDOF 28
ENDMDL
MODEL 8
REMARK VINA RESULT:      -6.8      3.083      7.150
REMARK  28 active torsions:
REMARK  status: ('A' for Active; 'I' for Inactive)
REMARK    1  A    between atoms: C_2  and  O_3 
REMARK    2  A    between atoms: C_2  and  C_4 
REMARK    3  A    between atoms: C_4  and  C_5 
REMARK    4  A    between atoms: C_5  and  C_6 
REMARK    5  A    between atoms: C_7  and  C_8 
REMARK    6  A    between atoms: C_8  and  C_9 
REMARK    7  A    between atoms: C_9  and  O_11 
REMARK    8  A    between atoms: C_28  and  C_29 
REMARK    9  A    between atoms: C_29  and  C_30 
REMARK   10  A    between atoms: C_30  and  O_32 
REMARK   11  A    between atoms: C_33  and  C_34 
REMARK   12  A    between atoms: C_34  and  C_35 
REMARK   13  A    between atoms: C_35  and  C_36 
REMARK   14  A    between atoms: C_36  and  O_38 
REMARK   15  A    between atoms: C_39  and  C_40 
REMARK   16  A    between atoms: C_40  and  C_41 
REMARK   17  A    between atoms: C_41  and  C_42 
REMARK   18  A    between atoms: C_42  and  O_44 
REMARK   19  A    between atoms: C_45  and  C_46 
REMARK   20  A    between atoms: C_46  and  C_47 
REMARK   21  A    between atoms: C_47  and  O_49 
REMARK   22  A    between atoms: C_50  and  C_51 
REMARK   23  A    between atoms: C_51  and  C_52 
REMARK   24  A    between atoms: C_52  and  O_54 
REMARK   25  A    between atoms: C_55  and  C_56 
REMARK   26  A    between atoms: C_56  and  C_57 
REMARK   27  A    between atoms: C_57  and  C_58 
REMARK   28  A    between atoms: C_58  and  O_60 
ROOT
ATOM      1  O   UNK d   0     -23.129  -5.746   6.430  0.00  0.00    -0.650 OA
ATOM      2  C   UNK d   0     -23.285  -6.143   7.607  0.00  0.00     0.139 C 
ENDROOT
BRANCH   2   3
ATOM      3  O   UNK d   0     -22.349  -5.816   8.558  0.00  0.00    -0.776 OA
ATOM      4  H   UNK d   0     -21.907  -4.895   8.568  0.00  0.00     0.167 HD
ENDBRANCH   2   3
BRANCH   2   5
ATOM      5  C   UNK d   0     -24.476  -6.963   7.968  0.00  0.00     0.115 C 
BRANCH   5   6
ATOM      6  C   UNK d   0     -24.669  -6.967   9.460  0.00  0.00     0.052 C 
BRANCH   6   7
ATOM      7  C   UNK d   0     -25.879  -6.172   9.891  0.00  0.00    -0.020 A 
ATOM      8  C   UNK d   0     -26.899  -6.590  10.596  0.00  0.00    -0.011 A 
ATOM      9  C   UNK d   0     -27.818  -5.476  10.753  0.00  0.00     0.067 A 
ATOM     10  C   UNK d   0     -29.047  -5.259  11.396  0.00  0.00     0.062 C 
ATOM     11  N   UNK d   0     -27.281  -4.419  10.107  0.00  0.00    -0.248 NA
ATOM     12  C   UNK d   0     -29.653  -4.029  11.673  0.00  0.00     0.041 A 
ATOM     13  N   UNK d   0     -29.786  -2.918  10.925  0.00  0.00    -0.355 N 
ATOM     14  C   UNK d   0     -30.197  -3.812  12.952  0.00  0.00    -0.022 A 
ATOM     15  C   UNK d   0     -30.393  -1.998  11.698  0.00  0.00     0.042 A 
ATOM     16  H   UNK d   0     -29.475  -2.792   9.864  0.00  0.00     0.166 HD
ATOM     17  C   UNK d   0     -30.771  -0.671  11.414  0.00  0.00     0.062 C 
ATOM     18  C   UNK d   0     -30.666  -2.522  12.977  0.00  0.00    -0.013 A 
ATOM     19  C   UNK d   0     -30.058   0.311  10.775  0.00  0.00     0.067 A 
ATOM     20  N   UNK d   0     -28.934  -0.063  10.158  0.00  0.00    -0.248 NA
ATOM     21  C   UNK d   0     -30.193   1.746  10.586  0.00  0.00    -0.011 A 
ATOM     22  C   UNK d   0     -28.323   1.024   9.581  0.00  0.00     0.066 A 
ATOM     23  C   UNK d   0     -27.159   0.771   8.871  0.00  0.00     0.062 C 
ATOM     24  C   UNK d   0     -29.173   2.157   9.890  0.00  0.00    -0.020 A 
ATOM     25  C   UNK d   0     -26.573  -0.473   8.593  0.00  0.00     0.041 A 
ATOM     26  N   UNK d   0     -26.427  -1.573   9.342  0.00  0.00    -0.355 N 
ATOM     27  C   UNK d   0     -26.032  -0.692   7.307  0.00  0.00    -0.022 A 
ATOM     28  C   UNK d   0     -25.814  -2.489   8.575  0.00  0.00     0.042 A 
ATOM     29  H   UNK d   0     -26.731  -1.694  10.410  0.00  0.00     0.166 HD
ATOM     30  C   UNK d   0     -25.424  -3.809   8.848  0.00  0.00     0.062 C 
ATOM     31  C   UNK d   0     -25.550  -1.965   7.287  0.00  0.00    -0.013 A 
ATOM     32  C   UNK d   0     -26.113  -4.773   9.568  0.00  0.00     0.066 A 
BRANCH   8  33
ATOM     33  C   UNK d   0     -27.103  -7.946  11.138  0.00  0.00     0.151 C 
BRANCH  33  34
ATOM     34  C   UNK d   0     -26.534  -8.113  12.487  0.00  0.00     0.143 C 
ATOM     35  O   UNK d   0     -26.721  -7.260  13.367  0.00  0.00    -0.650 OA
BRANCH  34  36
ATOM     36  O   UNK d   0     -25.783  -9.231  12.770  0.00  0.00    -0.776 OA
ATOM     37  H   UNK d   0     -25.831  -9.687  13.691  0.00  0.00     0.167 HD
ENDBRANCH  34  36
ENDBRANCH  33  34
ENDBRANCH   8  33
BRANCH  31  38
ATOM     38  C   UNK d   0     -24.890  -2.650   6.113  0.00  0.00     0.151 C 
BRANCH  38  39
ATOM     39  C   UNK d   0     -25.845  -3.210   5.180  0.00  0.00     0.143 C 
ATOM     40  O   UNK d   0     -25.592  -3.347   3.971  0.00  0.00    -0.650 OA
BRANCH  39  41
ATOM     41  O   UNK d   0     -27.098  -3.615   5.641  0.00  0.00    -0.776 OA
ATOM     42  H   UNK d   0     -27.886  -3.498   4.997  0.00  0.00     0.167 HD
ENDBRANCH  39  41
ENDBRANCH  38  39
ENDBRANCH  31  38
BRANCH  27  43
ATOM     43  C   UNK d   0     -25.956   0.244   6.127  0.00  0.00     0.052 C 
BRANCH  43  44
ATOM     44  C   UNK d   0     -27.138   0.146   5.218  0.00  0.00     0.115 C 
BRANCH  44  45
ATOM     45  C   UNK d   0     -26.618   0.260   3.831  0.00  0.00     0.139 C 
ATOM     46  O   UNK d   0     -27.296   0.907   2.996  0.00  0.00    -0.650 OA
BRANCH  45  47
ATOM     47  O   UNK d   0     -25.428  -0.308   3.430  0.00  0.00    -0.776 OA
ATOM     48  H   UNK d   0     -24.510   0.132   3.605  0.00  0.00     0.167 HD
ENDBRANCH  45  47
ENDBRANCH  44  45
ENDBRANCH  43  44
ENDBRANCH  27  43
BRANCH  24  49
ATOM     49  C   UNK d   0     -28.931   3.538   9.437  0.00  0.00     0.052 C 
BRANCH  49  50
ATOM     50  C   UNK d   0     -28.659   4.437  10.615  0.00  0.00     0.115 C 
BRANCH  50  51
ATOM     51  C   UNK d   0     -29.212   5.783  10.567  0.00  0.00     0.139 C 
ATOM     52  O   UNK d   0     -28.493   6.809  10.533  0.00  0.00    -0.650 OA
BRANCH  51  53
ATOM     53  O   UNK d   0     -30.587   5.960  10.559  0.00  0.00    -0.776 OA
ATOM     54  H   UNK d   0     -30.978   6.619   9.909  0.00  0.00     0.167 HD
ENDBRANCH  51  53
ENDBRANCH  50  51
ENDBRANCH  49  50
ENDBRANCH  24  49
BRANCH  21  55
ATOM     55  C   UNK d   0     -31.330   2.554  11.117  0.00  0.00     0.151 C 
BRANCH  55  56
ATOM     56  C   UNK d   0     -32.355   2.804  10.092  0.00  0.00     0.143 C 
ATOM     57  O   UNK d   0     -32.391   3.850   9.414  0.00  0.00    -0.650 OA
BRANCH  56  58
ATOM     58  O   UNK d   0     -33.318   1.818   9.883  0.00  0.00    -0.776 OA
ATOM     59  H   UNK d   0     -34.110   2.104   9.280  0.00  0.00     0.167 HD
ENDBRANCH  56  58
ENDBRANCH  55  56
ENDBRANCH  21  55
BRANCH  18  60
ATOM     60  C   UNK d   0     -31.324  -1.864  14.164  0.00  0.00     0.151 C 
BRANCH  60  61
ATOM     61  C   UNK d   0     -32.772  -2.037  13.971  0.00  0.00     0.143 C 
ATOM     62  O   UNK d   0     -33.385  -3.100  13.867  0.00  0.00    -0.650 OA
BRANCH  61  63
ATOM     63  O   UNK d   0     -33.518  -0.836  13.900  0.00  0.00    -0.776 OA
ATOM     64  H   UNK d   0     -33.060   0.056  13.854  0.00  0.00     0.167 HD
ENDBRANCH  61  63
ENDBRANCH  60  61
ENDBRANCH  18  60
BRANCH  14  65
ATOM     65  C   UNK d   0     -30.393  -4.752  14.108  0.00  0.00     0.052 C 
BRANCH  65  66
ATOM     66  C   UNK d   0     -29.184  -4.880  14.965  0.00  0.00     0.115 C 
BRANCH  66  67
ATOM     67  C   UNK d   0     -28.184  -3.850  14.944  0.00  0.00     0.139 C 
ATOM     68  O   UNK d   0     -27.092  -4.068  14.300  0.00  0.00    -0.650 OA
BRANCH  67  69
ATOM     69  O   UNK d   0     -28.238  -2.595  15.550  0.00  0.00    -0.776 OA
ATOM     70  H   UNK d   0     -28.564  -1.822  14.953  0.00  0.00     0.167 HD
ENDBRANCH  67  69
ENDBRANCH  66  67
ENDBRANCH  65  66
ENDBRANCH  14  65
ENDBRANCH   6   7
ENDBRANCH   5   6
ENDBRANCH   2   5
TORSDOF 28
ENDMDL
MODEL 9
REMARK VINA RESULT:      -6.8      2.755      6.645
REMARK  28 active torsions:
REMARK  status: ('A' for Active; 'I' for Inactive)
REMARK    1  A    between atoms: C_2  and  O_3 
REMARK    2  A    between atoms: C_2  and  C_4 
REMARK    3  A    between atoms: C_4  and  C_5 
REMARK    4  A    between atoms: C_5  and  C_6 
REMARK    5  A    between atoms: C_7  and  C_8 
REMARK    6  A    between atoms: C_8  and  C_9 
REMARK    7  A    between atoms: C_9  and  O_11 
REMARK    8  A    between atoms: C_28  and  C_29 
REMARK    9  A    between atoms: C_29  and  C_30 
REMARK   10  A    between atoms: C_30  and  O_32 
REMARK   11  A    between atoms: C_33  and  C_34 
REMARK   12  A    between atoms: C_34  and  C_35 
REMARK   13  A    between atoms: C_35  and  C_36 
REMARK   14  A    between atoms: C_36  and  O_38 
REMARK   15  A    between atoms: C_39  and  C_40 
REMARK   16  A    between atoms: C_40  and  C_41 
REMARK   17  A    between atoms: C_41  and  C_42 
REMARK   18  A    between atoms: C_42  and  O_44 
REMARK   19  A    between atoms: C_45  and  C_46 
REMARK   20  A    between atoms: C_46  and  C_47 
REMARK   21  A    between atoms: C_47  and  O_49 
REMARK   22  A    between atoms: C_50  and  C_51 
REMARK   23  A    between atoms: C_51  and  C_52 
REMARK   24  A    between atoms: C_52  and  O_54 
REMARK   25  A    between atoms: C_55  and  C_56 
REMARK   26  A    between atoms: C_56  and  C_57 
REMARK   27  A    between atoms: C_57  and  C_58 
REMARK   28  A    between atoms: C_58  and  O_60 
ROOT
ATOM      1  O   UNK d   0     -22.737  -3.939   6.450  0.00  0.00    -0.650 OA
ATOM      2  C   UNK d   0     -23.832  -4.325   5.985  0.00  0.00     0.139 C 
ENDROOT
BRANCH   2   3
ATOM      3  O   UNK d   0     -24.324  -5.554   6.352  0.00  0.00    -0.776 OA
ATOM      4  H   UNK d   0     -23.765  -6.402   6.238  0.00  0.00     0.167 HD
ENDBRANCH   2   3
BRANCH   2   5
ATOM      5  C   UNK d   0     -24.592  -3.456   5.042  0.00  0.00     0.115 C 
BRANCH   5   6
ATOM      6  C   UNK d   0     -26.052  -3.448   5.407  0.00  0.00     0.052 C 
BRANCH   6   7
ATOM      7  C   UNK d   0     -26.338  -2.616   6.634  0.00  0.00    -0.020 A 
ATOM      8  C   UNK d   0     -26.260  -1.316   6.754  0.00  0.00    -0.011 A 
ATOM      9  C   UNK d   0     -26.620  -0.971   8.119  0.00  0.00     0.067 A 
ATOM     10  C   UNK d   0     -26.753   0.211   8.864  0.00  0.00     0.062 C 
ATOM     11  N   UNK d   0     -26.898  -2.124   8.763  0.00  0.00    -0.248 NA
ATOM     12  C   UNK d   0     -27.384   0.366  10.103  0.00  0.00     0.041 A 
ATOM     13  N   UNK d   0     -27.357  -0.396  11.213  0.00  0.00    -0.355 N 
ATOM     14  C   UNK d   0     -28.261   1.450  10.289  0.00  0.00    -0.022 A 
ATOM     15  C   UNK d   0     -28.200   0.173  12.096  0.00  0.00     0.042 A 
ATOM     16  H   UNK d   0     -26.740  -1.307  11.376  0.00  0.00     0.166 HD
ATOM     17  C   UNK d   0     -28.544  -0.211  13.407  0.00  0.00     0.062 C 
ATOM     18  C   UNK d   0     -28.785   1.333  11.552  0.00  0.00    -0.013 A 
ATOM     19  C   UNK d   0     -28.855  -1.458  13.887  0.00  0.00     0.067 A 
ATOM     20  N   UNK d   0     -28.618  -2.493  13.078  0.00  0.00    -0.248 NA
ATOM     21  C   UNK d   0     -29.422  -1.994  15.113  0.00  0.00    -0.011 A 
ATOM     22  C   UNK d   0     -28.991  -3.668  13.685  0.00  0.00     0.066 A 
ATOM     23  C   UNK d   0     -28.764  -4.832  12.967  0.00  0.00     0.062 C 
ATOM     24  C   UNK d   0     -29.502  -3.287  14.987  0.00  0.00    -0.020 A 
ATOM     25  C   UNK d   0     -28.116  -4.967  11.729  0.00  0.00     0.041 A 
ATOM     26  N   UNK d   0     -28.155  -4.219  10.621  0.00  0.00    -0.355 N 
ATOM     27  C   UNK d   0     -27.233  -6.054  11.544  0.00  0.00    -0.022 A 
ATOM     28  C   UNK d   0     -27.322  -4.789   9.735  0.00  0.00     0.042 A 
ATOM     29  H   UNK d   0     -28.783  -3.309  10.454  0.00  0.00     0.166 HD
ATOM     30  C   UNK d   0     -26.977  -4.423   8.425  0.00  0.00     0.062 C 
ATOM     31  C   UNK d   0     -26.726  -5.948  10.286  0.00  0.00    -0.013 A 
ATOM     32  C   UNK d   0     -26.747  -3.151   7.925  0.00  0.00     0.066 A 
BRANCH   8  33
ATOM     33  C   UNK d   0     -25.873  -0.353   5.706  0.00  0.00     0.151 C 
BRANCH  33  34
ATOM     34  C   UNK d   0     -27.031   0.190   4.973  0.00  0.00     0.143 C 
ATOM     35  O   UNK d   0     -27.120   0.068   3.743  0.00  0.00    -0.650 OA
BRANCH  34  36
ATOM     36  O   UNK d   0     -28.025   0.841   5.667  0.00  0.00    -0.776 OA
ATOM     37  H   UNK d   0     -28.020   0.881   6.695  0.00  0.00     0.167 HD
ENDBRANCH  34  36
ENDBRANCH  33  34
ENDBRANCH   8  33
BRANCH  31  38
ATOM     38  C   UNK d   0     -25.726  -6.883   9.647  0.00  0.00     0.151 C 
BRANCH  38  39
ATOM     39  C   UNK d   0     -26.276  -8.194   9.375  0.00  0.00     0.143 C 
ATOM     40  O   UNK d   0     -27.223  -8.368   8.589  0.00  0.00    -0.650 OA
BRANCH  39  41
ATOM     41  O   UNK d   0     -25.733  -9.311  10.010  0.00  0.00    -0.776 OA
ATOM     42  H   UNK d   0     -26.143  -9.573  10.912  0.00  0.00     0.167 HD
ENDBRANCH  39  41
ENDBRANCH  38  39
ENDBRANCH  31  38
BRANCH  27  43
ATOM     43  C   UNK d   0     -26.866  -7.163  12.498  0.00  0.00     0.052 C 
BRANCH  43  44
ATOM     44  C   UNK d   0     -25.498  -7.013  13.080  0.00  0.00     0.115 C 
BRANCH  44  45
ATOM     45  C   UNK d   0     -25.023  -8.383  13.407  0.00  0.00     0.139 C 
ATOM     46  O   UNK d   0     -23.947  -8.500  14.043  0.00  0.00    -0.650 OA
BRANCH  45  47
ATOM     47  O   UNK d   0     -25.715  -9.519  13.047  0.00  0.00    -0.776 OA
ATOM     48  H   UNK d   0     -25.296 -10.274  12.479  0.00  0.00     0.167 HD
ENDBRANCH  45  47
ENDBRANCH  44  45
ENDBRANCH  43  44
ENDBRANCH  27  43
BRANCH  24  49
ATOM     49  C   UNK d   0     -29.985  -4.231  16.010  0.00  0.00     0.052 C 
BRANCH  49  50
ATOM     50  C   UNK d   0     -31.270  -4.878  15.562  0.00  0.00     0.115 C 
BRANCH  50  51
ATOM     51  C   UNK d   0     -32.479  -4.068  15.624  0.00  0.00     0.139 C 
ATOM     52  O   UNK d   0     -33.365  -4.106  14.738  0.00  0.00    -0.650 OA
BRANCH  51  53
ATOM     53  O   UNK d   0     -32.677  -3.212  16.697  0.00  0.00    -0.776 OA
ATOM     54  H   UNK d   0     -31.977  -3.181  17.416  0.00  0.00     0.167 HD
ENDBRANCH  51  53
ENDBRANCH  50  51
ENDBRANCH  49  50
ENDBRANCH  24  49
BRANCH  21  55
ATOM     55  C   UNK d   0     -29.819  -1.158  16.285  0.00  0.00     0.151 C 
BRANCH  55  56
ATOM     56  C   UNK d   0     -28.662  -0.782  17.112  0.00  0.00     0.143 C 
ATOM     57  O   UNK d   0     -28.284   0.398  17.248  0.00  0.00    -0.650 OA
BRANCH  56  58
ATOM     58  O   UNK d   0     -27.972  -1.803  17.764  0.00  0.00    -0.776 OA
ATOM     59  H   UNK d   0     -27.015  -1.554  18.073  0.00  0.00     0.167 HD
ENDBRANCH  56  58
ENDBRANCH  55  56
ENDBRANCH  21  55
BRANCH  18  60
ATOM     60  C   UNK d   0     -29.782   2.284  12.166  0.00  0.00     0.151 C 
BRANCH  60  61
ATOM     61  C   UNK d   0     -29.000   3.434  12.646  0.00  0.00     0.143 C 
ATOM     62  O   UNK d   0     -29.022   4.583  12.204  0.00  0.00    -0.650 OA
BRANCH  61  63
ATOM     63  O   UNK d   0     -28.136   3.163  13.735  0.00  0.00    -0.776 OA
ATOM     64  H   UNK d   0     -27.179   3.468  13.725  0.00  0.00     0.167 HD
ENDBRANCH  61  63
ENDBRANCH  60  61
ENDBRANCH  18  60
BRANCH  14  65
ATOM     65  C   UNK d   0     -28.561   2.631   9.410  0.00  0.00     0.052 C 
BRANCH  65  66
ATOM     66  C   UNK d   0     -29.863   2.511   8.700  0.00  0.00     0.115 C 
BRANCH  66  67
ATOM     67  C   UNK d   0     -30.495   1.227   8.583  0.00  0.00     0.139 C 
ATOM     68  O   UNK d   0     -30.054   0.405   7.698  0.00  0.00    -0.650 OA
BRANCH  67  69
ATOM     69  O   UNK d   0     -31.564   0.731   9.329  0.00  0.00    -0.776 OA
ATOM     70  H   UNK d   0     -32.502   0.992   8.994  0.00  0.00     0.167 HD
ENDBRANCH  67  69
ENDBRANCH  66  67
ENDBRANCH  65  66
ENDBRANCH  14  65
ENDBRANCH   6   7
ENDBRANCH   5   6
ENDBRANCH   2   5
TORSDOF 28
ENDMDL
MODEL 10
REMARK VINA RESULT:      -6.8      2.908      7.527
REMARK  28 active torsions:
REMARK  status: ('A' for Active; 'I' for Inactive)
REMARK    1  A    between atoms: C_2  and  O_3 
REMARK    2  A    between atoms: C_2  and  C_4 
REMARK    3  A    between atoms: C_4  and  C_5 
REMARK    4  A    between atoms: C_5  and  C_6 
REMARK    5  A    between atoms: C_7  and  C_8 
REMARK    6  A    between atoms: C_8  and  C_9 
REMARK    7  A    between atoms: C_9  and  O_11 
REMARK    8  A    between atoms: C_28  and  C_29 
REMARK    9  A    between atoms: C_29  and  C_30 
REMARK   10  A    between atoms: C_30  and  O_32 
REMARK   11  A    between atoms: C_33  and  C_34 
REMARK   12  A    between atoms: C_34  and  C_35 
REMARK   13  A    between atoms: C_35  and  C_36 
REMARK   14  A    between atoms: C_36  and  O_38 
REMARK   15  A    between atoms: C_39  and  C_40 
REMARK   16  A    between atoms: C_40  and  C_41 
REMARK   17  A    between atoms: C_41  and  C_42 
REMARK   18  A    between atoms: C_42  and  O_44 
REMARK   19  A    between atoms: C_45  and  C_46 
REMARK   20  A    between atoms: C_46  and  C_47 
REMARK   21  A    between atoms: C_47  and  O_49 
REMARK   22  A    between atoms: C_50  and  C_51 
REMARK   23  A    between atoms: C_51  and  C_52 
REMARK   24  A    between atoms: C_52  and  O_54 
REMARK   25  A    between atoms: C_55  and  C_56 
REMARK   26  A    between atoms: C_56  and  C_57 
REMARK   27  A    between atoms: C_57  and  C_58 
REMARK   28  A    between atoms: C_58  and  O_60 
ROOT
ATOM      1  O   UNK d   0     -24.400   1.301   3.237  0.00  0.00    -0.650 OA
ATOM      2  C   UNK d   0     -25.136   0.343   3.560  0.00  0.00     0.139 C 
ENDROOT
BRANCH   2   3
ATOM      3  O   UNK d   0     -25.154  -0.786   2.777  0.00  0.00    -0.776 OA
ATOM      4  H   UNK d   0     -24.688  -0.806   1.868  0.00  0.00     0.167 HD
ENDBRANCH   2   3
BRANCH   2   5
ATOM      5  C   UNK d   0     -25.985   0.430   4.782  0.00  0.00     0.115 C 
BRANCH   5   6
ATOM      6  C   UNK d   0     -25.175   0.080   6.001  0.00  0.00     0.052 C 
BRANCH   6   7
ATOM      7  C   UNK d   0     -25.801  -1.026   6.816  0.00  0.00    -0.020 A 
ATOM      8  C   UNK d   0     -25.748  -2.313   6.589  0.00  0.00    -0.011 A 
ATOM      9  C   UNK d   0     -26.505  -2.981   7.635  0.00  0.00     0.067 A 
ATOM     10  C   UNK d   0     -26.811  -4.309   7.973  0.00  0.00     0.062 C 
ATOM     11  N   UNK d   0     -26.989  -2.023   8.453  0.00  0.00    -0.248 NA
ATOM     12  C   UNK d   0     -27.327  -4.777   9.186  0.00  0.00     0.041 A 
ATOM     13  N   UNK d   0     -28.300  -4.292   9.981  0.00  0.00    -0.355 N 
ATOM     14  C   UNK d   0     -26.752  -5.917   9.776  0.00  0.00    -0.022 A 
ATOM     15  C   UNK d   0     -28.351  -5.091  11.064  0.00  0.00     0.042 A 
ATOM     16  H   UNK d   0     -28.950  -3.414   9.772  0.00  0.00     0.166 HD
ATOM     17  C   UNK d   0     -29.184  -5.038  12.199  0.00  0.00     0.062 C 
ATOM     18  C   UNK d   0     -27.395  -6.121  10.971  0.00  0.00    -0.013 A 
ATOM     19  C   UNK d   0     -29.537  -3.953  12.960  0.00  0.00     0.067 A 
ATOM     20  N   UNK d   0     -29.226  -2.748  12.476  0.00  0.00    -0.248 NA
ATOM     21  C   UNK d   0     -30.187  -3.744  14.243  0.00  0.00    -0.011 A 
ATOM     22  C   UNK d   0     -29.625  -1.766  13.349  0.00  0.00     0.066 A 
ATOM     23  C   UNK d   0     -29.397  -0.457  12.951  0.00  0.00     0.062 C 
ATOM     24  C   UNK d   0     -30.232  -2.462  14.467  0.00  0.00    -0.020 A 
ATOM     25  C   UNK d   0     -28.888  -0.007  11.723  0.00  0.00     0.041 A 
ATOM     26  N   UNK d   0     -27.912  -0.480  10.940  0.00  0.00    -0.355 N 
ATOM     27  C   UNK d   0     -29.469   1.135  11.129  0.00  0.00    -0.022 A 
ATOM     28  C   UNK d   0     -27.852   0.320   9.863  0.00  0.00     0.042 A 
ATOM     29  H   UNK d   0     -27.252  -1.356  11.156  0.00  0.00     0.166 HD
ATOM     30  C   UNK d   0     -27.023   0.284   8.731  0.00  0.00     0.062 C 
ATOM     31  C   UNK d   0     -28.820   1.348   9.952  0.00  0.00    -0.013 A 
ATOM     32  C   UNK d   0     -26.600  -0.825   8.016  0.00  0.00     0.066 A 
BRANCH   8  33
ATOM     33  C   UNK d   0     -25.056  -2.987   5.475  0.00  0.00     0.151 C 
BRANCH  33  34
ATOM     34  C   UNK d   0     -23.889  -3.770   5.919  0.00  0.00     0.143 C 
ATOM     35  O   UNK d   0     -23.690  -4.916   5.490  0.00  0.00    -0.650 OA
BRANCH  34  36
ATOM     36  O   UNK d   0     -23.010  -3.219   6.822  0.00  0.00    -0.776 OA
ATOM     37  H   UNK d   0     -22.914  -3.599   7.774  0.00  0.00     0.167 HD
ENDBRANCH  34  36
ENDBRANCH  33  34
ENDBRANCH   8  33
BRANCH  31  38
ATOM     38  C   UNK d   0     -29.108   2.453   8.963  0.00  0.00     0.151 C 
BRANCH  38  39
ATOM     39  C   UNK d   0     -28.542   3.725   9.361  0.00  0.00     0.143 C 
ATOM     40  O   UNK d   0     -29.075   4.451  10.219  0.00  0.00    -0.650 OA
BRANCH  39  41
ATOM     41  O   UNK d   0     -27.358   4.164   8.771  0.00  0.00    -0.776 OA
ATOM     42  H   UNK d   0     -26.483   3.869   9.216  0.00  0.00     0.167 HD
ENDBRANCH  39  41
ENDBRANCH  38  39
ENDBRANCH  31  38
BRANCH  27  43
ATOM     43  C   UNK d   0     -30.590   2.010  11.631  0.00  0.00     0.052 C 
BRANCH  43  44
ATOM     44  C   UNK d   0     -31.932   1.606  11.113  0.00  0.00     0.115 C 
BRANCH  44  45
ATOM     45  C   UNK d   0     -32.526   2.814  10.484  0.00  0.00     0.139 C 
ATOM     46  O   UNK d   0     -32.512   2.897   9.231  0.00  0.00    -0.650 OA
BRANCH  45  47
ATOM     47  O   UNK d   0     -33.092   3.836  11.216  0.00  0.00    -0.776 OA
ATOM     48  H   UNK d   0     -32.584   4.340  11.960  0.00  0.00     0.167 HD
ENDBRANCH  45  47
ENDBRANCH  44  45
ENDBRANCH  43  44
ENDBRANCH  27  43
BRANCH  24  49
ATOM     49  C   UNK d   0     -30.842  -1.805  15.635  0.00  0.00     0.052 C 
BRANCH  49  50
ATOM     50  C   UNK d   0     -29.776  -1.213  16.521  0.00  0.00     0.115 C 
BRANCH  50  51
ATOM     51  C   UNK d   0     -29.951   0.172  16.937  0.00  0.00     0.139 C 
ATOM     52  O   UNK d   0     -29.911   1.131  16.131  0.00  0.00    -0.650 OA
BRANCH  51  53
ATOM     53  O   UNK d   0     -30.169   0.464  18.275  0.00  0.00    -0.776 OA
ATOM     54  H   UNK d   0     -29.882  -0.211  18.962  0.00  0.00     0.167 HD
ENDBRANCH  51  53
ENDBRANCH  50  51
ENDBRANCH  49  50
ENDBRANCH  24  49
BRANCH  21  55
ATOM     55  C   UNK d   0     -30.700  -4.846  15.109  0.00  0.00     0.151 C 
BRANCH  55  56
ATOM     56  C   UNK d   0     -32.163  -4.975  15.029  0.00  0.00     0.143 C 
ATOM     57  O   UNK d   0     -32.917  -4.706  15.985  0.00  0.00    -0.650 OA
BRANCH  56  58
ATOM     58  O   UNK d   0     -32.711  -5.418  13.826  0.00  0.00    -0.776 OA
ATOM     59  H   UNK d   0     -33.719  -5.213  13.705  0.00  0.00     0.167 HD
ENDBRANCH  56  58
ENDBRANCH  55  56
ENDBRANCH  21  55
BRANCH  18  60
ATOM     60  C   UNK d   0     -27.088  -7.237  11.939  0.00  0.00     0.151 C 
BRANCH  60  61
ATOM     61  C   UNK d   0     -26.011  -6.735  12.805  0.00  0.00     0.143 C 
ATOM     62  O   UNK d   0     -25.949  -5.631  13.348  0.00  0.00    -0.650 OA
BRANCH  61  63
ATOM     63  O   UNK d   0     -24.942  -7.637  13.023  0.00  0.00    -0.776 OA
ATOM     64  H   UNK d   0     -24.282  -7.844  12.295  0.00  0.00     0.167 HD
ENDBRANCH  61  63
ENDBRANCH  60  61
ENDBRANCH  18  60
BRANCH  14  65
ATOM     65  C   UNK d   0     -25.719  -6.876   9.255  0.00  0.00     0.052 C 
BRANCH  65  66
ATOM     66  C   UNK d   0     -24.336  -6.527   9.678  0.00  0.00     0.115 C 
BRANCH  66  67
ATOM     67  C   UNK d   0     -23.347  -6.210   8.687  0.00  0.00     0.139 C 
ATOM     68  O   UNK d   0     -22.570  -5.207   8.894  0.00  0.00    -0.650 OA
BRANCH  67  69
ATOM     69  O   UNK d   0     -23.106  -6.868   7.481  0.00  0.00    -0.776 OA
ATOM     70  H   UNK d   0     -23.763  -6.658   6.717  0.00  0.00     0.167 HD
ENDBRANCH  67  69
ENDBRANCH  66  67
ENDBRANCH  65  66
ENDBRANCH  14  65
ENDBRANCH   6   7
ENDBRANCH   5   6
ENDBRANCH   2   5
TORSDOF 28
ENDMDL
MODEL 11
REMARK VINA RESULT:      -6.8     33.464     36.670
REMARK  28 active torsions:
REMARK  status: ('A' for Active; 'I' for Inactive)
REMARK    1  A    between atoms: C_2  and  O_3 
REMARK    2  A    between atoms: C_2  and  C_4 
REMARK    3  A    between atoms: C_4  and  C_5 
REMARK    4  A    between atoms: C_5  and  C_6 
REMARK    5  A    between atoms: C_7  and  C_8 
REMARK    6  A    between atoms: C_8  and  C_9 
REMARK    7  A    between atoms: C_9  and  O_11 
REMARK    8  A    between atoms: C_28  and  C_29 
REMARK    9  A    between atoms: C_29  and  C_30 
REMARK   10  A    between atoms: C_30  and  O_32 
REMARK   11  A    between atoms: C_33  and  C_34 
REMARK   12  A    between atoms: C_34  and  C_35 
REMARK   13  A    between atoms: C_35  and  C_36 
REMARK   14  A    between atoms: C_36  and  O_38 
REMARK   15  A    between atoms: C_39  and  C_40 
REMARK   16  A    between atoms: C_40  and  C_41 
REMARK   17  A    between atoms: C_41  and  C_42 
REMARK   18  A    between atoms: C_42  and  O_44 
REMARK   19  A    between atoms: C_45  and  C_46 
REMARK   20  A    between atoms: C_46  and  C_47 
REMARK   21  A    between atoms: C_47  and  O_49 
REMARK   22  A    between atoms: C_50  and  C_51 
REMARK   23  A    between atoms: C_51  and  C_52 
REMARK   24  A    between atoms: C_52  and  O_54 
REMARK   25  A    between atoms: C_55  and  C_56 
REMARK   26  A    between atoms: C_56  and  C_57 
REMARK   27  A    between atoms: C_57  and  C_58 
REMARK   28  A    between atoms: C_58  and  O_60 
ROOT
ATOM      1  O   UNK d   0      12.720   8.544   0.416  0.00  0.00    -0.650 OA
ATOM      2  C   UNK d   0      12.008   8.829   1.404  0.00  0.00     0.139 C 
ENDROOT
BRANCH   2   3
ATOM      3  O   UNK d   0      11.107   9.862   1.310  0.00  0.00    -0.776 OA
ATOM      4  H   UNK d   0      10.769  10.186   0.401  0.00  0.00     0.167 HD
ENDBRANCH   2   3
BRANCH   2   5
ATOM      5  C   UNK d   0      12.140   8.053   2.670  0.00  0.00     0.115 C 
BRANCH   5   6
ATOM      6  C   UNK d   0      12.432   6.610   2.364  0.00  0.00     0.052 C 
BRANCH   6   7
ATOM      7  C   UNK d   0      11.233   5.717   2.573  0.00  0.00    -0.020 A 
ATOM      8  C   UNK d   0      10.283   5.442   1.716  0.00  0.00    -0.011 A 
ATOM      9  C   UNK d   0       9.341   4.547   2.367  0.00  0.00     0.067 A 
ATOM     10  C   UNK d   0       8.157   3.885   2.005  0.00  0.00     0.062 C 
ATOM     11  N   UNK d   0       9.792   4.334   3.621  0.00  0.00    -0.248 NA
ATOM     12  C   UNK d   0       7.532   2.834   2.685  0.00  0.00     0.041 A 
ATOM     13  N   UNK d   0       7.306   2.639   3.998  0.00  0.00    -0.355 N 
ATOM     14  C   UNK d   0       7.080   1.723   1.951  0.00  0.00    -0.022 A 
ATOM     15  C   UNK d   0       6.728   1.428   4.117  0.00  0.00     0.042 A 
ATOM     16  H   UNK d   0       7.532   3.350   4.822  0.00  0.00     0.166 HD
ATOM     17  C   UNK d   0       6.285   0.736   5.261  0.00  0.00     0.062 C 
ATOM     18  C   UNK d   0       6.570   0.823   2.855  0.00  0.00    -0.013 A 
ATOM     19  C   UNK d   0       6.914   0.574   6.469  0.00  0.00     0.067 A 
ATOM     20  N   UNK d   0       8.001   1.319   6.689  0.00  0.00    -0.248 NA
ATOM     21  C   UNK d   0       6.717  -0.253   7.648  0.00  0.00    -0.011 A 
ATOM     22  C   UNK d   0       8.528   1.038   7.926  0.00  0.00     0.066 A 
ATOM     23  C   UNK d   0       9.644   1.772   8.301  0.00  0.00     0.062 C 
ATOM     24  C   UNK d   0       7.667   0.020   8.494  0.00  0.00    -0.020 A 
ATOM     25  C   UNK d   0      10.249   2.832   7.608  0.00  0.00     0.041 A 
ATOM     26  N   UNK d   0      10.488   3.020   6.305  0.00  0.00    -0.355 N 
ATOM     27  C   UNK d   0      10.699   3.950   8.345  0.00  0.00    -0.022 A 
ATOM     28  C   UNK d   0      11.072   4.223   6.185  0.00  0.00     0.042 A 
ATOM     29  H   UNK d   0      10.270   2.300   5.479  0.00  0.00     0.166 HD
ATOM     30  C   UNK d   0      11.526   4.919   5.054  0.00  0.00     0.062 C 
ATOM     31  C   UNK d   0      11.221   4.834   7.452  0.00  0.00    -0.013 A 
ATOM     32  C   UNK d   0      10.927   5.010   3.808  0.00  0.00     0.066 A 
BRANCH   8  33
ATOM     33  C   UNK d   0      10.166   5.943   0.334  0.00  0.00     0.151 C 
BRANCH  33  34
ATOM     34  C   UNK d   0      10.905   5.116  -0.638  0.00  0.00     0.143 C 
ATOM     35  O   UNK d   0      12.015   5.469  -1.060  0.00  0.00    -0.650 OA
BRANCH  34  36
ATOM     36  O   UNK d   0      10.350   3.937  -1.081  0.00  0.00    -0.776 OA
ATOM     37  H   UNK d   0       9.965   3.852  -2.031  0.00  0.00     0.167 HD
ENDBRANCH  34  36
ENDBRANCH  33  34
ENDBRANCH   8  33
BRANCH  31  38
ATOM     38  C   UNK d   0      11.813   6.186   7.778  0.00  0.00     0.151 C 
BRANCH  38  39
ATOM     39  C   UNK d   0      10.806   7.206   7.982  0.00  0.00     0.143 C 
ATOM     40  O   UNK d   0      10.765   7.903   9.011  0.00  0.00    -0.650 OA
BRANCH  39  41
ATOM     41  O   UNK d   0       9.843   7.426   6.998  0.00  0.00    -0.776 OA
ATOM     42  H   UNK d   0      10.085   8.089   6.256  0.00  0.00     0.167 HD
ENDBRANCH  39  41
ENDBRANCH  38  39
ENDBRANCH  31  38
BRANCH  27  43
ATOM     43  C   UNK d   0      10.654   4.199   9.832  0.00  0.00     0.052 C 
BRANCH  43  44
ATOM     44  C   UNK d   0       9.364   3.783  10.462  0.00  0.00     0.115 C 
BRANCH  44  45
ATOM     45  C   UNK d   0       8.344   4.777  10.035  0.00  0.00     0.139 C 
ATOM     46  O   UNK d   0       8.551   5.987  10.299  0.00  0.00    -0.650 OA
BRANCH  45  47
ATOM     47  O   UNK d   0       7.194   4.425   9.363  0.00  0.00    -0.776 OA
ATOM     48  H   UNK d   0       6.879   3.446   9.266  0.00  0.00     0.167 HD
ENDBRANCH  45  47
ENDBRANCH  44  45
ENDBRANCH  43  44
ENDBRANCH  27  43
BRANCH  24  49
ATOM     49  C   UNK d   0       7.827  -0.562   9.838  0.00  0.00     0.052 C 
BRANCH  49  50
ATOM     50  C   UNK d   0       8.841  -1.676   9.809  0.00  0.00     0.115 C 
BRANCH  50  51
ATOM     51  C   UNK d   0       8.655  -2.769  10.754  0.00  0.00     0.139 C 
ATOM     52  O   UNK d   0       9.313  -2.864  11.817  0.00  0.00    -0.650 OA
BRANCH  51  53
ATOM     53  O   UNK d   0       7.720  -3.757  10.485  0.00  0.00    -0.776 OA
ATOM     54  H   UNK d   0       6.748  -3.540  10.616  0.00  0.00     0.167 HD
ENDBRANCH  51  53
ENDBRANCH  50  51
ENDBRANCH  49  50
ENDBRANCH  24  49
BRANCH  21  55
ATOM     55  C   UNK d   0       5.596  -1.226   7.806  0.00  0.00     0.151 C 
BRANCH  55  56
ATOM     56  C   UNK d   0       5.848  -2.480   7.079  0.00  0.00     0.143 C 
ATOM     57  O   UNK d   0       5.396  -2.701   5.938  0.00  0.00    -0.650 OA
BRANCH  56  58
ATOM     58  O   UNK d   0       6.626  -3.450   7.708  0.00  0.00    -0.776 OA
ATOM     59  H   UNK d   0       6.220  -4.403   7.707  0.00  0.00     0.167 HD
ENDBRANCH  56  58
ENDBRANCH  55  56
ENDBRANCH  21  55
BRANCH  18  60
ATOM     60  C   UNK d   0       5.981  -0.519   2.499  0.00  0.00     0.151 C 
BRANCH  60  61
ATOM     61  C   UNK d   0       4.541  -0.416   2.782  0.00  0.00     0.143 C 
ATOM     62  O   UNK d   0       3.773   0.468   2.404  0.00  0.00    -0.650 OA
BRANCH  61  63
ATOM     63  O   UNK d   0       4.007  -1.460   3.575  0.00  0.00    -0.776 OA
ATOM     64  H   UNK d   0       3.908  -2.390   3.209  0.00  0.00     0.167 HD
ENDBRANCH  61  63
ENDBRANCH  60  61
ENDBRANCH  18  60
BRANCH  14  65
ATOM     65  C   UNK d   0       7.003   1.491   0.469  0.00  0.00     0.052 C 
BRANCH  65  66
ATOM     66  C   UNK d   0       5.740   1.996  -0.134  0.00  0.00     0.115 C 
BRANCH  66  67
ATOM     67  C   UNK d   0       4.918   1.110  -0.909  0.00  0.00     0.139 C 
ATOM     68  O   UNK d   0       5.287   0.819  -2.106  0.00  0.00    -0.650 OA
BRANCH  67  69
ATOM     69  O   UNK d   0       3.725   0.499  -0.525  0.00  0.00    -0.776 OA
ATOM     70  H   UNK d   0       3.497  -0.382  -1.008  0.00  0.00     0.167 HD
ENDBRANCH  67  69
ENDBRANCH  66  67
ENDBRANCH  65  66
ENDBRANCH  14  65
ENDBRANCH   6   7
ENDBRANCH   5   6
ENDBRANCH   2   5
TORSDOF 28
ENDMDL
MODEL 12
REMARK VINA RESULT:      -6.7      3.568      4.854
REMARK  28 active torsions:
REMARK  status: ('A' for Active; 'I' for Inactive)
REMARK    1  A    between atoms: C_2  and  O_3 
REMARK    2  A    between atoms: C_2  and  C_4 
REMARK    3  A    between atoms: C_4  and  C_5 
REMARK    4  A    between atoms: C_5  and  C_6 
REMARK    5  A    between atoms: C_7  and  C_8 
REMARK    6  A    between atoms: C_8  and  C_9 
REMARK    7  A    between atoms: C_9  and  O_11 
REMARK    8  A    between atoms: C_28  and  C_29 
REMARK    9  A    between atoms: C_29  and  C_30 
REMARK   10  A    between atoms: C_30  and  O_32 
REMARK   11  A    between atoms: C_33  and  C_34 
REMARK   12  A    between atoms: C_34  and  C_35 
REMARK   13  A    between atoms: C_35  and  C_36 
REMARK   14  A    between atoms: C_36  and  O_38 
REMARK   15  A    between atoms: C_39  and  C_40 
REMARK   16  A    between atoms: C_40  and  C_41 
REMARK   17  A    between atoms: C_41  and  C_42 
REMARK   18  A    between atoms: C_42  and  O_44 
REMARK   19  A    between atoms: C_45  and  C_46 
REMARK   20  A    between atoms: C_46  and  C_47 
REMARK   21  A    between atoms: C_47  and  O_49 
REMARK   22  A    between atoms: C_50  and  C_51 
REMARK   23  A    between atoms: C_51  and  C_52 
REMARK   24  A    between atoms: C_52  and  O_54 
REMARK   25  A    between atoms: C_55  and  C_56 
REMARK   26  A    between atoms: C_56  and  C_57 
REMARK   27  A    between atoms: C_57  and  C_58 
REMARK   28  A    between atoms: C_58  and  O_60 
ROOT
ATOM      1  O   UNK d   0     -25.295  -7.388  13.130  0.00  0.00    -0.650 OA
ATOM      2  C   UNK d   0     -25.620  -8.508  12.677  0.00  0.00     0.139 C 
ENDROOT
BRANCH   2   3
ATOM      3  O   UNK d   0     -25.754  -9.570  13.538  0.00  0.00    -0.776 OA
ATOM      4  H   UNK d   0     -25.044  -9.768  14.246  0.00  0.00     0.167 HD
ENDBRANCH   2   3
BRANCH   2   5
ATOM      5  C   UNK d   0     -25.856  -8.684  11.216  0.00  0.00     0.115 C 
BRANCH   5   6
ATOM      6  C   UNK d   0     -27.109  -7.962  10.803  0.00  0.00     0.052 C 
BRANCH   6   7
ATOM      7  C   UNK d   0     -26.855  -6.519  10.439  0.00  0.00    -0.020 A 
ATOM      8  C   UNK d   0     -25.818  -6.024   9.813  0.00  0.00    -0.011 A 
ATOM      9  C   UNK d   0     -26.012  -4.588   9.697  0.00  0.00     0.067 A 
ATOM     10  C   UNK d   0     -25.306  -3.514   9.134  0.00  0.00     0.062 C 
ATOM     11  N   UNK d   0     -27.191  -4.294  10.284  0.00  0.00    -0.248 NA
ATOM     12  C   UNK d   0     -25.788  -2.226   8.875  0.00  0.00     0.041 A 
ATOM     13  N   UNK d   0     -26.562  -1.405   9.609  0.00  0.00    -0.355 N 
ATOM     14  C   UNK d   0     -25.506  -1.632   7.631  0.00  0.00    -0.022 A 
ATOM     15  C   UNK d   0     -26.786  -0.308   8.860  0.00  0.00     0.042 A 
ATOM     16  H   UNK d   0     -26.928  -1.588  10.643  0.00  0.00     0.166 HD
ATOM     17  C   UNK d   0     -27.527   0.856   9.144  0.00  0.00     0.062 C 
ATOM     18  C   UNK d   0     -26.140  -0.414   7.613  0.00  0.00    -0.013 A 
ATOM     19  C   UNK d   0     -28.769   0.970   9.714  0.00  0.00     0.067 A 
ATOM     20  N   UNK d   0     -29.287  -0.133  10.261  0.00  0.00    -0.248 NA
ATOM     21  C   UNK d   0     -29.747   2.032   9.884  0.00  0.00    -0.011 A 
ATOM     22  C   UNK d   0     -30.533   0.131  10.775  0.00  0.00     0.066 A 
ATOM     23  C   UNK d   0     -31.174  -0.924  11.409  0.00  0.00     0.062 C 
ATOM     24  C   UNK d   0     -30.779   1.533  10.502  0.00  0.00    -0.020 A 
ATOM     25  C   UNK d   0     -30.667  -2.206  11.671  0.00  0.00     0.041 A 
ATOM     26  N   UNK d   0     -29.909  -3.028  10.936  0.00  0.00    -0.355 N 
ATOM     27  C   UNK d   0     -30.946  -2.800  12.921  0.00  0.00    -0.022 A 
ATOM     28  C   UNK d   0     -29.692  -4.127  11.677  0.00  0.00     0.042 A 
ATOM     29  H   UNK d   0     -29.552  -2.847   9.892  0.00  0.00     0.166 HD
ATOM     30  C   UNK d   0     -28.965  -5.296  11.403  0.00  0.00     0.062 C 
ATOM     31  C   UNK d   0     -30.333  -4.015  12.933  0.00  0.00    -0.013 A 
ATOM     32  C   UNK d   0     -27.748  -5.413  10.750  0.00  0.00     0.066 A 
BRANCH   8  33
ATOM     33  C   UNK d   0     -24.649  -6.769   9.312  0.00  0.00     0.151 C 
BRANCH  33  34
ATOM     34  C   UNK d   0     -24.817  -7.228   7.921  0.00  0.00     0.143 C 
ATOM     35  O   UNK d   0     -25.433  -6.540   7.095  0.00  0.00    -0.650 OA
BRANCH  34  36
ATOM     36  O   UNK d   0     -24.284  -8.437   7.540  0.00  0.00    -0.776 OA
ATOM     37  H   UNK d   0     -23.780  -8.541   6.649  0.00  0.00     0.167 HD
ENDBRANCH  34  36
ENDBRANCH  33  34
ENDBRANCH   8  33
BRANCH  31  38
ATOM     38  C   UNK d   0     -30.342  -5.007  14.073  0.00  0.00     0.151 C 
BRANCH  38  39
ATOM     39  C   UNK d   0     -29.477  -4.615  15.166  0.00  0.00     0.143 C 
ATOM     40  O   UNK d   0     -28.289  -4.291  14.990  0.00  0.00    -0.650 OA
BRANCH  39  41
ATOM     41  O   UNK d   0     -29.980  -4.594  16.466  0.00  0.00    -0.776 OA
ATOM     42  H   UNK d   0     -30.267  -3.683  16.836  0.00  0.00     0.167 HD
ENDBRANCH  39  41
ENDBRANCH  38  39
ENDBRANCH  31  38
BRANCH  27  43
ATOM     43  C   UNK d   0     -31.758  -2.267  14.075  0.00  0.00     0.052 C 
BRANCH  43  44
ATOM     44  C   UNK d   0     -33.089  -2.931  14.218  0.00  0.00     0.115 C 
BRANCH  44  45
ATOM     45  C   UNK d   0     -33.246  -3.262  15.658  0.00  0.00     0.139 C 
ATOM     46  O   UNK d   0     -32.341  -2.902  16.450  0.00  0.00    -0.650 OA
BRANCH  45  47
ATOM     47  O   UNK d   0     -34.340  -3.938  16.155  0.00  0.00    -0.776 OA
ATOM     48  H   UNK d   0     -34.882  -4.614  15.594  0.00  0.00     0.167 HD
ENDBRANCH  45  47
ENDBRANCH  44  45
ENDBRANCH  43  44
ENDBRANCH  27  43
BRANCH  24  49
ATOM     49  C   UNK d   0     -31.986   2.271  10.911  0.00  0.00     0.052 C 
BRANCH  49  50
ATOM     50  C   UNK d   0     -33.220   1.604  10.359  0.00  0.00     0.115 C 
BRANCH  50  51
ATOM     51  C   UNK d   0     -34.444   2.393  10.326  0.00  0.00     0.139 C 
ATOM     52  O   UNK d   0     -34.442   3.646  10.373  0.00  0.00    -0.650 OA
BRANCH  51  53
ATOM     53  O   UNK d   0     -35.671   1.753  10.243  0.00  0.00    -0.776 OA
ATOM     54  H   UNK d   0     -36.419   2.220   9.759  0.00  0.00     0.167 HD
ENDBRANCH  51  53
ENDBRANCH  50  51
ENDBRANCH  49  50
ENDBRANCH  24  49
BRANCH  21  55
ATOM     55  C   UNK d   0     -29.546   3.435   9.416  0.00  0.00     0.151 C 
BRANCH  55  56
ATOM     56  C   UNK d   0     -28.703   4.209  10.339  0.00  0.00     0.143 C 
ATOM     57  O   UNK d   0     -28.729   4.047  11.574  0.00  0.00    -0.650 OA
BRANCH  56  58
ATOM     58  O   UNK d   0     -27.843   5.160   9.790  0.00  0.00    -0.776 OA
ATOM     59  H   UNK d   0     -26.854   5.074  10.083  0.00  0.00     0.167 HD
ENDBRANCH  56  58
ENDBRANCH  55  56
ENDBRANCH  21  55
BRANCH  18  60
ATOM     60  C   UNK d   0     -26.111   0.559   6.460  0.00  0.00     0.151 C 
BRANCH  60  61
ATOM     61  C   UNK d   0     -27.282   0.236   5.631  0.00  0.00     0.143 C 
ATOM     62  O   UNK d   0     -28.290  -0.380   5.977  0.00  0.00    -0.650 OA
BRANCH  61  63
ATOM     63  O   UNK d   0     -27.217   0.697   4.293  0.00  0.00    -0.776 OA
ATOM     64  H   UNK d   0     -26.477   1.304   3.989  0.00  0.00     0.167 HD
ENDBRANCH  61  63
ENDBRANCH  60  61
ENDBRANCH  18  60
BRANCH  14  65
ATOM     65  C   UNK d   0     -24.612  -2.080   6.510  0.00  0.00     0.052 C 
BRANCH  65  66
ATOM     66  C   UNK d   0     -25.279  -3.027   5.577  0.00  0.00     0.115 C 
BRANCH  66  67
ATOM     67  C   UNK d   0     -24.484  -3.896   4.756  0.00  0.00     0.139 C 
ATOM     68  O   UNK d   0     -24.357  -3.613   3.508  0.00  0.00    -0.650 OA
BRANCH  67  69
ATOM     69  O   UNK d   0     -23.804  -5.050   5.143  0.00  0.00    -0.776 OA
ATOM     70  H   UNK d   0     -22.803  -5.083   4.901  0.00  0.00     0.167 HD
ENDBRANCH  67  69
ENDBRANCH  66  67
ENDBRANCH  65  66
ENDBRANCH  14  65
ENDBRANCH   6   7
ENDBRANCH   5   6
ENDBRANCH   2   5
TORSDOF 28
ENDMDL
MODEL 13
REMARK VINA RESULT:      -6.7      1.421      1.891
REMARK  28 active torsions:
REMARK  status: ('A' for Active; 'I' for Inactive)
REMARK    1  A    between atoms: C_2  and  O_3 
REMARK    2  A    between atoms: C_2  and  C_4 
REMARK    3  A    between atoms: C_4  and  C_5 
REMARK    4  A    between atoms: C_5  and  C_6 
REMARK    5  A    between atoms: C_7  and  C_8 
REMARK    6  A    between atoms: C_8  and  C_9 
REMARK    7  A    between atoms: C_9  and  O_11 
REMARK    8  A    between atoms: C_28  and  C_29 
REMARK    9  A    between atoms: C_29  and  C_30 
REMARK   10  A    between atoms: C_30  and  O_32 
REMARK   11  A    between atoms: C_33  and  C_34 
REMARK   12  A    between atoms: C_34  and  C_35 
REMARK   13  A    between atoms: C_35  and  C_36 
REMARK   14  A    between atoms: C_36  and  O_38 
REMARK   15  A    between atoms: C_39  and  C_40 
REMARK   16  A    between atoms: C_40  and  C_41 
REMARK   17  A    between atoms: C_41  and  C_42 
REMARK   18  A    between atoms: C_42  and  O_44 
REMARK   19  A    between atoms: C_45  and  C_46 
REMARK   20  A    between atoms: C_46  and  C_47 
REMARK   21  A    between atoms: C_47  and  O_49 
REMARK   22  A    between atoms: C_50  and  C_51 
REMARK   23  A    between atoms: C_51  and  C_52 
REMARK   24  A    between atoms: C_52  and  O_54 
REMARK   25  A    between atoms: C_55  and  C_56 
REMARK   26  A    between atoms: C_56  and  C_57 
REMARK   27  A    between atoms: C_57  and  C_58 
REMARK   28  A    between atoms: C_58  and  O_60 
ROOT
ATOM      1  O   UNK d   0     -27.305  -7.768  10.623  0.00  0.00    -0.650 OA
ATOM      2  C   UNK d   0     -26.143  -8.230  10.623  0.00  0.00     0.139 C 
ENDROOT
BRANCH   2   3
ATOM      3  O   UNK d   0     -25.764  -9.101  11.617  0.00  0.00    -0.776 OA
ATOM      4  H   UNK d   0     -26.299  -9.176  12.484  0.00  0.00     0.167 HD
ENDBRANCH   2   3
BRANCH   2   5
ATOM      5  C   UNK d   0     -25.181  -7.837   9.555  0.00  0.00     0.115 C 
BRANCH   5   6
ATOM      6  C   UNK d   0     -24.234  -6.788  10.072  0.00  0.00     0.052 C 
BRANCH   6   7
ATOM      7  C   UNK d   0     -24.810  -5.395   9.995  0.00  0.00    -0.020 A 
ATOM      8  C   UNK d   0     -25.112  -4.715   8.919  0.00  0.00    -0.011 A 
ATOM      9  C   UNK d   0     -25.628  -3.423   9.339  0.00  0.00     0.067 A 
ATOM     10  C   UNK d   0     -26.131  -2.277   8.703  0.00  0.00     0.062 C 
ATOM     11  N   UNK d   0     -25.599  -3.400  10.688  0.00  0.00    -0.248 NA
ATOM     12  C   UNK d   0     -26.846  -1.227   9.289  0.00  0.00     0.041 A 
ATOM     13  N   UNK d   0     -26.662  -0.569  10.450  0.00  0.00    -0.355 N 
ATOM     14  C   UNK d   0     -28.003  -0.750   8.648  0.00  0.00    -0.022 A 
ATOM     15  C   UNK d   0     -27.678   0.308  10.565  0.00  0.00     0.042 A 
ATOM     16  H   UNK d   0     -25.821  -0.708  11.164  0.00  0.00     0.166 HD
ATOM     17  C   UNK d   0     -27.968   1.240  11.581  0.00  0.00     0.062 C 
ATOM     18  C   UNK d   0     -28.539   0.223   9.454  0.00  0.00    -0.013 A 
ATOM     19  C   UNK d   0     -27.936   1.072  12.941  0.00  0.00     0.067 A 
ATOM     20  N   UNK d   0     -27.372  -0.049  13.399  0.00  0.00    -0.248 NA
ATOM     21  C   UNK d   0     -28.391   1.824  14.098  0.00  0.00    -0.011 A 
ATOM     22  C   UNK d   0     -27.426  -0.085  14.770  0.00  0.00     0.066 A 
ATOM     23  C   UNK d   0     -26.839  -1.182  15.382  0.00  0.00     0.062 C 
ATOM     24  C   UNK d   0     -28.094   1.140  15.165  0.00  0.00    -0.020 A 
ATOM     25  C   UNK d   0     -26.115  -2.220  14.776  0.00  0.00     0.041 A 
ATOM     26  N   UNK d   0     -26.305  -2.884  13.630  0.00  0.00    -0.355 N 
ATOM     27  C   UNK d   0     -24.951  -2.695  15.418  0.00  0.00    -0.022 A 
ATOM     28  C   UNK d   0     -25.299  -3.765  13.517  0.00  0.00     0.042 A 
ATOM     29  H   UNK d   0     -27.157  -2.751  12.918  0.00  0.00     0.166 HD
ATOM     30  C   UNK d   0     -25.003  -4.705  12.517  0.00  0.00     0.062 C 
ATOM     31  C   UNK d   0     -24.428  -3.673  14.628  0.00  0.00    -0.013 A 
ATOM     32  C   UNK d   0     -25.118  -4.557  11.144  0.00  0.00     0.066 A 
BRANCH   8  33
ATOM     33  C   UNK d   0     -24.960  -5.157   7.520  0.00  0.00     0.151 C 
BRANCH  33  34
ATOM     34  C   UNK d   0     -23.738  -4.630   6.885  0.00  0.00     0.143 C 
ATOM     35  O   UNK d   0     -22.664  -5.243   6.966  0.00  0.00    -0.650 OA
BRANCH  34  36
ATOM     36  O   UNK d   0     -23.794  -3.441   6.195  0.00  0.00    -0.776 OA
ATOM     37  H   UNK d   0     -23.486  -2.559   6.626  0.00  0.00     0.167 HD
ENDBRANCH  34  36
ENDBRANCH  33  34
ENDBRANCH   8  33
BRANCH  31  38
ATOM     38  C   UNK d   0     -23.170  -4.464  14.903  0.00  0.00     0.151 C 
BRANCH  38  39
ATOM     39  C   UNK d   0     -22.032  -3.990  14.144  0.00  0.00     0.143 C 
ATOM     40  O   UNK d   0     -21.315  -4.754  13.475  0.00  0.00    -0.650 OA
BRANCH  39  41
ATOM     41  O   UNK d   0     -21.718  -2.631  14.155  0.00  0.00    -0.776 OA
ATOM     42  H   UNK d   0     -20.911  -2.349  14.720  0.00  0.00     0.167 HD
ENDBRANCH  39  41
ENDBRANCH  38  39
ENDBRANCH  31  38
BRANCH  27  43
ATOM     43  C   UNK d   0     -24.334  -2.265  16.726  0.00  0.00     0.052 C 
BRANCH  43  44
ATOM     44  C   UNK d   0     -25.207  -2.536  17.908  0.00  0.00     0.115 C 
BRANCH  44  45
ATOM     45  C   UNK d   0     -24.655  -1.740  19.035  0.00  0.00     0.139 C 
ATOM     46  O   UNK d   0     -24.822  -2.171  20.202  0.00  0.00    -0.650 OA
BRANCH  45  47
ATOM     47  O   UNK d   0     -23.968  -0.560  18.850  0.00  0.00    -0.776 OA
ATOM     48  H   UNK d   0     -24.433   0.324  18.586  0.00  0.00     0.167 HD
ENDBRANCH  45  47
ENDBRANCH  44  45
ENDBRANCH  43  44
ENDBRANCH  27  43
BRANCH  24  49
ATOM     49  C   UNK d   0     -28.341   1.552  16.558  0.00  0.00     0.052 C 
BRANCH  49  50
ATOM     50  C   UNK d   0     -27.345   2.601  16.979  0.00  0.00     0.115 C 
BRANCH  50  51
ATOM     51  C   UNK d   0     -25.934   2.284  16.812  0.00  0.00     0.139 C 
ATOM     52  O   UNK d   0     -25.365   1.369  17.454  0.00  0.00    -0.650 OA
BRANCH  51  53
ATOM     53  O   UNK d   0     -25.169   3.011  15.913  0.00  0.00    -0.776 OA
ATOM     54  H   UNK d   0     -24.236   2.692  15.715  0.00  0.00     0.167 HD
ENDBRANCH  51  53
ENDBRANCH  50  51
ENDBRANCH  49  50
ENDBRANCH  24  49
BRANCH  21  55
ATOM     55  C   UNK d   0     -29.072   3.150  14.017  0.00  0.00     0.151 C 
BRANCH  55  56
ATOM     56  C   UNK d   0     -28.186   4.193  13.479  0.00  0.00     0.143 C 
ATOM     57  O   UNK d   0     -28.378   4.739  12.375  0.00  0.00    -0.650 OA
BRANCH  56  58
ATOM     58  O   UNK d   0     -27.089   4.575  14.251  0.00  0.00    -0.776 OA
ATOM     59  H   UNK d   0     -26.497   3.793  14.583  0.00  0.00     0.167 HD
ENDBRANCH  56  58
ENDBRANCH  55  56
ENDBRANCH  21  55
BRANCH  18  60
ATOM     60  C   UNK d   0     -29.797   1.000   9.152  0.00  0.00     0.151 C 
BRANCH  60  61
ATOM     61  C   UNK d   0     -30.894   0.256   9.790  0.00  0.00     0.143 C 
ATOM     62  O   UNK d   0     -30.986  -0.965   9.918  0.00  0.00    -0.650 OA
BRANCH  61  63
ATOM     63  O   UNK d   0     -31.944   1.054  10.304  0.00  0.00    -0.776 OA
ATOM     64  H   UNK d   0     -31.997   2.036  10.099  0.00  0.00     0.167 HD
ENDBRANCH  61  63
ENDBRANCH  60  61
ENDBRANCH  18  60
BRANCH  14  65
ATOM     65  C   UNK d   0     -28.580  -1.071   7.298  0.00  0.00     0.052 C 
BRANCH  65  66
ATOM     66  C   UNK d   0     -27.862  -0.397   6.183  0.00  0.00     0.115 C 
BRANCH  66  67
ATOM     67  C   UNK d   0     -27.076  -1.176   5.268  0.00  0.00     0.139 C 
ATOM     68  O   UNK d   0     -26.743  -0.649   4.144  0.00  0.00    -0.650 OA
BRANCH  67  69
ATOM     69  O   UNK d   0     -26.608  -2.478   5.440  0.00  0.00    -0.776 OA
ATOM     70  H   UNK d   0     -26.842  -3.141   4.688  0.00  0.00     0.167 HD
ENDBRANCH  67  69
ENDBRANCH  66  67
ENDBRANCH  65  66
ENDBRANCH  14  65
ENDBRANCH   6   7
ENDBRANCH   5   6
ENDBRANCH   2   5
TORSDOF 28
ENDMDL
MODEL 14
REMARK VINA RESULT:      -6.7     33.915     37.015
REMARK  28 active torsions:
REMARK  status: ('A' for Active; 'I' for Inactive)
REMARK    1  A    between atoms: C_2  and  O_3 
REMARK    2  A    between atoms: C_2  and  C_4 
REMARK    3  A    between atoms: C_4  and  C_5 
REMARK    4  A    between atoms: C_5  and  C_6 
REMARK    5  A    between atoms: C_7  and  C_8 
REMARK    6  A    between atoms: C_8  and  C_9 
REMARK    7  A    between atoms: C_9  and  O_11 
REMARK    8  A    between atoms: C_28  and  C_29 
REMARK    9  A    between atoms: C_29  and  C_30 
REMARK   10  A    between atoms: C_30  and  O_32 
REMARK   11  A    between atoms: C_33  and  C_34 
REMARK   12  A    between atoms: C_34  and  C_35 
REMARK   13  A    between atoms: C_35  and  C_36 
REMARK   14  A    between atoms: C_36  and  O_38 
REMARK   15  A    between atoms: C_39  and  C_40 
REMARK   16  A    between atoms: C_40  and  C_41 
REMARK   17  A    between atoms: C_41  and  C_42 
REMARK   18  A    between atoms: C_42  and  O_44 
REMARK   19  A    between atoms: C_45  and  C_46 
REMARK   20  A    between atoms: C_46  and  C_47 
REMARK   21  A    between atoms: C_47  and  O_49 
REMARK   22  A    between atoms: C_50  and  C_51 
REMARK   23  A    between atoms: C_51  and  C_52 
REMARK   24  A    between atoms: C_52  and  O_54 
REMARK   25  A    between atoms: C_55  and  C_56 
REMARK   26  A    between atoms: C_56  and  C_57 
REMARK   27  A    between atoms: C_57  and  C_58 
REMARK   28  A    between atoms: C_58  and  O_60 
ROOT
ATOM      1  O   UNK d   0      13.654   8.369   0.230  0.00  0.00    -0.650 OA
ATOM      2  C   UNK d   0      12.813   8.386   1.156  0.00  0.00     0.139 C 
ENDROOT
BRANCH   2   3
ATOM      3  O   UNK d   0      11.754   9.259   1.088  0.00  0.00    -0.776 OA
ATOM      4  H   UNK d   0      11.129   9.394   1.886  0.00  0.00     0.167 HD
ENDBRANCH   2   3
BRANCH   2   5
ATOM      5  C   UNK d   0      12.961   7.466   2.319  0.00  0.00     0.115 C 
BRANCH   5   6
ATOM      6  C   UNK d   0      13.102   6.046   1.842  0.00  0.00     0.052 C 
BRANCH   6   7
ATOM      7  C   UNK d   0      11.803   5.279   1.906  0.00  0.00    -0.020 A 
ATOM      8  C   UNK d   0      10.961   5.052   0.931  0.00  0.00    -0.011 A 
ATOM      9  C   UNK d   0       9.853   4.281   1.470  0.00  0.00     0.067 A 
ATOM     10  C   UNK d   0       8.673   3.714   0.964  0.00  0.00     0.062 C 
ATOM     11  N   UNK d   0      10.100   4.089   2.783  0.00  0.00    -0.248 NA
ATOM     12  C   UNK d   0       7.858   2.760   1.583  0.00  0.00     0.041 A 
ATOM     13  N   UNK d   0       7.431   2.651   2.856  0.00  0.00    -0.355 N 
ATOM     14  C   UNK d   0       7.405   1.661   0.832  0.00  0.00    -0.022 A 
ATOM     15  C   UNK d   0       6.725   1.506   2.932  0.00  0.00     0.042 A 
ATOM     16  H   UNK d   0       7.608   3.378   3.679  0.00  0.00     0.166 HD
ATOM     17  C   UNK d   0       6.060   0.915   4.025  0.00  0.00     0.062 C 
ATOM     18  C   UNK d   0       6.688   0.858   1.683  0.00  0.00    -0.013 A 
ATOM     19  C   UNK d   0       6.495   0.755   5.316  0.00  0.00     0.067 A 
ATOM     20  N   UNK d   0       7.607   1.406   5.664  0.00  0.00    -0.248 NA
ATOM     21  C   UNK d   0       6.053   0.009   6.482  0.00  0.00    -0.011 A 
ATOM     22  C   UNK d   0       7.926   1.138   6.973  0.00  0.00     0.066 A 
ATOM     23  C   UNK d   0       9.045   1.783   7.479  0.00  0.00     0.062 C 
ATOM     24  C   UNK d   0       6.897   0.234   7.447  0.00  0.00    -0.020 A 
ATOM     25  C   UNK d   0       9.842   2.748   6.845  0.00  0.00     0.041 A 
ATOM     26  N   UNK d   0      10.279   2.849   5.584  0.00  0.00    -0.355 N 
ATOM     27  C   UNK d   0      10.292   3.854   7.599  0.00  0.00    -0.022 A 
ATOM     28  C   UNK d   0      10.990   3.985   5.507  0.00  0.00     0.042 A 
ATOM     29  H   UNK d   0      10.110   2.112   4.761  0.00  0.00     0.166 HD
ATOM     30  C   UNK d   0      11.665   4.580   4.430  0.00  0.00     0.062 C 
ATOM     31  C   UNK d   0      11.019   4.642   6.760  0.00  0.00    -0.013 A 
ATOM     32  C   UNK d   0      11.259   4.665   3.108  0.00  0.00     0.066 A 
BRANCH   8  33
ATOM     33  C   UNK d   0      11.089   5.493  -0.470  0.00  0.00     0.151 C 
BRANCH  33  34
ATOM     34  C   UNK d   0      10.168   6.592  -0.809  0.00  0.00     0.143 C 
ATOM     35  O   UNK d   0       9.897   6.855  -1.989  0.00  0.00    -0.650 OA
BRANCH  34  36
ATOM     36  O   UNK d   0       9.603   7.336   0.202  0.00  0.00    -0.776 OA
ATOM     37  H   UNK d   0       9.479   8.353   0.111  0.00  0.00     0.167 HD
ENDBRANCH  34  36
ENDBRANCH  33  34
ENDBRANCH   8  33
BRANCH  31  38
ATOM     38  C   UNK d   0      11.690   5.946   7.121  0.00  0.00     0.151 C 
BRANCH  38  39
ATOM     39  C   UNK d   0      10.806   7.086   6.994  0.00  0.00     0.143 C 
ATOM     40  O   UNK d   0      10.264   7.391   5.917  0.00  0.00    -0.650 OA
BRANCH  39  41
ATOM     41  O   UNK d   0      10.544   7.879   8.111  0.00  0.00    -0.776 OA
ATOM     42  H   UNK d   0       9.560   7.993   8.375  0.00  0.00     0.167 HD
ENDBRANCH  39  41
ENDBRANCH  38  39
ENDBRANCH  31  38
BRANCH  27  43
ATOM     43  C   UNK d   0      10.064   4.178   9.054  0.00  0.00     0.052 C 
BRANCH  43  44
ATOM     44  C   UNK d   0      11.330   4.318   9.835  0.00  0.00     0.115 C 
BRANCH  44  45
ATOM     45  C   UNK d   0      11.310   5.677  10.435  0.00  0.00     0.139 C 
ATOM     46  O   UNK d   0      10.199   6.245  10.577  0.00  0.00    -0.650 OA
BRANCH  45  47
ATOM     47  O   UNK d   0      12.453   6.330  10.844  0.00  0.00    -0.776 OA
ATOM     48  H   UNK d   0      12.448   7.070  11.565  0.00  0.00     0.167 HD
ENDBRANCH  45  47
ENDBRANCH  44  45
ENDBRANCH  43  44
ENDBRANCH  27  43
BRANCH  24  49
ATOM     49  C   UNK d   0       6.808  -0.295   8.819  0.00  0.00     0.052 C 
BRANCH  49  50
ATOM     50  C   UNK d   0       7.509  -1.625   8.915  0.00  0.00     0.115 C 
BRANCH  50  51
ATOM     51  C   UNK d   0       8.832  -1.638   9.524  0.00  0.00     0.139 C 
ATOM     52  O   UNK d   0       9.838  -1.137   8.968  0.00  0.00    -0.650 OA
BRANCH  51  53
ATOM     53  O   UNK d   0       9.009  -2.224  10.768  0.00  0.00    -0.776 OA
ATOM     54  H   UNK d   0       9.263  -1.633  11.540  0.00  0.00     0.167 HD
ENDBRANCH  51  53
ENDBRANCH  50  51
ENDBRANCH  49  50
ENDBRANCH  24  49
BRANCH  21  55
ATOM     55  C   UNK d   0       4.831  -0.848   6.511  0.00  0.00     0.151 C 
BRANCH  55  56
ATOM     56  C   UNK d   0       3.612  -0.063   6.758  0.00  0.00     0.143 C 
ATOM     57  O   UNK d   0       3.192   0.189   7.904  0.00  0.00    -0.650 OA
BRANCH  56  58
ATOM     58  O   UNK d   0       2.911   0.413   5.650  0.00  0.00    -0.776 OA
ATOM     59  H   UNK d   0       2.932  -0.208   4.821  0.00  0.00     0.167 HD
ENDBRANCH  56  58
ENDBRANCH  55  56
ENDBRANCH  21  55
BRANCH  18  60
ATOM     60  C   UNK d   0       6.025  -0.440   1.294  0.00  0.00     0.151 C 
BRANCH  60  61
ATOM     61  C   UNK d   0       4.652  -0.091   0.899  0.00  0.00     0.143 C 
ATOM     62  O   UNK d   0       3.710   0.174   1.647  0.00  0.00    -0.650 OA
BRANCH  61  63
ATOM     63  O   UNK d   0       4.415  -0.061  -0.496  0.00  0.00    -0.776 OA
ATOM     64  H   UNK d   0       3.959   0.723  -0.928  0.00  0.00     0.167 HD
ENDBRANCH  61  63
ENDBRANCH  60  61
ENDBRANCH  18  60
BRANCH  14  65
ATOM     65  C   UNK d   0       7.515   1.365  -0.637  0.00  0.00     0.052 C 
BRANCH  65  66
ATOM     66  C   UNK d   0       6.848   2.387  -1.488  0.00  0.00     0.115 C 
BRANCH  66  67
ATOM     67  C   UNK d   0       7.590   3.038  -2.531  0.00  0.00     0.139 C 
ATOM     68  O   UNK d   0       7.779   2.408  -3.635  0.00  0.00    -0.650 OA
BRANCH  67  69
ATOM     69  O   UNK d   0       8.155   4.313  -2.507  0.00  0.00    -0.776 OA
ATOM     70  H   UNK d   0       9.044   4.418  -3.018  0.00  0.00     0.167 HD
ENDBRANCH  67  69
ENDBRANCH  66  67
ENDBRANCH  65  66
ENDBRANCH  14  65
ENDBRANCH   6   7
ENDBRANCH   5   6
ENDBRANCH   2   5
TORSDOF 28
ENDMDL
MODEL 15
REMARK VINA RESULT:      -6.6      3.287      6.709
REMARK  28 active torsions:
REMARK  status: ('A' for Active; 'I' for Inactive)
REMARK    1  A    between atoms: C_2  and  O_3 
REMARK    2  A    between atoms: C_2  and  C_4 
REMARK    3  A    between atoms: C_4  and  C_5 
REMARK    4  A    between atoms: C_5  and  C_6 
REMARK    5  A    between atoms: C_7  and  C_8 
REMARK    6  A    between atoms: C_8  and  C_9 
REMARK    7  A    between atoms: C_9  and  O_11 
REMARK    8  A    between atoms: C_28  and  C_29 
REMARK    9  A    between atoms: C_29  and  C_30 
REMARK   10  A    between atoms: C_30  and  O_32 
REMARK   11  A    between atoms: C_33  and  C_34 
REMARK   12  A    between atoms: C_34  and  C_35 
REMARK   13  A    between atoms: C_35  and  C_36 
REMARK   14  A    between atoms: C_36  and  O_38 
REMARK   15  A    between atoms: C_39  and  C_40 
REMARK   16  A    between atoms: C_40  and  C_41 
REMARK   17  A    between atoms: C_41  and  C_42 
REMARK   18  A    between atoms: C_42  and  O_44 
REMARK   19  A    between atoms: C_45  and  C_46 
REMARK   20  A    between atoms: C_46  and  C_47 
REMARK   21  A    between atoms: C_47  and  O_49 
REMARK   22  A    between atoms: C_50  and  C_51 
REMARK   23  A    between atoms: C_51  and  C_52 
REMARK   24  A    between atoms: C_52  and  O_54 
REMARK   25  A    between atoms: C_55  and  C_56 
REMARK   26  A    between atoms: C_56  and  C_57 
REMARK   27  A    between atoms: C_57  and  C_58 
REMARK   28  A    between atoms: C_58  and  O_60 
ROOT
ATOM      1  O   UNK d   0     -22.540  -5.437   6.413  0.00  0.00    -0.650 OA
ATOM      2  C   UNK d   0     -23.646  -4.877   6.244  0.00  0.00     0.139 C 
ENDROOT
BRANCH   2   3
ATOM      3  O   UNK d   0     -24.779  -5.645   6.131  0.00  0.00    -0.776 OA
ATOM      4  H   UNK d   0     -24.916  -6.269   5.333  0.00  0.00     0.167 HD
ENDBRANCH   2   3
BRANCH   2   5
ATOM      5  C   UNK d   0     -23.728  -3.391   6.168  0.00  0.00     0.115 C 
BRANCH   5   6
ATOM      6  C   UNK d   0     -25.145  -2.964   5.898  0.00  0.00     0.052 C 
BRANCH   6   7
ATOM      7  C   UNK d   0     -25.734  -2.157   7.030  0.00  0.00    -0.020 A 
ATOM      8  C   UNK d   0     -25.884  -0.858   7.091  0.00  0.00    -0.011 A 
ATOM      9  C   UNK d   0     -26.486  -0.540   8.375  0.00  0.00     0.067 A 
ATOM     10  C   UNK d   0     -26.912   0.625   9.033  0.00  0.00     0.062 C 
ATOM     11  N   UNK d   0     -26.663  -1.704   9.034  0.00  0.00    -0.248 NA
ATOM     12  C   UNK d   0     -27.731   0.708  10.164  0.00  0.00     0.041 A 
ATOM     13  N   UNK d   0     -27.740  -0.007  11.306  0.00  0.00    -0.355 N 
ATOM     14  C   UNK d   0     -28.787   1.636  10.173  0.00  0.00    -0.022 A 
ATOM     15  C   UNK d   0     -28.781   0.439  12.035  0.00  0.00     0.042 A 
ATOM     16  H   UNK d   0     -27.014  -0.797  11.598  0.00  0.00     0.166 HD
ATOM     17  C   UNK d   0     -29.243   0.041  13.305  0.00  0.00     0.062 C 
ATOM     18  C   UNK d   0     -29.461   1.469  11.357  0.00  0.00    -0.013 A 
ATOM     19  C   UNK d   0     -29.414  -1.226  13.802  0.00  0.00     0.067 A 
ATOM     20  N   UNK d   0     -28.901  -2.230  13.088  0.00  0.00    -0.248 NA
ATOM     21  C   UNK d   0     -30.057  -1.813  14.966  0.00  0.00    -0.011 A 
ATOM     22  C   UNK d   0     -29.163  -3.432  13.699  0.00  0.00     0.066 A 
ATOM     23  C   UNK d   0     -28.651  -4.563  13.079  0.00  0.00     0.062 C 
ATOM     24  C   UNK d   0     -29.909  -3.105  14.897  0.00  0.00    -0.020 A 
ATOM     25  C   UNK d   0     -27.820  -4.624  11.950  0.00  0.00     0.041 A 
ATOM     26  N   UNK d   0     -27.819  -3.924  10.809  0.00  0.00    -0.355 N 
ATOM     27  C   UNK d   0     -26.757  -5.553  11.944  0.00  0.00    -0.022 A 
ATOM     28  C   UNK d   0     -26.788  -4.373  10.076  0.00  0.00     0.042 A 
ATOM     29  H   UNK d   0     -28.556  -3.137  10.512  0.00  0.00     0.166 HD
ATOM     30  C   UNK d   0     -26.323  -3.992   8.808  0.00  0.00     0.062 C 
ATOM     31  C   UNK d   0     -26.098  -5.400  10.762  0.00  0.00    -0.013 A 
ATOM     32  C   UNK d   0     -26.232  -2.715   8.279  0.00  0.00     0.066 A 
BRANCH   8  33
ATOM     33  C   UNK d   0     -25.511   0.125   6.058  0.00  0.00     0.151 C 
BRANCH  33  34
ATOM     34  C   UNK d   0     -26.532   0.260   5.003  0.00  0.00     0.143 C 
ATOM     35  O   UNK d   0     -26.316  -0.147   3.853  0.00  0.00    -0.650 OA
BRANCH  34  36
ATOM     36  O   UNK d   0     -27.739   0.848   5.303  0.00  0.00    -0.776 OA
ATOM     37  H   UNK d   0     -28.404   0.403   5.951  0.00  0.00     0.167 HD
ENDBRANCH  34  36
ENDBRANCH  33  34
ENDBRANCH   8  33
BRANCH  31  38
ATOM     38  C   UNK d   0     -24.880  -6.173  10.315  0.00  0.00     0.151 C 
BRANCH  38  39
ATOM     39  C   UNK d   0     -25.178  -7.143   9.282  0.00  0.00     0.143 C 
ATOM     40  O   UNK d   0     -24.329  -7.514   8.453  0.00  0.00    -0.650 OA
BRANCH  39  41
ATOM     41  O   UNK d   0     -26.458  -7.690   9.204  0.00  0.00    -0.776 OA
ATOM     42  H   UNK d   0     -26.615  -8.396   8.478  0.00  0.00     0.167 HD
ENDBRANCH  39  41
ENDBRANCH  38  39
ENDBRANCH  31  38
BRANCH  27  43
ATOM     43  C   UNK d   0     -26.356  -6.558  12.995  0.00  0.00     0.052 C 
BRANCH  43  44
ATOM     44  C   UNK d   0     -27.001  -7.893  12.812  0.00  0.00     0.115 C 
BRANCH  44  45
ATOM     45  C   UNK d   0     -25.909  -8.853  12.503  0.00  0.00     0.139 C 
ATOM     46  O   UNK d   0     -25.024  -9.043  13.374  0.00  0.00    -0.650 OA
BRANCH  45  47
ATOM     47  O   UNK d   0     -25.834  -9.541  11.312  0.00  0.00    -0.776 OA
ATOM     48  H   UNK d   0     -26.208 -10.497  11.192  0.00  0.00     0.167 HD
ENDBRANCH  45  47
ENDBRANCH  44  45
ENDBRANCH  43  44
ENDBRANCH  27  43
BRANCH  24  49
ATOM     49  C   UNK d   0     -30.375  -4.086  15.892  0.00  0.00     0.052 C 
BRANCH  49  50
ATOM     50  C   UNK d   0     -31.560  -4.851  15.361  0.00  0.00     0.115 C 
BRANCH  50  51
ATOM     51  C   UNK d   0     -32.882  -4.309  15.643  0.00  0.00     0.139 C 
ATOM     52  O   UNK d   0     -33.372  -4.289  16.797  0.00  0.00    -0.650 OA
BRANCH  51  53
ATOM     53  O   UNK d   0     -33.647  -3.792  14.609  0.00  0.00    -0.776 OA
ATOM     54  H   UNK d   0     -33.599  -4.241  13.712  0.00  0.00     0.167 HD
ENDBRANCH  51  53
ENDBRANCH  50  51
ENDBRANCH  49  50
ENDBRANCH  24  49
BRANCH  21  55
ATOM     55  C   UNK d   0     -30.746  -1.022  16.027  0.00  0.00     0.151 C 
BRANCH  55  56
ATOM     56  C   UNK d   0     -32.141  -0.720  15.671  0.00  0.00     0.143 C 
ATOM     57  O   UNK d   0     -32.448   0.028  14.722  0.00  0.00    -0.650 OA
BRANCH  56  58
ATOM     58  O   UNK d   0     -33.148  -1.303  16.438  0.00  0.00    -0.776 OA
ATOM     59  H   UNK d   0     -33.978  -0.703  16.598  0.00  0.00     0.167 HD
ENDBRANCH  56  58
ENDBRANCH  55  56
ENDBRANCH  21  55
BRANCH  18  60
ATOM     60  C   UNK d   0     -30.675   2.259  11.780  0.00  0.00     0.151 C 
BRANCH  60  61
ATOM     61  C   UNK d   0     -31.834   1.555  11.209  0.00  0.00     0.143 C 
ATOM     62  O   UNK d   0     -32.335   1.731  10.098  0.00  0.00    -0.650 OA
BRANCH  61  63
ATOM     63  O   UNK d   0     -32.416   0.574  12.047  0.00  0.00    -0.776 OA
ATOM     64  H   UNK d   0     -32.897  -0.219  11.661  0.00  0.00     0.167 HD
ENDBRANCH  61  63
ENDBRANCH  60  61
ENDBRANCH  18  60
BRANCH  14  65
ATOM     65  C   UNK d   0     -29.145   2.725   9.201  0.00  0.00     0.052 C 
BRANCH  65  66
ATOM     66  C   UNK d   0     -28.342   3.962   9.392  0.00  0.00     0.115 C 
BRANCH  66  67
ATOM     67  C   UNK d   0     -28.811   4.984  10.284  0.00  0.00     0.139 C 
ATOM     68  O   UNK d   0     -27.949   5.628  10.988  0.00  0.00    -0.650 OA
BRANCH  67  69
ATOM     69  O   UNK d   0     -30.128   5.390  10.501  0.00  0.00    -0.776 OA
ATOM     70  H   UNK d   0     -30.284   5.981  11.329  0.00  0.00     0.167 HD
ENDBRANCH  67  69
ENDBRANCH  66  67
ENDBRANCH  65  66
ENDBRANCH  14  65
ENDBRANCH   6   7
ENDBRANCH   5   6
ENDBRANCH   2   5
TORSDOF 28
ENDMDL
MODEL 16
REMARK VINA RESULT:      -6.6      1.636     10.060
REMARK  28 active torsions:
REMARK  status: ('A' for Active; 'I' for Inactive)
REMARK    1  A    between atoms: C_2  and  O_3 
REMARK    2  A    between atoms: C_2  and  C_4 
REMARK    3  A    between atoms: C_4  and  C_5 
REMARK    4  A    between atoms: C_5  and  C_6 
REMARK    5  A    between atoms: C_7  and  C_8 
REMARK    6  A    between atoms: C_8  and  C_9 
REMARK    7  A    between atoms: C_9  and  O_11 
REMARK    8  A    between atoms: C_28  and  C_29 
REMARK    9  A    between atoms: C_29  and  C_30 
REMARK   10  A    between atoms: C_30  and  O_32 
REMARK   11  A    between atoms: C_33  and  C_34 
REMARK   12  A    between atoms: C_34  and  C_35 
REMARK   13  A    between atoms: C_35  and  C_36 
REMARK   14  A    between atoms: C_36  and  O_38 
REMARK   15  A    between atoms: C_39  and  C_40 
REMARK   16  A    between atoms: C_40  and  C_41 
REMARK   17  A    between atoms: C_41  and  C_42 
REMARK   18  A    between atoms: C_42  and  O_44 
REMARK   19  A    between atoms: C_45  and  C_46 
REMARK   20  A    between atoms: C_46  and  C_47 
REMARK   21  A    between atoms: C_47  and  O_49 
REMARK   22  A    between atoms: C_50  and  C_51 
REMARK   23  A    between atoms: C_51  and  C_52 
REMARK   24  A    between atoms: C_52  and  O_54 
REMARK   25  A    between atoms: C_55  and  C_56 
REMARK   26  A    between atoms: C_56  and  C_57 
REMARK   27  A    between atoms: C_57  and  C_58 
REMARK   28  A    between atoms: C_58  and  O_60 
ROOT
ATOM      1  O   UNK d   0     -31.505  -1.065  10.347  0.00  0.00    -0.650 OA
ATOM      2  C   UNK d   0     -31.593   0.151  10.063  0.00  0.00     0.139 C 
ENDROOT
BRANCH   2   3
ATOM      3  O   UNK d   0     -32.514   0.931  10.718  0.00  0.00    -0.776 OA
ATOM      4  H   UNK d   0     -33.455   0.583  10.916  0.00  0.00     0.167 HD
ENDBRANCH   2   3
BRANCH   2   5
ATOM      5  C   UNK d   0     -30.705   0.742   9.021  0.00  0.00     0.115 C 
BRANCH   5   6
ATOM      6  C   UNK d   0     -29.912   1.880   9.603  0.00  0.00     0.052 C 
BRANCH   6   7
ATOM      7  C   UNK d   0     -28.997   1.440  10.721  0.00  0.00    -0.020 A 
ATOM      8  C   UNK d   0     -28.760   2.059  11.848  0.00  0.00    -0.011 A 
ATOM      9  C   UNK d   0     -27.807   1.261  12.603  0.00  0.00     0.067 A 
ATOM     10  C   UNK d   0     -27.179   1.350  13.855  0.00  0.00     0.062 C 
ATOM     11  N   UNK d   0     -27.515   0.176  11.856  0.00  0.00    -0.248 NA
ATOM     12  C   UNK d   0     -26.497   0.334  14.534  0.00  0.00     0.041 A 
ATOM     13  N   UNK d   0     -25.621  -0.590  14.098  0.00  0.00    -0.355 N 
ATOM     14  C   UNK d   0     -26.753   0.141  15.904  0.00  0.00    -0.022 A 
ATOM     15  C   UNK d   0     -25.320  -1.370  15.153  0.00  0.00     0.042 A 
ATOM     16  H   UNK d   0     -25.208  -0.678  13.069  0.00  0.00     0.166 HD
ATOM     17  C   UNK d   0     -24.457  -2.480  15.253  0.00  0.00     0.062 C 
ATOM     18  C   UNK d   0     -26.011  -0.942  16.304  0.00  0.00    -0.013 A 
ATOM     19  C   UNK d   0     -24.325  -3.548  14.404  0.00  0.00     0.067 A 
ATOM     20  N   UNK d   0     -24.938  -3.459  13.220  0.00  0.00    -0.248 NA
ATOM     21  C   UNK d   0     -23.668  -4.844  14.449  0.00  0.00    -0.011 A 
ATOM     22  C   UNK d   0     -24.730  -4.603  12.489  0.00  0.00     0.066 A 
ATOM     23  C   UNK d   0     -25.283  -4.630  11.217  0.00  0.00     0.062 C 
ATOM     24  C   UNK d   0     -23.912  -5.458  13.327  0.00  0.00    -0.020 A 
ATOM     25  C   UNK d   0     -25.953  -3.595  10.548  0.00  0.00     0.041 A 
ATOM     26  N   UNK d   0     -26.836  -2.685  10.978  0.00  0.00    -0.355 N 
ATOM     27  C   UNK d   0     -25.693  -3.399   9.174  0.00  0.00    -0.022 A 
ATOM     28  C   UNK d   0     -27.144  -1.912   9.925  0.00  0.00     0.042 A 
ATOM     29  H   UNK d   0     -27.258  -2.605  12.010  0.00  0.00     0.166 HD
ATOM     30  C   UNK d   0     -28.007  -0.811   9.809  0.00  0.00     0.062 C 
ATOM     31  C   UNK d   0     -26.441  -2.336   8.772  0.00  0.00    -0.013 A 
ATOM     32  C   UNK d   0     -28.199   0.223  10.712  0.00  0.00     0.066 A 
BRANCH   8  33
ATOM     33  C   UNK d   0     -29.338   3.341  12.293  0.00  0.00     0.151 C 
BRANCH  33  34
ATOM     34  C   UNK d   0     -30.445   3.165  13.250  0.00  0.00     0.143 C 
ATOM     35  O   UNK d   0     -31.588   2.888  12.858  0.00  0.00    -0.650 OA
BRANCH  34  36
ATOM     36  O   UNK d   0     -30.204   3.314  14.597  0.00  0.00    -0.776 OA
ATOM     37  H   UNK d   0     -29.602   4.069  14.951  0.00  0.00     0.167 HD
ENDBRANCH  34  36
ENDBRANCH  33  34
ENDBRANCH   8  33
BRANCH  31  38
ATOM     38  C   UNK d   0     -26.479  -1.747   7.381  0.00  0.00     0.151 C 
BRANCH  38  39
ATOM     39  C   UNK d   0     -27.367  -2.465   6.491  0.00  0.00     0.143 C 
ATOM     40  O   UNK d   0     -27.181  -2.515   5.263  0.00  0.00    -0.650 OA
BRANCH  39  41
ATOM     41  O   UNK d   0     -28.475  -3.130   7.017  0.00  0.00    -0.776 OA
ATOM     42  H   UNK d   0     -28.736  -4.015   6.571  0.00  0.00     0.167 HD
ENDBRANCH  39  41
ENDBRANCH  38  39
ENDBRANCH  31  38
BRANCH  27  43
ATOM     43  C   UNK d   0     -24.781  -4.169   8.252  0.00  0.00     0.052 C 
BRANCH  43  44
ATOM     44  C   UNK d   0     -23.626  -3.363   7.754  0.00  0.00     0.115 C 
BRANCH  44  45
ATOM     45  C   UNK d   0     -23.351  -3.826   6.369  0.00  0.00     0.139 C 
ATOM     46  O   UNK d   0     -23.984  -3.287   5.428  0.00  0.00    -0.650 OA
BRANCH  45  47
ATOM     47  O   UNK d   0     -22.432  -4.812   6.079  0.00  0.00    -0.776 OA
ATOM     48  H   UNK d   0     -21.722  -4.715   5.336  0.00  0.00     0.167 HD
ENDBRANCH  45  47
ENDBRANCH  44  45
ENDBRANCH  43  44
ENDBRANCH  27  43
BRANCH  24  49
ATOM     49  C   UNK d   0     -23.406  -6.784  12.935  0.00  0.00     0.052 C 
BRANCH  49  50
ATOM     50  C   UNK d   0     -24.353  -7.864  13.393  0.00  0.00     0.115 C 
BRANCH  50  51
ATOM     51  C   UNK d   0     -25.600  -8.011  12.655  0.00  0.00     0.139 C 
ATOM     52  O   UNK d   0     -25.664  -8.586  11.543  0.00  0.00    -0.650 OA
BRANCH  51  53
ATOM     53  O   UNK d   0     -26.775  -7.500  13.185  0.00  0.00    -0.776 OA
ATOM     54  H   UNK d   0     -27.608  -7.542  12.623  0.00  0.00     0.167 HD
ENDBRANCH  51  53
ENDBRANCH  50  51
ENDBRANCH  49  50
ENDBRANCH  24  49
BRANCH  21  55
ATOM     55  C   UNK d   0     -22.861  -5.331  15.606  0.00  0.00     0.151 C 
BRANCH  55  56
ATOM     56  C   UNK d   0     -21.416  -5.227  15.353  0.00  0.00     0.143 C 
ATOM     57  O   UNK d   0     -20.581  -5.984  15.887  0.00  0.00    -0.650 OA
BRANCH  56  58
ATOM     58  O   UNK d   0     -20.980  -4.234  14.477  0.00  0.00    -0.776 OA
ATOM     59  H   UNK d   0     -21.017  -3.271  14.856  0.00  0.00     0.167 HD
ENDBRANCH  56  58
ENDBRANCH  55  56
ENDBRANCH  21  55
BRANCH  18  60
ATOM     60  C   UNK d   0     -25.990  -1.507  17.703  0.00  0.00     0.151 C 
BRANCH  60  61
ATOM     61  C   UNK d   0     -24.846  -0.875  18.376  0.00  0.00     0.143 C 
ATOM     62  O   UNK d   0     -24.334   0.213  18.107  0.00  0.00    -0.650 OA
BRANCH  61  63
ATOM     63  O   UNK d   0     -24.292  -1.617  19.447  0.00  0.00    -0.776 OA
ATOM     64  H   UNK d   0     -24.877  -2.147  20.067  0.00  0.00     0.167 HD
ENDBRANCH  61  63
ENDBRANCH  60  61
ENDBRANCH  18  60
BRANCH  14  65
ATOM     65  C   UNK d   0     -27.560   0.955  16.875  0.00  0.00     0.052 C 
BRANCH  65  66
ATOM     66  C   UNK d   0     -26.991   2.308  17.114  0.00  0.00     0.115 C 
BRANCH  66  67
ATOM     67  C   UNK d   0     -27.737   3.472  16.726  0.00  0.00     0.139 C 
ATOM     68  O   UNK d   0     -27.339   4.142  15.703  0.00  0.00    -0.650 OA
BRANCH  67  69
ATOM     69  O   UNK d   0     -28.878   3.996  17.332  0.00  0.00    -0.776 OA
ATOM     70  H   UNK d   0     -29.351   4.754  16.817  0.00  0.00     0.167 HD
ENDBRANCH  67  69
ENDBRANCH  66  67
ENDBRANCH  65  66
ENDBRANCH  14  65
ENDBRANCH   6   7
ENDBRANCH   5   6
ENDBRANCH   2   5
TORSDOF 28
ENDMDL
MODEL 17
REMARK VINA RESULT:      -6.6      2.134      8.247
REMARK  28 active torsions:
REMARK  status: ('A' for Active; 'I' for Inactive)
REMARK    1  A    between atoms: C_2  and  O_3 
REMARK    2  A    between atoms: C_2  and  C_4 
REMARK    3  A    between atoms: C_4  and  C_5 
REMARK    4  A    between atoms: C_5  and  C_6 
REMARK    5  A    between atoms: C_7  and  C_8 
REMARK    6  A    between atoms: C_8  and  C_9 
REMARK    7  A    between atoms: C_9  and  O_11 
REMARK    8  A    between atoms: C_28  and  C_29 
REMARK    9  A    between atoms: C_29  and  C_30 
REMARK   10  A    between atoms: C_30  and  O_32 
REMARK   11  A    between atoms: C_33  and  C_34 
REMARK   12  A    between atoms: C_34  and  C_35 
REMARK   13  A    between atoms: C_35  and  C_36 
REMARK   14  A    between atoms: C_36  and  O_38 
REMARK   15  A    between atoms: C_39  and  C_40 
REMARK   16  A    between atoms: C_40  and  C_41 
REMARK   17  A    between atoms: C_41  and  C_42 
REMARK   18  A    between atoms: C_42  and  O_44 
REMARK   19  A    between atoms: C_45  and  C_46 
REMARK   20  A    between atoms: C_46  and  C_47 
REMARK   21  A    between atoms: C_47  and  O_49 
REMARK   22  A    between atoms: C_50  and  C_51 
REMARK   23  A    between atoms: C_51  and  C_52 
REMARK   24  A    between atoms: C_52  and  O_54 
REMARK   25  A    between atoms: C_55  and  C_56 
REMARK   26  A    between atoms: C_56  and  C_57 
REMARK   27  A    between atoms: C_57  and  C_58 
REMARK   28  A    between atoms: C_58  and  O_60 
ROOT
ATOM      1  O   UNK d   0     -29.420   6.697  12.458  0.00  0.00    -0.650 OA
ATOM      2  C   UNK d   0     -28.428   6.053  12.051  0.00  0.00     0.139 C 
ENDROOT
BRANCH   2   3
ATOM      3  O   UNK d   0     -27.854   6.389  10.848  0.00  0.00    -0.776 OA
ATOM      4  H   UNK d   0     -26.840   6.363  10.722  0.00  0.00     0.167 HD
ENDBRANCH   2   3
BRANCH   2   5
ATOM      5  C   UNK d   0     -27.878   4.932  12.865  0.00  0.00     0.115 C 
BRANCH   5   6
ATOM      6  C   UNK d   0     -29.000   4.104  13.431  0.00  0.00     0.052 C 
BRANCH   6   7
ATOM      7  C   UNK d   0     -28.927   2.657  13.005  0.00  0.00    -0.020 A 
ATOM      8  C   UNK d   0     -29.678   2.046  12.126  0.00  0.00    -0.011 A 
ATOM      9  C   UNK d   0     -29.244   0.660  12.057  0.00  0.00     0.067 A 
ATOM     10  C   UNK d   0     -29.607  -0.480  11.323  0.00  0.00     0.062 C 
ATOM     11  N   UNK d   0     -28.227   0.515  12.933  0.00  0.00    -0.248 NA
ATOM     12  C   UNK d   0     -28.884  -1.670  11.192  0.00  0.00     0.041 A 
ATOM     13  N   UNK d   0     -28.210  -2.402  12.100  0.00  0.00    -0.355 N 
ATOM     14  C   UNK d   0     -28.739  -2.242   9.916  0.00  0.00    -0.022 A 
ATOM     15  C   UNK d   0     -27.636  -3.419  11.431  0.00  0.00     0.042 A 
ATOM     16  H   UNK d   0     -28.158  -2.214  13.195  0.00  0.00     0.166 HD
ATOM     17  C   UNK d   0     -26.825  -4.474  11.894  0.00  0.00     0.062 C 
ATOM     18  C   UNK d   0     -27.944  -3.352  10.059  0.00  0.00    -0.013 A 
ATOM     19  C   UNK d   0     -25.771  -4.432  12.770  0.00  0.00     0.067 A 
ATOM     20  N   UNK d   0     -25.587  -3.291  13.440  0.00  0.00    -0.248 NA
ATOM     21  C   UNK d   0     -24.720  -5.346  13.187  0.00  0.00    -0.011 A 
ATOM     22  C   UNK d   0     -24.492  -3.392  14.263  0.00  0.00     0.066 A 
ATOM     23  C   UNK d   0     -24.207  -2.286  15.049  0.00  0.00     0.062 C 
ATOM     24  C   UNK d   0     -23.973  -4.730  14.057  0.00  0.00    -0.020 A 
ATOM     25  C   UNK d   0     -24.954  -1.104  15.175  0.00  0.00     0.041 A 
ATOM     26  N   UNK d   0     -25.611  -0.369  14.270  0.00  0.00    -0.355 N 
ATOM     27  C   UNK d   0     -25.103  -0.533  16.458  0.00  0.00    -0.022 A 
ATOM     28  C   UNK d   0     -26.178   0.651  14.934  0.00  0.00     0.042 A 
ATOM     29  H   UNK d   0     -25.654  -0.553  13.169  0.00  0.00     0.166 HD
ATOM     30  C   UNK d   0     -26.979   1.713  14.485  0.00  0.00     0.062 C 
ATOM     31  C   UNK d   0     -25.876   0.578  16.315  0.00  0.00    -0.013 A 
ATOM     32  C   UNK d   0     -27.988   1.680  13.535  0.00  0.00     0.066 A 
BRANCH   8  33
ATOM     33  C   UNK d   0     -30.777   2.634  11.338  0.00  0.00     0.151 C 
BRANCH  33  34
ATOM     34  C   UNK d   0     -30.296   3.469  10.223  0.00  0.00     0.143 C 
ATOM     35  O   UNK d   0     -30.799   4.579   9.996  0.00  0.00    -0.650 OA
BRANCH  34  36
ATOM     36  O   UNK d   0     -29.277   3.007   9.424  0.00  0.00    -0.776 OA
ATOM     37  H   UNK d   0     -29.232   2.021   9.132  0.00  0.00     0.167 HD
ENDBRANCH  34  36
ENDBRANCH  33  34
ENDBRANCH   8  33
BRANCH  31  38
ATOM     38  C   UNK d   0     -26.315   1.507  17.422  0.00  0.00     0.151 C 
BRANCH  38  39
ATOM     39  C   UNK d   0     -25.404   2.615  17.619  0.00  0.00     0.143 C 
ATOM     40  O   UNK d   0     -25.717   3.789  17.354  0.00  0.00    -0.650 OA
BRANCH  39  41
ATOM     41  O   UNK d   0     -24.127   2.372  18.123  0.00  0.00    -0.776 OA
ATOM     42  H   UNK d   0     -23.589   3.188  18.431  0.00  0.00     0.167 HD
ENDBRANCH  39  41
ENDBRANCH  38  39
ENDBRANCH  31  38
BRANCH  27  43
ATOM     43  C   UNK d   0     -24.547  -0.994  17.782  0.00  0.00     0.052 C 
BRANCH  43  44
ATOM     44  C   UNK d   0     -24.971  -2.378  18.152  0.00  0.00     0.115 C 
BRANCH  44  45
ATOM     45  C   UNK d   0     -25.196  -2.375  19.621  0.00  0.00     0.139 C 
ATOM     46  O   UNK d   0     -26.279  -2.839  20.055  0.00  0.00    -0.650 OA
BRANCH  45  47
ATOM     47  O   UNK d   0     -24.267  -1.893  20.518  0.00  0.00    -0.776 OA
ATOM     48  H   UNK d   0     -23.408  -1.401  20.224  0.00  0.00     0.167 HD
ENDBRANCH  45  47
ENDBRANCH  44  45
ENDBRANCH  43  44
ENDBRANCH  27  43
BRANCH  24  49
ATOM     49  C   UNK d   0     -22.815  -5.301  14.766  0.00  0.00     0.052 C 
BRANCH  49  50
ATOM     50  C   UNK d   0     -21.530  -4.765  14.188  0.00  0.00     0.115 C 
BRANCH  50  51
ATOM     51  C   UNK d   0     -20.694  -5.699  13.446  0.00  0.00     0.139 C 
ATOM     52  O   UNK d   0     -21.158  -6.489  12.590  0.00  0.00    -0.650 OA
BRANCH  51  53
ATOM     53  O   UNK d   0     -19.328  -5.734  13.681  0.00  0.00    -0.776 OA
ATOM     54  H   UNK d   0     -18.850  -4.864  13.836  0.00  0.00     0.167 HD
ENDBRANCH  51  53
ENDBRANCH  50  51
ENDBRANCH  49  50
ENDBRANCH  24  49
BRANCH  21  55
ATOM     55  C   UNK d   0     -24.576  -6.740  12.674  0.00  0.00     0.151 C 
BRANCH  55  56
ATOM     56  C   UNK d   0     -24.402  -6.776  11.214  0.00  0.00     0.143 C 
ATOM     57  O   UNK d   0     -25.181  -7.388  10.457  0.00  0.00    -0.650 OA
BRANCH  56  58
ATOM     58  O   UNK d   0     -23.315  -6.092  10.673  0.00  0.00    -0.776 OA
ATOM     59  H   UNK d   0     -22.521  -6.691  10.385  0.00  0.00     0.167 HD
ENDBRANCH  56  58
ENDBRANCH  55  56
ENDBRANCH  21  55
BRANCH  18  60
ATOM     60  C   UNK d   0     -27.524  -4.265   8.934  0.00  0.00     0.151 C 
BRANCH  60  61
ATOM     61  C   UNK d   0     -26.108  -3.963   8.675  0.00  0.00     0.143 C 
ATOM     62  O   UNK d   0     -25.583  -2.850   8.634  0.00  0.00    -0.650 OA
BRANCH  61  63
ATOM     63  O   UNK d   0     -25.282  -5.090   8.452  0.00  0.00    -0.776 OA
ATOM     64  H   UNK d   0     -24.639  -5.408   9.155  0.00  0.00     0.167 HD
ENDBRANCH  61  63
ENDBRANCH  60  61
ENDBRANCH  18  60
BRANCH  14  65
ATOM     65  C   UNK d   0     -29.369  -1.879   8.601  0.00  0.00     0.052 C 
BRANCH  65  66
ATOM     66  C   UNK d   0     -28.451  -1.126   7.704  0.00  0.00     0.115 C 
BRANCH  66  67
ATOM     67  C   UNK d   0     -28.833   0.172   7.223  0.00  0.00     0.139 C 
ATOM     68  O   UNK d   0     -29.835   0.761   7.774  0.00  0.00    -0.650 OA
BRANCH  67  69
ATOM     69  O   UNK d   0     -28.242   0.910   6.199  0.00  0.00    -0.776 OA
ATOM     70  H   UNK d   0     -28.887   1.453   5.607  0.00  0.00     0.167 HD
ENDBRANCH  67  69
ENDBRANCH  66  67
ENDBRANCH  65  66
ENDBRANCH  14  65
ENDBRANCH   6   7
ENDBRANCH   5   6
ENDBRANCH   2   5
TORSDOF 28
ENDMDL
MODEL 18
REMARK VINA RESULT:      -6.6      2.116      8.341
REMARK  28 active torsions:
REMARK  status: ('A' for Active; 'I' for Inactive)
REMARK    1  A    between atoms: C_2  and  O_3 
REMARK    2  A    between atoms: C_2  and  C_4 
REMARK    3  A    between atoms: C_4  and  C_5 
REMARK    4  A    between atoms: C_5  and  C_6 
REMARK    5  A    between atoms: C_7  and  C_8 
REMARK    6  A    between atoms: C_8  and  C_9 
REMARK    7  A    between atoms: C_9  and  O_11 
REMARK    8  A    between atoms: C_28  and  C_29 
REMARK    9  A    between atoms: C_29  and  C_30 
REMARK   10  A    between atoms: C_30  and  O_32 
REMARK   11  A    between atoms: C_33  and  C_34 
REMARK   12  A    between atoms: C_34  and  C_35 
REMARK   13  A    between atoms: C_35  and  C_36 
REMARK   14  A    between atoms: C_36  and  O_38 
REMARK   15  A    between atoms: C_39  and  C_40 
REMARK   16  A    between atoms: C_40  and  C_41 
REMARK   17  A    between atoms: C_41  and  C_42 
REMARK   18  A    between atoms: C_42  and  O_44 
REMARK   19  A    between atoms: C_45  and  C_46 
REMARK   20  A    between atoms: C_46  and  C_47 
REMARK   21  A    between atoms: C_47  and  O_49 
REMARK   22  A    between atoms: C_50  and  C_51 
REMARK   23  A    between atoms: C_51  and  C_52 
REMARK   24  A    between atoms: C_52  and  O_54 
REMARK   25  A    between atoms: C_55  and  C_56 
REMARK   26  A    between atoms: C_56  and  C_57 
REMARK   27  A    between atoms: C_57  and  C_58 
REMARK   28  A    between atoms: C_58  and  O_60 
ROOT
ATOM      1  O   UNK d   0     -23.968  -1.684  19.954  0.00  0.00    -0.650 OA
ATOM      2  C   UNK d   0     -24.842  -2.000  19.115  0.00  0.00     0.139 C 
ENDROOT
BRANCH   2   3
ATOM      3  O   UNK d   0     -25.949  -2.701  19.528  0.00  0.00    -0.776 OA
ATOM      4  H   UNK d   0     -25.968  -3.171  20.435  0.00  0.00     0.167 HD
ENDBRANCH   2   3
BRANCH   2   5
ATOM      5  C   UNK d   0     -24.678  -1.617  17.684  0.00  0.00     0.115 C 
BRANCH   5   6
ATOM      6  C   UNK d   0     -25.108  -2.750  16.793  0.00  0.00     0.052 C 
BRANCH   6   7
ATOM      7  C   UNK d   0     -25.821  -2.274  15.550  0.00  0.00    -0.020 A 
ATOM      8  C   UNK d   0     -26.784  -1.392  15.471  0.00  0.00    -0.011 A 
ATOM      9  C   UNK d   0     -27.157  -1.265  14.072  0.00  0.00     0.067 A 
ATOM     10  C   UNK d   0     -28.075  -0.501  13.334  0.00  0.00     0.062 C 
ATOM     11  N   UNK d   0     -26.375  -2.112  13.370  0.00  0.00    -0.248 NA
ATOM     12  C   UNK d   0     -28.100  -0.314  11.947  0.00  0.00     0.041 A 
ATOM     13  N   UNK d   0     -27.921  -1.181  10.932  0.00  0.00    -0.355 N 
ATOM     14  C   UNK d   0     -28.285   0.985  11.439  0.00  0.00    -0.022 A 
ATOM     15  C   UNK d   0     -27.980  -0.464   9.794  0.00  0.00     0.042 A 
ATOM     16  H   UNK d   0     -27.775  -2.280  11.018  0.00  0.00     0.166 HD
ATOM     17  C   UNK d   0     -27.858  -0.872   8.451  0.00  0.00     0.062 C 
ATOM     18  C   UNK d   0     -28.207   0.898  10.072  0.00  0.00    -0.013 A 
ATOM     19  C   UNK d   0     -26.943  -1.724   7.888  0.00  0.00     0.067 A 
ATOM     20  N   UNK d   0     -26.178  -2.428   8.725  0.00  0.00    -0.248 NA
ATOM     21  C   UNK d   0     -26.544  -2.085   6.537  0.00  0.00    -0.011 A 
ATOM     22  C   UNK d   0     -25.305  -3.221   8.021  0.00  0.00     0.066 A 
ATOM     23  C   UNK d   0     -24.472  -4.038   8.771  0.00  0.00     0.062 C 
ATOM     24  C   UNK d   0     -25.582  -2.958   6.622  0.00  0.00    -0.020 A 
ATOM     25  C   UNK d   0     -24.471  -4.221  10.162  0.00  0.00     0.041 A 
ATOM     26  N   UNK d   0     -24.634  -3.358  11.171  0.00  0.00    -0.355 N 
ATOM     27  C   UNK d   0     -24.290  -5.526  10.671  0.00  0.00    -0.022 A 
ATOM     28  C   UNK d   0     -24.567  -4.069  12.308  0.00  0.00     0.042 A 
ATOM     29  H   UNK d   0     -24.770  -2.252  11.084  0.00  0.00     0.166 HD
ATOM     30  C   UNK d   0     -24.677  -3.675  13.651  0.00  0.00     0.062 C 
ATOM     31  C   UNK d   0     -24.350  -5.439  12.028  0.00  0.00    -0.013 A 
ATOM     32  C   UNK d   0     -25.548  -2.748  14.201  0.00  0.00     0.066 A 
BRANCH   8  33
ATOM     33  C   UNK d   0     -27.399  -0.650  16.587  0.00  0.00     0.151 C 
BRANCH  33  34
ATOM     34  C   UNK d   0     -28.339  -1.473  17.369  0.00  0.00     0.143 C 
ATOM     35  O   UNK d   0     -28.422  -1.349  18.599  0.00  0.00    -0.650 OA
BRANCH  34  36
ATOM     36  O   UNK d   0     -29.132  -2.392  16.722  0.00  0.00    -0.776 OA
ATOM     37  H   UNK d   0     -28.854  -3.380  16.649  0.00  0.00     0.167 HD
ENDBRANCH  34  36
ENDBRANCH  33  34
ENDBRANCH   8  33
BRANCH  31  38
ATOM     38  C   UNK d   0     -24.222  -6.587  13.002  0.00  0.00     0.151 C 
BRANCH  38  39
ATOM     39  C   UNK d   0     -25.425  -7.386  13.089  0.00  0.00     0.143 C 
ATOM     40  O   UNK d   0     -25.398  -8.629  13.114  0.00  0.00    -0.650 OA
BRANCH  39  41
ATOM     41  O   UNK d   0     -26.666  -6.753  13.147  0.00  0.00    -0.776 OA
ATOM     42  H   UNK d   0     -27.294  -7.037  13.906  0.00  0.00     0.167 HD
ENDBRANCH  39  41
ENDBRANCH  38  39
ENDBRANCH  31  38
BRANCH  27  43
ATOM     43  C   UNK d   0     -24.065  -6.821   9.931  0.00  0.00     0.052 C 
BRANCH  43  44
ATOM     44  C   UNK d   0     -25.305  -7.640   9.783  0.00  0.00     0.115 C 
BRANCH  44  45
ATOM     45  C   UNK d   0     -25.389  -8.030   8.351  0.00  0.00     0.139 C 
ATOM     46  O   UNK d   0     -26.502  -8.398   7.902  0.00  0.00    -0.650 OA
BRANCH  45  47
ATOM     47  O   UNK d   0     -24.303  -7.998   7.504  0.00  0.00    -0.776 OA
ATOM     48  H   UNK d   0     -23.384  -8.398   7.755  0.00  0.00     0.167 HD
ENDBRANCH  45  47
ENDBRANCH  44  45
ENDBRANCH  43  44
ENDBRANCH  27  43
BRANCH  24  49
ATOM     49  C   UNK d   0     -24.908  -3.620   5.492  0.00  0.00     0.052 C 
BRANCH  49  50
ATOM     50  C   UNK d   0     -25.651  -4.871   5.098  0.00  0.00     0.115 C 
BRANCH  50  51
ATOM     51  C   UNK d   0     -26.221  -4.911   3.758  0.00  0.00     0.139 C 
ATOM     52  O   UNK d   0     -25.515  -4.958   2.724  0.00  0.00    -0.650 OA
BRANCH  51  53
ATOM     53  O   UNK d   0     -27.598  -4.894   3.598  0.00  0.00    -0.776 OA
ATOM     54  H   UNK d   0     -28.086  -4.031   3.765  0.00  0.00     0.167 HD
ENDBRANCH  51  53
ENDBRANCH  50  51
ENDBRANCH  49  50
ENDBRANCH  24  49
BRANCH  21  55
ATOM     55  C   UNK d   0     -27.168  -1.522   5.304  0.00  0.00     0.151 C 
BRANCH  55  56
ATOM     56  C   UNK d   0     -26.534  -0.261   4.890  0.00  0.00     0.143 C 
ATOM     57  O   UNK d   0     -25.314  -0.043   5.026  0.00  0.00    -0.650 OA
BRANCH  56  58
ATOM     58  O   UNK d   0     -27.347   0.720   4.325  0.00  0.00    -0.776 OA
ATOM     59  H   UNK d   0     -28.203   0.941   4.865  0.00  0.00     0.167 HD
ENDBRANCH  56  58
ENDBRANCH  55  56
ENDBRANCH  21  55
BRANCH  18  60
ATOM     60  C   UNK d   0     -28.342   2.063   9.122  0.00  0.00     0.151 C 
BRANCH  60  61
ATOM     61  C   UNK d   0     -29.782   2.345   9.032  0.00  0.00     0.143 C 
ATOM     62  O   UNK d   0     -30.332   3.441   9.140  0.00  0.00    -0.650 OA
BRANCH  61  63
ATOM     63  O   UNK d   0     -30.603   1.216   8.792  0.00  0.00    -0.776 OA
ATOM     64  H   UNK d   0     -30.282   0.453   8.224  0.00  0.00     0.167 HD
ENDBRANCH  61  63
ENDBRANCH  60  61
ENDBRANCH  18  60
BRANCH  14  65
ATOM     65  C   UNK d   0     -28.625   2.271  12.137  0.00  0.00     0.052 C 
BRANCH  65  66
ATOM     66  C   UNK d   0     -29.913   2.208  12.879  0.00  0.00     0.115 C 
BRANCH  66  67
ATOM     67  C   UNK d   0     -31.151   2.163  12.153  0.00  0.00     0.139 C 
ATOM     68  O   UNK d   0     -31.624   1.016  11.817  0.00  0.00    -0.650 OA
BRANCH  67  69
ATOM     69  O   UNK d   0     -31.942   3.238  11.747  0.00  0.00    -0.776 OA
ATOM     70  H   UNK d   0     -32.633   3.033  11.012  0.00  0.00     0.167 HD
ENDBRANCH  67  69
ENDBRANCH  66  67
ENDBRANCH  65  66
ENDBRANCH  14  65
ENDBRANCH   6   7
ENDBRANCH   5   6
ENDBRANCH   2   5
TORSDOF 28
ENDMDL
MODEL 19
REMARK VINA RESULT:      -6.5     32.025     35.386
REMARK  28 active torsions:
REMARK  status: ('A' for Active; 'I' for Inactive)
REMARK    1  A    between atoms: C_2  and  O_3 
REMARK    2  A    between atoms: C_2  and  C_4 
REMARK    3  A    between atoms: C_4  and  C_5 
REMARK    4  A    between atoms: C_5  and  C_6 
REMARK    5  A    between atoms: C_7  and  C_8 
REMARK    6  A    between atoms: C_8  and  C_9 
REMARK    7  A    between atoms: C_9  and  O_11 
REMARK    8  A    between atoms: C_28  and  C_29 
REMARK    9  A    between atoms: C_29  and  C_30 
REMARK   10  A    between atoms: C_30  and  O_32 
REMARK   11  A    between atoms: C_33  and  C_34 
REMARK   12  A    between atoms: C_34  and  C_35 
REMARK   13  A    between atoms: C_35  and  C_36 
REMARK   14  A    between atoms: C_36  and  O_38 
REMARK   15  A    between atoms: C_39  and  C_40 
REMARK   16  A    between atoms: C_40  and  C_41 
REMARK   17  A    between atoms: C_41  and  C_42 
REMARK   18  A    between atoms: C_42  and  O_44 
REMARK   19  A    between atoms: C_45  and  C_46 
REMARK   20  A    between atoms: C_46  and  C_47 
REMARK   21  A    between atoms: C_47  and  O_49 
REMARK   22  A    between atoms: C_50  and  C_51 
REMARK   23  A    between atoms: C_51  and  C_52 
REMARK   24  A    between atoms: C_52  and  O_54 
REMARK   25  A    between atoms: C_55  and  C_56 
REMARK   26  A    between atoms: C_56  and  C_57 
REMARK   27  A    between atoms: C_57  and  C_58 
REMARK   28  A    between atoms: C_58  and  O_60 
ROOT
ATOM      1  O   UNK d   0       9.223   2.636  10.203  0.00  0.00    -0.650 OA
ATOM      2  C   UNK d   0       9.324   3.743   9.627  0.00  0.00     0.139 C 
ENDROOT
BRANCH   2   3
ATOM      3  O   UNK d   0       8.213   4.541   9.502  0.00  0.00    -0.776 OA
ATOM      4  H   UNK d   0       8.118   5.194   8.722  0.00  0.00     0.167 HD
ENDBRANCH   2   3
BRANCH   2   5
ATOM      5  C   UNK d   0      10.640   4.186   9.084  0.00  0.00     0.115 C 
BRANCH   5   6
ATOM      6  C   UNK d   0      11.129   3.207   8.051  0.00  0.00     0.052 C 
BRANCH   6   7
ATOM      7  C   UNK d   0      10.449   3.385   6.714  0.00  0.00    -0.020 A 
ATOM      8  C   UNK d   0      10.732   4.262   5.785  0.00  0.00    -0.011 A 
ATOM      9  C   UNK d   0       9.806   4.058   4.684  0.00  0.00     0.067 A 
ATOM     10  C   UNK d   0       9.594   4.630   3.420  0.00  0.00     0.062 C 
ATOM     11  N   UNK d   0       8.990   3.040   5.030  0.00  0.00    -0.248 NA
ATOM     12  C   UNK d   0       8.823   4.112   2.374  0.00  0.00     0.041 A 
ATOM     13  N   UNK d   0       7.611   3.524   2.372  0.00  0.00    -0.355 N 
ATOM     14  C   UNK d   0       9.353   4.116   1.070  0.00  0.00    -0.022 A 
ATOM     15  C   UNK d   0       7.362   3.149   1.103  0.00  0.00     0.042 A 
ATOM     16  H   UNK d   0       6.937   3.395   3.247  0.00  0.00     0.166 HD
ATOM     17  C   UNK d   0       6.244   2.498   0.546  0.00  0.00     0.062 C 
ATOM     18  C   UNK d   0       8.432   3.503   0.258  0.00  0.00    -0.013 A 
ATOM     19  C   UNK d   0       5.553   1.413   1.022  0.00  0.00     0.067 A 
ATOM     20  N   UNK d   0       5.826   1.020   2.269  0.00  0.00    -0.248 NA
ATOM     21  C   UNK d   0       4.546   0.504   0.499  0.00  0.00    -0.011 A 
ATOM     22  C   UNK d   0       5.073  -0.080   2.598  0.00  0.00     0.066 A 
ATOM     23  C   UNK d   0       5.231  -0.571   3.886  0.00  0.00     0.062 C 
ATOM     24  C   UNK d   0       4.272  -0.369   1.425  0.00  0.00    -0.020 A 
ATOM     25  C   UNK d   0       6.000  -0.028   4.926  0.00  0.00     0.041 A 
ATOM     26  N   UNK d   0       7.211   0.542   4.930  0.00  0.00    -0.355 N 
ATOM     27  C   UNK d   0       5.466  -0.029   6.233  0.00  0.00    -0.022 A 
ATOM     28  C   UNK d   0       7.466   0.909   6.196  0.00  0.00     0.042 A 
ATOM     29  H   UNK d   0       7.892   0.661   4.051  0.00  0.00     0.166 HD
ATOM     30  C   UNK d   0       8.577   1.549   6.765  0.00  0.00     0.062 C 
ATOM     31  C   UNK d   0       6.386   0.562   7.042  0.00  0.00    -0.013 A 
ATOM     32  C   UNK d   0       9.326   2.591   6.240  0.00  0.00     0.066 A 
BRANCH   8  33
ATOM     33  C   UNK d   0      11.792   5.287   5.828  0.00  0.00     0.151 C 
BRANCH  33  34
ATOM     34  C   UNK d   0      11.258   6.660   5.809  0.00  0.00     0.143 C 
ATOM     35  O   UNK d   0      10.562   7.086   6.741  0.00  0.00    -0.650 OA
BRANCH  34  36
ATOM     36  O   UNK d   0      11.538   7.478   4.738  0.00  0.00    -0.776 OA
ATOM     37  H   UNK d   0      12.277   7.241   4.064  0.00  0.00     0.167 HD
ENDBRANCH  34  36
ENDBRANCH  33  34
ENDBRANCH   8  33
BRANCH  31  38
ATOM     38  C   UNK d   0       6.246   0.798   8.528  0.00  0.00     0.151 C 
BRANCH  38  39
ATOM     39  C   UNK d   0       6.892  -0.224   9.322  0.00  0.00     0.143 C 
ATOM     40  O   UNK d   0       6.609  -1.430   9.213  0.00  0.00    -0.650 OA
BRANCH  39  41
ATOM     41  O   UNK d   0       7.871   0.141  10.246  0.00  0.00    -0.776 OA
ATOM     42  H   UNK d   0       7.782  -0.247  11.190  0.00  0.00     0.167 HD
ENDBRANCH  39  41
ENDBRANCH  38  39
ENDBRANCH  31  38
BRANCH  27  43
ATOM     43  C   UNK d   0       4.144  -0.562   6.727  0.00  0.00     0.052 C 
BRANCH  43  44
ATOM     44  C   UNK d   0       3.213   0.509   7.194  0.00  0.00     0.115 C 
BRANCH  44  45
ATOM     45  C   UNK d   0       2.254   0.751   6.085  0.00  0.00     0.139 C 
ATOM     46  O   UNK d   0       2.610   1.510   5.150  0.00  0.00    -0.650 OA
BRANCH  45  47
ATOM     47  O   UNK d   0       1.002   0.176   6.040  0.00  0.00    -0.776 OA
ATOM     48  H   UNK d   0       0.372   0.142   6.857  0.00  0.00     0.167 HD
ENDBRANCH  45  47
ENDBRANCH  44  45
ENDBRANCH  43  44
ENDBRANCH  27  43
BRANCH  24  49
ATOM     49  C   UNK d   0       3.277  -1.451   1.331  0.00  0.00     0.052 C 
BRANCH  49  50
ATOM     50  C   UNK d   0       1.885  -0.900   1.504  0.00  0.00     0.115 C 
BRANCH  50  51
ATOM     51  C   UNK d   0       1.315  -0.942   2.843  0.00  0.00     0.139 C 
ATOM     52  O   UNK d   0       0.291  -0.293   3.163  0.00  0.00    -0.650 OA
BRANCH  51  53
ATOM     53  O   UNK d   0       1.914  -1.723   3.820  0.00  0.00    -0.776 OA
ATOM     54  H   UNK d   0       2.737  -2.244   3.573  0.00  0.00     0.167 HD
ENDBRANCH  51  53
ENDBRANCH  50  51
ENDBRANCH  49  50
ENDBRANCH  24  49
BRANCH  21  55
ATOM     55  C   UNK d   0       3.959   0.607  -0.870  0.00  0.00     0.151 C 
BRANCH  55  56
ATOM     56  C   UNK d   0       3.027   1.738  -0.987  0.00  0.00     0.143 C 
ATOM     57  O   UNK d   0       2.460   2.250  -0.002  0.00  0.00    -0.650 OA
BRANCH  56  58
ATOM     58  O   UNK d   0       2.780   2.246  -2.262  0.00  0.00    -0.776 OA
ATOM     59  H   UNK d   0       3.604   2.271  -2.889  0.00  0.00     0.167 HD
ENDBRANCH  56  58
ENDBRANCH  55  56
ENDBRANCH  21  55
BRANCH  18  60
ATOM     60  C   UNK d   0       8.598   3.284  -1.225  0.00  0.00     0.151 C 
BRANCH  60  61
ATOM     61  C   UNK d   0       9.126   1.919  -1.375  0.00  0.00     0.143 C 
ATOM     62  O   UNK d   0       8.477   0.885  -1.529  0.00  0.00    -0.650 OA
BRANCH  61  63
ATOM     63  O   UNK d   0      10.537   1.812  -1.335  0.00  0.00    -0.776 OA
ATOM     64  H   UNK d   0      11.046   1.379  -2.086  0.00  0.00     0.167 HD
ENDBRANCH  61  63
ENDBRANCH  60  61
ENDBRANCH  18  60
BRANCH  14  65
ATOM     65  C   UNK d   0      10.607   4.737   0.524  0.00  0.00     0.052 C 
BRANCH  65  66
ATOM     66  C   UNK d   0      10.388   6.101  -0.030  0.00  0.00     0.115 C 
BRANCH  66  67
ATOM     67  C   UNK d   0      10.341   7.229   0.856  0.00  0.00     0.139 C 
ATOM     68  O   UNK d   0      11.209   7.304   1.802  0.00  0.00    -0.650 OA
BRANCH  67  69
ATOM     69  O   UNK d   0       9.446   8.298   0.830  0.00  0.00    -0.776 OA
ATOM     70  H   UNK d   0       9.810   9.178   0.438  0.00  0.00     0.167 HD
ENDBRANCH  67  69
ENDBRANCH  66  67
ENDBRANCH  65  66
ENDBRANCH  14  65
ENDBRANCH   6   7
ENDBRANCH   5   6
ENDBRANCH   2   5
TORSDOF 28
ENDMDL
MODEL 20
REMARK VINA RESULT:      -6.4      1.951     10.063
REMARK  28 active torsions:
REMARK  status: ('A' for Active; 'I' for Inactive)
REMARK    1  A    between atoms: C_2  and  O_3 
REMARK    2  A    between atoms: C_2  and  C_4 
REMARK    3  A    between atoms: C_4  and  C_5 
REMARK    4  A    between atoms: C_5  and  C_6 
REMARK    5  A    between atoms: C_7  and  C_8 
REMARK    6  A    between atoms: C_8  and  C_9 
REMARK    7  A    between atoms: C_9  and  O_11 
REMARK    8  A    between atoms: C_28  and  C_29 
REMARK    9  A    between atoms: C_29  and  C_30 
REMARK   10  A    between atoms: C_30  and  O_32 
REMARK   11  A    between atoms: C_33  and  C_34 
REMARK   12  A    between atoms: C_34  and  C_35 
REMARK   13  A    between atoms: C_35  and  C_36 
REMARK   14  A    between atoms: C_36  and  O_38 
REMARK   15  A    between atoms: C_39  and  C_40 
REMARK   16  A    between atoms: C_40  and  C_41 
REMARK   17  A    between atoms: C_41  and  C_42 
REMARK   18  A    between atoms: C_42  and  O_44 
REMARK   19  A    between atoms: C_45  and  C_46 
REMARK   20  A    between atoms: C_46  and  C_47 
REMARK   21  A    between atoms: C_47  and  O_49 
REMARK   22  A    between atoms: C_50  and  C_51 
REMARK   23  A    between atoms: C_51  and  C_52 
REMARK   24  A    between atoms: C_52  and  O_54 
REMARK   25  A    between atoms: C_55  and  C_56 
REMARK   26  A    between atoms: C_56  and  C_57 
REMARK   27  A    between atoms: C_57  and  C_58 
REMARK   28  A    between atoms: C_58  and  O_60 
ROOT
ATOM      1  O   UNK d   0     -32.256   3.187   8.291  0.00  0.00    -0.650 OA
ATOM      2  C   UNK d   0     -31.478   2.551   9.036  0.00  0.00     0.139 C 
ENDROOT
BRANCH   2   3
ATOM      3  O   UNK d   0     -31.069   1.292   8.666  0.00  0.00    -0.776 OA
ATOM      4  H   UNK d   0     -30.121   1.125   8.321  0.00  0.00     0.167 HD
ENDBRANCH   2   3
BRANCH   2   5
ATOM      5  C   UNK d   0     -31.002   3.157  10.311  0.00  0.00     0.115 C 
BRANCH   5   6
ATOM      6  C   UNK d   0     -31.266   2.221  11.459  0.00  0.00     0.052 C 
BRANCH   6   7
ATOM      7  C   UNK d   0     -30.002   1.801  12.170  0.00  0.00    -0.020 A 
ATOM      8  C   UNK d   0     -29.282   2.509  13.003  0.00  0.00    -0.011 A 
ATOM      9  C   UNK d   0     -28.156   1.691  13.423  0.00  0.00     0.067 A 
ATOM     10  C   UNK d   0     -27.063   1.843  14.291  0.00  0.00     0.062 C 
ATOM     11  N   UNK d   0     -28.266   0.503  12.793  0.00  0.00    -0.248 NA
ATOM     12  C   UNK d   0     -26.228   0.835  14.785  0.00  0.00     0.041 A 
ATOM     13  N   UNK d   0     -25.669  -0.230  14.178  0.00  0.00    -0.355 N 
ATOM     14  C   UNK d   0     -25.908   0.826  16.155  0.00  0.00    -0.022 A 
ATOM     15  C   UNK d   0     -25.010  -0.918  15.129  0.00  0.00     0.042 A 
ATOM     16  H   UNK d   0     -25.724  -0.479  13.095  0.00  0.00     0.166 HD
ATOM     17  C   UNK d   0     -24.255  -2.105  15.040  0.00  0.00     0.062 C 
ATOM     18  C   UNK d   0     -25.137  -0.287  16.382  0.00  0.00    -0.013 A 
ATOM     19  C   UNK d   0     -24.553  -3.269  14.379  0.00  0.00     0.067 A 
ATOM     20  N   UNK d   0     -25.592  -3.239  13.540  0.00  0.00    -0.248 NA
ATOM     21  C   UNK d   0     -24.019  -4.620  14.350  0.00  0.00    -0.011 A 
ATOM     22  C   UNK d   0     -25.777  -4.473  12.967  0.00  0.00     0.066 A 
ATOM     23  C   UNK d   0     -26.805  -4.575  12.041  0.00  0.00     0.062 C 
ATOM     24  C   UNK d   0     -24.742  -5.321  13.525  0.00  0.00    -0.020 A 
ATOM     25  C   UNK d   0     -27.625  -3.547  11.549  0.00  0.00     0.041 A 
ATOM     26  N   UNK d   0     -28.192  -2.497  12.155  0.00  0.00    -0.355 N 
ATOM     27  C   UNK d   0     -27.942  -3.537  10.173  0.00  0.00    -0.022 A 
ATOM     28  C   UNK d   0     -28.858  -1.814  11.210  0.00  0.00     0.042 A 
ATOM     29  H   UNK d   0     -28.145  -2.254  13.245  0.00  0.00     0.166 HD
ATOM     30  C   UNK d   0     -29.620  -0.638  11.287  0.00  0.00     0.062 C 
ATOM     31  C   UNK d   0     -28.721  -2.443   9.950  0.00  0.00    -0.013 A 
ATOM     32  C   UNK d   0     -29.357   0.505  12.025  0.00  0.00     0.066 A 
BRANCH   8  33
ATOM     33  C   UNK d   0     -29.543   3.891  13.445  0.00  0.00     0.151 C 
BRANCH  33  34
ATOM     34  C   UNK d   0     -28.538   4.849  12.949  0.00  0.00     0.143 C 
ATOM     35  O   UNK d   0     -27.791   5.451  13.733  0.00  0.00    -0.650 OA
BRANCH  34  36
ATOM     36  O   UNK d   0     -28.432   5.076  11.596  0.00  0.00    -0.776 OA
ATOM     37  H   UNK d   0     -28.462   4.300  10.920  0.00  0.00     0.167 HD
ENDBRANCH  34  36
ENDBRANCH  33  34
ENDBRANCH   8  33
BRANCH  31  38
ATOM     38  C   UNK d   0     -29.291  -2.012   8.619  0.00  0.00     0.151 C 
BRANCH  38  39
ATOM     39  C   UNK d   0     -28.428  -1.092   7.910  0.00  0.00     0.143 C 
ATOM     40  O   UNK d   0     -28.281   0.091   8.264  0.00  0.00    -0.650 OA
BRANCH  39  41
ATOM     41  O   UNK d   0     -27.729  -1.534   6.787  0.00  0.00    -0.776 OA
ATOM     42  H   UNK d   0     -28.211  -1.464   5.886  0.00  0.00     0.167 HD
ENDBRANCH  39  41
ENDBRANCH  38  39
ENDBRANCH  31  38
BRANCH  27  43
ATOM     43  C   UNK d   0     -27.542  -4.507   9.090  0.00  0.00     0.052 C 
BRANCH  43  44
ATOM     44  C   UNK d   0     -26.252  -4.151   8.425  0.00  0.00     0.115 C 
BRANCH  44  45
ATOM     45  C   UNK d   0     -25.409  -5.374   8.451  0.00  0.00     0.139 C 
ATOM     46  O   UNK d   0     -24.187  -5.245   8.711  0.00  0.00    -0.650 OA
BRANCH  45  47
ATOM     47  O   UNK d   0     -25.912  -6.634   8.210  0.00  0.00    -0.776 OA
ATOM     48  H   UNK d   0     -26.924  -6.835   8.172  0.00  0.00     0.167 HD
ENDBRANCH  45  47
ENDBRANCH  44  45
ENDBRANCH  43  44
ENDBRANCH  27  43
BRANCH  24  49
ATOM     49  C   UNK d   0     -24.527  -6.733  13.166  0.00  0.00     0.052 C 
BRANCH  49  50
ATOM     50  C   UNK d   0     -24.938  -6.979  11.737  0.00  0.00     0.115 C 
BRANCH  50  51
ATOM     51  C   UNK d   0     -25.880  -8.064  11.493  0.00  0.00     0.139 C 
ATOM     52  O   UNK d   0     -26.728  -8.028  10.570  0.00  0.00    -0.650 OA
BRANCH  51  53
ATOM     53  O   UNK d   0     -25.857  -9.188  12.304  0.00  0.00    -0.776 OA
ATOM     54  H   UNK d   0     -26.357  -9.156  13.175  0.00  0.00     0.167 HD
ENDBRANCH  51  53
ENDBRANCH  50  51
ENDBRANCH  49  50
ENDBRANCH  24  49
BRANCH  21  55
ATOM     55  C   UNK d   0     -22.839  -5.069  15.147  0.00  0.00     0.151 C 
BRANCH  55  56
ATOM     56  C   UNK d   0     -21.581  -4.919  14.401  0.00  0.00     0.143 C 
ATOM     57  O   UNK d   0     -20.721  -5.820  14.340  0.00  0.00    -0.650 OA
BRANCH  56  58
ATOM     58  O   UNK d   0     -21.357  -3.712  13.740  0.00  0.00    -0.776 OA
ATOM     59  H   UNK d   0     -21.015  -3.805  12.767  0.00  0.00     0.167 HD
ENDBRANCH  56  58
ENDBRANCH  55  56
ENDBRANCH  21  55
BRANCH  18  60
ATOM     60  C   UNK d   0     -24.577  -0.692  17.723  0.00  0.00     0.151 C 
BRANCH  60  61
ATOM     61  C   UNK d   0     -25.453  -1.765  18.218  0.00  0.00     0.143 C 
ATOM     62  O   UNK d   0     -25.107  -2.814  18.763  0.00  0.00    -0.650 OA
BRANCH  61  63
ATOM     63  O   UNK d   0     -26.840  -1.543  18.038  0.00  0.00    -0.776 OA
ATOM     64  H   UNK d   0     -27.519  -2.193  18.390  0.00  0.00     0.167 HD
ENDBRANCH  61  63
ENDBRANCH  60  61
ENDBRANCH  18  60
BRANCH  14  65
ATOM     65  C   UNK d   0     -26.190   1.832  17.234  0.00  0.00     0.052 C 
BRANCH  65  66
ATOM     66  C   UNK d   0     -25.403   3.085  17.082  0.00  0.00     0.115 C 
BRANCH  66  67
ATOM     67  C   UNK d   0     -24.120   3.045  16.438  0.00  0.00     0.139 C 
ATOM     68  O   UNK d   0     -23.997   3.594  15.282  0.00  0.00    -0.650 OA
BRANCH  67  69
ATOM     69  O   UNK d   0     -22.943   2.469  16.915  0.00  0.00    -0.776 OA
ATOM     70  H   UNK d   0     -22.223   2.269  16.206  0.00  0.00     0.167 HD
ENDBRANCH  67  69
ENDBRANCH  66  67
ENDBRANCH  65  66
ENDBRANCH  14  65
ENDBRANCH   6   7
ENDBRANCH   5   6
ENDBRANCH   2   5
TORSDOF 28
ENDMDL
