MODEL 1
REMARK VINA RESULT:     -10.2      0.000      0.000
REMARK  16 active torsions:
REMARK  status: ('A' for Active; 'I' for Inactive)
REMARK    1  A    between atoms: C_6  and  C_7 
REMARK    2  A    between atoms: C_7  and  C_8 
REMARK    3  A    between atoms: C_8  and  C_9 
REMARK    4  A    between atoms: C_9  and  O_11 
REMARK    5  A    between atoms: C_16  and  C_17 
REMARK    6  A    between atoms: C_17  and  C_18 
REMARK    7  A    between atoms: C_18  and  C_19 
REMARK    8  A    between atoms: C_19  and  O_21 
REMARK    9  A    between atoms: C_28  and  C_29 
REMARK   10  A    between atoms: C_29  and  C_30 
REMARK   11  A    between atoms: C_30  and  C_31 
REMARK   12  A    between atoms: C_31  and  O_33 
REMARK   13  A    between atoms: C_42  and  C_43 
REMARK   14  A    between atoms: C_43  and  C_44 
REMARK   15  A    between atoms: C_44  and  C_45 
REMARK   16  A    between atoms: C_45  and  O_47 
ROOT
HETATM    1  C   UNK     0     -38.879 -16.530  10.728  0.00  0.00     0.051 C 
HETATM    2  C   UNK     0     -38.030 -17.591  11.399  0.00  0.00    -0.031 A 
HETATM    3  C   UNK     0     -38.415 -18.792  11.974  0.00  0.00     0.021 A 
HETATM    4  N   UNK     0     -37.321 -19.408  12.482  0.00  0.00    -0.361 N 
HETATM    5  C   UNK     0     -36.247 -18.631  12.235  0.00  0.00     0.022 A 
HETATM    6  C   UNK     0     -36.654 -17.484  11.561  0.00  0.00    -0.027 A 
HETATM    7  C   UNK     0     -34.798 -18.895  12.505  0.00  0.00     0.115 C 
HETATM    8  C   UNK     0     -34.291 -20.292  12.193  0.00  0.00     0.021 A 
HETATM    9  N   UNK     0     -34.656 -21.111  11.195  0.00  0.00    -0.361 N 
HETATM   10  C   UNK     0     -34.014 -22.287  11.361  0.00  0.00     0.022 A 
HETATM   11  C   UNK     0     -33.207 -22.221  12.493  0.00  0.00    -0.027 A 
HETATM   12  C   UNK     0     -33.377 -20.967  13.022  0.00  0.00    -0.031 A 
HETATM   13  C   UNK     0     -32.688 -20.441  14.261  0.00  0.00     0.051 C 
HETATM   14  C   UNK     0     -34.177 -23.533  10.494  0.00  0.00     0.115 C 
HETATM   15  C   UNK     0     -35.590 -24.092  10.479  0.00  0.00     0.021 A 
HETATM   16  N   UNK     0     -36.718 -23.464  10.097  0.00  0.00    -0.361 N 
HETATM   17  C   UNK     0     -37.760 -24.274  10.299  0.00  0.00     0.022 A 
HETATM   18  C   UNK     0     -37.287 -25.491  10.829  0.00  0.00    -0.027 A 
HETATM   19  C   UNK     0     -35.927 -25.365  10.935  0.00  0.00    -0.031 A 
HETATM   20  C   UNK     0     -35.013 -26.471  11.432  0.00  0.00     0.051 C 
HETATM   21  C   UNK     0     -39.238 -24.022  10.104  0.00  0.00     0.115 C 
HETATM   22  C   UNK     0     -39.749 -22.625  10.368  0.00  0.00     0.022 A 
HETATM   23  N   UNK     0     -39.400 -21.786  11.352  0.00  0.00    -0.361 N 
HETATM   24  C   UNK     0     -39.991 -20.596  11.122  0.00  0.00     0.021 A 
HETATM   25  C   UNK     0     -40.746 -20.674   9.968  0.00  0.00    -0.031 A 
HETATM   26  C   UNK     0     -41.618 -19.615   9.326  0.00  0.00     0.051 C 
HETATM   27  C   UNK     0     -40.607 -21.963   9.467  0.00  0.00    -0.027 A 
HETATM   28  C   UNK     0     -39.824 -19.308  11.910  0.00  0.00     0.115 C 
HETATM   29  H   UNK     0     -37.322 -20.369  13.046  0.00  0.00     0.165 HD
HETATM   30  H   UNK     0     -35.328 -20.845  10.342  0.00  0.00     0.165 HD
HETATM   31  H   UNK     0     -36.776 -22.446   9.631  0.00  0.00     0.165 HD
HETATM   32  H   UNK     0     -38.768 -22.039  12.242  0.00  0.00     0.165 HD
ENDROOT
BRANCH   6  33
HETATM   33  C   UNK     0     -35.848 -16.310  11.069  0.00  0.00     0.051 C 
BRANCH  33  34
HETATM   34  C   UNK     0     -35.083 -16.672   9.818  0.00  0.00     0.114 C 
BRANCH  34  35
HETATM   35  C   UNK     0     -33.692 -16.161   9.981  0.00  0.00     0.139 C 
HETATM   36  O   UNK     0     -32.819 -16.865  10.566  0.00  0.00    -0.650 OA
BRANCH  35  37
HETATM   37  O   UNK     0     -33.291 -14.917   9.508  0.00  0.00    -0.776 OA
HETATM   38  H   UNK     0     -32.349 -14.742   9.197  0.00  0.00     0.167 HD
ENDBRANCH  35  37
ENDBRANCH  34  35
ENDBRANCH  33  34
ENDBRANCH   6  33
BRANCH  27  39
HETATM   39  C   UNK     0     -41.335 -22.447   8.263  0.00  0.00     0.051 C 
BRANCH  39  40
HETATM   40  C   UNK     0     -40.577 -22.652   7.029  0.00  0.00     0.114 C 
BRANCH  40  41
HETATM   41  C   UNK     0     -40.989 -23.600   6.019  0.00  0.00     0.139 C 
HETATM   42  O   UNK     0     -42.125 -24.093   5.967  0.00  0.00    -0.650 OA
BRANCH  41  43
HETATM   43  O   UNK     0     -40.054 -24.000   5.023  0.00  0.00    -0.776 OA
HETATM   44  H   UNK     0     -40.412 -24.675   4.358  0.00  0.00     0.167 HD
ENDBRANCH  41  43
ENDBRANCH  40  41
ENDBRANCH  39  40
ENDBRANCH  27  39
BRANCH  11  45
HETATM   45  C   UNK     0     -32.305 -23.279  13.069  0.00  0.00     0.051 C 
BRANCH  45  46
HETATM   46  C   UNK     0     -31.105 -23.568  12.242  0.00  0.00     0.114 C 
BRANCH  46  47
HETATM   47  C   UNK     0     -30.985 -25.051  12.142  0.00  0.00     0.139 C 
HETATM   48  O   UNK     0     -31.321 -25.602  11.084  0.00  0.00    -0.650 OA
BRANCH  47  49
HETATM   49  O   UNK     0     -30.515 -25.791  13.197  0.00  0.00    -0.776 OA
HETATM   50  H   UNK     0     -31.143 -26.196  13.902  0.00  0.00     0.167 HD
ENDBRANCH  47  49
ENDBRANCH  46  47
ENDBRANCH  45  46
ENDBRANCH  11  45
BRANCH  18  51
HETATM   51  C   UNK     0     -38.087 -26.715  11.193  0.00  0.00     0.051 C 
BRANCH  51  52
HETATM   52  C   UNK     0     -39.114 -26.263  12.221  0.00  0.00     0.114 C 
BRANCH  52  53
HETATM   53  C   UNK     0     -38.842 -26.830  13.556  0.00  0.00     0.139 C 
HETATM   54  O   UNK     0     -39.778 -27.050  14.340  0.00  0.00    -0.650 OA
BRANCH  53  55
HETATM   55  O   UNK     0     -37.548 -27.109  13.925  0.00  0.00    -0.776 OA
HETATM   56  H   UNK     0     -36.861 -27.548  13.359  0.00  0.00     0.167 HD
ENDBRANCH  53  55
ENDBRANCH  52  53
ENDBRANCH  51  52
ENDBRANCH  18  51
TORSDOF 16
ENDMDL
MODEL 2
REMARK VINA RESULT:     -10.2     28.730     33.112
REMARK  16 active torsions:
REMARK  status: ('A' for Active; 'I' for Inactive)
REMARK    1  A    between atoms: C_6  and  C_7 
REMARK    2  A    between atoms: C_7  and  C_8 
REMARK    3  A    between atoms: C_8  and  C_9 
REMARK    4  A    between atoms: C_9  and  O_11 
REMARK    5  A    between atoms: C_16  and  C_17 
REMARK    6  A    between atoms: C_17  and  C_18 
REMARK    7  A    between atoms: C_18  and  C_19 
REMARK    8  A    between atoms: C_19  and  O_21 
REMARK    9  A    between atoms: C_28  and  C_29 
REMARK   10  A    between atoms: C_29  and  C_30 
REMARK   11  A    between atoms: C_30  and  C_31 
REMARK   12  A    between atoms: C_31  and  O_33 
REMARK   13  A    between atoms: C_42  and  C_43 
REMARK   14  A    between atoms: C_43  and  C_44 
REMARK   15  A    between atoms: C_44  and  C_45 
REMARK   16  A    between atoms: C_45  and  O_47 
ROOT
HETATM    1  C   UNK     0      -8.416  -9.841  -0.573  0.00  0.00     0.051 C 
HETATM    2  C   UNK     0      -9.086 -10.366  -1.827  0.00  0.00    -0.031 A 
HETATM    3  C   UNK     0      -8.516 -10.778  -3.022  0.00  0.00     0.021 A 
HETATM    4  N   UNK     0      -9.500 -11.141  -3.878  0.00  0.00    -0.361 N 
HETATM    5  C   UNK     0     -10.684 -10.977  -3.252  0.00  0.00     0.022 A 
HETATM    6  C   UNK     0     -10.462 -10.491  -1.968  0.00  0.00    -0.027 A 
HETATM    7  C   UNK     0     -12.064 -11.318  -3.721  0.00  0.00     0.115 C 
HETATM    8  C   UNK     0     -12.232 -12.649  -4.434  0.00  0.00     0.021 A 
HETATM    9  N   UNK     0     -11.605 -13.811  -4.194  0.00  0.00    -0.361 N 
HETATM   10  C   UNK     0     -11.998 -14.700  -5.130  0.00  0.00     0.022 A 
HETATM   11  C   UNK     0     -12.910 -14.098  -5.991  0.00  0.00    -0.027 A 
HETATM   12  C   UNK     0     -13.062 -12.805  -5.558  0.00  0.00    -0.031 A 
HETATM   13  C   UNK     0     -13.966 -11.771  -6.192  0.00  0.00     0.051 C 
HETATM   14  C   UNK     0     -11.492 -16.132  -5.282  0.00  0.00     0.115 C 
HETATM   15  C   UNK     0      -9.998 -16.232  -5.546  0.00  0.00     0.021 A 
HETATM   16  N   UNK     0      -8.995 -15.771  -4.775  0.00  0.00    -0.361 N 
HETATM   17  C   UNK     0      -7.831 -15.994  -5.390  0.00  0.00     0.022 A 
HETATM   18  C   UNK     0      -8.088 -16.640  -6.616  0.00  0.00    -0.027 A 
HETATM   19  C   UNK     0      -9.448 -16.784  -6.701  0.00  0.00    -0.031 A 
HETATM   20  C   UNK     0     -10.154 -17.469  -7.857  0.00  0.00     0.051 C 
HETATM   21  C   UNK     0      -6.428 -15.608  -4.983  0.00  0.00     0.115 C 
HETATM   22  C   UNK     0      -6.251 -14.308  -4.234  0.00  0.00     0.022 A 
HETATM   23  N   UNK     0      -6.865 -13.137  -4.449  0.00  0.00    -0.361 N 
HETATM   24  C   UNK     0      -6.518 -12.289  -3.459  0.00  0.00     0.021 A 
HETATM   25  C   UNK     0      -5.652 -12.927  -2.592  0.00  0.00    -0.031 A 
HETATM   26  C   UNK     0      -4.963 -12.379  -1.360  0.00  0.00     0.051 C 
HETATM   27  C   UNK     0      -5.466 -14.220  -3.067  0.00  0.00    -0.027 A 
HETATM   28  C   UNK     0      -7.030 -10.879  -3.221  0.00  0.00     0.115 C 
HETATM   29  H   UNK     0      -9.354 -11.472  -4.932  0.00  0.00     0.165 HD
HETATM   30  H   UNK     0     -10.923 -14.021  -3.334  0.00  0.00     0.165 HD
HETATM   31  H   UNK     0      -9.106 -15.322  -3.754  0.00  0.00     0.165 HD
HETATM   32  H   UNK     0      -7.515 -12.883  -5.326  0.00  0.00     0.165 HD
ENDROOT
BRANCH   6  33
HETATM   33  C   UNK     0     -11.444 -10.138  -0.881  0.00  0.00     0.051 C 
BRANCH  33  34
HETATM   34  C   UNK     0     -12.409  -9.078  -1.354  0.00  0.00     0.114 C 
BRANCH  34  35
HETATM   35  C   UNK     0     -13.776  -9.493  -0.926  0.00  0.00     0.139 C 
HETATM   36  O   UNK     0     -14.266 -10.586  -1.333  0.00  0.00    -0.650 OA
BRANCH  35  37
HETATM   37  O   UNK     0     -14.561  -8.723  -0.076  0.00  0.00    -0.776 OA
HETATM   38  H   UNK     0     -14.358  -8.635   0.906  0.00  0.00     0.167 HD
ENDBRANCH  35  37
ENDBRANCH  34  35
ENDBRANCH  33  34
ENDBRANCH   6  33
BRANCH  27  39
HETATM   39  C   UNK     0      -4.536 -15.191  -2.430  0.00  0.00     0.051 C 
BRANCH  39  40
HETATM   40  C   UNK     0      -5.074 -16.117  -1.434  0.00  0.00     0.114 C 
BRANCH  40  41
HETATM   41  C   UNK     0      -5.502 -15.676  -0.125  0.00  0.00     0.139 C 
HETATM   42  O   UNK     0      -6.615 -15.182   0.100  0.00  0.00    -0.650 OA
BRANCH  41  43
HETATM   43  O   UNK     0      -4.608 -15.809   0.976  0.00  0.00    -0.776 OA
HETATM   44  H   UNK     0      -5.040 -16.148   1.827  0.00  0.00     0.167 HD
ENDBRANCH  41  43
ENDBRANCH  40  41
ENDBRANCH  39  40
ENDBRANCH  27  39
BRANCH  11  45
HETATM   45  C   UNK     0     -13.623 -14.693  -7.175  0.00  0.00     0.051 C 
BRANCH  45  46
HETATM   46  C   UNK     0     -14.935 -15.306  -6.847  0.00  0.00     0.114 C 
BRANCH  46  47
HETATM   47  C   UNK     0     -14.743 -16.785  -6.842  0.00  0.00     0.139 C 
HETATM   48  O   UNK     0     -15.235 -17.443  -5.914  0.00  0.00    -0.650 OA
BRANCH  47  49
HETATM   49  O   UNK     0     -14.036 -17.405  -7.841  0.00  0.00    -0.776 OA
HETATM   50  H   UNK     0     -14.499 -17.938  -8.586  0.00  0.00     0.167 HD
ENDBRANCH  47  49
ENDBRANCH  46  47
ENDBRANCH  45  46
ENDBRANCH  11  45
BRANCH  18  51
HETATM   51  C   UNK     0      -7.089 -17.113  -7.640  0.00  0.00     0.051 C 
BRANCH  51  52
HETATM   52  C   UNK     0      -6.539 -15.862  -8.308  0.00  0.00     0.114 C 
BRANCH  52  53
HETATM   53  C   UNK     0      -7.100 -15.668  -9.658  0.00  0.00     0.139 C 
HETATM   54  O   UNK     0      -8.279 -15.979  -9.892  0.00  0.00    -0.650 OA
BRANCH  53  55
HETATM   55  O   UNK     0      -6.311 -15.144 -10.654  0.00  0.00    -0.776 OA
HETATM   56  H   UNK     0      -6.405 -14.244 -11.061  0.00  0.00     0.167 HD
ENDBRANCH  53  55
ENDBRANCH  52  53
ENDBRANCH  51  52
ENDBRANCH  18  51
TORSDOF 16
ENDMDL
MODEL 3
REMARK VINA RESULT:      -9.9      2.128      2.728
REMARK  16 active torsions:
REMARK  status: ('A' for Active; 'I' for Inactive)
REMARK    1  A    between atoms: C_6  and  C_7 
REMARK    2  A    between atoms: C_7  and  C_8 
REMARK    3  A    between atoms: C_8  and  C_9 
REMARK    4  A    between atoms: C_9  and  O_11 
REMARK    5  A    between atoms: C_16  and  C_17 
REMARK    6  A    between atoms: C_17  and  C_18 
REMARK    7  A    between atoms: C_18  and  C_19 
REMARK    8  A    between atoms: C_19  and  O_21 
REMARK    9  A    between atoms: C_28  and  C_29 
REMARK   10  A    between atoms: C_29  and  C_30 
REMARK   11  A    between atoms: C_30  and  C_31 
REMARK   12  A    between atoms: C_31  and  O_33 
REMARK   13  A    between atoms: C_42  and  C_43 
REMARK   14  A    between atoms: C_43  and  C_44 
REMARK   15  A    between atoms: C_44  and  C_45 
REMARK   16  A    between atoms: C_45  and  O_47 
ROOT
HETATM    1  C   UNK     0     -35.747 -15.684  11.440  0.00  0.00     0.051 C 
HETATM    2  C   UNK     0     -35.312 -17.001  12.049  0.00  0.00    -0.031 A 
HETATM    3  C   UNK     0     -36.083 -18.079  12.455  0.00  0.00     0.021 A 
HETATM    4  N   UNK     0     -35.272 -19.032  12.972  0.00  0.00    -0.361 N 
HETATM    5  C   UNK     0     -34.000 -18.588  12.896  0.00  0.00     0.022 A 
HETATM    6  C   UNK     0     -33.989 -17.320  12.326  0.00  0.00    -0.027 A 
HETATM    7  C   UNK     0     -32.724 -19.291  13.243  0.00  0.00     0.115 C 
HETATM    8  C   UNK     0     -32.609 -20.744  12.816  0.00  0.00     0.021 A 
HETATM    9  N   UNK     0     -33.086 -21.330  11.707  0.00  0.00    -0.361 N 
HETATM   10  C   UNK     0     -32.829 -22.653  11.788  0.00  0.00     0.022 A 
HETATM   11  C   UNK     0     -32.160 -22.925  12.978  0.00  0.00    -0.027 A 
HETATM   12  C   UNK     0     -32.018 -21.727  13.630  0.00  0.00    -0.031 A 
HETATM   13  C   UNK     0     -31.342 -21.535  14.969  0.00  0.00     0.051 C 
HETATM   14  C   UNK     0     -33.249 -23.716  10.777  0.00  0.00     0.115 C 
HETATM   15  C   UNK     0     -34.753 -23.830  10.592  0.00  0.00     0.021 A 
HETATM   16  N   UNK     0     -35.608 -22.867  10.200  0.00  0.00    -0.361 N 
HETATM   17  C   UNK     0     -36.853 -23.346  10.230  0.00  0.00     0.022 A 
HETATM   18  C   UNK     0     -36.807 -24.689  10.654  0.00  0.00    -0.027 A 
HETATM   19  C   UNK     0     -35.486 -24.980  10.876  0.00  0.00    -0.031 A 
HETATM   20  C   UNK     0     -34.985 -26.345  11.313  0.00  0.00     0.051 C 
HETATM   21  C   UNK     0     -38.168 -22.653   9.953  0.00  0.00     0.115 C 
HETATM   22  C   UNK     0     -38.282 -21.196  10.332  0.00  0.00     0.022 A 
HETATM   23  N   UNK     0     -37.814 -20.584  11.428  0.00  0.00    -0.361 N 
HETATM   24  C   UNK     0     -38.011 -19.258  11.290  0.00  0.00     0.021 A 
HETATM   25  C   UNK     0     -38.631 -19.010  10.080  0.00  0.00    -0.031 A 
HETATM   26  C   UNK     0     -39.092 -17.690   9.497  0.00  0.00     0.051 C 
HETATM   27  C   UNK     0     -38.816 -20.235   9.449  0.00  0.00    -0.027 A 
HETATM   28  C   UNK     0     -37.567 -18.149  12.228  0.00  0.00     0.115 C 
HETATM   29  H   UNK     0     -35.607 -19.995  13.423  0.00  0.00     0.165 HD
HETATM   30  H   UNK     0     -33.560 -20.805  10.841  0.00  0.00     0.165 HD
HETATM   31  H   UNK     0     -35.323 -21.841   9.848  0.00  0.00     0.165 HD
HETATM   32  H   UNK     0     -37.378 -21.088  12.330  0.00  0.00     0.165 HD
ENDROOT
BRANCH   6  33
HETATM   33  C   UNK     0     -32.833 -16.398  12.032  0.00  0.00     0.051 C 
BRANCH  33  34
HETATM   34  C   UNK     0     -32.189 -15.922  13.312  0.00  0.00     0.114 C 
BRANCH  34  35
HETATM   35  C   UNK     0     -31.418 -14.686  12.991  0.00  0.00     0.139 C 
HETATM   36  O   UNK     0     -31.310 -14.296  11.792  0.00  0.00    -0.650 OA
BRANCH  35  37
HETATM   37  O   UNK     0     -30.796 -13.916  13.966  0.00  0.00    -0.776 OA
HETATM   38  H   UNK     0     -29.867 -13.546  13.844  0.00  0.00     0.167 HD
ENDBRANCH  35  37
ENDBRANCH  34  35
ENDBRANCH  33  34
ENDBRANCH   6  33
BRANCH  27  39
HETATM   39  C   UNK     0     -39.521 -20.378   8.147  0.00  0.00     0.051 C 
BRANCH  39  40
HETATM   40  C   UNK     0     -40.969 -20.583   8.161  0.00  0.00     0.114 C 
BRANCH  40  41
HETATM   41  C   UNK     0     -41.673 -21.027   9.343  0.00  0.00     0.139 C 
HETATM   42  O   UNK     0     -41.686 -22.203   9.730  0.00  0.00    -0.650 OA
BRANCH  41  43
HETATM   43  O   UNK     0     -42.397 -20.074  10.115  0.00  0.00    -0.776 OA
HETATM   44  H   UNK     0     -43.379 -20.290  10.234  0.00  0.00     0.167 HD
ENDBRANCH  41  43
ENDBRANCH  40  41
ENDBRANCH  39  40
ENDBRANCH  27  39
BRANCH  11  45
HETATM   45  C   UNK     0     -31.664 -24.247  13.498  0.00  0.00     0.051 C 
BRANCH  45  46
HETATM   46  C   UNK     0     -30.299 -24.607  13.034  0.00  0.00     0.114 C 
BRANCH  46  47
HETATM   47  C   UNK     0     -30.457 -25.536  11.879  0.00  0.00     0.139 C 
HETATM   48  O   UNK     0     -30.003 -25.193  10.778  0.00  0.00    -0.650 OA
BRANCH  47  49
HETATM   49  O   UNK     0     -31.090 -26.743  12.029  0.00  0.00    -0.776 OA
HETATM   50  H   UNK     0     -31.822 -27.060  11.381  0.00  0.00     0.167 HD
ENDBRANCH  47  49
ENDBRANCH  46  47
ENDBRANCH  45  46
ENDBRANCH  11  45
BRANCH  18  51
HETATM   51  C   UNK     0     -37.957 -25.649  10.817  0.00  0.00     0.051 C 
BRANCH  51  52
HETATM   52  C   UNK     0     -39.218 -24.862  10.493  0.00  0.00     0.114 C 
BRANCH  52  53
HETATM   53  C   UNK     0     -40.231 -24.983  11.560  0.00  0.00     0.139 C 
HETATM   54  O   UNK     0     -40.119 -25.865  12.426  0.00  0.00    -0.650 OA
BRANCH  53  55
HETATM   55  O   UNK     0     -41.297 -24.117  11.587  0.00  0.00    -0.776 OA
HETATM   56  H   UNK     0     -41.277 -23.176  11.903  0.00  0.00     0.167 HD
ENDBRANCH  53  55
ENDBRANCH  52  53
ENDBRANCH  51  52
ENDBRANCH  18  51
TORSDOF 16
ENDMDL
MODEL 4
REMARK VINA RESULT:      -9.5      3.124      8.247
REMARK  16 active torsions:
REMARK  status: ('A' for Active; 'I' for Inactive)
REMARK    1  A    between atoms: C_6  and  C_7 
REMARK    2  A    between atoms: C_7  and  C_8 
REMARK    3  A    between atoms: C_8  and  C_9 
REMARK    4  A    between atoms: C_9  and  O_11 
REMARK    5  A    between atoms: C_16  and  C_17 
REMARK    6  A    between atoms: C_17  and  C_18 
REMARK    7  A    between atoms: C_18  and  C_19 
REMARK    8  A    between atoms: C_19  and  O_21 
REMARK    9  A    between atoms: C_28  and  C_29 
REMARK   10  A    between atoms: C_29  and  C_30 
REMARK   11  A    between atoms: C_30  and  C_31 
REMARK   12  A    between atoms: C_31  and  O_33 
REMARK   13  A    between atoms: C_42  and  C_43 
REMARK   14  A    between atoms: C_43  and  C_44 
REMARK   15  A    between atoms: C_44  and  C_45 
REMARK   16  A    between atoms: C_45  and  O_47 
ROOT
HETATM    1  C   UNK     0     -36.437 -13.216  11.009  0.00  0.00     0.051 C 
HETATM    2  C   UNK     0     -36.725 -14.550  10.352  0.00  0.00    -0.031 A 
HETATM    3  C   UNK     0     -35.841 -15.511   9.887  0.00  0.00     0.021 A 
HETATM    4  N   UNK     0     -36.545 -16.532   9.344  0.00  0.00    -0.361 N 
HETATM    5  C   UNK     0     -37.858 -16.248   9.460  0.00  0.00     0.022 A 
HETATM    6  C   UNK     0     -38.007 -15.013  10.083  0.00  0.00    -0.027 A 
HETATM    7  C   UNK     0     -39.048 -17.083   9.105  0.00  0.00     0.115 C 
HETATM    8  C   UNK     0     -38.981 -18.555   9.472  0.00  0.00     0.021 A 
HETATM    9  N   UNK     0     -38.414 -19.124  10.547  0.00  0.00    -0.361 N 
HETATM   10  C   UNK     0     -38.514 -20.464  10.413  0.00  0.00     0.022 A 
HETATM   11  C   UNK     0     -39.171 -20.766   9.224  0.00  0.00    -0.027 A 
HETATM   12  C   UNK     0     -39.469 -19.568   8.626  0.00  0.00    -0.031 A 
HETATM   13  C   UNK     0     -40.192 -19.405   7.308  0.00  0.00     0.051 C 
HETATM   14  C   UNK     0     -37.949 -21.510  11.371  0.00  0.00     0.115 C 
HETATM   15  C   UNK     0     -36.437 -21.450  11.525  0.00  0.00     0.021 A 
HETATM   16  N   UNK     0     -35.695 -20.408  11.944  0.00  0.00    -0.361 N 
HETATM   17  C   UNK     0     -34.403 -20.733  11.872  0.00  0.00     0.022 A 
HETATM   18  C   UNK     0     -34.298 -22.054  11.393  0.00  0.00    -0.027 A 
HETATM   19  C   UNK     0     -35.579 -22.492  11.180  0.00  0.00    -0.031 A 
HETATM   20  C   UNK     0     -35.925 -23.888  10.694  0.00  0.00     0.051 C 
HETATM   21  C   UNK     0     -33.173 -19.900  12.157  0.00  0.00     0.115 C 
HETATM   22  C   UNK     0     -33.241 -18.425  11.838  0.00  0.00     0.022 A 
HETATM   23  N   UNK     0     -33.803 -17.830  10.777  0.00  0.00    -0.361 N 
HETATM   24  C   UNK     0     -33.761 -16.496  10.969  0.00  0.00     0.021 A 
HETATM   25  C   UNK     0     -33.149 -16.225  12.177  0.00  0.00    -0.031 A 
HETATM   26  C   UNK     0     -32.836 -14.884  12.808  0.00  0.00     0.051 C 
HETATM   27  C   UNK     0     -32.807 -17.444  12.752  0.00  0.00    -0.027 A 
HETATM   28  C   UNK     0     -34.355 -15.412  10.086  0.00  0.00     0.115 C 
HETATM   29  H   UNK     0     -36.108 -17.429   8.847  0.00  0.00     0.165 HD
HETATM   30  H   UNK     0     -37.987 -18.582  11.426  0.00  0.00     0.165 HD
HETATM   31  H   UNK     0     -36.092 -19.439  12.344  0.00  0.00     0.165 HD
HETATM   32  H   UNK     0     -34.196 -18.346   9.862  0.00  0.00     0.165 HD
ENDROOT
BRANCH   6  33
HETATM   33  C   UNK     0     -39.258 -14.249  10.437  0.00  0.00     0.051 C 
BRANCH  33  34
HETATM   34  C   UNK     0     -40.095 -15.023  11.428  0.00  0.00     0.114 C 
BRANCH  34  35
HETATM   35  C   UNK     0     -41.435 -15.237  10.809  0.00  0.00     0.139 C 
HETATM   36  O   UNK     0     -42.021 -16.352  10.928  0.00  0.00    -0.650 OA
BRANCH  35  37
HETATM   37  O   UNK     0     -42.095 -14.248  10.090  0.00  0.00    -0.776 OA
HETATM   38  H   UNK     0     -41.917 -14.089   9.112  0.00  0.00     0.167 HD
ENDBRANCH  35  37
ENDBRANCH  34  35
ENDBRANCH  33  34
ENDBRANCH   6  33
BRANCH  27  39
HETATM   39  C   UNK     0     -32.061 -17.554  14.035  0.00  0.00     0.051 C 
BRANCH  39  40
HETATM   40  C   UNK     0     -30.600 -17.496  13.996  0.00  0.00     0.114 C 
BRANCH  40  41
HETATM   41  C   UNK     0     -29.864 -16.334  14.442  0.00  0.00     0.139 C 
HETATM   42  O   UNK     0     -29.810 -15.972  15.625  0.00  0.00    -0.650 OA
BRANCH  41  43
HETATM   43  O   UNK     0     -29.157 -15.554  13.483  0.00  0.00    -0.776 OA
HETATM   44  H   UNK     0     -29.136 -15.953  12.552  0.00  0.00     0.167 HD
ENDBRANCH  41  43
ENDBRANCH  40  41
ENDBRANCH  39  40
ENDBRANCH  27  39
BRANCH  11  45
HETATM   45  C   UNK     0     -39.518 -22.116   8.657  0.00  0.00     0.051 C 
BRANCH  45  46
HETATM   46  C   UNK     0     -40.779 -22.692   9.190  0.00  0.00     0.114 C 
BRANCH  46  47
HETATM   47  C   UNK     0     -40.402 -23.712  10.210  0.00  0.00     0.139 C 
HETATM   48  O   UNK     0     -39.416 -24.430   9.993  0.00  0.00    -0.650 OA
BRANCH  47  49
HETATM   49  O   UNK     0     -41.131 -23.854  11.364  0.00  0.00    -0.776 OA
HETATM   50  H   UNK     0     -41.588 -23.057  11.822  0.00  0.00     0.167 HD
ENDBRANCH  47  49
ENDBRANCH  46  47
ENDBRANCH  45  46
ENDBRANCH  11  45
BRANCH  18  51
HETATM   51  C   UNK     0     -33.046 -22.862  11.169  0.00  0.00     0.051 C 
BRANCH  51  52
HETATM   52  C   UNK     0     -32.671 -23.450  12.521  0.00  0.00     0.114 C 
BRANCH  52  53
HETATM   53  C   UNK     0     -31.240 -23.804  12.590  0.00  0.00     0.139 C 
HETATM   54  O   UNK     0     -30.444 -23.334  11.762  0.00  0.00    -0.650 OA
BRANCH  53  55
HETATM   55  O   UNK     0     -30.797 -24.657  13.571  0.00  0.00    -0.776 OA
HETATM   56  H   UNK     0     -31.223 -24.801  14.456  0.00  0.00     0.167 HD
ENDBRANCH  53  55
ENDBRANCH  52  53
ENDBRANCH  51  52
ENDBRANCH  18  51
TORSDOF 16
ENDMDL
MODEL 5
REMARK VINA RESULT:      -9.3     28.344     32.365
REMARK  16 active torsions:
REMARK  status: ('A' for Active; 'I' for Inactive)
REMARK    1  A    between atoms: C_6  and  C_7 
REMARK    2  A    between atoms: C_7  and  C_8 
REMARK    3  A    between atoms: C_8  and  C_9 
REMARK    4  A    between atoms: C_9  and  O_11 
REMARK    5  A    between atoms: C_16  and  C_17 
REMARK    6  A    between atoms: C_17  and  C_18 
REMARK    7  A    between atoms: C_18  and  C_19 
REMARK    8  A    between atoms: C_19  and  O_21 
REMARK    9  A    between atoms: C_28  and  C_29 
REMARK   10  A    between atoms: C_29  and  C_30 
REMARK   11  A    between atoms: C_30  and  C_31 
REMARK   12  A    between atoms: C_31  and  O_33 
REMARK   13  A    between atoms: C_42  and  C_43 
REMARK   14  A    between atoms: C_43  and  C_44 
REMARK   15  A    between atoms: C_44  and  C_45 
REMARK   16  A    between atoms: C_45  and  O_47 
ROOT
HETATM    1  C   UNK     0     -10.856  -8.578   0.061  0.00  0.00     0.051 C 
HETATM    2  C   UNK     0     -11.037  -9.322  -1.246  0.00  0.00    -0.031 A 
HETATM    3  C   UNK     0     -10.102  -9.627  -2.223  0.00  0.00     0.021 A 
HETATM    4  N   UNK     0     -10.719 -10.279  -3.237  0.00  0.00    -0.361 N 
HETATM    5  C   UNK     0     -12.025 -10.403  -2.924  0.00  0.00     0.022 A 
HETATM    6  C   UNK     0     -12.260  -9.813  -1.687  0.00  0.00    -0.027 A 
HETATM    7  C   UNK     0     -13.115 -11.121  -3.658  0.00  0.00     0.115 C 
HETATM    8  C   UNK     0     -12.767 -12.482  -4.235  0.00  0.00     0.021 A 
HETATM    9  N   UNK     0     -11.957 -13.423  -3.726  0.00  0.00    -0.361 N 
HETATM   10  C   UNK     0     -11.871 -14.430  -4.621  0.00  0.00     0.022 A 
HETATM   11  C   UNK     0     -12.655 -14.133  -5.733  0.00  0.00    -0.027 A 
HETATM   12  C   UNK     0     -13.222 -12.907  -5.496  0.00  0.00    -0.031 A 
HETATM   13  C   UNK     0     -14.161 -12.182  -6.434  0.00  0.00     0.051 C 
HETATM   14  C   UNK     0     -11.009 -15.682  -4.489  0.00  0.00     0.115 C 
HETATM   15  C   UNK     0      -9.519 -15.396  -4.388  0.00  0.00     0.021 A 
HETATM   16  N   UNK     0      -8.888 -14.649  -3.463  0.00  0.00    -0.361 N 
HETATM   17  C   UNK     0      -7.588 -14.586  -3.763  0.00  0.00     0.022 A 
HETATM   18  C   UNK     0      -7.361 -15.336  -4.934  0.00  0.00    -0.027 A 
HETATM   19  C   UNK     0      -8.578 -15.839  -5.314  0.00  0.00    -0.031 A 
HETATM   20  C   UNK     0      -8.779 -16.742  -6.518  0.00  0.00     0.051 C 
HETATM   21  C   UNK     0      -6.471 -13.822  -3.089  0.00  0.00     0.115 C 
HETATM   22  C   UNK     0      -6.813 -12.486  -2.472  0.00  0.00     0.022 A 
HETATM   23  N   UNK     0      -7.619 -11.532  -2.954  0.00  0.00    -0.361 N 
HETATM   24  C   UNK     0      -7.752 -10.575  -2.013  0.00  0.00     0.021 A 
HETATM   25  C   UNK     0      -7.004 -10.917  -0.903  0.00  0.00    -0.031 A 
HETATM   26  C   UNK     0      -6.804 -10.146   0.386  0.00  0.00     0.051 C 
HETATM   27  C   UNK     0      -6.394 -12.136  -1.173  0.00  0.00    -0.027 A 
HETATM   28  C   UNK     0      -8.636  -9.341  -2.061  0.00  0.00     0.115 C 
HETATM   29  H   UNK     0     -10.234 -10.611  -4.184  0.00  0.00     0.165 HD
HETATM   30  H   UNK     0     -11.484 -13.403  -2.714  0.00  0.00     0.165 HD
HETATM   31  H   UNK     0      -9.359 -14.195  -2.553  0.00  0.00     0.165 HD
HETATM   32  H   UNK     0      -8.069 -11.503  -3.981  0.00  0.00     0.165 HD
ENDROOT
BRANCH   6  33
HETATM   33  C   UNK     0     -13.541  -9.680  -0.903  0.00  0.00     0.051 C 
BRANCH  33  34
HETATM   34  C   UNK     0     -14.280  -8.423  -1.294  0.00  0.00     0.114 C 
BRANCH  34  35
HETATM   35  C   UNK     0     -15.656  -8.823  -1.705  0.00  0.00     0.139 C 
HETATM   36  O   UNK     0     -16.648  -8.539  -0.971  0.00  0.00    -0.650 OA
BRANCH  35  37
HETATM   37  O   UNK     0     -15.916  -9.509  -2.885  0.00  0.00    -0.776 OA
HETATM   38  H   UNK     0     -15.866 -10.514  -2.941  0.00  0.00     0.167 HD
ENDBRANCH  35  37
ENDBRANCH  34  35
ENDBRANCH  33  34
ENDBRANCH   6  33
BRANCH  27  39
HETATM   39  C   UNK     0      -5.446 -12.794  -0.233  0.00  0.00     0.051 C 
BRANCH  39  40
HETATM   40  C   UNK     0      -5.969 -13.807   0.684  0.00  0.00     0.114 C 
BRANCH  40  41
HETATM   41  C   UNK     0      -6.051 -15.205   0.323  0.00  0.00     0.139 C 
HETATM   42  O   UNK     0      -6.960 -15.679  -0.372  0.00  0.00    -0.650 OA
BRANCH  41  43
HETATM   43  O   UNK     0      -5.042 -16.098   0.782  0.00  0.00    -0.776 OA
HETATM   44  H   UNK     0      -4.095 -15.798   0.582  0.00  0.00     0.167 HD
ENDBRANCH  41  43
ENDBRANCH  40  41
ENDBRANCH  39  40
ENDBRANCH  27  39
BRANCH  11  45
HETATM   45  C   UNK     0     -12.878 -14.954  -6.974  0.00  0.00     0.051 C 
BRANCH  45  46
HETATM   46  C   UNK     0     -14.045 -15.869  -6.895  0.00  0.00     0.114 C 
BRANCH  46  47
HETATM   47  C   UNK     0     -13.514 -17.261  -6.856  0.00  0.00     0.139 C 
HETATM   48  O   UNK     0     -13.893 -18.014  -5.948  0.00  0.00    -0.650 OA
BRANCH  47  49
HETATM   49  O   UNK     0     -12.622 -17.700  -7.802  0.00  0.00    -0.776 OA
HETATM   50  H   UNK     0     -11.736 -18.153  -7.548  0.00  0.00     0.167 HD
ENDBRANCH  47  49
ENDBRANCH  46  47
ENDBRANCH  45  46
ENDBRANCH  11  45
BRANCH  18  51
HETATM   51  C   UNK     0      -6.052 -15.578  -5.640  0.00  0.00     0.051 C 
BRANCH  51  52
HETATM   52  C   UNK     0      -5.759 -17.064  -5.496  0.00  0.00     0.114 C 
BRANCH  52  53
HETATM   53  C   UNK     0      -5.932 -17.527  -4.106  0.00  0.00     0.139 C 
HETATM   54  O   UNK     0      -5.197 -17.086  -3.208  0.00  0.00    -0.650 OA
BRANCH  53  55
HETATM   55  O   UNK     0      -6.908 -18.448  -3.813  0.00  0.00    -0.776 OA
HETATM   56  H   UNK     0      -7.000 -18.951  -2.962  0.00  0.00     0.167 HD
ENDBRANCH  53  55
ENDBRANCH  52  53
ENDBRANCH  51  52
ENDBRANCH  18  51
TORSDOF 16
ENDMDL
MODEL 6
REMARK VINA RESULT:      -9.1      2.646      7.705
REMARK  16 active torsions:
REMARK  status: ('A' for Active; 'I' for Inactive)
REMARK    1  A    between atoms: C_6  and  C_7 
REMARK    2  A    between atoms: C_7  and  C_8 
REMARK    3  A    between atoms: C_8  and  C_9 
REMARK    4  A    between atoms: C_9  and  O_11 
REMARK    5  A    between atoms: C_16  and  C_17 
REMARK    6  A    between atoms: C_17  and  C_18 
REMARK    7  A    between atoms: C_18  and  C_19 
REMARK    8  A    between atoms: C_19  and  O_21 
REMARK    9  A    between atoms: C_28  and  C_29 
REMARK   10  A    between atoms: C_29  and  C_30 
REMARK   11  A    between atoms: C_30  and  C_31 
REMARK   12  A    between atoms: C_31  and  O_33 
REMARK   13  A    between atoms: C_42  and  C_43 
REMARK   14  A    between atoms: C_43  and  C_44 
REMARK   15  A    between atoms: C_44  and  C_45 
REMARK   16  A    between atoms: C_45  and  O_47 
ROOT
HETATM    1  C   UNK     0     -36.513 -14.145  10.936  0.00  0.00     0.051 C 
HETATM    2  C   UNK     0     -37.050 -15.333  10.164  0.00  0.00    -0.031 A 
HETATM    3  C   UNK     0     -36.379 -16.447   9.685  0.00  0.00     0.021 A 
HETATM    4  N   UNK     0     -37.256 -17.241   9.025  0.00  0.00    -0.361 N 
HETATM    5  C   UNK     0     -38.473 -16.661   9.081  0.00  0.00     0.022 A 
HETATM    6  C   UNK     0     -38.380 -15.465   9.784  0.00  0.00    -0.027 A 
HETATM    7  C   UNK     0     -39.793 -17.170   8.593  0.00  0.00     0.115 C 
HETATM    8  C   UNK     0     -40.097 -18.635   8.852  0.00  0.00     0.021 A 
HETATM    9  N   UNK     0     -39.762 -19.383   9.914  0.00  0.00    -0.361 N 
HETATM   10  C   UNK     0     -40.158 -20.651   9.676  0.00  0.00     0.022 A 
HETATM   11  C   UNK     0     -40.774 -20.720   8.430  0.00  0.00    -0.027 A 
HETATM   12  C   UNK     0     -40.739 -19.453   7.905  0.00  0.00    -0.031 A 
HETATM   13  C   UNK     0     -41.301 -19.048   6.561  0.00  0.00     0.051 C 
HETATM   14  C   UNK     0     -39.926 -21.854  10.586  0.00  0.00     0.115 C 
HETATM   15  C   UNK     0     -38.458 -22.162  10.837  0.00  0.00     0.021 A 
HETATM   16  N   UNK     0     -37.530 -21.351  11.377  0.00  0.00    -0.361 N 
HETATM   17  C   UNK     0     -36.346 -21.968  11.360  0.00  0.00     0.022 A 
HETATM   18  C   UNK     0     -36.513 -23.246  10.791  0.00  0.00    -0.027 A 
HETATM   19  C   UNK     0     -37.841 -23.356  10.468  0.00  0.00    -0.031 A 
HETATM   20  C   UNK     0     -38.461 -24.600   9.859  0.00  0.00     0.051 C 
HETATM   21  C   UNK     0     -34.983 -21.466  11.781  0.00  0.00     0.115 C 
HETATM   22  C   UNK     0     -34.683 -20.001  11.569  0.00  0.00     0.022 A 
HETATM   23  N   UNK     0     -35.008 -19.230  10.523  0.00  0.00    -0.361 N 
HETATM   24  C   UNK     0     -34.674 -17.957  10.815  0.00  0.00     0.021 A 
HETATM   25  C   UNK     0     -34.111 -17.908  12.076  0.00  0.00    -0.031 A 
HETATM   26  C   UNK     0     -33.545 -16.718  12.823  0.00  0.00     0.051 C 
HETATM   27  C   UNK     0     -34.105 -19.205  12.578  0.00  0.00    -0.027 A 
HETATM   28  C   UNK     0     -34.931 -16.713   9.981  0.00  0.00     0.115 C 
HETATM   29  H   UNK     0     -37.002 -18.185   8.490  0.00  0.00     0.165 HD
HETATM   30  H   UNK     0     -39.290 -19.009  10.856  0.00  0.00     0.165 HD
HETATM   31  H   UNK     0     -37.721 -20.340  11.823  0.00  0.00     0.165 HD
HETATM   32  H   UNK     0     -35.438 -19.584   9.550  0.00  0.00     0.165 HD
ENDROOT
BRANCH   6  33
HETATM   33  C   UNK     0     -39.443 -14.449  10.116  0.00  0.00     0.051 C 
BRANCH  33  34
HETATM   34  C   UNK     0     -40.216 -14.865  11.345  0.00  0.00     0.114 C 
BRANCH  34  35
HETATM   35  C   UNK     0     -41.569 -15.302  10.894  0.00  0.00     0.139 C 
HETATM   36  O   UNK     0     -42.254 -14.564  10.128  0.00  0.00    -0.650 OA
BRANCH  35  37
HETATM   37  O   UNK     0     -42.133 -16.512  11.281  0.00  0.00    -0.776 OA
HETATM   38  H   UNK     0     -41.862 -17.386  10.861  0.00  0.00     0.167 HD
ENDBRANCH  35  37
ENDBRANCH  34  35
ENDBRANCH  33  34
ENDBRANCH   6  33
BRANCH  27  39
HETATM   39  C   UNK     0     -33.506 -19.562  13.893  0.00  0.00     0.051 C 
BRANCH  39  40
HETATM   40  C   UNK     0     -32.180 -20.178  13.907  0.00  0.00     0.114 C 
BRANCH  40  41
HETATM   41  C   UNK     0     -31.990 -21.603  13.760  0.00  0.00     0.139 C 
HETATM   42  O   UNK     0     -31.300 -22.112  12.866  0.00  0.00    -0.650 OA
BRANCH  41  43
HETATM   43  O   UNK     0     -32.623 -22.484  14.682  0.00  0.00    -0.776 OA
HETATM   44  H   UNK     0     -33.635 -22.459  14.658  0.00  0.00     0.167 HD
ENDBRANCH  41  43
ENDBRANCH  40  41
ENDBRANCH  39  40
ENDBRANCH  27  39
BRANCH  11  45
HETATM   45  C   UNK     0     -41.379 -21.915   7.743  0.00  0.00     0.051 C 
BRANCH  45  46
HETATM   46  C   UNK     0     -40.390 -22.946   7.338  0.00  0.00     0.114 C 
BRANCH  46  47
HETATM   47  C   UNK     0     -40.896 -23.575   6.084  0.00  0.00     0.139 C 
HETATM   48  O   UNK     0     -42.118 -23.738   5.954  0.00  0.00    -0.650 OA
BRANCH  47  49
HETATM   49  O   UNK     0     -40.030 -23.966   5.095  0.00  0.00    -0.776 OA
HETATM   50  H   UNK     0     -40.092 -23.598   4.139  0.00  0.00     0.167 HD
ENDBRANCH  47  49
ENDBRANCH  46  47
ENDBRANCH  45  46
ENDBRANCH  11  45
BRANCH  18  51
HETATM   51  C   UNK     0     -35.469 -24.312  10.585  0.00  0.00     0.051 C 
BRANCH  51  52
HETATM   52  C   UNK     0     -34.164 -23.582  10.302  0.00  0.00     0.114 C 
BRANCH  52  53
HETATM   53  C   UNK     0     -32.998 -24.314  10.832  0.00  0.00     0.139 C 
HETATM   54  O   UNK     0     -31.926 -24.312  10.206  0.00  0.00    -0.650 OA
BRANCH  53  55
HETATM   55  O   UNK     0     -33.108 -25.000  12.017  0.00  0.00    -0.776 OA
HETATM   56  H   UNK     0     -32.390 -25.117  12.693  0.00  0.00     0.167 HD
ENDBRANCH  53  55
ENDBRANCH  52  53
ENDBRANCH  51  52
ENDBRANCH  18  51
TORSDOF 16
ENDMDL
MODEL 7
REMARK VINA RESULT:      -8.5     28.655     32.318
REMARK  16 active torsions:
REMARK  status: ('A' for Active; 'I' for Inactive)
REMARK    1  A    between atoms: C_6  and  C_7 
REMARK    2  A    between atoms: C_7  and  C_8 
REMARK    3  A    between atoms: C_8  and  C_9 
REMARK    4  A    between atoms: C_9  and  O_11 
REMARK    5  A    between atoms: C_16  and  C_17 
REMARK    6  A    between atoms: C_17  and  C_18 
REMARK    7  A    between atoms: C_18  and  C_19 
REMARK    8  A    between atoms: C_19  and  O_21 
REMARK    9  A    between atoms: C_28  and  C_29 
REMARK   10  A    between atoms: C_29  and  C_30 
REMARK   11  A    between atoms: C_30  and  C_31 
REMARK   12  A    between atoms: C_31  and  O_33 
REMARK   13  A    between atoms: C_42  and  C_43 
REMARK   14  A    between atoms: C_43  and  C_44 
REMARK   15  A    between atoms: C_44  and  C_45 
REMARK   16  A    between atoms: C_45  and  O_47 
ROOT
HETATM    1  C   UNK     0     -10.238  -9.054  -0.063  0.00  0.00     0.051 C 
HETATM    2  C   UNK     0     -10.636  -9.540  -1.442  0.00  0.00    -0.031 A 
HETATM    3  C   UNK     0      -9.853 -10.106  -2.435  0.00  0.00     0.021 A 
HETATM    4  N   UNK     0     -10.627 -10.358  -3.517  0.00  0.00    -0.361 N 
HETATM    5  C   UNK     0     -11.888  -9.973  -3.232  0.00  0.00     0.022 A 
HETATM    6  C   UNK     0     -11.929  -9.454  -1.942  0.00  0.00    -0.027 A 
HETATM    7  C   UNK     0     -13.136 -10.120  -4.046  0.00  0.00     0.115 C 
HETATM    8  C   UNK     0     -13.333 -11.447  -4.758  0.00  0.00     0.021 A 
HETATM    9  N   UNK     0     -12.994 -12.677  -4.342  0.00  0.00    -0.361 N 
HETATM   10  C   UNK     0     -13.273 -13.547  -5.335  0.00  0.00     0.022 A 
HETATM   11  C   UNK     0     -13.816 -12.860  -6.417  0.00  0.00    -0.027 A 
HETATM   12  C   UNK     0     -13.856 -11.536  -6.060  0.00  0.00    -0.031 A 
HETATM   13  C   UNK     0     -14.378 -10.412  -6.927  0.00  0.00     0.051 C 
HETATM   14  C   UNK     0     -12.992 -15.047  -5.326  0.00  0.00     0.115 C 
HETATM   15  C   UNK     0     -11.520 -15.397  -5.181  0.00  0.00     0.021 A 
HETATM   16  N   UNK     0     -10.690 -15.055  -4.178  0.00  0.00    -0.361 N 
HETATM   17  C   UNK     0      -9.461 -15.495  -4.457  0.00  0.00     0.022 A 
HETATM   18  C   UNK     0      -9.494 -16.163  -5.697  0.00  0.00    -0.027 A 
HETATM   19  C   UNK     0     -10.790 -16.096  -6.139  0.00  0.00    -0.031 A 
HETATM   20  C   UNK     0     -11.274 -16.727  -7.431  0.00  0.00     0.051 C 
HETATM   21  C   UNK     0      -8.167 -15.311  -3.697  0.00  0.00     0.115 C 
HETATM   22  C   UNK     0      -7.976 -14.013  -2.948  0.00  0.00     0.022 A 
HETATM   23  N   UNK     0      -8.307 -12.775  -3.336  0.00  0.00    -0.361 N 
HETATM   24  C   UNK     0      -8.093 -11.936  -2.302  0.00  0.00     0.021 A 
HETATM   25  C   UNK     0      -7.602 -12.650  -1.226  0.00  0.00    -0.031 A 
HETATM   26  C   UNK     0      -7.175 -12.147   0.137  0.00  0.00     0.051 C 
HETATM   27  C   UNK     0      -7.518 -13.982  -1.615  0.00  0.00    -0.027 A 
HETATM   28  C   UNK     0      -8.405 -10.451  -2.230  0.00  0.00     0.115 C 
HETATM   29  H   UNK     0     -10.269 -10.770  -4.489  0.00  0.00     0.165 HD
HETATM   30  H   UNK     0     -12.604 -12.941  -3.329  0.00  0.00     0.165 HD
HETATM   31  H   UNK     0     -10.986 -14.535  -3.230  0.00  0.00     0.165 HD
HETATM   32  H   UNK     0      -8.655 -12.474  -4.358  0.00  0.00     0.165 HD
ENDROOT
BRANCH   6  33
HETATM   33  C   UNK     0     -13.087  -8.887  -1.161  0.00  0.00     0.051 C 
BRANCH  33  34
HETATM   34  C   UNK     0     -14.400  -9.409  -1.696  0.00  0.00     0.114 C 
BRANCH  34  35
HETATM   35  C   UNK     0     -15.391  -8.299  -1.608  0.00  0.00     0.139 C 
HETATM   36  O   UNK     0     -16.227  -8.264  -0.658  0.00  0.00    -0.650 OA
BRANCH  35  37
HETATM   37  O   UNK     0     -15.446  -7.268  -2.539  0.00  0.00    -0.776 OA
HETATM   38  H   UNK     0     -14.623  -6.931  -3.012  0.00  0.00     0.167 HD
ENDBRANCH  35  37
ENDBRANCH  34  35
ENDBRANCH  33  34
ENDBRANCH   6  33
BRANCH  27  39
HETATM   39  C   UNK     0      -6.962 -15.049  -0.739  0.00  0.00     0.051 C 
BRANCH  39  40
HETATM   40  C   UNK     0      -5.508 -15.178  -0.640  0.00  0.00     0.114 C 
BRANCH  40  41
HETATM   41  C   UNK     0      -4.814 -15.119   0.626  0.00  0.00     0.139 C 
HETATM   42  O   UNK     0      -4.491 -16.123   1.276  0.00  0.00    -0.650 OA
BRANCH  41  43
HETATM   43  O   UNK     0      -4.476 -13.848   1.171  0.00  0.00    -0.776 OA
HETATM   44  H   UNK     0      -3.591 -13.825   1.663  0.00  0.00     0.167 HD
ENDBRANCH  41  43
ENDBRANCH  40  41
ENDBRANCH  39  40
ENDBRANCH  27  39
BRANCH  11  45
HETATM   45  C   UNK     0     -14.285 -13.404  -7.740  0.00  0.00     0.051 C 
BRANCH  45  46
HETATM   46  C   UNK     0     -15.496 -14.260  -7.647  0.00  0.00     0.114 C 
BRANCH  46  47
HETATM   47  C   UNK     0     -15.246 -15.471  -8.480  0.00  0.00     0.139 C 
HETATM   48  O   UNK     0     -14.817 -16.493  -7.925  0.00  0.00    -0.650 OA
BRANCH  47  49
HETATM   49  O   UNK     0     -15.483 -15.456  -9.831  0.00  0.00    -0.776 OA
HETATM   50  H   UNK     0     -16.306 -14.993 -10.235  0.00  0.00     0.167 HD
ENDBRANCH  47  49
ENDBRANCH  46  47
ENDBRANCH  45  46
ENDBRANCH  11  45
BRANCH  18  51
HETATM   51  C   UNK     0      -8.357 -16.847  -6.411  0.00  0.00     0.051 C 
BRANCH  51  52
HETATM   52  C   UNK     0      -7.078 -16.316  -5.783  0.00  0.00     0.114 C 
BRANCH  52  53
HETATM   53  C   UNK     0      -6.106 -15.876  -6.803  0.00  0.00     0.139 C 
HETATM   54  O   UNK     0      -6.143 -16.359  -7.946  0.00  0.00    -0.650 OA
BRANCH  53  55
HETATM   55  O   UNK     0      -5.161 -14.932  -6.479  0.00  0.00    -0.776 OA
HETATM   56  H   UNK     0      -4.990 -14.086  -6.969  0.00  0.00     0.167 HD
ENDBRANCH  53  55
ENDBRANCH  52  53
ENDBRANCH  51  52
ENDBRANCH  18  51
TORSDOF 16
ENDMDL
MODEL 8
REMARK VINA RESULT:      -8.4     29.072     32.593
REMARK  16 active torsions:
REMARK  status: ('A' for Active; 'I' for Inactive)
REMARK    1  A    between atoms: C_6  and  C_7 
REMARK    2  A    between atoms: C_7  and  C_8 
REMARK    3  A    between atoms: C_8  and  C_9 
REMARK    4  A    between atoms: C_9  and  O_11 
REMARK    5  A    between atoms: C_16  and  C_17 
REMARK    6  A    between atoms: C_17  and  C_18 
REMARK    7  A    between atoms: C_18  and  C_19 
REMARK    8  A    between atoms: C_19  and  O_21 
REMARK    9  A    between atoms: C_28  and  C_29 
REMARK   10  A    between atoms: C_29  and  C_30 
REMARK   11  A    between atoms: C_30  and  C_31 
REMARK   12  A    between atoms: C_31  and  O_33 
REMARK   13  A    between atoms: C_42  and  C_43 
REMARK   14  A    between atoms: C_43  and  C_44 
REMARK   15  A    between atoms: C_44  and  C_45 
REMARK   16  A    between atoms: C_45  and  O_47 
ROOT
HETATM    1  C   UNK     0      -7.948 -19.824  -6.373  0.00  0.00     0.051 C 
HETATM    2  C   UNK     0      -7.627 -18.434  -5.862  0.00  0.00    -0.031 A 
HETATM    3  C   UNK     0      -8.102 -17.206  -6.294  0.00  0.00     0.021 A 
HETATM    4  N   UNK     0      -7.517 -16.225  -5.566  0.00  0.00    -0.361 N 
HETATM    5  C   UNK     0      -6.686 -16.802  -4.673  0.00  0.00     0.022 A 
HETATM    6  C   UNK     0      -6.728 -18.183  -4.833  0.00  0.00    -0.027 A 
HETATM    7  C   UNK     0      -5.878 -16.174  -3.581  0.00  0.00     0.115 C 
HETATM    8  C   UNK     0      -6.561 -15.090  -2.766  0.00  0.00     0.021 A 
HETATM    9  N   UNK     0      -7.847 -15.010  -2.392  0.00  0.00    -0.361 N 
HETATM   10  C   UNK     0      -8.027 -13.831  -1.760  0.00  0.00     0.022 A 
HETATM   11  C   UNK     0      -6.822 -13.136  -1.717  0.00  0.00    -0.027 A 
HETATM   12  C   UNK     0      -5.894 -13.924  -2.349  0.00  0.00    -0.031 A 
HETATM   13  C   UNK     0      -4.434 -13.575  -2.538  0.00  0.00     0.051 C 
HETATM   14  C   UNK     0      -9.349 -13.290  -1.221  0.00  0.00     0.115 C 
HETATM   15  C   UNK     0     -10.415 -13.094  -2.287  0.00  0.00     0.021 A 
HETATM   16  N   UNK     0     -10.929 -14.024  -3.114  0.00  0.00    -0.361 N 
HETATM   17  C   UNK     0     -11.790 -13.438  -3.950  0.00  0.00     0.022 A 
HETATM   18  C   UNK     0     -11.845 -12.063  -3.648  0.00  0.00    -0.027 A 
HETATM   19  C   UNK     0     -10.981 -11.861  -2.603  0.00  0.00    -0.031 A 
HETATM   20  C   UNK     0     -10.762 -10.515  -1.937  0.00  0.00     0.051 C 
HETATM   21  C   UNK     0     -12.572 -14.022  -5.105  0.00  0.00     0.115 C 
HETATM   22  C   UNK     0     -11.923 -15.132  -5.898  0.00  0.00     0.022 A 
HETATM   23  N   UNK     0     -10.644 -15.240  -6.280  0.00  0.00    -0.361 N 
HETATM   24  C   UNK     0     -10.470 -16.455  -6.838  0.00  0.00     0.021 A 
HETATM   25  C   UNK     0     -11.668 -17.142  -6.824  0.00  0.00    -0.031 A 
HETATM   26  C   UNK     0     -11.984 -18.519  -7.369  0.00  0.00     0.051 C 
HETATM   27  C   UNK     0     -12.613 -16.315  -6.227  0.00  0.00    -0.027 A 
HETATM   28  C   UNK     0      -9.175 -17.071  -7.338  0.00  0.00     0.115 C 
HETATM   29  H   UNK     0      -7.666 -15.131  -5.714  0.00  0.00     0.165 HD
HETATM   30  H   UNK     0      -8.620 -15.806  -2.528  0.00  0.00     0.165 HD
HETATM   31  H   UNK     0     -10.718 -15.124  -3.076  0.00  0.00     0.165 HD
HETATM   32  H   UNK     0      -9.861 -14.441  -6.199  0.00  0.00     0.165 HD
ENDROOT
BRANCH   6  33
HETATM   33  C   UNK     0      -5.987 -19.268  -4.093  0.00  0.00     0.051 C 
BRANCH  33  34
HETATM   34  C   UNK     0      -6.951 -20.173  -3.363  0.00  0.00     0.114 C 
BRANCH  34  35
HETATM   35  C   UNK     0      -6.191 -21.382  -2.934  0.00  0.00     0.139 C 
HETATM   36  O   UNK     0      -4.932 -21.334  -2.815  0.00  0.00    -0.650 OA
BRANCH  35  37
HETATM   37  O   UNK     0      -6.810 -22.593  -2.647  0.00  0.00    -0.776 OA
HETATM   38  H   UNK     0      -6.307 -23.465  -2.657  0.00  0.00     0.167 HD
ENDBRANCH  35  37
ENDBRANCH  34  35
ENDBRANCH  33  34
ENDBRANCH   6  33
BRANCH  27  39
HETATM   39  C   UNK     0     -14.049 -16.687  -6.096  0.00  0.00     0.051 C 
BRANCH  39  40
HETATM   40  C   UNK     0     -14.951 -16.369  -7.203  0.00  0.00     0.114 C 
BRANCH  40  41
HETATM   41  C   UNK     0     -15.054 -15.037  -7.754  0.00  0.00     0.139 C 
HETATM   42  O   UNK     0     -15.840 -14.180  -7.329  0.00  0.00    -0.650 OA
BRANCH  41  43
HETATM   43  O   UNK     0     -14.214 -14.674  -8.845  0.00  0.00    -0.776 OA
HETATM   44  H   UNK     0     -14.703 -14.266  -9.633  0.00  0.00     0.167 HD
ENDBRANCH  41  43
ENDBRANCH  40  41
ENDBRANCH  39  40
ENDBRANCH  27  39
BRANCH  11  45
HETATM   45  C   UNK     0      -6.532 -11.790  -1.111  0.00  0.00     0.051 C 
BRANCH  45  46
HETATM   46  C   UNK     0      -6.811 -10.645  -2.016  0.00  0.00     0.114 C 
BRANCH  46  47
HETATM   47  C   UNK     0      -6.316  -9.414  -1.336  0.00  0.00     0.139 C 
HETATM   48  O   UNK     0      -5.508  -9.536  -0.405  0.00  0.00    -0.650 OA
BRANCH  47  49
HETATM   49  O   UNK     0      -6.745  -8.172  -1.731  0.00  0.00    -0.776 OA
HETATM   50  H   UNK     0      -6.869  -7.927  -2.720  0.00  0.00     0.167 HD
ENDBRANCH  47  49
ENDBRANCH  46  47
ENDBRANCH  45  46
ENDBRANCH  11  45
BRANCH  18  51
HETATM   51  C   UNK     0     -12.692 -11.004  -4.304  0.00  0.00     0.051 C 
BRANCH  51  52
HETATM   52  C   UNK     0     -14.016 -10.992  -3.554  0.00  0.00     0.114 C 
BRANCH  52  53
HETATM   53  C   UNK     0     -14.212  -9.737  -2.804  0.00  0.00     0.139 C 
HETATM   54  O   UNK     0     -15.025  -9.693  -1.867  0.00  0.00    -0.650 OA
BRANCH  53  55
HETATM   55  O   UNK     0     -13.494  -8.619  -3.151  0.00  0.00    -0.776 OA
HETATM   56  H   UNK     0     -12.965  -8.049  -2.534  0.00  0.00     0.167 HD
ENDBRANCH  53  55
ENDBRANCH  52  53
ENDBRANCH  51  52
ENDBRANCH  18  51
TORSDOF 16
ENDMDL
MODEL 9
REMARK VINA RESULT:      -8.3     28.517     32.315
REMARK  16 active torsions:
REMARK  status: ('A' for Active; 'I' for Inactive)
REMARK    1  A    between atoms: C_6  and  C_7 
REMARK    2  A    between atoms: C_7  and  C_8 
REMARK    3  A    between atoms: C_8  and  C_9 
REMARK    4  A    between atoms: C_9  and  O_11 
REMARK    5  A    between atoms: C_16  and  C_17 
REMARK    6  A    between atoms: C_17  and  C_18 
REMARK    7  A    between atoms: C_18  and  C_19 
REMARK    8  A    between atoms: C_19  and  O_21 
REMARK    9  A    between atoms: C_28  and  C_29 
REMARK   10  A    between atoms: C_29  and  C_30 
REMARK   11  A    between atoms: C_30  and  C_31 
REMARK   12  A    between atoms: C_31  and  O_33 
REMARK   13  A    between atoms: C_42  and  C_43 
REMARK   14  A    between atoms: C_43  and  C_44 
REMARK   15  A    between atoms: C_44  and  C_45 
REMARK   16  A    between atoms: C_45  and  O_47 
ROOT
HETATM    1  C   UNK     0      -7.485 -19.330  -5.685  0.00  0.00     0.051 C 
HETATM    2  C   UNK     0      -7.560 -17.826  -5.524  0.00  0.00    -0.031 A 
HETATM    3  C   UNK     0      -8.211 -16.888  -6.310  0.00  0.00     0.021 A 
HETATM    4  N   UNK     0      -7.981 -15.653  -5.806  0.00  0.00    -0.361 N 
HETATM    5  C   UNK     0      -7.204 -15.783  -4.711  0.00  0.00     0.022 A 
HETATM    6  C   UNK     0      -6.920 -17.129  -4.507  0.00  0.00    -0.027 A 
HETATM    7  C   UNK     0      -6.744 -14.740  -3.741  0.00  0.00     0.115 C 
HETATM    8  C   UNK     0      -7.770 -13.705  -3.315  0.00  0.00     0.021 A 
HETATM    9  N   UNK     0      -9.087 -13.866  -3.115  0.00  0.00    -0.361 N 
HETATM   10  C   UNK     0      -9.619 -12.657  -2.837  0.00  0.00     0.022 A 
HETATM   11  C   UNK     0      -8.616 -11.692  -2.849  0.00  0.00    -0.027 A 
HETATM   12  C   UNK     0      -7.448 -12.346  -3.149  0.00  0.00    -0.031 A 
HETATM   13  C   UNK     0      -6.088 -11.695  -3.266  0.00  0.00     0.051 C 
HETATM   14  C   UNK     0     -11.097 -12.356  -2.602  0.00  0.00     0.115 C 
HETATM   15  C   UNK     0     -11.988 -12.683  -3.789  0.00  0.00     0.021 A 
HETATM   16  N   UNK     0     -12.146 -13.875  -4.394  0.00  0.00    -0.361 N 
HETATM   17  C   UNK     0     -12.961 -13.731  -5.441  0.00  0.00     0.022 A 
HETATM   18  C   UNK     0     -13.362 -12.382  -5.516  0.00  0.00    -0.027 A 
HETATM   19  C   UNK     0     -12.747 -11.737  -4.475  0.00  0.00    -0.031 A 
HETATM   20  C   UNK     0     -12.937 -10.263  -4.166  0.00  0.00     0.051 C 
HETATM   21  C   UNK     0     -13.397 -14.740  -6.480  0.00  0.00     0.115 C 
HETATM   22  C   UNK     0     -12.401 -15.803  -6.880  0.00  0.00     0.022 A 
HETATM   23  N   UNK     0     -11.083 -15.672  -7.083  0.00  0.00    -0.361 N 
HETATM   24  C   UNK     0     -10.561 -16.899  -7.281  0.00  0.00     0.021 A 
HETATM   25  C   UNK     0     -11.569 -17.842  -7.215  0.00  0.00    -0.031 A 
HETATM   26  C   UNK     0     -11.485 -19.341  -7.413  0.00  0.00     0.051 C 
HETATM   27  C   UNK     0     -12.756 -17.165  -6.960  0.00  0.00    -0.027 A 
HETATM   28  C   UNK     0      -9.099 -17.269  -7.461  0.00  0.00     0.115 C 
HETATM   29  H   UNK     0      -8.335 -14.694  -6.251  0.00  0.00     0.165 HD
HETATM   30  H   UNK     0      -9.636 -14.839  -3.120  0.00  0.00     0.165 HD
HETATM   31  H   UNK     0     -11.711 -14.848  -4.048  0.00  0.00     0.165 HD
HETATM   32  H   UNK     0     -10.516 -14.706  -7.130  0.00  0.00     0.165 HD
ENDROOT
BRANCH   6  33
HETATM   33  C   UNK     0      -6.096 -17.795  -3.435  0.00  0.00     0.051 C 
BRANCH  33  34
HETATM   34  C   UNK     0      -4.700 -17.219  -3.398  0.00  0.00     0.114 C 
BRANCH  34  35
HETATM   35  C   UNK     0      -4.325 -17.047  -1.965  0.00  0.00     0.139 C 
HETATM   36  O   UNK     0      -3.614 -17.916  -1.383  0.00  0.00    -0.650 OA
BRANCH  35  37
HETATM   37  O   UNK     0      -4.726 -15.949  -1.213  0.00  0.00    -0.776 OA
HETATM   38  H   UNK     0      -4.875 -15.043  -1.627  0.00  0.00     0.167 HD
ENDBRANCH  35  37
ENDBRANCH  34  35
ENDBRANCH  33  34
ENDBRANCH   6  33
BRANCH  27  39
HETATM   39  C   UNK     0     -14.078 -17.844  -6.891  0.00  0.00     0.051 C 
BRANCH  39  40
HETATM   40  C   UNK     0     -15.084 -17.508  -7.898  0.00  0.00     0.114 C 
BRANCH  40  41
HETATM   41  C   UNK     0     -16.293 -16.788  -7.569  0.00  0.00     0.139 C 
HETATM   42  O   UNK     0     -16.376 -15.984  -6.631  0.00  0.00    -0.650 OA
BRANCH  41  43
HETATM   43  O   UNK     0     -17.461 -17.001  -8.355  0.00  0.00    -0.776 OA
HETATM   44  H   UNK     0     -17.909 -16.153  -8.679  0.00  0.00     0.167 HD
ENDBRANCH  41  43
ENDBRANCH  40  41
ENDBRANCH  39  40
ENDBRANCH  27  39
BRANCH  11  45
HETATM   45  C   UNK     0      -8.728 -10.214  -2.589  0.00  0.00     0.051 C 
BRANCH  45  46
HETATM   46  C   UNK     0      -8.630  -9.842  -1.154  0.00  0.00     0.114 C 
BRANCH  46  47
HETATM   47  C   UNK     0      -7.435  -8.962  -1.007  0.00  0.00     0.139 C 
HETATM   48  O   UNK     0      -6.875  -8.548  -2.031  0.00  0.00    -0.650 OA
BRANCH  47  49
HETATM   49  O   UNK     0      -6.964  -8.619   0.235  0.00  0.00    -0.776 OA
HETATM   50  H   UNK     0      -5.986  -8.349   0.392  0.00  0.00     0.167 HD
ENDBRANCH  47  49
ENDBRANCH  46  47
ENDBRANCH  45  46
ENDBRANCH  11  45
BRANCH  18  51
HETATM   51  C   UNK     0     -14.296 -11.748  -6.513  0.00  0.00     0.051 C 
BRANCH  51  52
HETATM   52  C   UNK     0     -15.630 -11.581  -5.800  0.00  0.00     0.114 C 
BRANCH  52  53
HETATM   53  C   UNK     0     -16.188 -10.227  -5.988  0.00  0.00     0.139 C 
HETATM   54  O   UNK     0     -15.526  -9.359  -6.579  0.00  0.00    -0.650 OA
BRANCH  53  55
HETATM   55  O   UNK     0     -17.439  -9.935  -5.503  0.00  0.00    -0.776 OA
HETATM   56  H   UNK     0     -18.268  -9.842  -6.042  0.00  0.00     0.167 HD
ENDBRANCH  53  55
ENDBRANCH  52  53
ENDBRANCH  51  52
ENDBRANCH  18  51
TORSDOF 16
ENDMDL
MODEL 10
REMARK VINA RESULT:      -8.3     29.390     32.551
REMARK  16 active torsions:
REMARK  status: ('A' for Active; 'I' for Inactive)
REMARK    1  A    between atoms: C_6  and  C_7 
REMARK    2  A    between atoms: C_7  and  C_8 
REMARK    3  A    between atoms: C_8  and  C_9 
REMARK    4  A    between atoms: C_9  and  O_11 
REMARK    5  A    between atoms: C_16  and  C_17 
REMARK    6  A    between atoms: C_17  and  C_18 
REMARK    7  A    between atoms: C_18  and  C_19 
REMARK    8  A    between atoms: C_19  and  O_21 
REMARK    9  A    between atoms: C_28  and  C_29 
REMARK   10  A    between atoms: C_29  and  C_30 
REMARK   11  A    between atoms: C_30  and  C_31 
REMARK   12  A    between atoms: C_31  and  O_33 
REMARK   13  A    between atoms: C_42  and  C_43 
REMARK   14  A    between atoms: C_43  and  C_44 
REMARK   15  A    between atoms: C_44  and  C_45 
REMARK   16  A    between atoms: C_45  and  O_47 
ROOT
HETATM    1  C   UNK     0      -5.425 -17.938  -4.394  0.00  0.00     0.051 C 
HETATM    2  C   UNK     0      -6.049 -16.558  -4.403  0.00  0.00    -0.031 A 
HETATM    3  C   UNK     0      -6.781 -15.930  -5.399  0.00  0.00     0.021 A 
HETATM    4  N   UNK     0      -7.115 -14.685  -4.984  0.00  0.00    -0.361 N 
HETATM    5  C   UNK     0      -6.619 -14.509  -3.742  0.00  0.00     0.022 A 
HETATM    6  C   UNK     0      -5.945 -15.660  -3.349  0.00  0.00    -0.027 A 
HETATM    7  C   UNK     0      -6.786 -13.353  -2.805  0.00  0.00     0.115 C 
HETATM    8  C   UNK     0      -8.175 -12.747  -2.712  0.00  0.00     0.021 A 
HETATM    9  N   UNK     0      -9.364 -13.365  -2.780  0.00  0.00    -0.361 N 
HETATM   10  C   UNK     0     -10.330 -12.423  -2.743  0.00  0.00     0.022 A 
HETATM   11  C   UNK     0      -9.747 -11.163  -2.639  0.00  0.00    -0.027 A 
HETATM   12  C   UNK     0      -8.390 -11.360  -2.619  0.00  0.00    -0.031 A 
HETATM   13  C   UNK     0      -7.350 -10.267  -2.510  0.00  0.00     0.051 C 
HETATM   14  C   UNK     0     -11.832 -12.667  -2.857  0.00  0.00     0.115 C 
HETATM   15  C   UNK     0     -12.253 -13.313  -4.167  0.00  0.00     0.021 A 
HETATM   16  N   UNK     0     -11.844 -14.493  -4.670  0.00  0.00    -0.361 N 
HETATM   17  C   UNK     0     -12.391 -14.670  -5.875  0.00  0.00     0.022 A 
HETATM   18  C   UNK     0     -13.202 -13.556  -6.167  0.00  0.00    -0.027 A 
HETATM   19  C   UNK     0     -13.108 -12.714  -5.090  0.00  0.00    -0.031 A 
HETATM   20  C   UNK     0     -13.861 -11.401  -4.976  0.00  0.00     0.051 C 
HETATM   21  C   UNK     0     -12.197 -15.786  -6.876  0.00  0.00     0.115 C 
HETATM   22  C   UNK     0     -10.832 -16.429  -6.948  0.00  0.00     0.022 A 
HETATM   23  N   UNK     0      -9.631 -15.838  -6.879  0.00  0.00    -0.361 N 
HETATM   24  C   UNK     0      -8.688 -16.800  -6.839  0.00  0.00     0.021 A 
HETATM   25  C   UNK     0      -9.294 -18.040  -6.894  0.00  0.00    -0.031 A 
HETATM   26  C   UNK     0      -8.655 -19.413  -6.918  0.00  0.00     0.051 C 
HETATM   27  C   UNK     0     -10.666 -17.828  -6.965  0.00  0.00    -0.027 A 
HETATM   28  C   UNK     0      -7.189 -16.624  -6.668  0.00  0.00     0.115 C 
HETATM   29  H   UNK     0      -7.664 -13.926  -5.587  0.00  0.00     0.165 HD
HETATM   30  H   UNK     0      -9.526 -14.471  -2.804  0.00  0.00     0.165 HD
HETATM   31  H   UNK     0     -11.194 -15.240  -4.144  0.00  0.00     0.165 HD
HETATM   32  H   UNK     0      -9.437 -14.734  -6.902  0.00  0.00     0.165 HD
ENDROOT
BRANCH   6  33
HETATM   33  C   UNK     0      -5.215 -15.967  -2.065  0.00  0.00     0.051 C 
BRANCH  33  34
HETATM   34  C   UNK     0      -6.068 -15.617  -0.869  0.00  0.00     0.114 C 
BRANCH  34  35
HETATM   35  C   UNK     0      -5.156 -15.108   0.196  0.00  0.00     0.139 C 
HETATM   36  O   UNK     0      -4.931 -13.867   0.303  0.00  0.00    -0.650 OA
BRANCH  35  37
HETATM   37  O   UNK     0      -4.523 -15.948   1.104  0.00  0.00    -0.776 OA
HETATM   38  H   UNK     0      -3.554 -15.833   1.353  0.00  0.00     0.167 HD
ENDBRANCH  35  37
ENDBRANCH  34  35
ENDBRANCH  33  34
ENDBRANCH   6  33
BRANCH  27  39
HETATM   39  C   UNK     0     -11.651 -18.935  -7.109  0.00  0.00     0.051 C 
BRANCH  39  40
HETATM   40  C   UNK     0     -12.221 -19.188  -8.432  0.00  0.00     0.114 C 
BRANCH  40  41
HETATM   41  C   UNK     0     -11.480 -19.859  -9.476  0.00  0.00     0.139 C 
HETATM   42  O   UNK     0     -11.503 -21.084  -9.651  0.00  0.00    -0.650 OA
BRANCH  41  43
HETATM   43  O   UNK     0     -10.674 -19.084 -10.358  0.00  0.00    -0.776 OA
HETATM   44  H   UNK     0      -9.851 -18.679  -9.928  0.00  0.00     0.167 HD
ENDBRANCH  41  43
ENDBRANCH  40  41
ENDBRANCH  39  40
ENDBRANCH  27  39
BRANCH  11  45
HETATM   45  C   UNK     0     -10.419  -9.819  -2.558  0.00  0.00     0.051 C 
BRANCH  45  46
HETATM   46  C   UNK     0     -10.994  -9.508  -1.224  0.00  0.00     0.114 C 
BRANCH  46  47
HETATM   47  C   UNK     0     -12.276  -8.784  -1.454  0.00  0.00     0.139 C 
HETATM   48  O   UNK     0     -12.530  -8.376  -2.596  0.00  0.00    -0.650 OA
BRANCH  47  49
HETATM   49  O   UNK     0     -13.157  -8.570  -0.423  0.00  0.00    -0.776 OA
HETATM   50  H   UNK     0     -12.982  -8.921   0.525  0.00  0.00     0.167 HD
ENDBRANCH  47  49
ENDBRANCH  46  47
ENDBRANCH  45  46
ENDBRANCH  11  45
BRANCH  18  51
HETATM   51  C   UNK     0     -14.038 -13.316  -7.398  0.00  0.00     0.051 C 
BRANCH  51  52
HETATM   52  C   UNK     0     -15.401 -13.929  -7.112  0.00  0.00     0.114 C 
BRANCH  52  53
HETATM   53  C   UNK     0     -15.709 -15.038  -8.035  0.00  0.00     0.139 C 
HETATM   54  O   UNK     0     -16.689 -15.770  -7.822  0.00  0.00    -0.650 OA
BRANCH  53  55
HETATM   55  O   UNK     0     -14.905 -15.257  -9.127  0.00  0.00    -0.776 OA
HETATM   56  H   UNK     0     -13.956 -14.979  -9.219  0.00  0.00     0.167 HD
ENDBRANCH  53  55
ENDBRANCH  52  53
ENDBRANCH  51  52
ENDBRANCH  18  51
TORSDOF 16
ENDMDL
MODEL 11
REMARK VINA RESULT:      -8.1      2.732      7.725
REMARK  16 active torsions:
REMARK  status: ('A' for Active; 'I' for Inactive)
REMARK    1  A    between atoms: C_6  and  C_7 
REMARK    2  A    between atoms: C_7  and  C_8 
REMARK    3  A    between atoms: C_8  and  C_9 
REMARK    4  A    between atoms: C_9  and  O_11 
REMARK    5  A    between atoms: C_16  and  C_17 
REMARK    6  A    between atoms: C_17  and  C_18 
REMARK    7  A    between atoms: C_18  and  C_19 
REMARK    8  A    between atoms: C_19  and  O_21 
REMARK    9  A    between atoms: C_28  and  C_29 
REMARK   10  A    between atoms: C_29  and  C_30 
REMARK   11  A    between atoms: C_30  and  C_31 
REMARK   12  A    between atoms: C_31  and  O_33 
REMARK   13  A    between atoms: C_42  and  C_43 
REMARK   14  A    between atoms: C_43  and  C_44 
REMARK   15  A    between atoms: C_44  and  C_45 
REMARK   16  A    between atoms: C_45  and  O_47 
ROOT
HETATM    1  C   UNK     0     -38.679 -15.433  10.596  0.00  0.00     0.051 C 
HETATM    2  C   UNK     0     -38.755 -16.745   9.842  0.00  0.00    -0.031 A 
HETATM    3  C   UNK     0     -37.730 -17.540   9.353  0.00  0.00     0.021 A 
HETATM    4  N   UNK     0     -38.266 -18.609   8.717  0.00  0.00    -0.361 N 
HETATM    5  C   UNK     0     -39.609 -18.517   8.797  0.00  0.00     0.022 A 
HETATM    6  C   UNK     0     -39.950 -17.362   9.492  0.00  0.00    -0.027 A 
HETATM    7  C   UNK     0     -40.658 -19.483   8.341  0.00  0.00     0.115 C 
HETATM    8  C   UNK     0     -40.396 -20.953   8.614  0.00  0.00     0.021 A 
HETATM    9  N   UNK     0     -39.788 -21.512   9.673  0.00  0.00    -0.361 N 
HETATM   10  C   UNK     0     -39.694 -22.840   9.449  0.00  0.00     0.022 A 
HETATM   11  C   UNK     0     -40.265 -23.146   8.218  0.00  0.00    -0.027 A 
HETATM   12  C   UNK     0     -40.709 -21.962   7.686  0.00  0.00    -0.031 A 
HETATM   13  C   UNK     0     -41.406 -21.809   6.353  0.00  0.00     0.051 C 
HETATM   14  C   UNK     0     -39.018 -23.861  10.359  0.00  0.00     0.115 C 
HETATM   15  C   UNK     0     -37.535 -23.604  10.579  0.00  0.00     0.021 A 
HETATM   16  N   UNK     0     -36.961 -22.501  11.094  0.00  0.00    -0.361 N 
HETATM   17  C   UNK     0     -35.634 -22.638  11.054  0.00  0.00     0.022 A 
HETATM   18  C   UNK     0     -35.329 -23.895  10.495  0.00  0.00    -0.027 A 
HETATM   19  C   UNK     0     -36.529 -24.490  10.203  0.00  0.00    -0.031 A 
HETATM   20  C   UNK     0     -36.659 -25.883   9.614  0.00  0.00     0.051 C 
HETATM   21  C   UNK     0     -34.543 -21.665  11.442  0.00  0.00     0.115 C 
HETATM   22  C   UNK     0     -34.809 -20.195  11.216  0.00  0.00     0.022 A 
HETATM   23  N   UNK     0     -35.415 -19.611  10.174  0.00  0.00    -0.361 N 
HETATM   24  C   UNK     0     -35.567 -18.301  10.453  0.00  0.00     0.021 A 
HETATM   25  C   UNK     0     -35.038 -18.032  11.700  0.00  0.00    -0.031 A 
HETATM   26  C   UNK     0     -34.937 -16.708  12.428  0.00  0.00     0.051 C 
HETATM   27  C   UNK     0     -34.545 -19.229  12.209  0.00  0.00    -0.027 A 
HETATM   28  C   UNK     0     -36.280 -17.250   9.619  0.00  0.00     0.115 C 
HETATM   29  H   UNK     0     -37.691 -19.399   8.181  0.00  0.00     0.165 HD
HETATM   30  H   UNK     0     -39.469 -20.978  10.602  0.00  0.00     0.165 HD
HETATM   31  H   UNK     0     -37.503 -21.626  11.539  0.00  0.00     0.165 HD
HETATM   32  H   UNK     0     -35.702 -20.111   9.213  0.00  0.00     0.165 HD
ENDROOT
BRANCH   6  33
HETATM   33  C   UNK     0     -41.306 -16.805   9.843  0.00  0.00     0.051 C 
BRANCH  33  34
HETATM   34  C   UNK     0     -41.813 -15.899   8.745  0.00  0.00     0.114 C 
BRANCH  34  35
HETATM   35  C   UNK     0     -42.288 -14.641   9.389  0.00  0.00     0.139 C 
HETATM   36  O   UNK     0     -41.897 -14.332  10.552  0.00  0.00    -0.650 OA
BRANCH  35  37
HETATM   37  O   UNK     0     -43.162 -13.762   8.760  0.00  0.00    -0.776 OA
HETATM   38  H   UNK     0     -43.450 -13.888   7.803  0.00  0.00     0.167 HD
ENDBRANCH  35  37
ENDBRANCH  34  35
ENDBRANCH  33  34
ENDBRANCH   6  33
BRANCH  27  39
HETATM   39  C   UNK     0     -33.832 -19.324  13.511  0.00  0.00     0.051 C 
BRANCH  39  40
HETATM   40  C   UNK     0     -32.372 -19.403  13.499  0.00  0.00     0.114 C 
BRANCH  40  41
HETATM   41  C   UNK     0     -31.536 -18.273  13.841  0.00  0.00     0.139 C 
HETATM   42  O   UNK     0     -31.980 -17.200  14.272  0.00  0.00    -0.650 OA
BRANCH  41  43
HETATM   43  O   UNK     0     -30.126 -18.383  13.679  0.00  0.00    -0.776 OA
HETATM   44  H   UNK     0     -29.654 -17.503  13.512  0.00  0.00     0.167 HD
ENDBRANCH  41  43
ENDBRANCH  40  41
ENDBRANCH  39  40
ENDBRANCH  27  39
BRANCH  11  45
HETATM   45  C   UNK     0     -40.400 -24.488   7.550  0.00  0.00     0.051 C 
BRANCH  45  46
HETATM   46  C   UNK     0     -41.125 -24.451   6.254  0.00  0.00     0.114 C 
BRANCH  46  47
HETATM   47  C   UNK     0     -40.179 -24.930   5.206  0.00  0.00     0.139 C 
HETATM   48  O   UNK     0     -39.548 -24.090   4.549  0.00  0.00    -0.650 OA
BRANCH  47  49
HETATM   49  O   UNK     0     -40.011 -26.271   4.971  0.00  0.00    -0.776 OA
HETATM   50  H   UNK     0     -39.932 -26.652   4.021  0.00  0.00     0.167 HD
ENDBRANCH  47  49
ENDBRANCH  46  47
ENDBRANCH  45  46
ENDBRANCH  11  45
BRANCH  18  51
HETATM   51  C   UNK     0     -33.969 -24.505  10.271  0.00  0.00     0.051 C 
BRANCH  51  52
HETATM   52  C   UNK     0     -33.952 -25.807  11.057  0.00  0.00     0.114 C 
BRANCH  52  53
HETATM   53  C   UNK     0     -33.205 -26.866  10.350  0.00  0.00     0.139 C 
HETATM   54  O   UNK     0     -32.432 -27.607  10.978  0.00  0.00    -0.650 OA
BRANCH  53  55
HETATM   55  O   UNK     0     -33.368 -27.023   8.995  0.00  0.00    -0.776 OA
HETATM   56  H   UNK     0     -33.753 -27.818   8.542  0.00  0.00     0.167 HD
ENDBRANCH  53  55
ENDBRANCH  52  53
ENDBRANCH  51  52
ENDBRANCH  18  51
TORSDOF 16
ENDMDL
MODEL 12
REMARK VINA RESULT:      -8.1     28.300     32.153
REMARK  16 active torsions:
REMARK  status: ('A' for Active; 'I' for Inactive)
REMARK    1  A    between atoms: C_6  and  C_7 
REMARK    2  A    between atoms: C_7  and  C_8 
REMARK    3  A    between atoms: C_8  and  C_9 
REMARK    4  A    between atoms: C_9  and  O_11 
REMARK    5  A    between atoms: C_16  and  C_17 
REMARK    6  A    between atoms: C_17  and  C_18 
REMARK    7  A    between atoms: C_18  and  C_19 
REMARK    8  A    between atoms: C_19  and  O_21 
REMARK    9  A    between atoms: C_28  and  C_29 
REMARK   10  A    between atoms: C_29  and  C_30 
REMARK   11  A    between atoms: C_30  and  C_31 
REMARK   12  A    between atoms: C_31  and  O_33 
REMARK   13  A    between atoms: C_42  and  C_43 
REMARK   14  A    between atoms: C_43  and  C_44 
REMARK   15  A    between atoms: C_44  and  C_45 
REMARK   16  A    between atoms: C_45  and  O_47 
ROOT
HETATM    1  C   UNK     0      -6.571 -19.419  -5.104  0.00  0.00     0.051 C 
HETATM    2  C   UNK     0      -6.943 -17.950  -5.124  0.00  0.00    -0.031 A 
HETATM    3  C   UNK     0      -7.600 -17.222  -6.104  0.00  0.00     0.021 A 
HETATM    4  N   UNK     0      -7.689 -15.930  -5.709  0.00  0.00    -0.361 N 
HETATM    5  C   UNK     0      -7.111 -15.820  -4.495  0.00  0.00     0.022 A 
HETATM    6  C   UNK     0      -6.631 -17.064  -4.101  0.00  0.00    -0.027 A 
HETATM    7  C   UNK     0      -7.026 -14.634  -3.585  0.00  0.00     0.115 C 
HETATM    8  C   UNK     0      -8.280 -13.790  -3.448  0.00  0.00     0.021 A 
HETATM    9  N   UNK     0      -9.562 -14.189  -3.445  0.00  0.00    -0.361 N 
HETATM   10  C   UNK     0     -10.343 -13.090  -3.392  0.00  0.00     0.022 A 
HETATM   11  C   UNK     0      -9.544 -11.952  -3.349  0.00  0.00    -0.027 A 
HETATM   12  C   UNK     0      -8.243 -12.385  -3.384  0.00  0.00    -0.031 A 
HETATM   13  C   UNK     0      -7.023 -11.492  -3.352  0.00  0.00     0.051 C 
HETATM   14  C   UNK     0     -11.869 -13.067  -3.433  0.00  0.00     0.115 C 
HETATM   15  C   UNK     0     -12.460 -13.654  -4.705  0.00  0.00     0.021 A 
HETATM   16  N   UNK     0     -12.290 -14.897  -5.192  0.00  0.00    -0.361 N 
HETATM   17  C   UNK     0     -12.917 -14.998  -6.366  0.00  0.00     0.022 A 
HETATM   18  C   UNK     0     -13.533 -13.764  -6.653  0.00  0.00    -0.027 A 
HETATM   19  C   UNK     0     -13.240 -12.931  -5.605  0.00  0.00    -0.031 A 
HETATM   20  C   UNK     0     -13.744 -11.503  -5.495  0.00  0.00     0.051 C 
HETATM   21  C   UNK     0     -12.971 -16.151  -7.343  0.00  0.00     0.115 C 
HETATM   22  C   UNK     0     -11.746 -17.026  -7.458  0.00  0.00     0.022 A 
HETATM   23  N   UNK     0     -10.458 -16.656  -7.458  0.00  0.00    -0.361 N 
HETATM   24  C   UNK     0      -9.698 -17.769  -7.433  0.00  0.00     0.021 A 
HETATM   25  C   UNK     0     -10.515 -18.883  -7.427  0.00  0.00    -0.031 A 
HETATM   26  C   UNK     0     -10.130 -20.347  -7.441  0.00  0.00     0.051 C 
HETATM   27  C   UNK     0     -11.830 -18.433  -7.442  0.00  0.00    -0.027 A 
HETATM   28  C   UNK     0      -8.185 -17.858  -7.334  0.00  0.00     0.115 C 
HETATM   29  H   UNK     0      -8.124 -15.097  -6.308  0.00  0.00     0.165 HD
HETATM   30  H   UNK     0      -9.917 -15.249  -3.431  0.00  0.00     0.165 HD
HETATM   31  H   UNK     0     -11.757 -15.737  -4.674  0.00  0.00     0.165 HD
HETATM   32  H   UNK     0     -10.074 -15.604  -7.521  0.00  0.00     0.165 HD
ENDROOT
BRANCH   6  33
HETATM   33  C   UNK     0      -5.906 -17.470  -2.843  0.00  0.00     0.051 C 
BRANCH  33  34
HETATM   34  C   UNK     0      -4.456 -17.050  -2.901  0.00  0.00     0.114 C 
BRANCH  34  35
HETATM   35  C   UNK     0      -4.332 -15.769  -2.148  0.00  0.00     0.139 C 
HETATM   36  O   UNK     0      -4.791 -15.674  -0.972  0.00  0.00    -0.650 OA
BRANCH  35  37
HETATM   37  O   UNK     0      -3.719 -14.642  -2.682  0.00  0.00    -0.776 OA
HETATM   38  H   UNK     0      -3.821 -13.730  -2.266  0.00  0.00     0.167 HD
ENDBRANCH  35  37
ENDBRANCH  34  35
ENDBRANCH  33  34
ENDBRANCH   6  33
BRANCH  27  39
HETATM   39  C   UNK     0     -13.000 -19.350  -7.512  0.00  0.00     0.051 C 
BRANCH  39  40
HETATM   40  C   UNK     0     -13.817 -19.525  -6.312  0.00  0.00     0.114 C 
BRANCH  40  41
HETATM   41  C   UNK     0     -15.044 -18.791  -6.101  0.00  0.00     0.139 C 
HETATM   42  O   UNK     0     -15.143 -17.834  -5.321  0.00  0.00    -0.650 OA
BRANCH  41  43
HETATM   43  O   UNK     0     -16.212 -19.174  -6.821  0.00  0.00    -0.776 OA
HETATM   44  H   UNK     0     -16.933 -19.602  -6.252  0.00  0.00     0.167 HD
ENDBRANCH  41  43
ENDBRANCH  40  41
ENDBRANCH  39  40
ENDBRANCH  27  39
BRANCH  11  45
HETATM   45  C   UNK     0      -9.964 -10.508  -3.276  0.00  0.00     0.051 C 
BRANCH  45  46
HETATM   46  C   UNK     0     -10.588 -10.124  -1.984  0.00  0.00     0.114 C 
BRANCH  46  47
HETATM   47  C   UNK     0     -11.671  -9.146  -2.291  0.00  0.00     0.139 C 
HETATM   48  O   UNK     0     -12.169  -8.502  -1.357  0.00  0.00    -0.650 OA
BRANCH  47  49
HETATM   49  O   UNK     0     -12.108  -8.962  -3.579  0.00  0.00    -0.776 OA
HETATM   50  H   UNK     0     -13.064  -9.200  -3.869  0.00  0.00     0.167 HD
ENDBRANCH  47  49
ENDBRANCH  46  47
ENDBRANCH  45  46
ENDBRANCH  11  45
BRANCH  18  51
HETATM   51  C   UNK     0     -14.373 -13.404  -7.852  0.00  0.00     0.051 C 
BRANCH  51  52
HETATM   52  C   UNK     0     -15.792 -13.842  -7.524  0.00  0.00     0.114 C 
BRANCH  52  53
HETATM   53  C   UNK     0     -16.103 -15.169  -8.091  0.00  0.00     0.139 C 
HETATM   54  O   UNK     0     -15.785 -15.434  -9.261  0.00  0.00    -0.650 OA
BRANCH  53  55
HETATM   55  O   UNK     0     -16.749 -16.104  -7.319  0.00  0.00    -0.776 OA
HETATM   56  H   UNK     0     -17.420 -15.915  -6.612  0.00  0.00     0.167 HD
ENDBRANCH  53  55
ENDBRANCH  52  53
ENDBRANCH  51  52
ENDBRANCH  18  51
TORSDOF 16
ENDMDL
MODEL 13
REMARK VINA RESULT:      -7.8     29.916     35.759
REMARK  16 active torsions:
REMARK  status: ('A' for Active; 'I' for Inactive)
REMARK    1  A    between atoms: C_6  and  C_7 
REMARK    2  A    between atoms: C_7  and  C_8 
REMARK    3  A    between atoms: C_8  and  C_9 
REMARK    4  A    between atoms: C_9  and  O_11 
REMARK    5  A    between atoms: C_16  and  C_17 
REMARK    6  A    between atoms: C_17  and  C_18 
REMARK    7  A    between atoms: C_18  and  C_19 
REMARK    8  A    between atoms: C_19  and  O_21 
REMARK    9  A    between atoms: C_28  and  C_29 
REMARK   10  A    between atoms: C_29  and  C_30 
REMARK   11  A    between atoms: C_30  and  C_31 
REMARK   12  A    between atoms: C_31  and  O_33 
REMARK   13  A    between atoms: C_42  and  C_43 
REMARK   14  A    between atoms: C_43  and  C_44 
REMARK   15  A    between atoms: C_44  and  C_45 
REMARK   16  A    between atoms: C_45  and  O_47 
ROOT
HETATM    1  C   UNK     0     -17.023   7.950  10.695  0.00  0.00     0.051 C 
HETATM    2  C   UNK     0     -17.916   8.738   9.759  0.00  0.00    -0.031 A 
HETATM    3  C   UNK     0     -19.036   8.325   9.056  0.00  0.00     0.021 A 
HETATM    4  N   UNK     0     -19.501   9.360   8.317  0.00  0.00    -0.361 N 
HETATM    5  C   UNK     0     -18.706  10.427   8.541  0.00  0.00     0.022 A 
HETATM    6  C   UNK     0     -17.703  10.072   9.436  0.00  0.00    -0.027 A 
HETATM    7  C   UNK     0     -18.839  11.833   8.045  0.00  0.00     0.115 C 
HETATM    8  C   UNK     0     -20.234  12.433   8.061  0.00  0.00     0.021 A 
HETATM    9  N   UNK     0     -21.216  12.243   8.956  0.00  0.00    -0.361 N 
HETATM   10  C   UNK     0     -22.312  12.901   8.522  0.00  0.00     0.022 A 
HETATM   11  C   UNK     0     -22.025  13.539   7.319  0.00  0.00    -0.027 A 
HETATM   12  C   UNK     0     -20.718  13.249   7.023  0.00  0.00    -0.031 A 
HETATM   13  C   UNK     0     -19.969  13.737   5.803  0.00  0.00     0.051 C 
HETATM   14  C   UNK     0     -23.682  12.910   9.193  0.00  0.00     0.115 C 
HETATM   15  C   UNK     0     -24.322  11.535   9.304  0.00  0.00     0.021 A 
HETATM   16  N   UNK     0     -23.829  10.447   9.926  0.00  0.00    -0.361 N 
HETATM   17  C   UNK     0     -24.659   9.420   9.736  0.00  0.00     0.022 A 
HETATM   18  C   UNK     0     -25.751   9.861   8.962  0.00  0.00    -0.027 A 
HETATM   19  C   UNK     0     -25.528  11.188   8.700  0.00  0.00    -0.031 A 
HETATM   20  C   UNK     0     -26.488  12.066   7.917  0.00  0.00     0.051 C 
HETATM   21  C   UNK     0     -24.530   7.975  10.161  0.00  0.00     0.115 C 
HETATM   22  C   UNK     0     -23.143   7.378  10.193  0.00  0.00     0.022 A 
HETATM   23  N   UNK     0     -22.144   7.553   9.318  0.00  0.00    -0.361 N 
HETATM   24  C   UNK     0     -21.041   6.954   9.809  0.00  0.00     0.021 A 
HETATM   25  C   UNK     0     -21.339   6.371  11.026  0.00  0.00    -0.031 A 
HETATM   26  C   UNK     0     -20.445   5.555  11.936  0.00  0.00     0.051 C 
HETATM   27  C   UNK     0     -22.679   6.628  11.292  0.00  0.00    -0.027 A 
HETATM   28  C   UNK     0     -19.641   6.959   9.221  0.00  0.00     0.115 C 
HETATM   29  H   UNK     0     -20.363   9.318   7.612  0.00  0.00     0.165 HD
HETATM   30  H   UNK     0     -21.123  11.686   9.920  0.00  0.00     0.165 HD
HETATM   31  H   UNK     0     -22.899  10.415  10.551  0.00  0.00     0.165 HD
HETATM   32  H   UNK     0     -22.220   8.064   8.323  0.00  0.00     0.165 HD
ENDROOT
BRANCH   6  33
HETATM   33  C   UNK     0     -16.570  10.893   9.999  0.00  0.00     0.051 C 
BRANCH  33  34
HETATM   34  C   UNK     0     -15.427  10.973   9.015  0.00  0.00     0.114 C 
BRANCH  34  35
HETATM   35  C   UNK     0     -14.241  10.334   9.656  0.00  0.00     0.139 C 
HETATM   36  O   UNK     0     -13.329   9.825   8.942  0.00  0.00    -0.650 OA
BRANCH  35  37
HETATM   37  O   UNK     0     -14.079  10.269  11.034  0.00  0.00    -0.776 OA
HETATM   38  H   UNK     0     -14.600   9.622  11.604  0.00  0.00     0.167 HD
ENDBRANCH  35  37
ENDBRANCH  34  35
ENDBRANCH  33  34
ENDBRANCH   6  33
BRANCH  27  39
HETATM   39  C   UNK     0     -23.384   6.094  12.489  0.00  0.00     0.051 C 
BRANCH  39  40
HETATM   40  C   UNK     0     -24.301   4.969  12.310  0.00  0.00     0.114 C 
BRANCH  40  41
HETATM   41  C   UNK     0     -25.530   5.088  11.559  0.00  0.00     0.139 C 
HETATM   42  O   UNK     0     -25.677   4.645  10.412  0.00  0.00    -0.650 OA
BRANCH  41  43
HETATM   43  O   UNK     0     -26.643   5.747  12.156  0.00  0.00    -0.776 OA
HETATM   44  H   UNK     0     -27.000   5.296  12.989  0.00  0.00     0.167 HD
ENDBRANCH  41  43
ENDBRANCH  40  41
ENDBRANCH  39  40
ENDBRANCH  27  39
BRANCH  11  45
HETATM   45  C   UNK     0     -22.926  14.394   6.468  0.00  0.00     0.051 C 
BRANCH  45  46
HETATM   46  C   UNK     0     -23.111  15.775   6.980  0.00  0.00     0.114 C 
BRANCH  46  47
HETATM   47  C   UNK     0     -24.580  16.022   7.063  0.00  0.00     0.139 C 
HETATM   48  O   UNK     0     -25.193  16.302   6.024  0.00  0.00    -0.650 OA
BRANCH  47  49
HETATM   49  O   UNK     0     -25.238  15.943   8.264  0.00  0.00    -0.776 OA
HETATM   50  H   UNK     0     -25.703  16.756   8.686  0.00  0.00     0.167 HD
ENDBRANCH  47  49
ENDBRANCH  46  47
ENDBRANCH  45  46
ENDBRANCH  11  45
BRANCH  18  51
HETATM   51  C   UNK     0     -26.951   9.068   8.516  0.00  0.00     0.051 C 
BRANCH  51  52
HETATM   52  C   UNK     0     -27.944   9.111   9.668  0.00  0.00     0.114 C 
BRANCH  52  53
HETATM   53  C   UNK     0     -28.282   7.760  10.154  0.00  0.00     0.139 C 
HETATM   54  O   UNK     0     -28.945   7.621  11.195  0.00  0.00    -0.650 OA
BRANCH  53  55
HETATM   55  O   UNK     0     -27.856   6.659   9.452  0.00  0.00    -0.776 OA
HETATM   56  H   UNK     0     -26.918   6.454   9.199  0.00  0.00     0.167 HD
ENDBRANCH  53  55
ENDBRANCH  52  53
ENDBRANCH  51  52
ENDBRANCH  18  51
TORSDOF 16
ENDMDL
MODEL 14
REMARK VINA RESULT:      -7.8     30.353     36.442
REMARK  16 active torsions:
REMARK  status: ('A' for Active; 'I' for Inactive)
REMARK    1  A    between atoms: C_6  and  C_7 
REMARK    2  A    between atoms: C_7  and  C_8 
REMARK    3  A    between atoms: C_8  and  C_9 
REMARK    4  A    between atoms: C_9  and  O_11 
REMARK    5  A    between atoms: C_16  and  C_17 
REMARK    6  A    between atoms: C_17  and  C_18 
REMARK    7  A    between atoms: C_18  and  C_19 
REMARK    8  A    between atoms: C_19  and  O_21 
REMARK    9  A    between atoms: C_28  and  C_29 
REMARK   10  A    between atoms: C_29  and  C_30 
REMARK   11  A    between atoms: C_30  and  C_31 
REMARK   12  A    between atoms: C_31  and  O_33 
REMARK   13  A    between atoms: C_42  and  C_43 
REMARK   14  A    between atoms: C_43  and  C_44 
REMARK   15  A    between atoms: C_44  and  C_45 
REMARK   16  A    between atoms: C_45  and  O_47 
ROOT
HETATM    1  C   UNK     0     -20.028  15.270   7.181  0.00  0.00     0.051 C 
HETATM    2  C   UNK     0     -20.894  14.037   7.343  0.00  0.00    -0.031 A 
HETATM    3  C   UNK     0     -20.606  12.715   7.042  0.00  0.00     0.021 A 
HETATM    4  N   UNK     0     -21.690  11.953   7.321  0.00  0.00    -0.361 N 
HETATM    5  C   UNK     0     -22.659  12.759   7.801  0.00  0.00     0.022 A 
HETATM    6  C   UNK     0     -22.195  14.071   7.825  0.00  0.00    -0.027 A 
HETATM    7  C   UNK     0     -24.010  12.407   8.340  0.00  0.00     0.115 C 
HETATM    8  C   UNK     0     -24.084  11.197   9.254  0.00  0.00     0.021 A 
HETATM    9  N   UNK     0     -23.184  10.773  10.155  0.00  0.00    -0.361 N 
HETATM   10  C   UNK     0     -23.625   9.606  10.671  0.00  0.00     0.022 A 
HETATM   11  C   UNK     0     -24.847   9.274  10.093  0.00  0.00    -0.027 A 
HETATM   12  C   UNK     0     -25.142  10.272   9.200  0.00  0.00    -0.031 A 
HETATM   13  C   UNK     0     -26.385  10.336   8.340  0.00  0.00     0.051 C 
HETATM   14  C   UNK     0     -22.890   8.733  11.684  0.00  0.00     0.115 C 
HETATM   15  C   UNK     0     -21.543   8.224  11.197  0.00  0.00     0.021 A 
HETATM   16  N   UNK     0     -20.486   8.954  10.793  0.00  0.00    -0.361 N 
HETATM   17  C   UNK     0     -19.520   8.133  10.375  0.00  0.00     0.022 A 
HETATM   18  C   UNK     0     -19.966   6.804  10.522  0.00  0.00    -0.027 A 
HETATM   19  C   UNK     0     -21.233   6.875  11.039  0.00  0.00    -0.031 A 
HETATM   20  C   UNK     0     -22.071   5.659  11.388  0.00  0.00     0.051 C 
HETATM   21  C   UNK     0     -18.174   8.448   9.764  0.00  0.00     0.115 C 
HETATM   22  C   UNK     0     -18.075   9.675   8.888  0.00  0.00     0.022 A 
HETATM   23  N   UNK     0     -18.958  10.123   7.985  0.00  0.00    -0.361 N 
HETATM   24  C   UNK     0     -18.537  11.325   7.542  0.00  0.00     0.021 A 
HETATM   25  C   UNK     0     -17.349  11.653   8.166  0.00  0.00    -0.031 A 
HETATM   26  C   UNK     0     -16.475  12.875   7.971  0.00  0.00     0.051 C 
HETATM   27  C   UNK     0     -17.033  10.612   9.032  0.00  0.00    -0.027 A 
HETATM   28  C   UNK     0     -19.248  12.263   6.583  0.00  0.00     0.115 C 
HETATM   29  H   UNK     0     -21.776  10.857   7.139  0.00  0.00     0.165 HD
HETATM   30  H   UNK     0     -22.261  11.320  10.465  0.00  0.00     0.165 HD
HETATM   31  H   UNK     0     -20.401  10.071  10.849  0.00  0.00     0.165 HD
HETATM   32  H   UNK     0     -19.865   9.575   7.621  0.00  0.00     0.165 HD
ENDROOT
BRANCH   6  33
HETATM   33  C   UNK     0     -22.887  15.336   8.264  0.00  0.00     0.051 C 
BRANCH  33  34
HETATM   34  C   UNK     0     -23.340  16.141   7.069  0.00  0.00     0.114 C 
BRANCH  34  35
HETATM   35  C   UNK     0     -24.792  15.868   6.870  0.00  0.00     0.139 C 
HETATM   36  O   UNK     0     -25.324  16.044   5.736  0.00  0.00    -0.650 OA
BRANCH  35  37
HETATM   37  O   UNK     0     -25.616  15.414   7.893  0.00  0.00    -0.776 OA
HETATM   38  H   UNK     0     -26.504  15.844   8.094  0.00  0.00     0.167 HD
ENDBRANCH  35  37
ENDBRANCH  34  35
ENDBRANCH  33  34
ENDBRANCH   6  33
BRANCH  27  39
HETATM   39  C   UNK     0     -15.778  10.575   9.832  0.00  0.00     0.051 C 
BRANCH  39  40
HETATM   40  C   UNK     0     -14.669   9.756   9.345  0.00  0.00     0.114 C 
BRANCH  40  41
HETATM   41  C   UNK     0     -13.622  10.295   8.507  0.00  0.00     0.139 C 
HETATM   42  O   UNK     0     -13.581  11.478   8.140  0.00  0.00    -0.650 OA
BRANCH  41  43
HETATM   43  O   UNK     0     -12.574   9.436   8.070  0.00  0.00    -0.776 OA
HETATM   44  H   UNK     0     -11.845   9.900   7.542  0.00  0.00     0.167 HD
ENDBRANCH  41  43
ENDBRANCH  40  41
ENDBRANCH  39  40
ENDBRANCH  27  39
BRANCH  11  45
HETATM   45  C   UNK     0     -25.719   8.075  10.357  0.00  0.00     0.051 C 
BRANCH  45  46
HETATM   46  C   UNK     0     -25.154   6.794   9.861  0.00  0.00     0.114 C 
BRANCH  46  47
HETATM   47  C   UNK     0     -26.112   5.715  10.235  0.00  0.00     0.139 C 
HETATM   48  O   UNK     0     -25.682   4.561  10.369  0.00  0.00    -0.650 OA
BRANCH  47  49
HETATM   49  O   UNK     0     -27.443   5.991  10.427  0.00  0.00    -0.776 OA
HETATM   50  H   UNK     0     -27.871   6.865  10.097  0.00  0.00     0.167 HD
ENDBRANCH  47  49
ENDBRANCH  46  47
ENDBRANCH  45  46
ENDBRANCH  11  45
BRANCH  18  51
HETATM   51  C   UNK     0     -19.216   5.536  10.207  0.00  0.00     0.051 C 
BRANCH  51  52
HETATM   52  C   UNK     0     -18.272   5.297  11.377  0.00  0.00     0.114 C 
BRANCH  52  53
HETATM   53  C   UNK     0     -17.051   4.581  10.961  0.00  0.00     0.139 C 
HETATM   54  O   UNK     0     -16.011   5.213  10.718  0.00  0.00    -0.650 OA
BRANCH  53  55
HETATM   55  O   UNK     0     -17.074   3.212  10.841  0.00  0.00    -0.776 OA
HETATM   56  H   UNK     0     -17.615   2.692  10.192  0.00  0.00     0.167 HD
ENDBRANCH  53  55
ENDBRANCH  52  53
ENDBRANCH  51  52
ENDBRANCH  18  51
TORSDOF 16
ENDMDL
MODEL 15
REMARK VINA RESULT:      -7.8     29.792     36.688
REMARK  16 active torsions:
REMARK  status: ('A' for Active; 'I' for Inactive)
REMARK    1  A    between atoms: C_6  and  C_7 
REMARK    2  A    between atoms: C_7  and  C_8 
REMARK    3  A    between atoms: C_8  and  C_9 
REMARK    4  A    between atoms: C_9  and  O_11 
REMARK    5  A    between atoms: C_16  and  C_17 
REMARK    6  A    between atoms: C_17  and  C_18 
REMARK    7  A    between atoms: C_18  and  C_19 
REMARK    8  A    between atoms: C_19  and  O_21 
REMARK    9  A    between atoms: C_28  and  C_29 
REMARK   10  A    between atoms: C_29  and  C_30 
REMARK   11  A    between atoms: C_30  and  C_31 
REMARK   12  A    between atoms: C_31  and  O_33 
REMARK   13  A    between atoms: C_42  and  C_43 
REMARK   14  A    between atoms: C_43  and  C_44 
REMARK   15  A    between atoms: C_44  and  C_45 
REMARK   16  A    between atoms: C_45  and  O_47 
ROOT
HETATM    1  C   UNK     0     -22.348   4.966  12.030  0.00  0.00     0.051 C 
HETATM    2  C   UNK     0     -22.488   6.438  11.700  0.00  0.00    -0.031 A 
HETATM    3  C   UNK     0     -21.633   7.490  11.989  0.00  0.00     0.021 A 
HETATM    4  N   UNK     0     -22.177   8.641  11.529  0.00  0.00    -0.361 N 
HETATM    5  C   UNK     0     -23.357   8.345  10.945  0.00  0.00     0.022 A 
HETATM    6  C   UNK     0     -23.583   6.976  11.037  0.00  0.00    -0.027 A 
HETATM    7  C   UNK     0     -24.302   9.237  10.204  0.00  0.00     0.115 C 
HETATM    8  C   UNK     0     -23.684  10.238   9.244  0.00  0.00     0.021 A 
HETATM    9  N   UNK     0     -22.599  10.092   8.467  0.00  0.00    -0.361 N 
HETATM   10  C   UNK     0     -22.364  11.269   7.850  0.00  0.00     0.022 A 
HETATM   11  C   UNK     0     -23.328  12.197   8.232  0.00  0.00    -0.027 A 
HETATM   12  C   UNK     0     -24.164  11.554   9.110  0.00  0.00    -0.031 A 
HETATM   13  C   UNK     0     -25.367  12.173   9.784  0.00  0.00     0.051 C 
HETATM   14  C   UNK     0     -21.194  11.581   6.920  0.00  0.00     0.115 C 
HETATM   15  C   UNK     0     -19.831  11.440   7.578  0.00  0.00     0.021 A 
HETATM   16  N   UNK     0     -19.308  10.342   8.156  0.00  0.00    -0.361 N 
HETATM   17  C   UNK     0     -18.118  10.647   8.678  0.00  0.00     0.022 A 
HETATM   18  C   UNK     0     -17.848  12.005   8.419  0.00  0.00    -0.027 A 
HETATM   19  C   UNK     0     -18.928  12.490   7.728  0.00  0.00    -0.031 A 
HETATM   20  C   UNK     0     -19.032  13.915   7.217  0.00  0.00     0.051 C 
HETATM   21  C   UNK     0     -17.165   9.796   9.488  0.00  0.00     0.115 C 
HETATM   22  C   UNK     0     -17.766   8.766  10.415  0.00  0.00     0.022 A 
HETATM   23  N   UNK     0     -18.847   8.883  11.197  0.00  0.00    -0.361 N 
HETATM   24  C   UNK     0     -19.109   7.677  11.741  0.00  0.00     0.021 A 
HETATM   25  C   UNK     0     -18.167   6.764  11.307  0.00  0.00    -0.031 A 
HETATM   26  C   UNK     0     -18.018   5.302  11.672  0.00  0.00     0.051 C 
HETATM   27  C   UNK     0     -17.297   7.437  10.457  0.00  0.00    -0.027 A 
HETATM   28  C   UNK     0     -20.284   7.290  12.622  0.00  0.00     0.115 C 
HETATM   29  H   UNK     0     -21.743   9.660  11.655  0.00  0.00     0.165 HD
HETATM   30  H   UNK     0     -22.027   9.144   8.313  0.00  0.00     0.165 HD
HETATM   31  H   UNK     0     -19.766   9.319   8.155  0.00  0.00     0.165 HD
HETATM   32  H   UNK     0     -19.411   9.829  11.406  0.00  0.00     0.165 HD
ENDROOT
BRANCH   6  33
HETATM   33  C   UNK     0     -24.748   6.150  10.550  0.00  0.00     0.051 C 
BRANCH  33  34
HETATM   34  C   UNK     0     -25.852   6.124  11.580  0.00  0.00     0.114 C 
BRANCH  34  35
HETATM   35  C   UNK     0     -27.035   5.471  10.949  0.00  0.00     0.139 C 
HETATM   36  O   UNK     0     -26.878   4.641  10.007  0.00  0.00    -0.650 OA
BRANCH  35  37
HETATM   37  O   UNK     0     -28.339   5.731  11.355  0.00  0.00    -0.776 OA
HETATM   38  H   UNK     0     -29.083   5.067  11.218  0.00  0.00     0.167 HD
ENDBRANCH  35  37
ENDBRANCH  34  35
ENDBRANCH  33  34
ENDBRANCH   6  33
BRANCH  27  39
HETATM   39  C   UNK     0     -16.102   6.795   9.846  0.00  0.00     0.051 C 
BRANCH  39  40
HETATM   40  C   UNK     0     -14.830   6.868  10.565  0.00  0.00     0.114 C 
BRANCH  40  41
HETATM   41  C   UNK     0     -14.245   5.716  11.214  0.00  0.00     0.139 C 
HETATM   42  O   UNK     0     -13.458   4.942  10.653  0.00  0.00    -0.650 OA
BRANCH  41  43
HETATM   43  O   UNK     0     -14.580   5.443  12.571  0.00  0.00    -0.776 OA
HETATM   44  H   UNK     0     -15.489   5.789  12.856  0.00  0.00     0.167 HD
ENDBRANCH  41  43
ENDBRANCH  40  41
ENDBRANCH  39  40
ENDBRANCH  27  39
BRANCH  11  45
HETATM   45  C   UNK     0     -23.479  13.631   7.801  0.00  0.00     0.051 C 
BRANCH  45  46
HETATM   46  C   UNK     0     -24.457  13.833   6.701  0.00  0.00     0.114 C 
BRANCH  46  47
HETATM   47  C   UNK     0     -25.163  15.119   6.969  0.00  0.00     0.139 C 
HETATM   48  O   UNK     0     -25.330  15.909   6.030  0.00  0.00    -0.650 OA
BRANCH  47  49
HETATM   49  O   UNK     0     -25.616  15.423   8.228  0.00  0.00    -0.776 OA
HETATM   50  H   UNK     0     -26.501  15.921   8.383  0.00  0.00     0.167 HD
ENDBRANCH  47  49
ENDBRANCH  46  47
ENDBRANCH  45  46
ENDBRANCH  11  45
BRANCH  18  51
HETATM   51  C   UNK     0     -16.618  12.793   8.791  0.00  0.00     0.051 C 
BRANCH  51  52
HETATM   52  C   UNK     0     -15.636  12.617   7.642  0.00  0.00     0.114 C 
BRANCH  52  53
HETATM   53  C   UNK     0     -14.313  12.164   8.115  0.00  0.00     0.139 C 
HETATM   54  O   UNK     0     -13.472  11.747   7.302  0.00  0.00    -0.650 OA
BRANCH  53  55
HETATM   55  O   UNK     0     -14.020  12.206   9.456  0.00  0.00    -0.776 OA
HETATM   56  H   UNK     0     -13.735  11.437  10.015  0.00  0.00     0.167 HD
ENDBRANCH  53  55
ENDBRANCH  52  53
ENDBRANCH  51  52
ENDBRANCH  18  51
TORSDOF 16
ENDMDL
MODEL 16
REMARK VINA RESULT:      -7.6     30.109     36.522
REMARK  16 active torsions:
REMARK  status: ('A' for Active; 'I' for Inactive)
REMARK    1  A    between atoms: C_6  and  C_7 
REMARK    2  A    between atoms: C_7  and  C_8 
REMARK    3  A    between atoms: C_8  and  C_9 
REMARK    4  A    between atoms: C_9  and  O_11 
REMARK    5  A    between atoms: C_16  and  C_17 
REMARK    6  A    between atoms: C_17  and  C_18 
REMARK    7  A    between atoms: C_18  and  C_19 
REMARK    8  A    between atoms: C_19  and  O_21 
REMARK    9  A    between atoms: C_28  and  C_29 
REMARK   10  A    between atoms: C_29  and  C_30 
REMARK   11  A    between atoms: C_30  and  C_31 
REMARK   12  A    between atoms: C_31  and  O_33 
REMARK   13  A    between atoms: C_42  and  C_43 
REMARK   14  A    between atoms: C_43  and  C_44 
REMARK   15  A    between atoms: C_44  and  C_45 
REMARK   16  A    between atoms: C_45  and  O_47 
ROOT
HETATM    1  C   UNK     0     -23.072  14.139   7.524  0.00  0.00     0.051 C 
HETATM    2  C   UNK     0     -22.909  12.664   7.830  0.00  0.00    -0.031 A 
HETATM    3  C   UNK     0     -21.944  11.775   7.385  0.00  0.00     0.021 A 
HETATM    4  N   UNK     0     -22.209  10.547   7.890  0.00  0.00    -0.361 N 
HETATM    5  C   UNK     0     -23.316  10.636   8.655  0.00  0.00     0.022 A 
HETATM    6  C   UNK     0     -23.782  11.947   8.638  0.00  0.00    -0.027 A 
HETATM    7  C   UNK     0     -23.972   9.594   9.507  0.00  0.00     0.115 C 
HETATM    8  C   UNK     0     -23.052   8.712  10.333  0.00  0.00     0.021 A 
HETATM    9  N   UNK     0     -21.901   9.040  10.939  0.00  0.00    -0.361 N 
HETATM   10  C   UNK     0     -21.377   7.919  11.479  0.00  0.00     0.022 A 
HETATM   11  C   UNK     0     -22.219   6.841  11.222  0.00  0.00    -0.027 A 
HETATM   12  C   UNK     0     -23.276   7.334  10.500  0.00  0.00    -0.031 A 
HETATM   13  C   UNK     0     -24.448   6.519  10.001  0.00  0.00     0.051 C 
HETATM   14  C   UNK     0     -20.042   7.810  12.210  0.00  0.00     0.115 C 
HETATM   15  C   UNK     0     -18.840   8.184  11.357  0.00  0.00     0.021 A 
HETATM   16  N   UNK     0     -18.606   9.355  10.737  0.00  0.00    -0.361 N 
HETATM   17  C   UNK     0     -17.477   9.260  10.031  0.00  0.00     0.022 A 
HETATM   18  C   UNK     0     -16.945   7.967  10.208  0.00  0.00    -0.027 A 
HETATM   19  C   UNK     0     -17.808   7.304  11.042  0.00  0.00    -0.031 A 
HETATM   20  C   UNK     0     -17.589   5.881  11.522  0.00  0.00     0.051 C 
HETATM   21  C   UNK     0     -16.819  10.262   9.110  0.00  0.00     0.115 C 
HETATM   22  C   UNK     0     -17.721  11.176   8.315  0.00  0.00     0.022 A 
HETATM   23  N   UNK     0     -18.875  10.877   7.704  0.00  0.00    -0.361 N 
HETATM   24  C   UNK     0     -19.417  12.021   7.240  0.00  0.00     0.021 A 
HETATM   25  C   UNK     0     -18.587  13.081   7.551  0.00  0.00    -0.031 A 
HETATM   26  C   UNK     0     -18.746  14.548   7.209  0.00  0.00     0.051 C 
HETATM   27  C   UNK     0     -17.495  12.565   8.239  0.00  0.00    -0.027 A 
HETATM   28  C   UNK     0     -20.763  12.203   6.560  0.00  0.00     0.115 C 
HETATM   29  H   UNK     0     -21.634   9.617   7.671  0.00  0.00     0.165 HD
HETATM   30  H   UNK     0     -21.480  10.071  11.030  0.00  0.00     0.165 HD
HETATM   31  H   UNK     0     -19.225  10.285  10.836  0.00  0.00     0.165 HD
HETATM   32  H   UNK     0     -19.297   9.849   7.557  0.00  0.00     0.165 HD
ENDROOT
BRANCH   6  33
HETATM   33  C   UNK     0     -24.979  12.560   9.319  0.00  0.00     0.051 C 
BRANCH  33  34
HETATM   34  C   UNK     0     -26.122  12.727   8.345  0.00  0.00     0.114 C 
BRANCH  34  35
HETATM   35  C   UNK     0     -26.996  11.525   8.473  0.00  0.00     0.139 C 
HETATM   36  O   UNK     0     -27.414  11.159   9.610  0.00  0.00    -0.650 OA
BRANCH  35  37
HETATM   37  O   UNK     0     -27.390  10.766   7.378  0.00  0.00    -0.776 OA
HETATM   38  H   UNK     0     -27.168   9.787   7.298  0.00  0.00     0.167 HD
ENDBRANCH  35  37
ENDBRANCH  34  35
ENDBRANCH  33  34
ENDBRANCH   6  33
BRANCH  27  39
HETATM   39  C   UNK     0     -16.345  13.402   8.679  0.00  0.00     0.051 C 
BRANCH  39  40
HETATM   40  C   UNK     0     -15.105  13.339   7.906  0.00  0.00     0.114 C 
BRANCH  40  41
HETATM   41  C   UNK     0     -14.077  12.359   8.176  0.00  0.00     0.139 C 
HETATM   42  O   UNK     0     -13.457  11.756   7.289  0.00  0.00    -0.650 OA
BRANCH  41  43
HETATM   43  O   UNK     0     -13.747  12.058   9.528  0.00  0.00    -0.776 OA
HETATM   44  H   UNK     0     -13.829  12.843  10.163  0.00  0.00     0.167 HD
ENDBRANCH  41  43
ENDBRANCH  40  41
ENDBRANCH  39  40
ENDBRANCH  27  39
BRANCH  11  45
HETATM   45  C   UNK     0     -22.057   5.402  11.631  0.00  0.00     0.051 C 
BRANCH  45  46
HETATM   46  C   UNK     0     -22.554   5.100  12.998  0.00  0.00     0.114 C 
BRANCH  46  47
HETATM   47  C   UNK     0     -23.916   4.510  12.853  0.00  0.00     0.139 C 
HETATM   48  O   UNK     0     -24.021   3.379  12.358  0.00  0.00    -0.650 OA
BRANCH  47  49
HETATM   49  O   UNK     0     -25.029   5.203  13.256  0.00  0.00    -0.776 OA
HETATM   50  H   UNK     0     -24.964   6.121  13.712  0.00  0.00     0.167 HD
ENDBRANCH  47  49
ENDBRANCH  46  47
ENDBRANCH  45  46
ENDBRANCH  11  45
BRANCH  18  51
HETATM   51  C   UNK     0     -15.673   7.402   9.631  0.00  0.00     0.051 C 
BRANCH  51  52
HETATM   52  C   UNK     0     -14.538   8.244  10.196  0.00  0.00     0.114 C 
BRANCH  52  53
HETATM   53  C   UNK     0     -13.218   7.751   9.759  0.00  0.00     0.139 C 
HETATM   54  O   UNK     0     -12.322   8.556   9.460  0.00  0.00    -0.650 OA
BRANCH  53  55
HETATM   55  O   UNK     0     -12.989   6.398   9.680  0.00  0.00    -0.776 OA
HETATM   56  H   UNK     0     -13.469   5.694  10.190  0.00  0.00     0.167 HD
ENDBRANCH  53  55
ENDBRANCH  52  53
ENDBRANCH  51  52
ENDBRANCH  18  51
TORSDOF 16
ENDMDL
MODEL 17
REMARK VINA RESULT:      -7.6     28.030     32.123
REMARK  16 active torsions:
REMARK  status: ('A' for Active; 'I' for Inactive)
REMARK    1  A    between atoms: C_6  and  C_7 
REMARK    2  A    between atoms: C_7  and  C_8 
REMARK    3  A    between atoms: C_8  and  C_9 
REMARK    4  A    between atoms: C_9  and  O_11 
REMARK    5  A    between atoms: C_16  and  C_17 
REMARK    6  A    between atoms: C_17  and  C_18 
REMARK    7  A    between atoms: C_18  and  C_19 
REMARK    8  A    between atoms: C_19  and  O_21 
REMARK    9  A    between atoms: C_28  and  C_29 
REMARK   10  A    between atoms: C_29  and  C_30 
REMARK   11  A    between atoms: C_30  and  C_31 
REMARK   12  A    between atoms: C_31  and  O_33 
REMARK   13  A    between atoms: C_42  and  C_43 
REMARK   14  A    between atoms: C_43  and  C_44 
REMARK   15  A    between atoms: C_44  and  C_45 
REMARK   16  A    between atoms: C_45  and  O_47 
ROOT
HETATM    1  C   UNK     0     -33.114  11.379  14.573  0.00  0.00     0.051 C 
HETATM    2  C   UNK     0     -31.840  11.281  13.759  0.00  0.00    -0.031 A 
HETATM    3  C   UNK     0     -30.561  10.933  14.164  0.00  0.00     0.021 A 
HETATM    4  N   UNK     0     -29.725  11.010  13.102  0.00  0.00    -0.361 N 
HETATM    5  C   UNK     0     -30.444  11.392  12.027  0.00  0.00     0.022 A 
HETATM    6  C   UNK     0     -31.771  11.573  12.403  0.00  0.00    -0.027 A 
HETATM    7  C   UNK     0     -30.019  11.535  10.599  0.00  0.00     0.115 C 
HETATM    8  C   UNK     0     -29.120  10.444  10.043  0.00  0.00     0.021 A 
HETATM    9  N   UNK     0     -29.135   9.130  10.314  0.00  0.00    -0.361 N 
HETATM   10  C   UNK     0     -28.099   8.556   9.665  0.00  0.00     0.022 A 
HETATM   11  C   UNK     0     -27.404   9.526   8.949  0.00  0.00    -0.027 A 
HETATM   12  C   UNK     0     -28.042  10.718   9.183  0.00  0.00    -0.031 A 
HETATM   13  C   UNK     0     -27.637  12.055   8.602  0.00  0.00     0.051 C 
HETATM   14  C   UNK     0     -27.693   7.087   9.736  0.00  0.00     0.115 C 
HETATM   15  C   UNK     0     -27.320   6.618  11.133  0.00  0.00     0.021 A 
HETATM   16  N   UNK     0     -28.086   6.643  12.240  0.00  0.00    -0.361 N 
HETATM   17  C   UNK     0     -27.370   6.209  13.279  0.00  0.00     0.022 A 
HETATM   18  C   UNK     0     -26.077   5.877  12.826  0.00  0.00    -0.027 A 
HETATM   19  C   UNK     0     -26.060   6.136  11.480  0.00  0.00    -0.031 A 
HETATM   20  C   UNK     0     -24.859   5.881  10.587  0.00  0.00     0.051 C 
HETATM   21  C   UNK     0     -27.739   6.113  14.742  0.00  0.00     0.115 C 
HETATM   22  C   UNK     0     -28.668   7.166  15.298  0.00  0.00     0.022 A 
HETATM   23  N   UNK     0     -28.679   8.481  15.043  0.00  0.00    -0.361 N 
HETATM   24  C   UNK     0     -29.764   9.019  15.636  0.00  0.00     0.021 A 
HETATM   25  C   UNK     0     -30.463   8.028  16.298  0.00  0.00    -0.031 A 
HETATM   26  C   UNK     0     -31.718   8.145  17.137  0.00  0.00     0.051 C 
HETATM   27  C   UNK     0     -29.781   6.833  16.096  0.00  0.00    -0.027 A 
HETATM   28  C   UNK     0     -30.252  10.455  15.555  0.00  0.00     0.115 C 
HETATM   29  H   UNK     0     -28.625  10.833  13.128  0.00  0.00     0.165 HD
HETATM   30  H   UNK     0     -29.905   8.595  10.922  0.00  0.00     0.165 HD
HETATM   31  H   UNK     0     -29.170   6.927  12.281  0.00  0.00     0.165 HD
HETATM   32  H   UNK     0     -27.896   9.050  14.477  0.00  0.00     0.165 HD
ENDROOT
BRANCH   6  33
HETATM   33  C   UNK     0     -32.962  11.999  11.582  0.00  0.00     0.051 C 
BRANCH  33  34
HETATM   34  C   UNK     0     -33.645  10.800  10.968  0.00  0.00     0.114 C 
BRANCH  34  35
HETATM   35  C   UNK     0     -34.581  11.305   9.923  0.00  0.00     0.139 C 
HETATM   36  O   UNK     0     -35.304  10.497   9.270  0.00  0.00    -0.650 OA
BRANCH  35  37
HETATM   37  O   UNK     0     -34.706  12.656   9.619  0.00  0.00    -0.776 OA
HETATM   38  H   UNK     0     -33.933  13.199   9.271  0.00  0.00     0.167 HD
ENDBRANCH  35  37
ENDBRANCH  34  35
ENDBRANCH  33  34
ENDBRANCH   6  33
BRANCH  27  39
HETATM   39  C   UNK     0     -30.196   5.547  16.719  0.00  0.00     0.051 C 
BRANCH  39  40
HETATM   40  C   UNK     0     -29.266   4.888  17.635  0.00  0.00     0.114 C 
BRANCH  40  41
HETATM   41  C   UNK     0     -28.706   3.584  17.358  0.00  0.00     0.139 C 
HETATM   42  O   UNK     0     -28.744   3.047  16.243  0.00  0.00    -0.650 OA
BRANCH  41  43
HETATM   43  O   UNK     0     -28.074   2.865  18.412  0.00  0.00    -0.776 OA
HETATM   44  H   UNK     0     -28.347   1.892  18.479  0.00  0.00     0.167 HD
ENDBRANCH  41  43
ENDBRANCH  40  41
ENDBRANCH  39  40
ENDBRANCH  27  39
BRANCH  11  45
HETATM   45  C   UNK     0     -26.190   9.362   8.074  0.00  0.00     0.051 C 
BRANCH  45  46
HETATM   46  C   UNK     0     -24.931   9.122   8.824  0.00  0.00     0.114 C 
BRANCH  46  47
HETATM   47  C   UNK     0     -23.929  10.110   8.330  0.00  0.00     0.139 C 
HETATM   48  O   UNK     0     -24.241  11.309   8.305  0.00  0.00    -0.650 OA
BRANCH  47  49
HETATM   49  O   UNK     0     -22.687   9.702   7.912  0.00  0.00    -0.776 OA
HETATM   50  H   UNK     0     -22.454   9.601   6.917  0.00  0.00     0.167 HD
ENDBRANCH  47  49
ENDBRANCH  46  47
ENDBRANCH  45  46
ENDBRANCH  11  45
BRANCH  18  51
HETATM   51  C   UNK     0     -24.929   5.322  13.628  0.00  0.00     0.051 C 
BRANCH  51  52
HETATM   52  C   UNK     0     -24.468   6.445  14.545  0.00  0.00     0.114 C 
BRANCH  52  53
HETATM   53  C   UNK     0     -24.135   5.950  15.895  0.00  0.00     0.139 C 
HETATM   54  O   UNK     0     -25.038   5.732  16.718  0.00  0.00    -0.650 OA
BRANCH  53  55
HETATM   55  O   UNK     0     -22.821   5.736  16.235  0.00  0.00    -0.776 OA
HETATM   56  H   UNK     0     -22.437   5.798  17.149  0.00  0.00     0.167 HD
ENDBRANCH  53  55
ENDBRANCH  52  53
ENDBRANCH  51  52
ENDBRANCH  18  51
TORSDOF 16
ENDMDL
MODEL 18
REMARK VINA RESULT:      -7.5     28.700     33.608
REMARK  16 active torsions:
REMARK  status: ('A' for Active; 'I' for Inactive)
REMARK    1  A    between atoms: C_6  and  C_7 
REMARK    2  A    between atoms: C_7  and  C_8 
REMARK    3  A    between atoms: C_8  and  C_9 
REMARK    4  A    between atoms: C_9  and  O_11 
REMARK    5  A    between atoms: C_16  and  C_17 
REMARK    6  A    between atoms: C_17  and  C_18 
REMARK    7  A    between atoms: C_18  and  C_19 
REMARK    8  A    between atoms: C_19  and  O_21 
REMARK    9  A    between atoms: C_28  and  C_29 
REMARK   10  A    between atoms: C_29  and  C_30 
REMARK   11  A    between atoms: C_30  and  C_31 
REMARK   12  A    between atoms: C_31  and  O_33 
REMARK   13  A    between atoms: C_42  and  C_43 
REMARK   14  A    between atoms: C_43  and  C_44 
REMARK   15  A    between atoms: C_44  and  C_45 
REMARK   16  A    between atoms: C_45  and  O_47 
ROOT
HETATM    1  C   UNK     0     -29.560   6.931  13.293  0.00  0.00     0.051 C 
HETATM    2  C   UNK     0     -28.115   6.666  12.920  0.00  0.00    -0.031 A 
HETATM    3  C   UNK     0     -27.495   6.757  11.684  0.00  0.00     0.021 A 
HETATM    4  N   UNK     0     -26.196   6.397  11.815  0.00  0.00    -0.361 N 
HETATM    5  C   UNK     0     -25.973   6.087  13.108  0.00  0.00     0.022 A 
HETATM    6  C   UNK     0     -27.153   6.242  13.828  0.00  0.00    -0.027 A 
HETATM    7  C   UNK     0     -24.693   5.721  13.793  0.00  0.00     0.115 C 
HETATM    8  C   UNK     0     -23.463   6.528  13.414  0.00  0.00     0.021 A 
HETATM    9  N   UNK     0     -23.380   7.831  13.107  0.00  0.00    -0.361 N 
HETATM   10  C   UNK     0     -22.107   8.097  12.745  0.00  0.00     0.022 A 
HETATM   11  C   UNK     0     -21.347   6.934  12.830  0.00  0.00    -0.027 A 
HETATM   12  C   UNK     0     -22.195   5.941  13.251  0.00  0.00    -0.031 A 
HETATM   13  C   UNK     0     -21.804   4.500  13.490  0.00  0.00     0.051 C 
HETATM   14  C   UNK     0     -21.570   9.439  12.256  0.00  0.00     0.115 C 
HETATM   15  C   UNK     0     -22.233   9.940  10.983  0.00  0.00     0.021 A 
HETATM   16  N   UNK     0     -23.541  10.189  10.782  0.00  0.00    -0.361 N 
HETATM   17  C   UNK     0     -23.728  10.547   9.509  0.00  0.00     0.022 A 
HETATM   18  C   UNK     0     -22.481  10.539   8.853  0.00  0.00    -0.027 A 
HETATM   19  C   UNK     0     -21.553  10.159   9.787  0.00  0.00    -0.031 A 
HETATM   20  C   UNK     0     -20.066  10.056   9.505  0.00  0.00     0.051 C 
HETATM   21  C   UNK     0     -25.007  10.859   8.766  0.00  0.00     0.115 C 
HETATM   22  C   UNK     0     -26.248  10.095   9.162  0.00  0.00     0.022 A 
HETATM   23  N   UNK     0     -26.360   8.798   9.477  0.00  0.00    -0.361 N 
HETATM   24  C   UNK     0     -27.617   8.573   9.909  0.00  0.00     0.021 A 
HETATM   25  C   UNK     0     -28.336   9.752   9.861  0.00  0.00    -0.031 A 
HETATM   26  C   UNK     0     -29.791   9.996  10.205  0.00  0.00     0.051 C 
HETATM   27  C   UNK     0     -27.481  10.740   9.386  0.00  0.00    -0.027 A 
HETATM   28  C   UNK     0     -28.193   7.281  10.461  0.00  0.00     0.115 C 
HETATM   29  H   UNK     0     -25.456   6.325  10.984  0.00  0.00     0.165 HD
HETATM   30  H   UNK     0     -24.207   8.578  13.193  0.00  0.00     0.165 HD
HETATM   31  H   UNK     0     -24.342  10.159  11.565  0.00  0.00     0.165 HD
HETATM   32  H   UNK     0     -25.563   8.018   9.356  0.00  0.00     0.165 HD
ENDROOT
BRANCH   6  33
HETATM   33  C   UNK     0     -27.433   6.018  15.292  0.00  0.00     0.051 C 
BRANCH  33  34
HETATM   34  C   UNK     0     -28.239   4.758  15.497  0.00  0.00     0.114 C 
BRANCH  34  35
HETATM   35  C   UNK     0     -28.067   4.343  16.918  0.00  0.00     0.139 C 
HETATM   36  O   UNK     0     -27.531   5.131  17.752  0.00  0.00    -0.650 OA
BRANCH  35  37
HETATM   37  O   UNK     0     -28.476   3.102  17.392  0.00  0.00    -0.776 OA
HETATM   38  H   UNK     0     -29.069   3.007  18.200  0.00  0.00     0.167 HD
ENDBRANCH  35  37
ENDBRANCH  34  35
ENDBRANCH  33  34
ENDBRANCH   6  33
BRANCH  27  39
HETATM   39  C   UNK     0     -27.922  12.139   9.131  0.00  0.00     0.051 C 
BRANCH  39  40
HETATM   40  C   UNK     0     -27.505  13.180  10.070  0.00  0.00     0.114 C 
BRANCH  40  41
HETATM   41  C   UNK     0     -27.081  12.877  11.418  0.00  0.00     0.139 C 
HETATM   42  O   UNK     0     -27.853  12.496  12.308  0.00  0.00    -0.650 OA
BRANCH  41  43
HETATM   43  O   UNK     0     -25.706  13.020  11.758  0.00  0.00    -0.776 OA
HETATM   44  H   UNK     0     -25.114  13.321  10.993  0.00  0.00     0.167 HD
ENDBRANCH  41  43
ENDBRANCH  40  41
ENDBRANCH  39  40
ENDBRANCH  27  39
BRANCH  11  45
HETATM   45  C   UNK     0     -19.883   6.741  12.536  0.00  0.00     0.051 C 
BRANCH  45  46
HETATM   46  C   UNK     0     -19.591   6.385  11.124  0.00  0.00     0.114 C 
BRANCH  46  47
HETATM   47  C   UNK     0     -18.701   5.188  11.146  0.00  0.00     0.139 C 
HETATM   48  O   UNK     0     -17.740   5.179  11.928  0.00  0.00    -0.650 OA
BRANCH  47  49
HETATM   49  O   UNK     0     -18.940   4.120  10.319  0.00  0.00    -0.776 OA
HETATM   50  H   UNK     0     -19.717   3.469  10.479  0.00  0.00     0.167 HD
ENDBRANCH  47  49
ENDBRANCH  46  47
ENDBRANCH  45  46
ENDBRANCH  11  45
BRANCH  18  51
HETATM   51  C   UNK     0     -22.188  10.896   7.418  0.00  0.00     0.051 C 
BRANCH  51  52
HETATM   52  C   UNK     0     -22.089  12.413   7.368  0.00  0.00     0.114 C 
BRANCH  52  53
HETATM   53  C   UNK     0     -21.116  12.868   6.356  0.00  0.00     0.139 C 
HETATM   54  O   UNK     0     -20.815  14.070   6.278  0.00  0.00    -0.650 OA
BRANCH  53  55
HETATM   55  O   UNK     0     -20.550  11.955   5.500  0.00  0.00    -0.776 OA
HETATM   56  H   UNK     0     -20.854  11.020   5.359  0.00  0.00     0.167 HD
ENDBRANCH  53  55
ENDBRANCH  52  53
ENDBRANCH  51  52
ENDBRANCH  18  51
TORSDOF 16
ENDMDL
MODEL 19
REMARK VINA RESULT:      -7.5      9.719     15.250
REMARK  16 active torsions:
REMARK  status: ('A' for Active; 'I' for Inactive)
REMARK    1  A    between atoms: C_6  and  C_7 
REMARK    2  A    between atoms: C_7  and  C_8 
REMARK    3  A    between atoms: C_8  and  C_9 
REMARK    4  A    between atoms: C_9  and  O_11 
REMARK    5  A    between atoms: C_16  and  C_17 
REMARK    6  A    between atoms: C_17  and  C_18 
REMARK    7  A    between atoms: C_18  and  C_19 
REMARK    8  A    between atoms: C_19  and  O_21 
REMARK    9  A    between atoms: C_28  and  C_29 
REMARK   10  A    between atoms: C_29  and  C_30 
REMARK   11  A    between atoms: C_30  and  C_31 
REMARK   12  A    between atoms: C_31  and  O_33 
REMARK   13  A    between atoms: C_42  and  C_43 
REMARK   14  A    between atoms: C_43  and  C_44 
REMARK   15  A    between atoms: C_44  and  C_45 
REMARK   16  A    between atoms: C_45  and  O_47 
ROOT
HETATM    1  C   UNK     0     -27.768 -28.416   7.071  0.00  0.00     0.051 C 
HETATM    2  C   UNK     0     -26.829 -27.899   8.142  0.00  0.00    -0.031 A 
HETATM    3  C   UNK     0     -25.471 -27.633   8.067  0.00  0.00     0.021 A 
HETATM    4  N   UNK     0     -25.036 -27.215   9.279  0.00  0.00    -0.361 N 
HETATM    5  C   UNK     0     -26.089 -27.201  10.122  0.00  0.00     0.022 A 
HETATM    6  C   UNK     0     -27.226 -27.625   9.444  0.00  0.00    -0.027 A 
HETATM    7  C   UNK     0     -26.165 -26.732  11.542  0.00  0.00     0.115 C 
HETATM    8  C   UNK     0     -25.439 -25.440  11.874  0.00  0.00     0.021 A 
HETATM    9  N   UNK     0     -25.291 -24.345  11.112  0.00  0.00    -0.361 N 
HETATM   10  C   UNK     0     -24.496 -23.478  11.774  0.00  0.00     0.022 A 
HETATM   11  C   UNK     0     -24.129 -24.026  13.000  0.00  0.00    -0.027 A 
HETATM   12  C   UNK     0     -24.721 -25.262  13.069  0.00  0.00    -0.031 A 
HETATM   13  C   UNK     0     -24.604 -26.222  14.231  0.00  0.00     0.051 C 
HETATM   14  C   UNK     0     -24.008 -22.128  11.257  0.00  0.00     0.115 C 
HETATM   15  C   UNK     0     -23.171 -22.219   9.991  0.00  0.00     0.021 A 
HETATM   16  N   UNK     0     -23.531 -22.742   8.804  0.00  0.00    -0.361 N 
HETATM   17  C   UNK     0     -22.490 -22.695   7.970  0.00  0.00     0.022 A 
HETATM   18  C   UNK     0     -21.402 -22.104   8.643  0.00  0.00    -0.027 A 
HETATM   19  C   UNK     0     -21.842 -21.809   9.907  0.00  0.00    -0.031 A 
HETATM   20  C   UNK     0     -20.989 -21.124  10.959  0.00  0.00     0.051 C 
HETATM   21  C   UNK     0     -22.352 -23.214   6.557  0.00  0.00     0.115 C 
HETATM   22  C   UNK     0     -23.104 -24.475   6.201  0.00  0.00     0.022 A 
HETATM   23  N   UNK     0     -23.271 -25.579   6.942  0.00  0.00    -0.361 N 
HETATM   24  C   UNK     0     -24.129 -26.395   6.297  0.00  0.00     0.021 A 
HETATM   25  C   UNK     0     -24.516 -25.808   5.108  0.00  0.00    -0.031 A 
HETATM   26  C   UNK     0     -25.429 -26.351   4.029  0.00  0.00     0.051 C 
HETATM   27  C   UNK     0     -23.872 -24.578   5.024  0.00  0.00    -0.027 A 
HETATM   28  C   UNK     0     -24.696 -27.718   6.783  0.00  0.00     0.115 C 
HETATM   29  H   UNK     0     -23.980 -26.972   9.541  0.00  0.00     0.165 HD
HETATM   30  H   UNK     0     -25.787 -24.161  10.128  0.00  0.00     0.165 HD
HETATM   31  H   UNK     0     -24.555 -23.109   8.533  0.00  0.00     0.165 HD
HETATM   32  H   UNK     0     -22.751 -25.811   7.907  0.00  0.00     0.165 HD
ENDROOT
BRANCH   6  33
HETATM   33  C   UNK     0     -28.643 -27.791   9.934  0.00  0.00     0.051 C 
BRANCH  33  34
HETATM   34  C   UNK     0     -29.410 -26.496   9.800  0.00  0.00     0.114 C 
BRANCH  34  35
HETATM   35  C   UNK     0     -30.543 -26.744   8.863  0.00  0.00     0.139 C 
HETATM   36  O   UNK     0     -31.451 -27.572   9.167  0.00  0.00    -0.650 OA
BRANCH  35  37
HETATM   37  O   UNK     0     -30.661 -26.093   7.641  0.00  0.00    -0.776 OA
HETATM   38  H   UNK     0     -31.284 -26.419   6.920  0.00  0.00     0.167 HD
ENDBRANCH  35  37
ENDBRANCH  34  35
ENDBRANCH  33  34
ENDBRANCH   6  33
BRANCH  27  39
HETATM   39  C   UNK     0     -23.988 -23.682   3.842  0.00  0.00     0.051 C 
BRANCH  39  40
HETATM   40  C   UNK     0     -22.919 -23.709   2.843  0.00  0.00     0.114 C 
BRANCH  40  41
HETATM   41  C   UNK     0     -21.626 -23.108   3.081  0.00  0.00     0.139 C 
HETATM   42  O   UNK     0     -20.582 -23.761   3.208  0.00  0.00    -0.650 OA
BRANCH  41  43
HETATM   43  O   UNK     0     -21.531 -21.690   3.178  0.00  0.00    -0.776 OA
HETATM   44  H   UNK     0     -21.136 -21.240   2.361  0.00  0.00     0.167 HD
ENDBRANCH  41  43
ENDBRANCH  40  41
ENDBRANCH  39  40
ENDBRANCH  27  39
BRANCH  11  45
HETATM   45  C   UNK     0     -23.264 -23.429  14.076  0.00  0.00     0.051 C 
BRANCH  45  46
HETATM   46  C   UNK     0     -21.806 -23.538  13.812  0.00  0.00     0.114 C 
BRANCH  46  47
HETATM   47  C   UNK     0     -21.173 -22.281  14.303  0.00  0.00     0.139 C 
HETATM   48  O   UNK     0     -19.969 -22.298  14.593  0.00  0.00    -0.650 OA
BRANCH  47  49
HETATM   49  O   UNK     0     -21.907 -21.129  14.434  0.00  0.00    -0.776 OA
HETATM   50  H   UNK     0     -22.077 -20.498  13.641  0.00  0.00     0.167 HD
ENDBRANCH  47  49
ENDBRANCH  46  47
ENDBRANCH  45  46
ENDBRANCH  11  45
BRANCH  18  51
HETATM   51  C   UNK     0     -20.025 -21.817   8.104  0.00  0.00     0.051 C 
BRANCH  51  52
HETATM   52  C   UNK     0     -20.069 -20.398   7.557  0.00  0.00     0.114 C 
BRANCH  52  53
HETATM   53  C   UNK     0     -20.360 -20.376   6.110  0.00  0.00     0.139 C 
HETATM   54  O   UNK     0     -19.543 -20.849   5.304  0.00  0.00    -0.650 OA
BRANCH  53  55
HETATM   55  O   UNK     0     -21.537 -19.827   5.662  0.00  0.00    -0.776 OA
HETATM   56  H   UNK     0     -21.808 -19.721   4.713  0.00  0.00     0.167 HD
ENDBRANCH  53  55
ENDBRANCH  52  53
ENDBRANCH  51  52
ENDBRANCH  18  51
TORSDOF 16
ENDMDL
MODEL 20
REMARK VINA RESULT:      -7.3     30.315     35.935
REMARK  16 active torsions:
REMARK  status: ('A' for Active; 'I' for Inactive)
REMARK    1  A    between atoms: C_6  and  C_7 
REMARK    2  A    between atoms: C_7  and  C_8 
REMARK    3  A    between atoms: C_8  and  C_9 
REMARK    4  A    between atoms: C_9  and  O_11 
REMARK    5  A    between atoms: C_16  and  C_17 
REMARK    6  A    between atoms: C_17  and  C_18 
REMARK    7  A    between atoms: C_18  and  C_19 
REMARK    8  A    between atoms: C_19  and  O_21 
REMARK    9  A    between atoms: C_28  and  C_29 
REMARK   10  A    between atoms: C_29  and  C_30 
REMARK   11  A    between atoms: C_30  and  C_31 
REMARK   12  A    between atoms: C_31  and  O_33 
REMARK   13  A    between atoms: C_42  and  C_43 
REMARK   14  A    between atoms: C_43  and  C_44 
REMARK   15  A    between atoms: C_44  and  C_45 
REMARK   16  A    between atoms: C_45  and  O_47 
ROOT
HETATM    1  C   UNK     0     -17.412   5.324  11.553  0.00  0.00     0.051 C 
HETATM    2  C   UNK     0     -17.736   6.565  10.746  0.00  0.00    -0.031 A 
HETATM    3  C   UNK     0     -18.884   6.875  10.034  0.00  0.00     0.021 A 
HETATM    4  N   UNK     0     -18.722   8.081   9.439  0.00  0.00    -0.361 N 
HETATM    5  C   UNK     0     -17.499   8.549   9.763  0.00  0.00     0.022 A 
HETATM    6  C   UNK     0     -16.854   7.624  10.577  0.00  0.00    -0.027 A 
HETATM    7  C   UNK     0     -16.868   9.868   9.443  0.00  0.00     0.115 C 
HETATM    8  C   UNK     0     -17.753  11.096   9.574  0.00  0.00     0.021 A 
HETATM    9  N   UNK     0     -18.722  11.336  10.471  0.00  0.00    -0.361 N 
HETATM   10  C   UNK     0     -19.305  12.511  10.153  0.00  0.00     0.022 A 
HETATM   11  C   UNK     0     -18.688  13.047   9.026  0.00  0.00    -0.027 A 
HETATM   12  C   UNK     0     -17.710  12.161   8.656  0.00  0.00    -0.031 A 
HETATM   13  C   UNK     0     -16.774  12.332   7.480  0.00  0.00     0.051 C 
HETATM   14  C   UNK     0     -20.496  13.148  10.864  0.00  0.00     0.115 C 
HETATM   15  C   UNK     0     -21.757  12.300  10.831  0.00  0.00     0.021 A 
HETATM   16  N   UNK     0     -21.919  11.049  11.303  0.00  0.00    -0.361 N 
HETATM   17  C   UNK     0     -23.154  10.629  11.019  0.00  0.00     0.022 A 
HETATM   18  C   UNK     0     -23.833  11.659  10.338  0.00  0.00    -0.027 A 
HETATM   19  C   UNK     0     -22.948  12.700  10.228  0.00  0.00    -0.031 A 
HETATM   20  C   UNK     0     -23.288  14.033   9.587  0.00  0.00     0.051 C 
HETATM   21  C   UNK     0     -23.804   9.287  11.265  0.00  0.00     0.115 C 
HETATM   22  C   UNK     0     -22.926   8.060  11.181  0.00  0.00     0.022 A 
HETATM   23  N   UNK     0     -21.952   7.796  10.301  0.00  0.00    -0.361 N 
HETATM   24  C   UNK     0     -21.334   6.660  10.682  0.00  0.00     0.021 A 
HETATM   25  C   UNK     0     -21.932   6.175  11.830  0.00  0.00    -0.031 A 
HETATM   26  C   UNK     0     -21.619   4.914  12.608  0.00  0.00     0.051 C 
HETATM   27  C   UNK     0     -22.954   7.054  12.168  0.00  0.00    -0.027 A 
HETATM   28  C   UNK     0     -20.113   6.010  10.055  0.00  0.00     0.115 C 
HETATM   29  H   UNK     0     -19.457   8.575   8.762  0.00  0.00     0.165 HD
HETATM   30  H   UNK     0     -18.964  10.702  11.359  0.00  0.00     0.165 HD
HETATM   31  H   UNK     0     -21.162  10.467  11.890  0.00  0.00     0.165 HD
HETATM   32  H   UNK     0     -21.718   8.387   9.377  0.00  0.00     0.165 HD
ENDROOT
BRANCH   6  33
HETATM   33  C   UNK     0     -15.480   7.668  11.197  0.00  0.00     0.051 C 
BRANCH  33  34
HETATM   34  C   UNK     0     -14.411   7.567  10.136  0.00  0.00     0.114 C 
BRANCH  34  35
HETATM   35  C   UNK     0     -14.239   6.122   9.810  0.00  0.00     0.139 C 
HETATM   36  O   UNK     0     -13.920   5.298  10.717  0.00  0.00    -0.650 OA
BRANCH  35  37
HETATM   37  O   UNK     0     -14.419   5.616   8.529  0.00  0.00    -0.776 OA
HETATM   38  H   UNK     0     -13.928   5.990   7.733  0.00  0.00     0.167 HD
ENDBRANCH  35  37
ENDBRANCH  34  35
ENDBRANCH  33  34
ENDBRANCH   6  33
BRANCH  27  39
HETATM   39  C   UNK     0     -23.875   6.825  13.314  0.00  0.00     0.051 C 
BRANCH  39  40
HETATM   40  C   UNK     0     -25.137   6.128  13.063  0.00  0.00     0.114 C 
BRANCH  40  41
HETATM   41  C   UNK     0     -25.475   5.592  11.763  0.00  0.00     0.139 C 
HETATM   42  O   UNK     0     -25.062   4.502  11.345  0.00  0.00    -0.650 OA
BRANCH  41  43
HETATM   43  O   UNK     0     -26.328   6.344  10.906  0.00  0.00    -0.776 OA
HETATM   44  H   UNK     0     -26.831   7.093  11.367  0.00  0.00     0.167 HD
ENDBRANCH  41  43
ENDBRANCH  40  41
ENDBRANCH  39  40
ENDBRANCH  27  39
BRANCH  11  45
HETATM   45  C   UNK     0     -18.989  14.338   8.313  0.00  0.00     0.051 C 
BRANCH  45  46
HETATM   46  C   UNK     0     -20.193  14.285   7.445  0.00  0.00     0.114 C 
BRANCH  46  47
HETATM   47  C   UNK     0     -19.734  13.927   6.073  0.00  0.00     0.139 C 
HETATM   48  O   UNK     0     -19.274  14.821   5.350  0.00  0.00    -0.650 OA
BRANCH  47  49
HETATM   49  O   UNK     0     -19.819  12.635   5.618  0.00  0.00    -0.776 OA
HETATM   50  H   UNK     0     -20.434  12.370   4.840  0.00  0.00     0.167 HD
ENDBRANCH  47  49
ENDBRANCH  46  47
ENDBRANCH  45  46
ENDBRANCH  11  45
BRANCH  18  51
HETATM   51  C   UNK     0     -25.254  11.659   9.839  0.00  0.00     0.051 C 
BRANCH  51  52
HETATM   52  C   UNK     0     -25.186  11.307   8.360  0.00  0.00     0.114 C 
BRANCH  52  53
HETATM   53  C   UNK     0     -25.893  10.047   8.062  0.00  0.00     0.139 C 
HETATM   54  O   UNK     0     -25.311   8.960   8.201  0.00  0.00    -0.650 OA
BRANCH  53  55
HETATM   55  O   UNK     0     -27.196  10.085   7.627  0.00  0.00    -0.776 OA
HETATM   56  H   UNK     0     -27.623   9.440   7.004  0.00  0.00     0.167 HD
ENDBRANCH  53  55
ENDBRANCH  52  53
ENDBRANCH  51  52
ENDBRANCH  18  51
TORSDOF 16
ENDMDL
