MODEL 1
REMARK VINA RESULT:      -6.7      0.000      0.000
REMARK  28 active torsions:
REMARK  status: ('A' for Active; 'I' for Inactive)
REMARK    1  A    between atoms: C_2  and  O_3 
REMARK    2  A    between atoms: C_2  and  C_4 
REMARK    3  A    between atoms: C_4  and  C_5 
REMARK    4  A    between atoms: C_5  and  C_6 
REMARK    5  A    between atoms: C_7  and  C_8 
REMARK    6  A    between atoms: C_8  and  C_9 
REMARK    7  A    between atoms: C_9  and  O_11 
REMARK    8  A    between atoms: C_28  and  C_29 
REMARK    9  A    between atoms: C_29  and  C_30 
REMARK   10  A    between atoms: C_30  and  O_32 
REMARK   11  A    between atoms: C_33  and  C_34 
REMARK   12  A    between atoms: C_34  and  C_35 
REMARK   13  A    between atoms: C_35  and  C_36 
REMARK   14  A    between atoms: C_36  and  O_38 
REMARK   15  A    between atoms: C_39  and  C_40 
REMARK   16  A    between atoms: C_40  and  C_41 
REMARK   17  A    between atoms: C_41  and  C_42 
REMARK   18  A    between atoms: C_42  and  O_44 
REMARK   19  A    between atoms: C_45  and  C_46 
REMARK   20  A    between atoms: C_46  and  C_47 
REMARK   21  A    between atoms: C_47  and  O_49 
REMARK   22  A    between atoms: C_50  and  C_51 
REMARK   23  A    between atoms: C_51  and  C_52 
REMARK   24  A    between atoms: C_52  and  O_54 
REMARK   25  A    between atoms: C_55  and  C_56 
REMARK   26  A    between atoms: C_56  and  C_57 
REMARK   27  A    between atoms: C_57  and  C_58 
REMARK   28  A    between atoms: C_58  and  O_60 
ROOT
ATOM      1  O   UNK d   0     -20.406 -22.071  55.033  0.00  0.00    -0.650 OA
ATOM      2  C   UNK d   0     -19.343 -22.501  54.531  0.00  0.00     0.139 C 
ENDROOT
BRANCH   2   3
ATOM      3  O   UNK d   0     -19.313 -22.829  53.197  0.00  0.00    -0.776 OA
ATOM      4  H   UNK d   0     -19.093 -22.128  52.487  0.00  0.00     0.167 HD
ENDBRANCH   2   3
BRANCH   2   5
ATOM      5  C   UNK d   0     -18.126 -22.655  55.377  0.00  0.00     0.115 C 
BRANCH   5   6
ATOM      6  C   UNK d   0     -17.436 -21.328  55.538  0.00  0.00     0.052 C 
BRANCH   6   7
ATOM      7  C   UNK d   0     -17.643 -20.727  56.907  0.00  0.00    -0.020 A 
ATOM      8  C   UNK d   0     -18.296 -19.634  57.209  0.00  0.00    -0.011 A 
ATOM      9  C   UNK d   0     -18.219 -19.453  58.649  0.00  0.00     0.067 A 
ATOM     10  C   UNK d   0     -18.708 -18.523  59.581  0.00  0.00     0.062 C 
ATOM     11  N   UNK d   0     -17.494 -20.478  59.144  0.00  0.00    -0.248 NA
ATOM     12  C   UNK d   0     -18.763 -18.667  60.971  0.00  0.00     0.041 A 
ATOM     13  N   UNK d   0     -17.866 -19.157  61.848  0.00  0.00    -0.355 N 
ATOM     14  C   UNK d   0     -19.946 -18.311  61.646  0.00  0.00    -0.022 A 
ATOM     15  C   UNK d   0     -18.452 -19.128  63.060  0.00  0.00     0.042 A 
ATOM     16  H   UNK d   0     -16.833 -19.497  61.618  0.00  0.00     0.166 HD
ATOM     17  C   UNK d   0     -17.961 -19.522  64.321  0.00  0.00     0.062 C 
ATOM     18  C   UNK d   0     -19.757 -18.605  62.973  0.00  0.00    -0.013 A 
ATOM     19  C   UNK d   0     -17.270 -20.657  64.662  0.00  0.00     0.067 A 
ATOM     20  N   UNK d   0     -16.817 -21.412  63.658  0.00  0.00    -0.248 NA
ATOM     21  C   UNK d   0     -16.883 -21.312  65.900  0.00  0.00    -0.011 A 
ATOM     22  C   UNK d   0     -16.162 -22.515  64.151  0.00  0.00     0.066 A 
ATOM     23  C   UNK d   0     -15.605 -23.371  63.212  0.00  0.00     0.062 C 
ATOM     24  C   UNK d   0     -16.238 -22.401  65.594  0.00  0.00    -0.020 A 
ATOM     25  C   UNK d   0     -15.549 -23.202  61.820  0.00  0.00     0.041 A 
ATOM     26  N   UNK d   0     -16.446 -22.729  60.946  0.00  0.00    -0.355 N 
ATOM     27  C   UNK d   0     -14.361 -23.555  61.144  0.00  0.00    -0.022 A 
ATOM     28  C   UNK d   0     -15.868 -22.765  59.735  0.00  0.00     0.042 A 
ATOM     29  H   UNK d   0     -17.488 -22.397  61.177  0.00  0.00     0.166 HD
ATOM     30  C   UNK d   0     -16.347 -22.385  58.472  0.00  0.00     0.062 C 
ATOM     31  C   UNK d   0     -14.553 -23.281  59.825  0.00  0.00    -0.013 A 
ATOM     32  C   UNK d   0     -17.118 -21.281  58.147  0.00  0.00     0.066 A 
BRANCH   8  33
ATOM     33  C   UNK d   0     -18.990 -18.730  56.273  0.00  0.00     0.151 C 
BRANCH  33  34
ATOM     34  C   UNK d   0     -20.442 -18.663  56.515  0.00  0.00     0.143 C 
ATOM     35  O   UNK d   0     -20.966 -17.634  56.964  0.00  0.00    -0.650 OA
BRANCH  34  36
ATOM     36  O   UNK d   0     -21.224 -19.761  56.238  0.00  0.00    -0.776 OA
ATOM     37  H   UNK d   0     -21.272 -20.158  55.290  0.00  0.00     0.167 HD
ENDBRANCH  34  36
ENDBRANCH  33  34
ENDBRANCH   8  33
BRANCH  31  38
ATOM     38  C   UNK d   0     -13.547 -23.484  58.717  0.00  0.00     0.151 C 
BRANCH  38  39
ATOM     39  C   UNK d   0     -13.682 -24.768  58.063  0.00  0.00     0.143 C 
ATOM     40  O   UNK d   0     -13.317 -24.959  56.890  0.00  0.00    -0.650 OA
BRANCH  39  41
ATOM     41  O   UNK d   0     -14.239 -25.838  58.762  0.00  0.00    -0.776 OA
ATOM     42  H   UNK d   0     -13.710 -26.716  58.761  0.00  0.00     0.167 HD
ENDBRANCH  39  41
ENDBRANCH  38  39
ENDBRANCH  31  38
BRANCH  27  43
ATOM     43  C   UNK d   0     -13.080 -24.132  61.695  0.00  0.00     0.052 C 
BRANCH  43  44
ATOM     44  C   UNK d   0     -12.116 -23.090  62.162  0.00  0.00     0.115 C 
BRANCH  44  45
ATOM     45  C   UNK d   0     -10.873 -23.276  61.367  0.00  0.00     0.139 C 
ATOM     46  O   UNK d   0     -10.787 -24.292  60.634  0.00  0.00    -0.650 OA
BRANCH  45  47
ATOM     47  O   UNK d   0      -9.825 -22.383  61.400  0.00  0.00    -0.776 OA
ATOM     48  H   UNK d   0      -9.439 -22.004  62.280  0.00  0.00     0.167 HD
ENDBRANCH  45  47
ENDBRANCH  44  45
ENDBRANCH  43  44
ENDBRANCH  27  43
BRANCH  24  49
ATOM     49  C   UNK d   0     -15.633 -23.348  66.545  0.00  0.00     0.052 C 
BRANCH  49  50
ATOM     50  C   UNK d   0     -14.133 -23.210  66.541  0.00  0.00     0.115 C 
BRANCH  50  51
ATOM     51  C   UNK d   0     -13.363 -24.332  66.022  0.00  0.00     0.139 C 
ATOM     52  O   UNK d   0     -13.753 -25.520  66.114  0.00  0.00    -0.650 OA
BRANCH  51  53
ATOM     53  O   UNK d   0     -12.146 -24.101  65.399  0.00  0.00    -0.776 OA
ATOM     54  H   UNK d   0     -11.326 -24.015  65.975  0.00  0.00     0.167 HD
ENDBRANCH  51  53
ENDBRANCH  50  51
ENDBRANCH  49  50
ENDBRANCH  24  49
BRANCH  21  55
ATOM     55  C   UNK d   0     -17.193 -20.779  67.259  0.00  0.00     0.151 C 
BRANCH  55  56
ATOM     56  C   UNK d   0     -16.201 -19.787  67.703  0.00  0.00     0.143 C 
ATOM     57  O   UNK d   0     -16.272 -18.580  67.400  0.00  0.00    -0.650 OA
BRANCH  56  58
ATOM     58  O   UNK d   0     -15.145 -20.235  68.494  0.00  0.00    -0.776 OA
ATOM     59  H   UNK d   0     -15.161 -21.248  68.711  0.00  0.00     0.167 HD
ENDBRANCH  56  58
ENDBRANCH  55  56
ENDBRANCH  21  55
BRANCH  18  60
ATOM     60  C   UNK d   0     -20.780 -18.389  64.060  0.00  0.00     0.151 C 
BRANCH  60  61
ATOM     61  C   UNK d   0     -20.630 -16.988  64.484  0.00  0.00     0.143 C 
ATOM     62  O   UNK d   0     -19.634 -16.468  64.988  0.00  0.00    -0.650 OA
BRANCH  61  63
ATOM     63  O   UNK d   0     -21.768 -16.171  64.278  0.00  0.00    -0.776 OA
ATOM     64  H   UNK d   0     -22.511 -16.138  64.953  0.00  0.00     0.167 HD
ENDBRANCH  61  63
ENDBRANCH  60  61
ENDBRANCH  18  60
BRANCH  14  65
ATOM     65  C   UNK d   0     -21.190 -17.631  61.151  0.00  0.00     0.052 C 
BRANCH  65  66
ATOM     66  C   UNK d   0     -20.986 -16.187  60.857  0.00  0.00     0.115 C 
BRANCH  66  67
ATOM     67  C   UNK d   0     -22.124 -15.327  60.692  0.00  0.00     0.139 C 
ATOM     68  O   UNK d   0     -22.999 -15.279  61.633  0.00  0.00    -0.650 OA
BRANCH  67  69
ATOM     69  O   UNK d   0     -22.421 -14.503  59.606  0.00  0.00    -0.776 OA
ATOM     70  H   UNK d   0     -23.324 -14.680  59.144  0.00  0.00     0.167 HD
ENDBRANCH  67  69
ENDBRANCH  66  67
ENDBRANCH  65  66
ENDBRANCH  14  65
ENDBRANCH   6   7
ENDBRANCH   5   6
ENDBRANCH   2   5
TORSDOF 28
ENDMDL
MODEL 2
REMARK VINA RESULT:      -6.7     15.014     22.529
REMARK  28 active torsions:
REMARK  status: ('A' for Active; 'I' for Inactive)
REMARK    1  A    between atoms: C_2  and  O_3 
REMARK    2  A    between atoms: C_2  and  C_4 
REMARK    3  A    between atoms: C_4  and  C_5 
REMARK    4  A    between atoms: C_5  and  C_6 
REMARK    5  A    between atoms: C_7  and  C_8 
REMARK    6  A    between atoms: C_8  and  C_9 
REMARK    7  A    between atoms: C_9  and  O_11 
REMARK    8  A    between atoms: C_28  and  C_29 
REMARK    9  A    between atoms: C_29  and  C_30 
REMARK   10  A    between atoms: C_30  and  O_32 
REMARK   11  A    between atoms: C_33  and  C_34 
REMARK   12  A    between atoms: C_34  and  C_35 
REMARK   13  A    between atoms: C_35  and  C_36 
REMARK   14  A    between atoms: C_36  and  O_38 
REMARK   15  A    between atoms: C_39  and  C_40 
REMARK   16  A    between atoms: C_40  and  C_41 
REMARK   17  A    between atoms: C_41  and  C_42 
REMARK   18  A    between atoms: C_42  and  O_44 
REMARK   19  A    between atoms: C_45  and  C_46 
REMARK   20  A    between atoms: C_46  and  C_47 
REMARK   21  A    between atoms: C_47  and  O_49 
REMARK   22  A    between atoms: C_50  and  C_51 
REMARK   23  A    between atoms: C_51  and  C_52 
REMARK   24  A    between atoms: C_52  and  O_54 
REMARK   25  A    between atoms: C_55  and  C_56 
REMARK   26  A    between atoms: C_56  and  C_57 
REMARK   27  A    between atoms: C_57  and  C_58 
REMARK   28  A    between atoms: C_58  and  O_60 
ROOT
ATOM      1  O   UNK d   0      -9.989 -34.492  54.312  0.00  0.00    -0.650 OA
ATOM      2  C   UNK d   0      -9.986 -33.278  54.615  0.00  0.00     0.139 C 
ENDROOT
BRANCH   2   3
ATOM      3  O   UNK d   0      -9.948 -32.914  55.940  0.00  0.00    -0.776 OA
ATOM      4  H   UNK d   0     -10.769 -33.018  56.539  0.00  0.00     0.167 HD
ENDBRANCH   2   3
BRANCH   2   5
ATOM      5  C   UNK d   0     -10.025 -32.240  53.546  0.00  0.00     0.115 C 
BRANCH   5   6
ATOM      6  C   UNK d   0      -8.632 -31.953  53.053  0.00  0.00     0.052 C 
BRANCH   6   7
ATOM      7  C   UNK d   0      -8.388 -32.486  51.661  0.00  0.00    -0.020 A 
ATOM      8  C   UNK d   0      -7.512 -33.387  51.294  0.00  0.00    -0.011 A 
ATOM      9  C   UNK d   0      -7.638 -33.570  49.858  0.00  0.00     0.067 A 
ATOM     10  C   UNK d   0      -7.030 -34.376  48.882  0.00  0.00     0.062 C 
ATOM     11  N   UNK d   0      -8.610 -32.737  49.431  0.00  0.00    -0.248 NA
ATOM     12  C   UNK d   0      -7.480 -34.614  47.579  0.00  0.00     0.041 A 
ATOM     13  N   UNK d   0      -7.991 -33.781  46.652  0.00  0.00    -0.355 N 
ATOM     14  C   UNK d   0      -7.483 -35.933  47.091  0.00  0.00    -0.022 A 
ATOM     15  C   UNK d   0      -8.326 -34.540  45.591  0.00  0.00     0.042 A 
ATOM     16  H   UNK d   0      -8.095 -32.677  46.738  0.00  0.00     0.166 HD
ATOM     17  C   UNK d   0      -8.897 -34.179  44.354  0.00  0.00     0.062 C 
ATOM     18  C   UNK d   0      -8.022 -35.894  45.829  0.00  0.00    -0.013 A 
ATOM     19  C   UNK d   0      -9.946 -33.332  44.103  0.00  0.00     0.067 A 
ATOM     20  N   UNK d   0     -10.378 -32.586  45.123  0.00  0.00    -0.248 NA
ATOM     21  C   UNK d   0     -10.781 -33.015  42.956  0.00  0.00    -0.011 A 
ATOM     22  C   UNK d   0     -11.436 -31.804  44.726  0.00  0.00     0.066 A 
ATOM     23  C   UNK d   0     -11.961 -30.947  45.682  0.00  0.00     0.062 C 
ATOM     24  C   UNK d   0     -11.653 -32.123  43.329  0.00  0.00    -0.020 A 
ATOM     25  C   UNK d   0     -11.486 -30.713  46.982  0.00  0.00     0.041 A 
ATOM     26  N   UNK d   0     -10.992 -31.542  47.909  0.00  0.00    -0.355 N 
ATOM     27  C   UNK d   0     -11.479 -29.388  47.470  0.00  0.00    -0.022 A 
ATOM     28  C   UNK d   0     -10.665 -30.790  48.971  0.00  0.00     0.042 A 
ATOM     29  H   UNK d   0     -10.898 -32.653  47.825  0.00  0.00     0.166 HD
ATOM     30  C   UNK d   0     -10.105 -31.136  50.211  0.00  0.00     0.062 C 
ATOM     31  C   UNK d   0     -10.961 -29.427  48.727  0.00  0.00    -0.013 A 
ATOM     32  C   UNK d   0      -9.102 -32.057  50.468  0.00  0.00     0.066 A 
BRANCH   8  33
ATOM     33  C   UNK d   0      -6.556 -34.097  52.163  0.00  0.00     0.151 C 
BRANCH  33  34
ATOM     34  C   UNK d   0      -6.818 -35.546  52.235  0.00  0.00     0.143 C 
ATOM     35  O   UNK d   0      -6.070 -36.357  51.671  0.00  0.00    -0.650 OA
BRANCH  34  36
ATOM     36  O   UNK d   0      -7.910 -36.001  52.937  0.00  0.00    -0.776 OA
ATOM     37  H   UNK d   0      -8.767 -35.436  53.017  0.00  0.00     0.167 HD
ENDBRANCH  34  36
ENDBRANCH  33  34
ENDBRANCH   8  33
BRANCH  31  38
ATOM     38  C   UNK d   0     -10.745 -28.243  49.640  0.00  0.00     0.151 C 
BRANCH  38  39
ATOM     39  C   UNK d   0     -11.979 -27.736  50.203  0.00  0.00     0.143 C 
ATOM     40  O   UNK d   0     -12.838 -28.483  50.704  0.00  0.00    -0.650 OA
BRANCH  39  41
ATOM     41  O   UNK d   0     -12.225 -26.364  50.192  0.00  0.00    -0.776 OA
ATOM     42  H   UNK d   0     -11.742 -25.814  49.474  0.00  0.00     0.167 HD
ENDBRANCH  39  41
ENDBRANCH  38  39
ENDBRANCH  31  38
BRANCH  27  43
ATOM     43  C   UNK d   0     -11.939 -28.118  46.799  0.00  0.00     0.052 C 
BRANCH  43  44
ATOM     44  C   UNK d   0     -10.856 -27.429  46.034  0.00  0.00     0.115 C 
BRANCH  44  45
ATOM     45  C   UNK d   0     -10.740 -26.060  46.602  0.00  0.00     0.139 C 
ATOM     46  O   UNK d   0     -11.651 -25.657  47.366  0.00  0.00    -0.650 OA
BRANCH  45  47
ATOM     47  O   UNK d   0      -9.677 -25.226  46.330  0.00  0.00    -0.776 OA
ATOM     48  H   UNK d   0      -9.506 -24.349  46.847  0.00  0.00     0.167 HD
ENDBRANCH  45  47
ENDBRANCH  44  45
ENDBRANCH  43  44
ENDBRANCH  27  43
BRANCH  24  49
ATOM     49  C   UNK d   0     -12.670 -31.491  42.470  0.00  0.00     0.052 C 
BRANCH  49  50
ATOM     50  C   UNK d   0     -12.243 -30.096  42.092  0.00  0.00     0.115 C 
BRANCH  50  51
ATOM     51  C   UNK d   0     -13.199 -29.022  42.329  0.00  0.00     0.139 C 
ATOM     52  O   UNK d   0     -14.161 -28.791  41.560  0.00  0.00    -0.650 OA
BRANCH  51  53
ATOM     53  O   UNK d   0     -13.055 -28.209  43.443  0.00  0.00    -0.776 OA
ATOM     54  H   UNK d   0     -12.369 -27.475  43.410  0.00  0.00     0.167 HD
ENDBRANCH  51  53
ENDBRANCH  50  51
ENDBRANCH  49  50
ENDBRANCH  24  49
BRANCH  21  55
ATOM     55  C   UNK d   0     -10.616 -33.632  41.607  0.00  0.00     0.151 C 
BRANCH  55  56
ATOM     56  C   UNK d   0      -9.562 -32.971  40.823  0.00  0.00     0.143 C 
ATOM     57  O   UNK d   0      -9.728 -31.872  40.259  0.00  0.00    -0.650 OA
BRANCH  56  58
ATOM     58  O   UNK d   0      -8.330 -33.616  40.718  0.00  0.00    -0.776 OA
ATOM     59  H   UNK d   0      -7.513 -33.045  40.998  0.00  0.00     0.167 HD
ENDBRANCH  56  58
ENDBRANCH  55  56
ENDBRANCH  21  55
BRANCH  18  60
ATOM     60  C   UNK d   0      -8.223 -37.095  44.938  0.00  0.00     0.151 C 
BRANCH  60  61
ATOM     61  C   UNK d   0      -7.188 -37.003  43.897  0.00  0.00     0.143 C 
ATOM     62  O   UNK d   0      -7.361 -36.976  42.678  0.00  0.00    -0.650 OA
BRANCH  61  63
ATOM     63  O   UNK d   0      -5.857 -36.939  44.376  0.00  0.00    -0.776 OA
ATOM     64  H   UNK d   0      -5.435 -36.060  44.618  0.00  0.00     0.167 HD
ENDBRANCH  61  63
ENDBRANCH  60  61
ENDBRANCH  18  60
BRANCH  14  65
ATOM     65  C   UNK d   0      -6.930 -37.199  47.681  0.00  0.00     0.052 C 
BRANCH  65  66
ATOM     66  C   UNK d   0      -5.548 -37.040  48.208  0.00  0.00     0.115 C 
BRANCH  66  67
ATOM     67  C   UNK d   0      -4.875 -38.165  48.792  0.00  0.00     0.139 C 
ATOM     68  O   UNK d   0      -4.959 -39.305  48.202  0.00  0.00    -0.650 OA
BRANCH  67  69
ATOM     69  O   UNK d   0      -4.112 -38.192  49.959  0.00  0.00    -0.776 OA
ATOM     70  H   UNK d   0      -3.970 -39.122  50.380  0.00  0.00     0.167 HD
ENDBRANCH  67  69
ENDBRANCH  66  67
ENDBRANCH  65  66
ENDBRANCH  14  65
ENDBRANCH   6   7
ENDBRANCH   5   6
ENDBRANCH   2   5
TORSDOF 28
ENDMDL
MODEL 3
REMARK VINA RESULT:      -6.6     15.106     21.389
REMARK  28 active torsions:
REMARK  status: ('A' for Active; 'I' for Inactive)
REMARK    1  A    between atoms: C_2  and  O_3 
REMARK    2  A    between atoms: C_2  and  C_4 
REMARK    3  A    between atoms: C_4  and  C_5 
REMARK    4  A    between atoms: C_5  and  C_6 
REMARK    5  A    between atoms: C_7  and  C_8 
REMARK    6  A    between atoms: C_8  and  C_9 
REMARK    7  A    between atoms: C_9  and  O_11 
REMARK    8  A    between atoms: C_28  and  C_29 
REMARK    9  A    between atoms: C_29  and  C_30 
REMARK   10  A    between atoms: C_30  and  O_32 
REMARK   11  A    between atoms: C_33  and  C_34 
REMARK   12  A    between atoms: C_34  and  C_35 
REMARK   13  A    between atoms: C_35  and  C_36 
REMARK   14  A    between atoms: C_36  and  O_38 
REMARK   15  A    between atoms: C_39  and  C_40 
REMARK   16  A    between atoms: C_40  and  C_41 
REMARK   17  A    between atoms: C_41  and  C_42 
REMARK   18  A    between atoms: C_42  and  O_44 
REMARK   19  A    between atoms: C_45  and  C_46 
REMARK   20  A    between atoms: C_46  and  C_47 
REMARK   21  A    between atoms: C_47  and  O_49 
REMARK   22  A    between atoms: C_50  and  C_51 
REMARK   23  A    between atoms: C_51  and  C_52 
REMARK   24  A    between atoms: C_52  and  O_54 
REMARK   25  A    between atoms: C_55  and  C_56 
REMARK   26  A    between atoms: C_56  and  C_57 
REMARK   27  A    between atoms: C_57  and  C_58 
REMARK   28  A    between atoms: C_58  and  O_60 
ROOT
ATOM      1  O   UNK d   0     -11.248 -33.002  53.589  0.00  0.00    -0.650 OA
ATOM      2  C   UNK d   0     -10.425 -32.079  53.773  0.00  0.00     0.139 C 
ENDROOT
BRANCH   2   3
ATOM      3  O   UNK d   0      -9.124 -32.389  54.090  0.00  0.00    -0.776 OA
ATOM      4  H   UNK d   0      -8.767 -33.340  53.977  0.00  0.00     0.167 HD
ENDBRANCH   2   3
BRANCH   2   5
ATOM      5  C   UNK d   0     -10.855 -30.657  53.651  0.00  0.00     0.115 C 
BRANCH   5   6
ATOM      6  C   UNK d   0     -10.097 -29.981  52.540  0.00  0.00     0.052 C 
BRANCH   6   7
ATOM      7  C   UNK d   0     -10.403 -30.572  51.185  0.00  0.00    -0.020 A 
ATOM      8  C   UNK d   0     -11.508 -30.455  50.494  0.00  0.00    -0.011 A 
ATOM      9  C   UNK d   0     -11.341 -31.201  49.258  0.00  0.00     0.067 A 
ATOM     10  C   UNK d   0     -12.115 -31.452  48.114  0.00  0.00     0.062 C 
ATOM     11  N   UNK d   0     -10.106 -31.745  49.282  0.00  0.00    -0.248 NA
ATOM     12  C   UNK d   0     -11.676 -31.971  46.891  0.00  0.00     0.041 A 
ATOM     13  N   UNK d   0     -10.832 -32.980  46.608  0.00  0.00    -0.355 N 
ATOM     14  C   UNK d   0     -12.101 -31.356  45.699  0.00  0.00    -0.022 A 
ATOM     15  C   UNK d   0     -10.703 -33.017  45.269  0.00  0.00     0.042 A 
ATOM     16  H   UNK d   0     -10.351 -33.666  47.340  0.00  0.00     0.166 HD
ATOM     17  C   UNK d   0      -9.945 -33.874  44.447  0.00  0.00     0.062 C 
ATOM     18  C   UNK d   0     -11.484 -32.013  44.664  0.00  0.00    -0.013 A 
ATOM     19  C   UNK d   0      -8.648 -34.292  44.600  0.00  0.00     0.067 A 
ATOM     20  N   UNK d   0      -8.062 -34.028  45.771  0.00  0.00    -0.248 NA
ATOM     21  C   UNK d   0      -7.666 -34.977  43.776  0.00  0.00    -0.011 A 
ATOM     22  C   UNK d   0      -6.768 -34.489  45.772  0.00  0.00     0.066 A 
ATOM     23  C   UNK d   0      -6.052 -34.313  46.946  0.00  0.00     0.062 C 
ATOM     24  C   UNK d   0      -6.567 -35.086  44.466  0.00  0.00    -0.020 A 
ATOM     25  C   UNK d   0      -6.515 -33.801  48.168  0.00  0.00     0.041 A 
ATOM     26  N   UNK d   0      -7.343 -32.788  48.450  0.00  0.00    -0.355 N 
ATOM     27  C   UNK d   0      -6.092 -34.422  49.364  0.00  0.00    -0.022 A 
ATOM     28  C   UNK d   0      -7.466 -32.744  49.786  0.00  0.00     0.042 A 
ATOM     29  H   UNK d   0      -7.817 -32.093  47.714  0.00  0.00     0.166 HD
ATOM     30  C   UNK d   0      -8.209 -31.891  50.617  0.00  0.00     0.062 C 
ATOM     31  C   UNK d   0      -6.689 -33.760  50.392  0.00  0.00    -0.013 A 
ATOM     32  C   UNK d   0      -9.490 -31.403  50.414  0.00  0.00     0.066 A 
BRANCH   8  33
ATOM     33  C   UNK d   0     -12.720 -29.710  50.882  0.00  0.00     0.151 C 
BRANCH  33  34
ATOM     34  C   UNK d   0     -12.532 -28.249  50.831  0.00  0.00     0.143 C 
ATOM     35  O   UNK d   0     -12.599 -27.562  51.860  0.00  0.00    -0.650 OA
BRANCH  34  36
ATOM     36  O   UNK d   0     -12.282 -27.642  49.622  0.00  0.00    -0.776 OA
ATOM     37  H   UNK d   0     -11.322 -27.535  49.266  0.00  0.00     0.167 HD
ENDBRANCH  34  36
ENDBRANCH  33  34
ENDBRANCH   8  33
BRANCH  31  38
ATOM     38  C   UNK d   0      -6.543 -34.079  51.862  0.00  0.00     0.151 C 
BRANCH  38  39
ATOM     39  C   UNK d   0      -7.479 -35.086  52.313  0.00  0.00     0.143 C 
ATOM     40  O   UNK d   0      -8.702 -34.873  52.388  0.00  0.00    -0.650 OA
BRANCH  39  41
ATOM     41  O   UNK d   0      -7.007 -36.346  52.680  0.00  0.00    -0.776 OA
ATOM     42  H   UNK d   0      -7.248 -36.674  53.620  0.00  0.00     0.167 HD
ENDBRANCH  39  41
ENDBRANCH  38  39
ENDBRANCH  31  38
BRANCH  27  43
ATOM     43  C   UNK d   0      -5.160 -35.592  49.558  0.00  0.00     0.052 C 
BRANCH  43  44
ATOM     44  C   UNK d   0      -5.843 -36.916  49.440  0.00  0.00     0.115 C 
BRANCH  44  45
ATOM     45  C   UNK d   0      -4.985 -37.901  50.150  0.00  0.00     0.139 C 
ATOM     46  O   UNK d   0      -5.234 -38.140  51.358  0.00  0.00    -0.650 OA
BRANCH  45  47
ATOM     47  O   UNK d   0      -3.940 -38.559  49.539  0.00  0.00    -0.776 OA
ATOM     48  H   UNK d   0      -3.037 -38.735  50.009  0.00  0.00     0.167 HD
ENDBRANCH  45  47
ENDBRANCH  44  45
ENDBRANCH  43  44
ENDBRANCH  27  43
BRANCH  24  49
ATOM     49  C   UNK d   0      -5.328 -35.749  44.026  0.00  0.00     0.052 C 
BRANCH  49  50
ATOM     50  C   UNK d   0      -4.884 -36.762  45.050  0.00  0.00     0.115 C 
BRANCH  50  51
ATOM     51  C   UNK d   0      -5.608 -38.025  45.093  0.00  0.00     0.139 C 
ATOM     52  O   UNK d   0      -6.070 -38.505  46.156  0.00  0.00    -0.650 OA
BRANCH  51  53
ATOM     53  O   UNK d   0      -5.805 -38.744  43.924  0.00  0.00    -0.776 OA
ATOM     54  H   UNK d   0      -5.543 -39.714  43.912  0.00  0.00     0.167 HD
ENDBRANCH  51  53
ENDBRANCH  50  51
ENDBRANCH  49  50
ENDBRANCH  24  49
BRANCH  21  55
ATOM     55  C   UNK d   0      -7.930 -35.456  42.387  0.00  0.00     0.151 C 
BRANCH  55  56
ATOM     56  C   UNK d   0      -8.550 -36.790  42.372  0.00  0.00     0.143 C 
ATOM     57  O   UNK d   0      -7.885 -37.842  42.296  0.00  0.00    -0.650 OA
BRANCH  56  58
ATOM     58  O   UNK d   0      -9.940 -36.862  42.448  0.00  0.00    -0.776 OA
ATOM     59  H   UNK d   0     -10.445 -36.201  41.830  0.00  0.00     0.167 HD
ENDBRANCH  56  58
ENDBRANCH  55  56
ENDBRANCH  21  55
BRANCH  18  60
ATOM     60  C   UNK d   0     -11.651 -31.674  43.203  0.00  0.00     0.151 C 
BRANCH  60  61
ATOM     61  C   UNK d   0     -12.873 -32.365  42.766  0.00  0.00     0.143 C 
ATOM     62  O   UNK d   0     -13.104 -33.574  42.822  0.00  0.00    -0.650 OA
BRANCH  61  63
ATOM     63  O   UNK d   0     -13.879 -31.527  42.226  0.00  0.00    -0.776 OA
ATOM     64  H   UNK d   0     -14.188 -30.707  42.716  0.00  0.00     0.167 HD
ENDBRANCH  61  63
ENDBRANCH  60  61
ENDBRANCH  18  60
BRANCH  14  65
ATOM     65  C   UNK d   0     -13.111 -30.269  45.462  0.00  0.00     0.052 C 
BRANCH  65  66
ATOM     66  C   UNK d   0     -12.504 -29.012  44.949  0.00  0.00     0.115 C 
BRANCH  66  67
ATOM     67  C   UNK d   0     -11.552 -28.301  45.754  0.00  0.00     0.139 C 
ATOM     68  O   UNK d   0     -11.810 -28.131  47.002  0.00  0.00    -0.650 OA
BRANCH  67  69
ATOM     69  O   UNK d   0     -10.338 -27.747  45.350  0.00  0.00    -0.776 OA
ATOM     70  H   UNK d   0      -9.920 -28.154  44.501  0.00  0.00     0.167 HD
ENDBRANCH  67  69
ENDBRANCH  66  67
ENDBRANCH  65  66
ENDBRANCH  14  65
ENDBRANCH   6   7
ENDBRANCH   5   6
ENDBRANCH   2   5
TORSDOF 28
ENDMDL
MODEL 4
REMARK VINA RESULT:      -6.6     16.659     22.995
REMARK  28 active torsions:
REMARK  status: ('A' for Active; 'I' for Inactive)
REMARK    1  A    between atoms: C_2  and  O_3 
REMARK    2  A    between atoms: C_2  and  C_4 
REMARK    3  A    between atoms: C_4  and  C_5 
REMARK    4  A    between atoms: C_5  and  C_6 
REMARK    5  A    between atoms: C_7  and  C_8 
REMARK    6  A    between atoms: C_8  and  C_9 
REMARK    7  A    between atoms: C_9  and  O_11 
REMARK    8  A    between atoms: C_28  and  C_29 
REMARK    9  A    between atoms: C_29  and  C_30 
REMARK   10  A    between atoms: C_30  and  O_32 
REMARK   11  A    between atoms: C_33  and  C_34 
REMARK   12  A    between atoms: C_34  and  C_35 
REMARK   13  A    between atoms: C_35  and  C_36 
REMARK   14  A    between atoms: C_36  and  O_38 
REMARK   15  A    between atoms: C_39  and  C_40 
REMARK   16  A    between atoms: C_40  and  C_41 
REMARK   17  A    between atoms: C_41  and  C_42 
REMARK   18  A    between atoms: C_42  and  O_44 
REMARK   19  A    between atoms: C_45  and  C_46 
REMARK   20  A    between atoms: C_46  and  C_47 
REMARK   21  A    between atoms: C_47  and  O_49 
REMARK   22  A    between atoms: C_50  and  C_51 
REMARK   23  A    between atoms: C_51  and  C_52 
REMARK   24  A    between atoms: C_52  and  O_54 
REMARK   25  A    between atoms: C_55  and  C_56 
REMARK   26  A    between atoms: C_56  and  C_57 
REMARK   27  A    between atoms: C_57  and  C_58 
REMARK   28  A    between atoms: C_58  and  O_60 
ROOT
ATOM      1  O   UNK d   0      -7.354 -35.929  50.773  0.00  0.00    -0.650 OA
ATOM      2  C   UNK d   0      -6.552 -35.140  51.319  0.00  0.00     0.139 C 
ENDROOT
BRANCH   2   3
ATOM      3  O   UNK d   0      -6.581 -34.987  52.684  0.00  0.00    -0.776 OA
ATOM      4  H   UNK d   0      -7.327 -34.458  53.140  0.00  0.00     0.167 HD
ENDBRANCH   2   3
BRANCH   2   5
ATOM      5  C   UNK d   0      -5.577 -34.373  50.492  0.00  0.00     0.115 C 
BRANCH   5   6
ATOM      6  C   UNK d   0      -6.003 -32.933  50.392  0.00  0.00     0.052 C 
BRANCH   6   7
ATOM      7  C   UNK d   0      -7.217 -32.746  49.512  0.00  0.00    -0.020 A 
ATOM      8  C   UNK d   0      -8.354 -32.185  49.832  0.00  0.00    -0.011 A 
ATOM      9  C   UNK d   0      -9.221 -32.242  48.667  0.00  0.00     0.067 A 
ATOM     10  C   UNK d   0     -10.520 -31.814  48.348  0.00  0.00     0.062 C 
ATOM     11  N   UNK d   0      -8.532 -32.861  47.685  0.00  0.00    -0.248 NA
ATOM     12  C   UNK d   0     -11.089 -31.711  47.074  0.00  0.00     0.041 A 
ATOM     13  N   UNK d   0     -11.043 -32.539  46.013  0.00  0.00    -0.355 N 
ATOM     14  C   UNK d   0     -11.808 -30.549  46.742  0.00  0.00    -0.022 A 
ATOM     15  C   UNK d   0     -11.707 -31.929  45.014  0.00  0.00     0.042 A 
ATOM     16  H   UNK d   0     -10.567 -33.544  45.978  0.00  0.00     0.166 HD
ATOM     17  C   UNK d   0     -11.960 -32.351  43.694  0.00  0.00     0.062 C 
ATOM     18  C   UNK d   0     -12.201 -30.678  45.433  0.00  0.00    -0.013 A 
ATOM     19  C   UNK d   0     -11.103 -32.931  42.794  0.00  0.00     0.067 A 
ATOM     20  N   UNK d   0      -9.921 -33.340  43.263  0.00  0.00    -0.248 NA
ATOM     21  C   UNK d   0     -11.125 -33.228  41.372  0.00  0.00    -0.011 A 
ATOM     22  C   UNK d   0      -9.169 -33.882  42.250  0.00  0.00     0.066 A 
ATOM     23  C   UNK d   0      -7.926 -34.385  42.606  0.00  0.00     0.062 C 
ATOM     24  C   UNK d   0      -9.989 -33.781  41.058  0.00  0.00    -0.020 A 
ATOM     25  C   UNK d   0      -7.377 -34.490  43.893  0.00  0.00     0.041 A 
ATOM     26  N   UNK d   0      -7.411 -33.661  44.943  0.00  0.00    -0.355 N 
ATOM     27  C   UNK d   0      -6.660 -35.659  44.228  0.00  0.00    -0.022 A 
ATOM     28  C   UNK d   0      -6.742 -34.264  45.938  0.00  0.00     0.042 A 
ATOM     29  H   UNK d   0      -7.880 -32.647  44.974  0.00  0.00     0.166 HD
ATOM     30  C   UNK d   0      -6.474 -33.851  47.253  0.00  0.00     0.062 C 
ATOM     31  C   UNK d   0      -6.255 -35.525  45.520  0.00  0.00    -0.013 A 
ATOM     32  C   UNK d   0      -7.319 -33.189  48.130  0.00  0.00     0.066 A 
BRANCH   8  33
ATOM     33  C   UNK d   0      -8.717 -31.597  51.135  0.00  0.00     0.151 C 
BRANCH  33  34
ATOM     34  C   UNK d   0      -8.986 -32.616  52.165  0.00  0.00     0.143 C 
ATOM     35  O   UNK d   0      -9.845 -33.492  51.985  0.00  0.00    -0.650 OA
BRANCH  34  36
ATOM     36  O   UNK d   0      -8.274 -32.592  53.342  0.00  0.00    -0.776 OA
ATOM     37  H   UNK d   0      -8.748 -32.512  54.252  0.00  0.00     0.167 HD
ENDBRANCH  34  36
ENDBRANCH  33  34
ENDBRANCH   8  33
BRANCH  31  38
ATOM     38  C   UNK d   0      -5.464 -36.537  46.317  0.00  0.00     0.151 C 
BRANCH  38  39
ATOM     39  C   UNK d   0      -6.307 -37.457  47.049  0.00  0.00     0.143 C 
ATOM     40  O   UNK d   0      -6.857 -38.432  46.506  0.00  0.00    -0.650 OA
BRANCH  39  41
ATOM     41  O   UNK d   0      -6.519 -37.257  48.413  0.00  0.00    -0.776 OA
ATOM     42  H   UNK d   0      -5.720 -36.919  48.959  0.00  0.00     0.167 HD
ENDBRANCH  39  41
ENDBRANCH  38  39
ENDBRANCH  31  38
BRANCH  27  43
ATOM     43  C   UNK d   0      -6.351 -36.870  43.382  0.00  0.00     0.052 C 
BRANCH  43  44
ATOM     44  C   UNK d   0      -4.920 -36.948  42.962  0.00  0.00     0.115 C 
BRANCH  44  45
ATOM     45  C   UNK d   0      -4.837 -36.320  41.618  0.00  0.00     0.139 C 
ATOM     46  O   UNK d   0      -5.795 -36.492  40.824  0.00  0.00    -0.650 OA
BRANCH  45  47
ATOM     47  O   UNK d   0      -3.762 -35.558  41.214  0.00  0.00    -0.776 OA
ATOM     48  H   UNK d   0      -3.087 -35.144  41.877  0.00  0.00     0.167 HD
ENDBRANCH  45  47
ENDBRANCH  44  45
ENDBRANCH  43  44
ENDBRANCH  27  43
BRANCH  24  49
ATOM     49  C   UNK d   0      -9.602 -34.276  39.726  0.00  0.00     0.052 C 
BRANCH  49  50
ATOM     50  C   UNK d   0      -8.906 -33.191  38.945  0.00  0.00     0.115 C 
BRANCH  50  51
ATOM     51  C   UNK d   0      -7.538 -33.451  38.520  0.00  0.00     0.139 C 
ATOM     52  O   UNK d   0      -7.111 -33.135  37.384  0.00  0.00    -0.650 OA
BRANCH  51  53
ATOM     53  O   UNK d   0      -6.655 -34.074  39.389  0.00  0.00    -0.776 OA
ATOM     54  H   UNK d   0      -5.711 -34.226  39.080  0.00  0.00     0.167 HD
ENDBRANCH  51  53
ENDBRANCH  50  51
ENDBRANCH  49  50
ENDBRANCH  24  49
BRANCH  21  55
ATOM     55  C   UNK d   0     -12.281 -32.932  40.475  0.00  0.00     0.151 C 
BRANCH  55  56
ATOM     56  C   UNK d   0     -12.342 -31.510  40.105  0.00  0.00     0.143 C 
ATOM     57  O   UNK d   0     -11.671 -31.025  39.173  0.00  0.00    -0.650 OA
BRANCH  56  58
ATOM     58  O   UNK d   0     -13.193 -30.684  40.839  0.00  0.00    -0.776 OA
ATOM     59  H   UNK d   0     -12.806 -29.751  41.066  0.00  0.00     0.167 HD
ENDBRANCH  56  58
ENDBRANCH  55  56
ENDBRANCH  21  55
BRANCH  18  60
ATOM     60  C   UNK d   0     -12.993 -29.651  44.663  0.00  0.00     0.151 C 
BRANCH  60  61
ATOM     61  C   UNK d   0     -12.013 -28.901  43.863  0.00  0.00     0.143 C 
ATOM     62  O   UNK d   0     -11.575 -29.203  42.752  0.00  0.00    -0.650 OA
BRANCH  61  63
ATOM     63  O   UNK d   0     -11.539 -27.707  44.456  0.00  0.00    -0.776 OA
ATOM     64  H   UNK d   0     -11.858 -27.416  45.363  0.00  0.00     0.167 HD
ENDBRANCH  61  63
ENDBRANCH  60  61
ENDBRANCH  18  60
BRANCH  14  65
ATOM     65  C   UNK d   0     -12.232 -29.382  47.588  0.00  0.00     0.052 C 
BRANCH  65  66
ATOM     66  C   UNK d   0     -11.164 -28.357  47.741  0.00  0.00     0.115 C 
BRANCH  66  67
ATOM     67  C   UNK d   0     -11.522 -26.979  47.929  0.00  0.00     0.139 C 
ATOM     68  O   UNK d   0     -11.506 -26.196  46.908  0.00  0.00    -0.650 OA
BRANCH  67  69
ATOM     69  O   UNK d   0     -11.900 -26.349  49.114  0.00  0.00    -0.776 OA
ATOM     70  H   UNK d   0     -11.132 -26.109  49.758  0.00  0.00     0.167 HD
ENDBRANCH  67  69
ENDBRANCH  66  67
ENDBRANCH  65  66
ENDBRANCH  14  65
ENDBRANCH   6   7
ENDBRANCH   5   6
ENDBRANCH   2   5
TORSDOF 28
ENDMDL
MODEL 5
REMARK VINA RESULT:      -6.5     15.380     22.665
REMARK  28 active torsions:
REMARK  status: ('A' for Active; 'I' for Inactive)
REMARK    1  A    between atoms: C_2  and  O_3 
REMARK    2  A    between atoms: C_2  and  C_4 
REMARK    3  A    between atoms: C_4  and  C_5 
REMARK    4  A    between atoms: C_5  and  C_6 
REMARK    5  A    between atoms: C_7  and  C_8 
REMARK    6  A    between atoms: C_8  and  C_9 
REMARK    7  A    between atoms: C_9  and  O_11 
REMARK    8  A    between atoms: C_28  and  C_29 
REMARK    9  A    between atoms: C_29  and  C_30 
REMARK   10  A    between atoms: C_30  and  O_32 
REMARK   11  A    between atoms: C_33  and  C_34 
REMARK   12  A    between atoms: C_34  and  C_35 
REMARK   13  A    between atoms: C_35  and  C_36 
REMARK   14  A    between atoms: C_36  and  O_38 
REMARK   15  A    between atoms: C_39  and  C_40 
REMARK   16  A    between atoms: C_40  and  C_41 
REMARK   17  A    between atoms: C_41  and  C_42 
REMARK   18  A    between atoms: C_42  and  O_44 
REMARK   19  A    between atoms: C_45  and  C_46 
REMARK   20  A    between atoms: C_46  and  C_47 
REMARK   21  A    between atoms: C_47  and  O_49 
REMARK   22  A    between atoms: C_50  and  C_51 
REMARK   23  A    between atoms: C_51  and  C_52 
REMARK   24  A    between atoms: C_52  and  O_54 
REMARK   25  A    between atoms: C_55  and  C_56 
REMARK   26  A    between atoms: C_56  and  C_57 
REMARK   27  A    between atoms: C_57  and  C_58 
REMARK   28  A    between atoms: C_58  and  O_60 
ROOT
ATOM      1  O   UNK d   0     -11.837 -26.874  50.683  0.00  0.00    -0.650 OA
ATOM      2  C   UNK d   0     -12.113 -28.082  50.854  0.00  0.00     0.139 C 
ENDROOT
BRANCH   2   3
ATOM      3  O   UNK d   0     -13.102 -28.660  50.096  0.00  0.00    -0.776 OA
ATOM      4  H   UNK d   0     -12.970 -29.579  49.668  0.00  0.00     0.167 HD
ENDBRANCH   2   3
BRANCH   2   5
ATOM      5  C   UNK d   0     -11.373 -28.882  51.871  0.00  0.00     0.115 C 
BRANCH   5   6
ATOM      6  C   UNK d   0     -11.614 -30.350  51.650  0.00  0.00     0.052 C 
BRANCH   6   7
ATOM      7  C   UNK d   0     -10.499 -31.012  50.876  0.00  0.00    -0.020 A 
ATOM      8  C   UNK d   0      -9.333 -31.398  51.328  0.00  0.00    -0.011 A 
ATOM      9  C   UNK d   0      -8.593 -31.972  50.217  0.00  0.00     0.067 A 
ATOM     10  C   UNK d   0      -7.335 -32.568  50.039  0.00  0.00     0.062 C 
ATOM     11  N   UNK d   0      -9.381 -31.889  49.125  0.00  0.00    -0.248 NA
ATOM     12  C   UNK d   0      -6.901 -33.319  48.941  0.00  0.00     0.041 A 
ATOM     13  N   UNK d   0      -7.059 -33.128  47.618  0.00  0.00    -0.355 N 
ATOM     14  C   UNK d   0      -6.220 -34.528  49.171  0.00  0.00    -0.022 A 
ATOM     15  C   UNK d   0      -6.502 -34.188  47.002  0.00  0.00     0.042 A 
ATOM     16  H   UNK d   0      -7.537 -32.251  47.128  0.00  0.00     0.166 HD
ATOM     17  C   UNK d   0      -6.389 -34.492  45.631  0.00  0.00     0.062 C 
ATOM     18  C   UNK d   0      -5.966 -35.088  47.943  0.00  0.00    -0.013 A 
ATOM     19  C   UNK d   0      -7.336 -34.393  44.644  0.00  0.00     0.067 A 
ATOM     20  N   UNK d   0      -8.463 -33.745  44.951  0.00  0.00    -0.248 NA
ATOM     21  C   UNK d   0      -7.463 -34.845  43.269  0.00  0.00    -0.011 A 
ATOM     22  C   UNK d   0      -9.318 -33.741  43.876  0.00  0.00     0.066 A 
ATOM     23  C   UNK d   0     -10.517 -33.065  44.044  0.00  0.00     0.062 C 
ATOM     24  C   UNK d   0      -8.626 -34.464  42.826  0.00  0.00    -0.020 A 
ATOM     25  C   UNK d   0     -10.928 -32.305  45.150  0.00  0.00     0.041 A 
ATOM     26  N   UNK d   0     -10.785 -32.503  46.466  0.00  0.00    -0.355 N 
ATOM     27  C   UNK d   0     -11.608 -31.090  44.919  0.00  0.00    -0.022 A 
ATOM     28  C   UNK d   0     -11.347 -31.451  47.083  0.00  0.00     0.042 A 
ATOM     29  H   UNK d   0     -10.313 -33.390  46.957  0.00  0.00     0.166 HD
ATOM     30  C   UNK d   0     -11.475 -31.141  48.446  0.00  0.00     0.062 C 
ATOM     31  C   UNK d   0     -11.876 -30.543  46.136  0.00  0.00    -0.013 A 
ATOM     32  C   UNK d   0     -10.543 -31.322  49.455  0.00  0.00     0.066 A 
BRANCH   8  33
ATOM     33  C   UNK d   0      -8.836 -31.277  52.711  0.00  0.00     0.151 C 
BRANCH  33  34
ATOM     34  C   UNK d   0      -9.095 -32.483  53.518  0.00  0.00     0.143 C 
ATOM     35  O   UNK d   0      -8.534 -33.556  53.256  0.00  0.00    -0.650 OA
BRANCH  34  36
ATOM     36  O   UNK d   0      -9.973 -32.414  54.575  0.00  0.00    -0.776 OA
ATOM     37  H   UNK d   0     -10.927 -32.793  54.503  0.00  0.00     0.167 HD
ENDBRANCH  34  36
ENDBRANCH  33  34
ENDBRANCH   8  33
BRANCH  31  38
ATOM     38  C   UNK d   0     -12.580 -29.230  46.388  0.00  0.00     0.151 C 
BRANCH  38  39
ATOM     39  C   UNK d   0     -11.662 -28.127  46.578  0.00  0.00     0.143 C 
ATOM     40  O   UNK d   0     -10.712 -27.912  45.805  0.00  0.00    -0.650 OA
BRANCH  39  41
ATOM     41  O   UNK d   0     -11.836 -27.268  47.663  0.00  0.00    -0.776 OA
ATOM     42  H   UNK d   0     -11.010 -27.076  48.238  0.00  0.00     0.167 HD
ENDBRANCH  39  41
ENDBRANCH  38  39
ENDBRANCH  31  38
BRANCH  27  43
ATOM     43  C   UNK d   0     -12.005 -30.447  43.613  0.00  0.00     0.052 C 
BRANCH  43  44
ATOM     44  C   UNK d   0     -13.231 -31.048  43.007  0.00  0.00     0.115 C 
BRANCH  44  45
ATOM     45  C   UNK d   0     -14.370 -30.179  43.402  0.00  0.00     0.139 C 
ATOM     46  O   UNK d   0     -15.359 -30.717  43.959  0.00  0.00    -0.650 OA
BRANCH  45  47
ATOM     47  O   UNK d   0     -14.380 -28.818  43.189  0.00  0.00    -0.776 OA
ATOM     48  H   UNK d   0     -13.798 -28.161  43.732  0.00  0.00     0.167 HD
ENDBRANCH  45  47
ENDBRANCH  44  45
ENDBRANCH  43  44
ENDBRANCH  27  43
BRANCH  24  49
ATOM     49  C   UNK d   0      -9.151 -34.678  41.466  0.00  0.00     0.052 C 
BRANCH  49  50
ATOM     50  C   UNK d   0      -9.020 -33.418  40.649  0.00  0.00     0.115 C 
BRANCH  50  51
ATOM     51  C   UNK d   0      -7.811 -33.264  39.853  0.00  0.00     0.139 C 
ATOM     52  O   UNK d   0      -7.163 -34.242  39.410  0.00  0.00    -0.650 OA
BRANCH  51  53
ATOM     53  O   UNK d   0      -7.337 -31.994  39.563  0.00  0.00    -0.776 OA
ATOM     54  H   UNK d   0      -7.578 -31.243  40.185  0.00  0.00     0.167 HD
ENDBRANCH  51  53
ENDBRANCH  50  51
ENDBRANCH  49  50
ENDBRANCH  24  49
BRANCH  21  55
ATOM     55  C   UNK d   0      -6.406 -35.606  42.539  0.00  0.00     0.151 C 
BRANCH  55  56
ATOM     56  C   UNK d   0      -6.175 -36.933  43.131  0.00  0.00     0.143 C 
ATOM     57  O   UNK d   0      -7.046 -37.825  43.151  0.00  0.00    -0.650 OA
BRANCH  56  58
ATOM     58  O   UNK d   0      -4.922 -37.186  43.687  0.00  0.00    -0.776 OA
ATOM     59  H   UNK d   0      -4.910 -37.257  44.721  0.00  0.00     0.167 HD
ENDBRANCH  56  58
ENDBRANCH  55  56
ENDBRANCH  21  55
BRANCH  18  60
ATOM     60  C   UNK d   0      -5.257 -36.401  47.722  0.00  0.00     0.151 C 
BRANCH  60  61
ATOM     61  C   UNK d   0      -6.315 -37.402  47.518  0.00  0.00     0.143 C 
ATOM     62  O   UNK d   0      -7.121 -37.811  48.354  0.00  0.00    -0.650 OA
BRANCH  61  63
ATOM     63  O   UNK d   0      -6.394 -37.937  46.210  0.00  0.00    -0.776 OA
ATOM     64  H   UNK d   0      -7.220 -37.819  45.650  0.00  0.00     0.167 HD
ENDBRANCH  61  63
ENDBRANCH  60  61
ENDBRANCH  18  60
BRANCH  14  65
ATOM     65  C   UNK d   0      -5.709 -35.140  50.445  0.00  0.00     0.052 C 
BRANCH  65  66
ATOM     66  C   UNK d   0      -6.765 -35.852  51.212  0.00  0.00     0.115 C 
BRANCH  66  67
ATOM     67  C   UNK d   0      -6.560 -37.218  51.606  0.00  0.00     0.139 C 
ATOM     68  O   UNK d   0      -7.257 -37.687  52.580  0.00  0.00    -0.650 OA
BRANCH  67  69
ATOM     69  O   UNK d   0      -5.673 -38.141  51.054  0.00  0.00    -0.776 OA
ATOM     70  H   UNK d   0      -5.420 -38.936  51.658  0.00  0.00     0.167 HD
ENDBRANCH  67  69
ENDBRANCH  66  67
ENDBRANCH  65  66
ENDBRANCH  14  65
ENDBRANCH   6   7
ENDBRANCH   5   6
ENDBRANCH   2   5
TORSDOF 28
ENDMDL
MODEL 6
REMARK VINA RESULT:      -6.4      1.497      4.544
REMARK  28 active torsions:
REMARK  status: ('A' for Active; 'I' for Inactive)
REMARK    1  A    between atoms: C_2  and  O_3 
REMARK    2  A    between atoms: C_2  and  C_4 
REMARK    3  A    between atoms: C_4  and  C_5 
REMARK    4  A    between atoms: C_5  and  C_6 
REMARK    5  A    between atoms: C_7  and  C_8 
REMARK    6  A    between atoms: C_8  and  C_9 
REMARK    7  A    between atoms: C_9  and  O_11 
REMARK    8  A    between atoms: C_28  and  C_29 
REMARK    9  A    between atoms: C_29  and  C_30 
REMARK   10  A    between atoms: C_30  and  O_32 
REMARK   11  A    between atoms: C_33  and  C_34 
REMARK   12  A    between atoms: C_34  and  C_35 
REMARK   13  A    between atoms: C_35  and  C_36 
REMARK   14  A    between atoms: C_36  and  O_38 
REMARK   15  A    between atoms: C_39  and  C_40 
REMARK   16  A    between atoms: C_40  and  C_41 
REMARK   17  A    between atoms: C_41  and  C_42 
REMARK   18  A    between atoms: C_42  and  O_44 
REMARK   19  A    between atoms: C_45  and  C_46 
REMARK   20  A    between atoms: C_46  and  C_47 
REMARK   21  A    between atoms: C_47  and  O_49 
REMARK   22  A    between atoms: C_50  and  C_51 
REMARK   23  A    between atoms: C_51  and  C_52 
REMARK   24  A    between atoms: C_52  and  O_54 
REMARK   25  A    between atoms: C_55  and  C_56 
REMARK   26  A    between atoms: C_56  and  C_57 
REMARK   27  A    between atoms: C_57  and  C_58 
REMARK   28  A    between atoms: C_58  and  O_60 
ROOT
ATOM      1  O   UNK d   0     -14.653 -26.881  56.972  0.00  0.00    -0.650 OA
ATOM      2  C   UNK d   0     -14.515 -25.799  57.585  0.00  0.00     0.139 C 
ENDROOT
BRANCH   2   3
ATOM      3  O   UNK d   0     -14.087 -25.814  58.891  0.00  0.00    -0.776 OA
ATOM      4  H   UNK d   0     -13.092 -25.778  59.120  0.00  0.00     0.167 HD
ENDBRANCH   2   3
BRANCH   2   5
ATOM      5  C   UNK d   0     -14.815 -24.508  56.902  0.00  0.00     0.115 C 
BRANCH   5   6
ATOM      6  C   UNK d   0     -16.295 -24.238  56.932  0.00  0.00     0.052 C 
BRANCH   6   7
ATOM      7  C   UNK d   0     -16.627 -22.888  57.522  0.00  0.00    -0.020 A 
ATOM      8  C   UNK d   0     -16.977 -21.802  56.882  0.00  0.00    -0.011 A 
ATOM      9  C   UNK d   0     -17.187 -20.754  57.866  0.00  0.00     0.067 A 
ATOM     10  C   UNK d   0     -17.580 -19.406  57.843  0.00  0.00     0.062 C 
ATOM     11  N   UNK d   0     -16.938 -21.288  59.080  0.00  0.00    -0.248 NA
ATOM     12  C   UNK d   0     -17.999 -18.627  58.927  0.00  0.00     0.041 A 
ATOM     13  N   UNK d   0     -17.520 -18.522  60.181  0.00  0.00    -0.355 N 
ATOM     14  C   UNK d   0     -19.145 -17.823  58.784  0.00  0.00    -0.022 A 
ATOM     15  C   UNK d   0     -18.337 -17.679  60.840  0.00  0.00     0.042 A 
ATOM     16  H   UNK d   0     -16.611 -19.020  60.586  0.00  0.00     0.166 HD
ATOM     17  C   UNK d   0     -18.295 -17.222  62.172  0.00  0.00     0.062 C 
ATOM     18  C   UNK d   0     -19.368 -17.220  59.997  0.00  0.00    -0.013 A 
ATOM     19  C   UNK d   0     -18.073 -17.935  63.322  0.00  0.00     0.067 A 
ATOM     20  N   UNK d   0     -17.644 -19.192  63.181  0.00  0.00    -0.248 NA
ATOM     21  C   UNK d   0     -18.199 -17.684  64.748  0.00  0.00    -0.011 A 
ATOM     22  C   UNK d   0     -17.483 -19.781  64.411  0.00  0.00     0.066 A 
ATOM     23  C   UNK d   0     -17.003 -21.083  64.413  0.00  0.00     0.062 C 
ATOM     24  C   UNK d   0     -17.856 -18.769  65.380  0.00  0.00    -0.020 A 
ATOM     25  C   UNK d   0     -16.576 -21.844  63.314  0.00  0.00     0.041 A 
ATOM     26  N   UNK d   0     -17.061 -21.959  62.072  0.00  0.00    -0.355 N 
ATOM     27  C   UNK d   0     -15.423 -22.647  63.456  0.00  0.00    -0.022 A 
ATOM     28  C   UNK d   0     -16.253 -22.806  61.415  0.00  0.00     0.042 A 
ATOM     29  H   UNK d   0     -17.980 -21.467  61.669  0.00  0.00     0.166 HD
ATOM     30  C   UNK d   0     -16.288 -23.277  60.093  0.00  0.00     0.062 C 
ATOM     31  C   UNK d   0     -15.211 -23.259  62.259  0.00  0.00    -0.013 A 
ATOM     32  C   UNK d   0     -16.597 -22.570  58.942  0.00  0.00     0.066 A 
BRANCH   8  33
ATOM     33  C   UNK d   0     -17.130 -21.644  55.424  0.00  0.00     0.151 C 
BRANCH  33  34
ATOM     34  C   UNK d   0     -18.474 -22.018  54.948  0.00  0.00     0.143 C 
ATOM     35  O   UNK d   0     -19.481 -21.414  55.345  0.00  0.00    -0.650 OA
BRANCH  34  36
ATOM     36  O   UNK d   0     -18.610 -23.053  54.052  0.00  0.00    -0.776 OA
ATOM     37  H   UNK d   0     -17.797 -23.608  53.749  0.00  0.00     0.167 HD
ENDBRANCH  34  36
ENDBRANCH  33  34
ENDBRANCH   8  33
BRANCH  31  38
ATOM     38  C   UNK d   0     -14.082 -24.206  61.930  0.00  0.00     0.151 C 
BRANCH  38  39
ATOM     39  C   UNK d   0     -12.933 -23.534  61.361  0.00  0.00     0.143 C 
ATOM     40  O   UNK d   0     -12.678 -23.567  60.145  0.00  0.00    -0.650 OA
BRANCH  39  41
ATOM     41  O   UNK d   0     -12.073 -22.820  62.195  0.00  0.00    -0.776 OA
ATOM     42  H   UNK d   0     -11.245 -22.404  61.757  0.00  0.00     0.167 HD
ENDBRANCH  39  41
ENDBRANCH  38  39
ENDBRANCH  31  38
BRANCH  27  43
ATOM     43  C   UNK d   0     -14.539 -22.850  64.661  0.00  0.00     0.052 C 
BRANCH  43  44
ATOM     44  C   UNK d   0     -14.689 -24.200  65.284  0.00  0.00     0.115 C 
BRANCH  44  45
ATOM     45  C   UNK d   0     -13.317 -24.678  65.597  0.00  0.00     0.139 C 
ATOM     46  O   UNK d   0     -13.168 -25.447  66.578  0.00  0.00    -0.650 OA
BRANCH  45  47
ATOM     47  O   UNK d   0     -12.213 -24.317  64.855  0.00  0.00    -0.776 OA
ATOM     48  H   UNK d   0     -11.877 -23.343  64.789  0.00  0.00     0.167 HD
ENDBRANCH  45  47
ENDBRANCH  44  45
ENDBRANCH  43  44
ENDBRANCH  27  43
BRANCH  24  49
ATOM     49  C   UNK d   0     -17.801 -18.943  66.842  0.00  0.00     0.052 C 
BRANCH  49  50
ATOM     50  C   UNK d   0     -16.392 -18.749  67.340  0.00  0.00     0.115 C 
BRANCH  50  51
ATOM     51  C   UNK d   0     -16.184 -17.739  68.369  0.00  0.00     0.139 C 
ATOM     52  O   UNK d   0     -15.196 -17.753  69.140  0.00  0.00    -0.650 OA
BRANCH  51  53
ATOM     53  O   UNK d   0     -17.105 -16.713  68.520  0.00  0.00    -0.776 OA
ATOM     54  H   UNK d   0     -16.814 -15.880  69.001  0.00  0.00     0.167 HD
ENDBRANCH  51  53
ENDBRANCH  50  51
ENDBRANCH  49  50
ENDBRANCH  24  49
BRANCH  21  55
ATOM     55  C   UNK d   0     -18.645 -16.383  65.331  0.00  0.00     0.151 C 
BRANCH  55  56
ATOM     56  C   UNK d   0     -20.080 -16.144  65.112  0.00  0.00     0.143 C 
ATOM     57  O   UNK d   0     -20.965 -16.907  65.547  0.00  0.00    -0.650 OA
BRANCH  56  58
ATOM     58  O   UNK d   0     -20.446 -15.012  64.386  0.00  0.00    -0.776 OA
ATOM     59  H   UNK d   0     -19.665 -14.532  63.904  0.00  0.00     0.167 HD
ENDBRANCH  56  58
ENDBRANCH  55  56
ENDBRANCH  21  55
BRANCH  18  60
ATOM     60  C   UNK d   0     -20.504 -16.274  60.297  0.00  0.00     0.151 C 
BRANCH  60  61
ATOM     61  C   UNK d   0     -21.670 -17.123  60.585  0.00  0.00     0.143 C 
ATOM     62  O   UNK d   0     -21.712 -18.096  61.338  0.00  0.00    -0.650 OA
BRANCH  61  63
ATOM     63  O   UNK d   0     -22.861 -16.760  59.910  0.00  0.00    -0.776 OA
ATOM     64  H   UNK d   0     -23.606 -17.421  59.781  0.00  0.00     0.167 HD
ENDBRANCH  61  63
ENDBRANCH  60  61
ENDBRANCH  18  60
BRANCH  14  65
ATOM     65  C   UNK d   0     -19.978 -17.508  57.575  0.00  0.00     0.052 C 
BRANCH  65  66
ATOM     66  C   UNK d   0     -20.858 -18.636  57.165  0.00  0.00     0.115 C 
BRANCH  66  67
ATOM     67  C   UNK d   0     -22.222 -18.378  56.800  0.00  0.00     0.139 C 
ATOM     68  O   UNK d   0     -22.754 -17.264  57.163  0.00  0.00    -0.650 OA
BRANCH  67  69
ATOM     69  O   UNK d   0     -23.084 -19.203  56.078  0.00  0.00    -0.776 OA
ATOM     70  H   UNK d   0     -23.286 -18.905  55.113  0.00  0.00     0.167 HD
ENDBRANCH  67  69
ENDBRANCH  66  67
ENDBRANCH  65  66
ENDBRANCH  14  65
ENDBRANCH   6   7
ENDBRANCH   5   6
ENDBRANCH   2   5
TORSDOF 28
ENDMDL
MODEL 7
REMARK VINA RESULT:      -6.4      2.099      8.488
REMARK  28 active torsions:
REMARK  status: ('A' for Active; 'I' for Inactive)
REMARK    1  A    between atoms: C_2  and  O_3 
REMARK    2  A    between atoms: C_2  and  C_4 
REMARK    3  A    between atoms: C_4  and  C_5 
REMARK    4  A    between atoms: C_5  and  C_6 
REMARK    5  A    between atoms: C_7  and  C_8 
REMARK    6  A    between atoms: C_8  and  C_9 
REMARK    7  A    between atoms: C_9  and  O_11 
REMARK    8  A    between atoms: C_28  and  C_29 
REMARK    9  A    between atoms: C_29  and  C_30 
REMARK   10  A    between atoms: C_30  and  O_32 
REMARK   11  A    between atoms: C_33  and  C_34 
REMARK   12  A    between atoms: C_34  and  C_35 
REMARK   13  A    between atoms: C_35  and  C_36 
REMARK   14  A    between atoms: C_36  and  O_38 
REMARK   15  A    between atoms: C_39  and  C_40 
REMARK   16  A    between atoms: C_40  and  C_41 
REMARK   17  A    between atoms: C_41  and  C_42 
REMARK   18  A    between atoms: C_42  and  O_44 
REMARK   19  A    between atoms: C_45  and  C_46 
REMARK   20  A    between atoms: C_46  and  C_47 
REMARK   21  A    between atoms: C_47  and  O_49 
REMARK   22  A    between atoms: C_50  and  C_51 
REMARK   23  A    between atoms: C_51  and  C_52 
REMARK   24  A    between atoms: C_52  and  O_54 
REMARK   25  A    between atoms: C_55  and  C_56 
REMARK   26  A    between atoms: C_56  and  C_57 
REMARK   27  A    between atoms: C_57  and  C_58 
REMARK   28  A    between atoms: C_58  and  O_60 
ROOT
ATOM      1  O   UNK d   0     -13.723 -24.878  58.225  0.00  0.00    -0.650 OA
ATOM      2  C   UNK d   0     -14.860 -24.886  58.746  0.00  0.00     0.139 C 
ENDROOT
BRANCH   2   3
ATOM      3  O   UNK d   0     -15.965 -25.073  57.950  0.00  0.00    -0.776 OA
ATOM      4  H   UNK d   0     -16.764 -24.437  57.998  0.00  0.00     0.167 HD
ENDBRANCH   2   3
BRANCH   2   5
ATOM      5  C   UNK d   0     -15.011 -24.692  60.216  0.00  0.00     0.115 C 
BRANCH   5   6
ATOM      6  C   UNK d   0     -14.397 -23.383  60.632  0.00  0.00     0.052 C 
BRANCH   6   7
ATOM      7  C   UNK d   0     -15.396 -22.451  61.276  0.00  0.00    -0.020 A 
ATOM      8  C   UNK d   0     -15.589 -22.248  62.554  0.00  0.00    -0.011 A 
ATOM      9  C   UNK d   0     -16.658 -21.273  62.692  0.00  0.00     0.067 A 
ATOM     10  C   UNK d   0     -17.310 -20.630  63.756  0.00  0.00     0.062 C 
ATOM     11  N   UNK d   0     -17.062 -20.941  61.448  0.00  0.00    -0.248 NA
ATOM     12  C   UNK d   0     -18.136 -19.503  63.686  0.00  0.00     0.041 A 
ATOM     13  N   UNK d   0     -19.108 -19.170  62.816  0.00  0.00    -0.355 N 
ATOM     14  C   UNK d   0     -17.951 -18.465  64.617  0.00  0.00    -0.022 A 
ATOM     15  C   UNK d   0     -19.539 -17.943  63.166  0.00  0.00     0.042 A 
ATOM     16  H   UNK d   0     -19.496 -19.797  61.983  0.00  0.00     0.166 HD
ATOM     17  C   UNK d   0     -20.538 -17.129  62.596  0.00  0.00     0.062 C 
ATOM     18  C   UNK d   0     -18.837 -17.468  64.290  0.00  0.00    -0.013 A 
ATOM     19  C   UNK d   0     -20.777 -16.855  61.273  0.00  0.00     0.067 A 
ATOM     20  N   UNK d   0     -20.120 -17.594  60.375  0.00  0.00    -0.248 NA
ATOM     21  C   UNK d   0     -21.594 -15.908  60.533  0.00  0.00    -0.011 A 
ATOM     22  C   UNK d   0     -20.448 -17.198  59.101  0.00  0.00     0.066 A 
ATOM     23  C   UNK d   0     -19.863 -17.910  58.065  0.00  0.00     0.062 C 
ATOM     24  C   UNK d   0     -21.394 -16.111  59.263  0.00  0.00    -0.020 A 
ATOM     25  C   UNK d   0     -19.045 -19.047  58.156  0.00  0.00     0.041 A 
ATOM     26  N   UNK d   0     -18.069 -19.372  59.011  0.00  0.00    -0.355 N 
ATOM     27  C   UNK d   0     -19.235 -20.091  57.224  0.00  0.00    -0.022 A 
ATOM     28  C   UNK d   0     -17.632 -20.592  58.659  0.00  0.00     0.042 A 
ATOM     29  H   UNK d   0     -17.674 -18.736  59.841  0.00  0.00     0.166 HD
ATOM     30  C   UNK d   0     -16.633 -21.409  59.212  0.00  0.00     0.062 C 
ATOM     31  C   UNK d   0     -18.345 -21.072  57.536  0.00  0.00    -0.013 A 
ATOM     32  C   UNK d   0     -16.341 -21.615  60.551  0.00  0.00     0.066 A 
BRANCH   8  33
ATOM     33  C   UNK d   0     -14.867 -22.886  63.670  0.00  0.00     0.151 C 
BRANCH  33  34
ATOM     34  C   UNK d   0     -15.409 -24.212  64.016  0.00  0.00     0.143 C 
ATOM     35  O   UNK d   0     -14.746 -25.241  63.822  0.00  0.00    -0.650 OA
BRANCH  34  36
ATOM     36  O   UNK d   0     -16.670 -24.306  64.560  0.00  0.00    -0.776 OA
ATOM     37  H   UNK d   0     -17.360 -23.552  64.442  0.00  0.00     0.167 HD
ENDBRANCH  34  36
ENDBRANCH  33  34
ENDBRANCH   8  33
BRANCH  31  38
ATOM     38  C   UNK d   0     -18.189 -22.394  56.820  0.00  0.00     0.151 C 
BRANCH  38  39
ATOM     39  C   UNK d   0     -17.151 -22.367  55.812  0.00  0.00     0.143 C 
ATOM     40  O   UNK d   0     -16.321 -23.285  55.686  0.00  0.00    -0.650 OA
BRANCH  39  41
ATOM     41  O   UNK d   0     -17.066 -21.279  54.943  0.00  0.00    -0.776 OA
ATOM     42  H   UNK d   0     -16.210 -20.717  54.989  0.00  0.00     0.167 HD
ENDBRANCH  39  41
ENDBRANCH  38  39
ENDBRANCH  31  38
BRANCH  27  43
ATOM     43  C   UNK d   0     -20.207 -20.185  56.075  0.00  0.00     0.052 C 
BRANCH  43  44
ATOM     44  C   UNK d   0     -21.563 -20.662  56.485  0.00  0.00     0.115 C 
BRANCH  44  45
ATOM     45  C   UNK d   0     -22.023 -21.595  55.424  0.00  0.00     0.139 C 
ATOM     46  O   UNK d   0     -21.441 -22.703  55.317  0.00  0.00    -0.650 OA
BRANCH  45  47
ATOM     47  O   UNK d   0     -23.057 -21.297  54.564  0.00  0.00    -0.776 OA
ATOM     48  H   UNK d   0     -23.389 -20.333  54.399  0.00  0.00     0.167 HD
ENDBRANCH  45  47
ENDBRANCH  44  45
ENDBRANCH  43  44
ENDBRANCH  27  43
BRANCH  24  49
ATOM     49  C   UNK d   0     -22.051 -15.397  58.155  0.00  0.00     0.052 C 
BRANCH  49  50
ATOM     50  C   UNK d   0     -22.843 -16.359  57.307  0.00  0.00     0.115 C 
BRANCH  50  51
ATOM     51  C   UNK d   0     -24.091 -16.863  57.864  0.00  0.00     0.139 C 
ATOM     52  O   UNK d   0     -24.235 -18.052  58.235  0.00  0.00    -0.650 OA
BRANCH  51  53
ATOM     53  O   UNK d   0     -25.178 -16.012  57.995  0.00  0.00    -0.776 OA
ATOM     54  H   UNK d   0     -26.069 -16.411  58.231  0.00  0.00     0.167 HD
ENDBRANCH  51  53
ENDBRANCH  50  51
ENDBRANCH  49  50
ENDBRANCH  24  49
BRANCH  21  55
ATOM     55  C   UNK d   0     -22.493 -14.902  61.173  0.00  0.00     0.151 C 
BRANCH  55  56
ATOM     56  C   UNK d   0     -23.904 -15.313  61.121  0.00  0.00     0.143 C 
ATOM     57  O   UNK d   0     -24.298 -16.427  61.516  0.00  0.00    -0.650 OA
BRANCH  56  58
ATOM     58  O   UNK d   0     -24.826 -14.403  60.604  0.00  0.00    -0.776 OA
ATOM     59  H   UNK d   0     -25.726 -14.357  61.115  0.00  0.00     0.167 HD
ENDBRANCH  56  58
ENDBRANCH  55  56
ENDBRANCH  21  55
BRANCH  18  60
ATOM     60  C   UNK d   0     -18.973 -16.158  65.026  0.00  0.00     0.151 C 
BRANCH  60  61
ATOM     61  C   UNK d   0     -20.155 -16.302  65.891  0.00  0.00     0.143 C 
ATOM     62  O   UNK d   0     -20.384 -17.210  66.689  0.00  0.00    -0.650 OA
BRANCH  61  63
ATOM     63  O   UNK d   0     -21.117 -15.270  65.773  0.00  0.00    -0.776 OA
ATOM     64  H   UNK d   0     -21.828 -15.302  65.064  0.00  0.00     0.167 HD
ENDBRANCH  61  63
ENDBRANCH  60  61
ENDBRANCH  18  60
BRANCH  14  65
ATOM     65  C   UNK d   0     -17.078 -18.385  65.837  0.00  0.00     0.052 C 
BRANCH  65  66
ATOM     66  C   UNK d   0     -17.327 -19.489  66.803  0.00  0.00     0.115 C 
BRANCH  66  67
ATOM     67  C   UNK d   0     -18.144 -19.251  67.960  0.00  0.00     0.139 C 
ATOM     68  O   UNK d   0     -18.901 -20.201  68.382  0.00  0.00    -0.650 OA
BRANCH  67  69
ATOM     69  O   UNK d   0     -18.230 -18.084  68.718  0.00  0.00    -0.776 OA
ATOM     70  H   UNK d   0     -17.396 -17.480  68.708  0.00  0.00     0.167 HD
ENDBRANCH  67  69
ENDBRANCH  66  67
ENDBRANCH  65  66
ENDBRANCH  14  65
ENDBRANCH   6   7
ENDBRANCH   5   6
ENDBRANCH   2   5
TORSDOF 28
ENDMDL
MODEL 8
REMARK VINA RESULT:      -6.3     15.297     22.732
REMARK  28 active torsions:
REMARK  status: ('A' for Active; 'I' for Inactive)
REMARK    1  A    between atoms: C_2  and  O_3 
REMARK    2  A    between atoms: C_2  and  C_4 
REMARK    3  A    between atoms: C_4  and  C_5 
REMARK    4  A    between atoms: C_5  and  C_6 
REMARK    5  A    between atoms: C_7  and  C_8 
REMARK    6  A    between atoms: C_8  and  C_9 
REMARK    7  A    between atoms: C_9  and  O_11 
REMARK    8  A    between atoms: C_28  and  C_29 
REMARK    9  A    between atoms: C_29  and  C_30 
REMARK   10  A    between atoms: C_30  and  O_32 
REMARK   11  A    between atoms: C_33  and  C_34 
REMARK   12  A    between atoms: C_34  and  C_35 
REMARK   13  A    between atoms: C_35  and  C_36 
REMARK   14  A    between atoms: C_36  and  O_38 
REMARK   15  A    between atoms: C_39  and  C_40 
REMARK   16  A    between atoms: C_40  and  C_41 
REMARK   17  A    between atoms: C_41  and  C_42 
REMARK   18  A    between atoms: C_42  and  O_44 
REMARK   19  A    between atoms: C_45  and  C_46 
REMARK   20  A    between atoms: C_46  and  C_47 
REMARK   21  A    between atoms: C_47  and  O_49 
REMARK   22  A    between atoms: C_50  and  C_51 
REMARK   23  A    between atoms: C_51  and  C_52 
REMARK   24  A    between atoms: C_52  and  O_54 
REMARK   25  A    between atoms: C_55  and  C_56 
REMARK   26  A    between atoms: C_56  and  C_57 
REMARK   27  A    between atoms: C_57  and  C_58 
REMARK   28  A    between atoms: C_58  and  O_60 
ROOT
ATOM      1  O   UNK d   0      -8.815 -36.182  51.867  0.00  0.00    -0.650 OA
ATOM      2  C   UNK d   0      -7.762 -35.652  52.286  0.00  0.00     0.139 C 
ENDROOT
BRANCH   2   3
ATOM      3  O   UNK d   0      -6.664 -36.440  52.534  0.00  0.00    -0.776 OA
ATOM      4  H   UNK d   0      -6.235 -36.996  51.792  0.00  0.00     0.167 HD
ENDBRANCH   2   3
BRANCH   2   5
ATOM      5  C   UNK d   0      -7.704 -34.180  52.513  0.00  0.00     0.115 C 
BRANCH   5   6
ATOM      6  C   UNK d   0      -6.642 -33.564  51.645  0.00  0.00     0.052 C 
BRANCH   6   7
ATOM      7  C   UNK d   0      -6.973 -33.646  50.174  0.00  0.00    -0.020 A 
ATOM      8  C   UNK d   0      -6.313 -34.284  49.242  0.00  0.00    -0.011 A 
ATOM      9  C   UNK d   0      -7.004 -34.069  47.981  0.00  0.00     0.067 A 
ATOM     10  C   UNK d   0      -6.834 -34.480  46.650  0.00  0.00     0.062 C 
ATOM     11  N   UNK d   0      -8.072 -33.284  48.238  0.00  0.00    -0.248 NA
ATOM     12  C   UNK d   0      -7.768 -34.397  45.612  0.00  0.00     0.041 A 
ATOM     13  N   UNK d   0      -8.614 -33.412  45.257  0.00  0.00    -0.355 N 
ATOM     14  C   UNK d   0      -7.958 -35.514  44.777  0.00  0.00    -0.022 A 
ATOM     15  C   UNK d   0      -9.342 -33.878  44.224  0.00  0.00     0.042 A 
ATOM     16  H   UNK d   0      -8.683 -32.401  45.715  0.00  0.00     0.166 HD
ATOM     17  C   UNK d   0     -10.364 -33.260  43.476  0.00  0.00     0.062 C 
ATOM     18  C   UNK d   0      -8.959 -35.192  43.895  0.00  0.00    -0.013 A 
ATOM     19  C   UNK d   0     -11.432 -32.522  43.919  0.00  0.00     0.067 A 
ATOM     20  N   UNK d   0     -11.423 -32.157  45.203  0.00  0.00    -0.248 NA
ATOM     21  C   UNK d   0     -12.659 -32.006  43.336  0.00  0.00    -0.011 A 
ATOM     22  C   UNK d   0     -12.556 -31.440  45.503  0.00  0.00     0.066 A 
ATOM     23  C   UNK d   0     -12.658 -30.964  46.801  0.00  0.00     0.062 C 
ATOM     24  C   UNK d   0     -13.314 -31.378  44.269  0.00  0.00    -0.020 A 
ATOM     25  C   UNK d   0     -11.703 -31.046  47.826  0.00  0.00     0.041 A 
ATOM     26  N   UNK d   0     -10.872 -32.031  48.188  0.00  0.00    -0.355 N 
ATOM     27  C   UNK d   0     -11.510 -29.924  48.660  0.00  0.00    -0.022 A 
ATOM     28  C   UNK d   0     -10.151 -31.573  49.224  0.00  0.00     0.042 A 
ATOM     29  H   UNK d   0     -10.812 -33.051  47.734  0.00  0.00     0.166 HD
ATOM     30  C   UNK d   0      -9.138 -32.179  49.983  0.00  0.00     0.062 C 
ATOM     31  C   UNK d   0     -10.529 -30.248  49.547  0.00  0.00    -0.013 A 
ATOM     32  C   UNK d   0      -8.110 -32.995  49.540  0.00  0.00     0.066 A 
BRANCH   8  33
ATOM     33  C   UNK d   0      -5.083 -35.079  49.414  0.00  0.00     0.151 C 
BRANCH  33  34
ATOM     34  C   UNK d   0      -5.271 -36.500  49.073  0.00  0.00     0.143 C 
ATOM     35  O   UNK d   0      -5.924 -37.252  49.811  0.00  0.00    -0.650 OA
BRANCH  34  36
ATOM     36  O   UNK d   0      -4.710 -36.998  47.919  0.00  0.00    -0.776 OA
ATOM     37  H   UNK d   0      -5.241 -37.616  47.290  0.00  0.00     0.167 HD
ENDBRANCH  34  36
ENDBRANCH  33  34
ENDBRANCH   8  33
BRANCH  31  38
ATOM     38  C   UNK d   0      -9.973 -29.351  50.628  0.00  0.00     0.151 C 
BRANCH  38  39
ATOM     39  C   UNK d   0     -10.756 -29.386  51.845  0.00  0.00     0.143 C 
ATOM     40  O   UNK d   0     -11.461 -30.363  52.155  0.00  0.00    -0.650 OA
BRANCH  39  41
ATOM     41  O   UNK d   0     -10.730 -28.293  52.710  0.00  0.00    -0.776 OA
ATOM     42  H   UNK d   0      -9.808 -27.983  53.034  0.00  0.00     0.167 HD
ENDBRANCH  39  41
ENDBRANCH  38  39
ENDBRANCH  31  38
BRANCH  27  43
ATOM     43  C   UNK d   0     -12.209 -28.587  48.646  0.00  0.00     0.052 C 
BRANCH  43  44
ATOM     44  C   UNK d   0     -11.289 -27.442  48.369  0.00  0.00     0.115 C 
BRANCH  44  45
ATOM     45  C   UNK d   0     -11.270 -27.261  46.894  0.00  0.00     0.139 C 
ATOM     46  O   UNK d   0     -11.810 -26.232  46.417  0.00  0.00    -0.650 OA
BRANCH  45  47
ATOM     47  O   UNK d   0     -10.684 -28.168  46.037  0.00  0.00    -0.776 OA
ATOM     48  H   UNK d   0      -9.669 -28.363  46.036  0.00  0.00     0.167 HD
ENDBRANCH  45  47
ENDBRANCH  44  45
ENDBRANCH  43  44
ENDBRANCH  27  43
BRANCH  24  49
ATOM     49  C   UNK d   0     -14.595 -30.668  44.104  0.00  0.00     0.052 C 
BRANCH  49  50
ATOM     50  C   UNK d   0     -14.395 -29.182  44.260  0.00  0.00     0.115 C 
BRANCH  50  51
ATOM     51  C   UNK d   0     -13.434 -28.544  43.370  0.00  0.00     0.139 C 
ATOM     52  O   UNK d   0     -12.229 -28.388  43.677  0.00  0.00    -0.650 OA
BRANCH  51  53
ATOM     53  O   UNK d   0     -13.849 -28.080  42.131  0.00  0.00    -0.776 OA
ATOM     54  H   UNK d   0     -13.504 -27.191  41.817  0.00  0.00     0.167 HD
ENDBRANCH  51  53
ENDBRANCH  50  51
ENDBRANCH  49  50
ENDBRANCH  24  49
BRANCH  21  55
ATOM     55  C   UNK d   0     -13.047 -32.191  41.906  0.00  0.00     0.151 C 
BRANCH  55  56
ATOM     56  C   UNK d   0     -12.128 -31.495  40.991  0.00  0.00     0.143 C 
ATOM     57  O   UNK d   0     -11.658 -32.032  39.969  0.00  0.00    -0.650 OA
BRANCH  56  58
ATOM     58  O   UNK d   0     -11.781 -30.180  41.297  0.00  0.00    -0.776 OA
ATOM     59  H   UNK d   0     -10.764 -29.985  41.293  0.00  0.00     0.167 HD
ENDBRANCH  56  58
ENDBRANCH  55  56
ENDBRANCH  21  55
BRANCH  18  60
ATOM     60  C   UNK d   0      -9.493 -36.108  42.822  0.00  0.00     0.151 C 
BRANCH  60  61
ATOM     61  C   UNK d   0     -10.744 -36.669  43.354  0.00  0.00     0.143 C 
ATOM     62  O   UNK d   0     -11.892 -36.381  43.012  0.00  0.00    -0.650 OA
BRANCH  61  63
ATOM     63  O   UNK d   0     -10.584 -37.643  44.369  0.00  0.00    -0.776 OA
ATOM     64  H   UNK d   0     -10.732 -38.618  44.180  0.00  0.00     0.167 HD
ENDBRANCH  61  63
ENDBRANCH  60  61
ENDBRANCH  18  60
BRANCH  14  65
ATOM     65  C   UNK d   0      -7.206 -36.811  44.688  0.00  0.00     0.052 C 
BRANCH  65  66
ATOM     66  C   UNK d   0      -6.165 -36.808  43.625  0.00  0.00     0.115 C 
BRANCH  66  67
ATOM     67  C   UNK d   0      -4.867 -36.261  43.901  0.00  0.00     0.139 C 
ATOM     68  O   UNK d   0      -4.060 -36.068  42.919  0.00  0.00    -0.650 OA
BRANCH  67  69
ATOM     69  O   UNK d   0      -4.341 -35.897  45.140  0.00  0.00    -0.776 OA
ATOM     70  H   UNK d   0      -4.266 -34.884  45.315  0.00  0.00     0.167 HD
ENDBRANCH  67  69
ENDBRANCH  66  67
ENDBRANCH  65  66
ENDBRANCH  14  65
ENDBRANCH   6   7
ENDBRANCH   5   6
ENDBRANCH   2   5
TORSDOF 28
ENDMDL
MODEL 9
REMARK VINA RESULT:      -6.3     16.399     23.865
REMARK  28 active torsions:
REMARK  status: ('A' for Active; 'I' for Inactive)
REMARK    1  A    between atoms: C_2  and  O_3 
REMARK    2  A    between atoms: C_2  and  C_4 
REMARK    3  A    between atoms: C_4  and  C_5 
REMARK    4  A    between atoms: C_5  and  C_6 
REMARK    5  A    between atoms: C_7  and  C_8 
REMARK    6  A    between atoms: C_8  and  C_9 
REMARK    7  A    between atoms: C_9  and  O_11 
REMARK    8  A    between atoms: C_28  and  C_29 
REMARK    9  A    between atoms: C_29  and  C_30 
REMARK   10  A    between atoms: C_30  and  O_32 
REMARK   11  A    between atoms: C_33  and  C_34 
REMARK   12  A    between atoms: C_34  and  C_35 
REMARK   13  A    between atoms: C_35  and  C_36 
REMARK   14  A    between atoms: C_36  and  O_38 
REMARK   15  A    between atoms: C_39  and  C_40 
REMARK   16  A    between atoms: C_40  and  C_41 
REMARK   17  A    between atoms: C_41  and  C_42 
REMARK   18  A    between atoms: C_42  and  O_44 
REMARK   19  A    between atoms: C_45  and  C_46 
REMARK   20  A    between atoms: C_46  and  C_47 
REMARK   21  A    between atoms: C_47  and  O_49 
REMARK   22  A    between atoms: C_50  and  C_51 
REMARK   23  A    between atoms: C_51  and  C_52 
REMARK   24  A    between atoms: C_52  and  O_54 
REMARK   25  A    between atoms: C_55  and  C_56 
REMARK   26  A    between atoms: C_56  and  C_57 
REMARK   27  A    between atoms: C_57  and  C_58 
REMARK   28  A    between atoms: C_58  and  O_60 
ROOT
ATOM      1  O   UNK d   0     -10.015 -33.362  53.907  0.00  0.00    -0.650 OA
ATOM      2  C   UNK d   0      -9.287 -32.639  53.191  0.00  0.00     0.139 C 
ENDROOT
BRANCH   2   3
ATOM      3  O   UNK d   0      -8.318 -31.864  53.782  0.00  0.00    -0.776 OA
ATOM      4  H   UNK d   0      -7.557 -32.287  54.317  0.00  0.00     0.167 HD
ENDBRANCH   2   3
BRANCH   2   5
ATOM      5  C   UNK d   0      -9.472 -32.623  51.712  0.00  0.00     0.115 C 
BRANCH   5   6
ATOM      6  C   UNK d   0      -8.401 -31.788  51.066  0.00  0.00     0.052 C 
BRANCH   6   7
ATOM      7  C   UNK d   0      -8.008 -32.301  49.701  0.00  0.00    -0.020 A 
ATOM      8  C   UNK d   0      -6.905 -32.921  49.368  0.00  0.00    -0.011 A 
ATOM      9  C   UNK d   0      -6.971 -33.212  47.945  0.00  0.00     0.067 A 
ATOM     10  C   UNK d   0      -6.151 -33.854  47.005  0.00  0.00     0.062 C 
ATOM     11  N   UNK d   0      -8.146 -32.729  47.491  0.00  0.00    -0.248 NA
ATOM     12  C   UNK d   0      -6.509 -34.287  45.723  0.00  0.00     0.041 A 
ATOM     13  N   UNK d   0      -7.244 -33.696  44.762  0.00  0.00    -0.355 N 
ATOM     14  C   UNK d   0      -6.121 -35.573  45.305  0.00  0.00    -0.022 A 
ATOM     15  C   UNK d   0      -7.339 -34.577  43.748  0.00  0.00     0.042 A 
ATOM     16  H   UNK d   0      -7.671 -32.669  44.791  0.00  0.00     0.166 HD
ATOM     17  C   UNK d   0      -7.990 -34.470  42.503  0.00  0.00     0.062 C 
ATOM     18  C   UNK d   0      -6.647 -35.766  44.052  0.00  0.00    -0.013 A 
ATOM     19  C   UNK d   0      -9.243 -33.987  42.224  0.00  0.00     0.067 A 
ATOM     20  N   UNK d   0      -9.878 -33.347  43.209  0.00  0.00    -0.248 NA
ATOM     21  C   UNK d   0     -10.134 -33.995  41.075  0.00  0.00    -0.011 A 
ATOM     22  C   UNK d   0     -11.119 -32.936  42.789  0.00  0.00     0.066 A 
ATOM     23  C   UNK d   0     -11.875 -32.221  43.706  0.00  0.00     0.062 C 
ATOM     24  C   UNK d   0     -11.232 -33.382  41.414  0.00  0.00    -0.020 A 
ATOM     25  C   UNK d   0     -11.491 -31.786  44.984  0.00  0.00     0.041 A 
ATOM     26  N   UNK d   0     -10.774 -32.379  45.946  0.00  0.00    -0.355 N 
ATOM     27  C   UNK d   0     -11.878 -30.493  45.401  0.00  0.00    -0.022 A 
ATOM     28  C   UNK d   0     -10.685 -31.506  46.961  0.00  0.00     0.042 A 
ATOM     29  H   UNK d   0     -10.355 -33.415  45.919  0.00  0.00     0.166 HD
ATOM     30  C   UNK d   0     -10.049 -31.602  48.209  0.00  0.00     0.062 C 
ATOM     31  C   UNK d   0     -11.371 -30.308  46.651  0.00  0.00    -0.013 A 
ATOM     32  C   UNK d   0      -8.817 -32.169  48.498  0.00  0.00     0.066 A 
BRANCH   8  33
ATOM     33  C   UNK d   0      -5.782 -33.267  50.258  0.00  0.00     0.151 C 
BRANCH  33  34
ATOM     34  C   UNK d   0      -6.174 -34.189  51.339  0.00  0.00     0.143 C 
ATOM     35  O   UNK d   0      -6.518 -35.353  51.091  0.00  0.00    -0.650 OA
BRANCH  34  36
ATOM     36  O   UNK d   0      -6.158 -33.746  52.642  0.00  0.00    -0.776 OA
ATOM     37  H   UNK d   0      -6.442 -32.788  52.884  0.00  0.00     0.167 HD
ENDBRANCH  34  36
ENDBRANCH  33  34
ENDBRANCH   8  33
BRANCH  31  38
ATOM     38  C   UNK d   0     -11.517 -29.063  47.495  0.00  0.00     0.151 C 
BRANCH  38  39
ATOM     39  C   UNK d   0     -12.603 -29.156  48.448  0.00  0.00     0.143 C 
ATOM     40  O   UNK d   0     -13.521 -29.986  48.332  0.00  0.00    -0.650 OA
BRANCH  39  41
ATOM     41  O   UNK d   0     -12.632 -28.289  49.541  0.00  0.00    -0.776 OA
ATOM     42  H   UNK d   0     -13.549 -28.106  49.960  0.00  0.00     0.167 HD
ENDBRANCH  39  41
ENDBRANCH  38  39
ENDBRANCH  31  38
BRANCH  27  43
ATOM     43  C   UNK d   0     -12.693 -29.455  44.672  0.00  0.00     0.052 C 
BRANCH  43  44
ATOM     44  C   UNK d   0     -14.167 -29.634  44.842  0.00  0.00     0.115 C 
BRANCH  44  45
ATOM     45  C   UNK d   0     -14.791 -29.270  43.543  0.00  0.00     0.139 C 
ATOM     46  O   UNK d   0     -15.971 -29.642  43.329  0.00  0.00    -0.650 OA
BRANCH  45  47
ATOM     47  O   UNK d   0     -14.133 -28.542  42.576  0.00  0.00    -0.776 OA
ATOM     48  H   UNK d   0     -13.119 -28.351  42.611  0.00  0.00     0.167 HD
ENDBRANCH  45  47
ENDBRANCH  44  45
ENDBRANCH  43  44
ENDBRANCH  27  43
BRANCH  24  49
ATOM     49  C   UNK d   0     -12.389 -33.128  40.540  0.00  0.00     0.052 C 
BRANCH  49  50
ATOM     50  C   UNK d   0     -12.179 -31.865  39.745  0.00  0.00     0.115 C 
BRANCH  50  51
ATOM     51  C   UNK d   0     -12.691 -30.626  40.317  0.00  0.00     0.139 C 
ATOM     52  O   UNK d   0     -13.850 -30.205  40.091  0.00  0.00    -0.650 OA
BRANCH  51  53
ATOM     53  O   UNK d   0     -11.880 -29.867  41.146  0.00  0.00    -0.776 OA
ATOM     54  H   UNK d   0     -12.298 -29.108  41.656  0.00  0.00     0.167 HD
ENDBRANCH  51  53
ENDBRANCH  50  51
ENDBRANCH  49  50
ENDBRANCH  24  49
BRANCH  21  55
ATOM     55  C   UNK d   0      -9.793 -34.610  39.759  0.00  0.00     0.151 C 
BRANCH  55  56
ATOM     56  C   UNK d   0     -10.241 -36.008  39.671  0.00  0.00     0.143 C 
ATOM     57  O   UNK d   0     -11.149 -36.379  38.901  0.00  0.00    -0.650 OA
BRANCH  56  58
ATOM     58  O   UNK d   0      -9.612 -36.944  40.490  0.00  0.00    -0.776 OA
ATOM     59  H   UNK d   0      -9.346 -37.827  40.019  0.00  0.00     0.167 HD
ENDBRANCH  56  58
ENDBRANCH  55  56
ENDBRANCH  21  55
BRANCH  18  60
ATOM     60  C   UNK d   0      -6.483 -37.019  43.229  0.00  0.00     0.151 C 
BRANCH  60  61
ATOM     61  C   UNK d   0      -7.546 -37.935  43.671  0.00  0.00     0.143 C 
ATOM     62  O   UNK d   0      -7.417 -38.939  44.371  0.00  0.00    -0.650 OA
BRANCH  61  63
ATOM     63  O   UNK d   0      -8.850 -37.601  43.230  0.00  0.00    -0.776 OA
ATOM     64  H   UNK d   0      -9.507 -37.155  43.845  0.00  0.00     0.167 HD
ENDBRANCH  61  63
ENDBRANCH  60  61
ENDBRANCH  18  60
BRANCH  14  65
ATOM     65  C   UNK d   0      -5.218 -36.584  45.953  0.00  0.00     0.052 C 
BRANCH  65  66
ATOM     66  C   UNK d   0      -5.902 -37.387  47.002  0.00  0.00     0.115 C 
BRANCH  66  67
ATOM     67  C   UNK d   0      -5.488 -37.267  48.372  0.00  0.00     0.139 C 
ATOM     68  O   UNK d   0      -5.956 -38.103  49.229  0.00  0.00    -0.650 OA
BRANCH  67  69
ATOM     69  O   UNK d   0      -4.614 -36.330  48.921  0.00  0.00    -0.776 OA
ATOM     70  H   UNK d   0      -4.956 -35.834  49.756  0.00  0.00     0.167 HD
ENDBRANCH  67  69
ENDBRANCH  66  67
ENDBRANCH  65  66
ENDBRANCH  14  65
ENDBRANCH   6   7
ENDBRANCH   5   6
ENDBRANCH   2   5
TORSDOF 28
ENDMDL
MODEL 10
REMARK VINA RESULT:      -6.3      1.709      2.547
REMARK  28 active torsions:
REMARK  status: ('A' for Active; 'I' for Inactive)
REMARK    1  A    between atoms: C_2  and  O_3 
REMARK    2  A    between atoms: C_2  and  C_4 
REMARK    3  A    between atoms: C_4  and  C_5 
REMARK    4  A    between atoms: C_5  and  C_6 
REMARK    5  A    between atoms: C_7  and  C_8 
REMARK    6  A    between atoms: C_8  and  C_9 
REMARK    7  A    between atoms: C_9  and  O_11 
REMARK    8  A    between atoms: C_28  and  C_29 
REMARK    9  A    between atoms: C_29  and  C_30 
REMARK   10  A    between atoms: C_30  and  O_32 
REMARK   11  A    between atoms: C_33  and  C_34 
REMARK   12  A    between atoms: C_34  and  C_35 
REMARK   13  A    between atoms: C_35  and  C_36 
REMARK   14  A    between atoms: C_36  and  O_38 
REMARK   15  A    between atoms: C_39  and  C_40 
REMARK   16  A    between atoms: C_40  and  C_41 
REMARK   17  A    between atoms: C_41  and  C_42 
REMARK   18  A    between atoms: C_42  and  O_44 
REMARK   19  A    between atoms: C_45  and  C_46 
REMARK   20  A    between atoms: C_46  and  C_47 
REMARK   21  A    between atoms: C_47  and  O_49 
REMARK   22  A    between atoms: C_50  and  C_51 
REMARK   23  A    between atoms: C_51  and  C_52 
REMARK   24  A    between atoms: C_52  and  O_54 
REMARK   25  A    between atoms: C_55  and  C_56 
REMARK   26  A    between atoms: C_56  and  C_57 
REMARK   27  A    between atoms: C_57  and  C_58 
REMARK   28  A    between atoms: C_58  and  O_60 
ROOT
ATOM      1  O   UNK d   0     -19.330 -22.198  54.757  0.00  0.00    -0.650 OA
ATOM      2  C   UNK d   0     -18.320 -21.669  55.273  0.00  0.00     0.139 C 
ENDROOT
BRANCH   2   3
ATOM      3  O   UNK d   0     -17.462 -20.944  54.482  0.00  0.00    -0.776 OA
ATOM      4  H   UNK d   0     -17.805 -20.188  53.886  0.00  0.00     0.167 HD
ENDBRANCH   2   3
BRANCH   2   5
ATOM      5  C   UNK d   0     -18.055 -21.827  56.731  0.00  0.00     0.115 C 
BRANCH   5   6
ATOM      6  C   UNK d   0     -16.854 -21.014  57.130  0.00  0.00     0.052 C 
BRANCH   6   7
ATOM      7  C   UNK d   0     -17.087 -20.213  58.389  0.00  0.00    -0.020 A 
ATOM      8  C   UNK d   0     -17.559 -18.997  58.485  0.00  0.00    -0.011 A 
ATOM      9  C   UNK d   0     -17.596 -18.644  59.895  0.00  0.00     0.067 A 
ATOM     10  C   UNK d   0     -18.001 -17.533  60.650  0.00  0.00     0.062 C 
ATOM     11  N   UNK d   0     -17.122 -19.703  60.585  0.00  0.00    -0.248 NA
ATOM     12  C   UNK d   0     -18.222 -17.482  62.031  0.00  0.00     0.041 A 
ATOM     13  N   UNK d   0     -17.521 -17.995  63.060  0.00  0.00    -0.355 N 
ATOM     14  C   UNK d   0     -19.382 -16.849  62.512  0.00  0.00    -0.022 A 
ATOM     15  C   UNK d   0     -18.212 -17.712  64.181  0.00  0.00     0.042 A 
ATOM     16  H   UNK d   0     -16.548 -18.531  62.997  0.00  0.00     0.166 HD
ATOM     17  C   UNK d   0     -17.930 -18.014  65.528  0.00  0.00     0.062 C 
ATOM     18  C   UNK d   0     -19.385 -16.994  63.877  0.00  0.00    -0.013 A 
ATOM     19  C   UNK d   0     -17.493 -19.193  66.074  0.00  0.00     0.067 A 
ATOM     20  N   UNK d   0     -17.085 -20.139  65.224  0.00  0.00    -0.248 NA
ATOM     21  C   UNK d   0     -17.357 -19.736  67.416  0.00  0.00    -0.011 A 
ATOM     22  C   UNK d   0     -16.693 -21.261  65.912  0.00  0.00     0.066 A 
ATOM     23  C   UNK d   0     -16.207 -22.313  65.150  0.00  0.00     0.062 C 
ATOM     24  C   UNK d   0     -16.893 -20.948  67.313  0.00  0.00    -0.020 A 
ATOM     25  C   UNK d   0     -15.982 -22.340  63.765  0.00  0.00     0.041 A 
ATOM     26  N   UNK d   0     -16.685 -21.842  62.741  0.00  0.00    -0.355 N 
ATOM     27  C   UNK d   0     -14.814 -22.971  63.283  0.00  0.00    -0.022 A 
ATOM     28  C   UNK d   0     -16.004 -22.132  61.621  0.00  0.00     0.042 A 
ATOM     29  H   UNK d   0     -17.668 -21.314  62.805  0.00  0.00     0.166 HD
ATOM     30  C   UNK d   0     -16.276 -21.846  60.274  0.00  0.00     0.062 C 
ATOM     31  C   UNK d   0     -14.820 -22.844  61.928  0.00  0.00    -0.013 A 
ATOM     32  C   UNK d   0     -16.799 -20.680  59.737  0.00  0.00     0.066 A 
BRANCH   8  33
ATOM     33  C   UNK d   0     -17.980 -18.120  57.376  0.00  0.00     0.151 C 
BRANCH  33  34
ATOM     34  C   UNK d   0     -19.437 -18.138  57.157  0.00  0.00     0.143 C 
ATOM     35  O   UNK d   0     -20.206 -17.560  57.938  0.00  0.00    -0.650 OA
BRANCH  34  36
ATOM     36  O   UNK d   0     -19.948 -18.807  56.069  0.00  0.00    -0.776 OA
ATOM     37  H   UNK d   0     -20.855 -19.292  56.118  0.00  0.00     0.167 HD
ENDBRANCH  34  36
ENDBRANCH  33  34
ENDBRANCH   8  33
BRANCH  31  38
ATOM     38  C   UNK d   0     -13.760 -23.354  60.980  0.00  0.00     0.151 C 
BRANCH  38  39
ATOM     39  C   UNK d   0     -14.157 -24.565  60.293  0.00  0.00     0.143 C 
ATOM     40  O   UNK d   0     -14.017 -24.709  59.066  0.00  0.00    -0.650 OA
BRANCH  39  41
ATOM     41  O   UNK d   0     -14.717 -25.614  61.020  0.00  0.00    -0.776 OA
ATOM     42  H   UNK d   0     -14.479 -26.564  60.717  0.00  0.00     0.167 HD
ENDBRANCH  39  41
ENDBRANCH  38  39
ENDBRANCH  31  38
BRANCH  27  43
ATOM     43  C   UNK d   0     -13.722 -23.676  64.047  0.00  0.00     0.052 C 
BRANCH  43  44
ATOM     44  C   UNK d   0     -14.060 -25.090  64.393  0.00  0.00     0.115 C 
BRANCH  44  45
ATOM     45  C   UNK d   0     -13.474 -25.351  65.734  0.00  0.00     0.139 C 
ATOM     46  O   UNK d   0     -14.041 -26.193  66.474  0.00  0.00    -0.650 OA
BRANCH  45  47
ATOM     47  O   UNK d   0     -12.341 -24.714  66.191  0.00  0.00    -0.776 OA
ATOM     48  H   UNK d   0     -11.648 -24.282  65.558  0.00  0.00     0.167 HD
ENDBRANCH  45  47
ENDBRANCH  44  45
ENDBRANCH  43  44
ENDBRANCH  27  43
BRANCH  24  49
ATOM     49  C   UNK d   0     -16.568 -21.851  68.431  0.00  0.00     0.052 C 
BRANCH  49  50
ATOM     50  C   UNK d   0     -15.128 -21.680  68.842  0.00  0.00     0.115 C 
BRANCH  50  51
ATOM     51  C   UNK d   0     -14.162 -22.618  68.284  0.00  0.00     0.139 C 
ATOM     52  O   UNK d   0     -13.236 -22.260  67.519  0.00  0.00    -0.650 OA
BRANCH  51  53
ATOM     53  O   UNK d   0     -14.254 -23.965  68.598  0.00  0.00    -0.776 OA
ATOM     54  H   UNK d   0     -14.944 -24.518  68.121  0.00  0.00     0.167 HD
ENDBRANCH  51  53
ENDBRANCH  50  51
ENDBRANCH  49  50
ENDBRANCH  24  49
BRANCH  21  55
ATOM     55  C   UNK d   0     -17.702 -18.986  68.659  0.00  0.00     0.151 C 
BRANCH  55  56
ATOM     56  C   UNK d   0     -16.729 -17.922  68.949  0.00  0.00     0.143 C 
ATOM     57  O   UNK d   0     -15.500 -18.126  68.996  0.00  0.00    -0.650 OA
BRANCH  56  58
ATOM     58  O   UNK d   0     -17.220 -16.638  69.177  0.00  0.00    -0.776 OA
ATOM     59  H   UNK d   0     -17.838 -16.547  70.004  0.00  0.00     0.167 HD
ENDBRANCH  56  58
ENDBRANCH  55  56
ENDBRANCH  21  55
BRANCH  18  60
ATOM     60  C   UNK d   0     -20.457 -16.470  64.800  0.00  0.00     0.151 C 
BRANCH  60  61
ATOM     61  C   UNK d   0     -19.944 -15.199  65.334  0.00  0.00     0.143 C 
ATOM     62  O   UNK d   0     -19.663 -14.185  64.694  0.00  0.00    -0.650 OA
BRANCH  61  63
ATOM     63  O   UNK d   0     -19.764 -15.164  66.738  0.00  0.00    -0.776 OA
ATOM     64  H   UNK d   0     -20.068 -14.375  67.280  0.00  0.00     0.167 HD
ENDBRANCH  61  63
ENDBRANCH  60  61
ENDBRANCH  18  60
BRANCH  14  65
ATOM     65  C   UNK d   0     -20.427 -16.041  61.796  0.00  0.00     0.052 C 
BRANCH  65  66
ATOM     66  C   UNK d   0     -21.520 -16.876  61.228  0.00  0.00     0.115 C 
BRANCH  66  67
ATOM     67  C   UNK d   0     -22.416 -16.312  60.259  0.00  0.00     0.139 C 
ATOM     68  O   UNK d   0     -23.681 -16.462  60.432  0.00  0.00    -0.650 OA
BRANCH  67  69
ATOM     69  O   UNK d   0     -22.087 -15.595  59.108  0.00  0.00    -0.776 OA
ATOM     70  H   UNK d   0     -22.480 -14.645  59.045  0.00  0.00     0.167 HD
ENDBRANCH  67  69
ENDBRANCH  66  67
ENDBRANCH  65  66
ENDBRANCH  14  65
ENDBRANCH   6   7
ENDBRANCH   5   6
ENDBRANCH   2   5
TORSDOF 28
ENDMDL
MODEL 11
REMARK VINA RESULT:      -6.3      1.712      7.953
REMARK  28 active torsions:
REMARK  status: ('A' for Active; 'I' for Inactive)
REMARK    1  A    between atoms: C_2  and  O_3 
REMARK    2  A    between atoms: C_2  and  C_4 
REMARK    3  A    between atoms: C_4  and  C_5 
REMARK    4  A    between atoms: C_5  and  C_6 
REMARK    5  A    between atoms: C_7  and  C_8 
REMARK    6  A    between atoms: C_8  and  C_9 
REMARK    7  A    between atoms: C_9  and  O_11 
REMARK    8  A    between atoms: C_28  and  C_29 
REMARK    9  A    between atoms: C_29  and  C_30 
REMARK   10  A    between atoms: C_30  and  O_32 
REMARK   11  A    between atoms: C_33  and  C_34 
REMARK   12  A    between atoms: C_34  and  C_35 
REMARK   13  A    between atoms: C_35  and  C_36 
REMARK   14  A    between atoms: C_36  and  O_38 
REMARK   15  A    between atoms: C_39  and  C_40 
REMARK   16  A    between atoms: C_40  and  C_41 
REMARK   17  A    between atoms: C_41  and  C_42 
REMARK   18  A    between atoms: C_42  and  O_44 
REMARK   19  A    between atoms: C_45  and  C_46 
REMARK   20  A    between atoms: C_46  and  C_47 
REMARK   21  A    between atoms: C_47  and  O_49 
REMARK   22  A    between atoms: C_50  and  C_51 
REMARK   23  A    between atoms: C_51  and  C_52 
REMARK   24  A    between atoms: C_52  and  O_54 
REMARK   25  A    between atoms: C_55  and  C_56 
REMARK   26  A    between atoms: C_56  and  C_57 
REMARK   27  A    between atoms: C_57  and  C_58 
REMARK   28  A    between atoms: C_58  and  O_60 
ROOT
ATOM      1  O   UNK d   0     -19.217 -22.366  54.801  0.00  0.00    -0.650 OA
ATOM      2  C   UNK d   0     -17.984 -22.180  54.900  0.00  0.00     0.139 C 
ENDROOT
BRANCH   2   3
ATOM      3  O   UNK d   0     -17.462 -20.947  54.591  0.00  0.00    -0.776 OA
ATOM      4  H   UNK d   0     -17.591 -20.148  55.215  0.00  0.00     0.167 HD
ENDBRANCH   2   3
BRANCH   2   5
ATOM      5  C   UNK d   0     -17.094 -23.288  55.349  0.00  0.00     0.115 C 
BRANCH   5   6
ATOM      6  C   UNK d   0     -15.976 -22.743  56.197  0.00  0.00     0.052 C 
BRANCH   6   7
ATOM      7  C   UNK d   0     -16.330 -22.695  57.664  0.00  0.00    -0.020 A 
ATOM      8  C   UNK d   0     -16.307 -23.682  58.523  0.00  0.00    -0.011 A 
ATOM      9  C   UNK d   0     -16.735 -23.162  59.810  0.00  0.00     0.067 A 
ATOM     10  C   UNK d   0     -16.904 -23.677  61.105  0.00  0.00     0.062 C 
ATOM     11  N   UNK d   0     -17.005 -21.850  59.642  0.00  0.00    -0.248 NA
ATOM     12  C   UNK d   0     -17.061 -22.951  62.291  0.00  0.00     0.041 A 
ATOM     13  N   UNK d   0     -17.795 -21.857  62.571  0.00  0.00    -0.355 N 
ATOM     14  C   UNK d   0     -16.319 -23.331  63.424  0.00  0.00    -0.022 A 
ATOM     15  C   UNK d   0     -17.532 -21.528  63.849  0.00  0.00     0.042 A 
ATOM     16  H   UNK d   0     -18.500 -21.340  61.884  0.00  0.00     0.166 HD
ATOM     17  C   UNK d   0     -18.028 -20.475  64.642  0.00  0.00     0.062 C 
ATOM     18  C   UNK d   0     -16.610 -22.429  64.418  0.00  0.00    -0.013 A 
ATOM     19  C   UNK d   0     -18.190 -19.152  64.317  0.00  0.00     0.067 A 
ATOM     20  N   UNK d   0     -18.053 -18.826  63.029  0.00  0.00    -0.248 NA
ATOM     21  C   UNK d   0     -18.475 -17.925  65.041  0.00  0.00    -0.011 A 
ATOM     22  C   UNK d   0     -18.226 -17.474  62.859  0.00  0.00     0.066 A 
ATOM     23  C   UNK d   0     -18.148 -17.001  61.557  0.00  0.00     0.062 C 
ATOM     24  C   UNK d   0     -18.491 -16.946  64.183  0.00  0.00    -0.020 A 
ATOM     25  C   UNK d   0     -18.002 -17.748  60.378  0.00  0.00     0.041 A 
ATOM     26  N   UNK d   0     -17.261 -18.826  60.096  0.00  0.00    -0.355 N 
ATOM     27  C   UNK d   0     -18.751 -17.369  59.243  0.00  0.00    -0.022 A 
ATOM     28  C   UNK d   0     -17.516 -19.151  58.819  0.00  0.00     0.042 A 
ATOM     29  H   UNK d   0     -16.545 -19.339  60.784  0.00  0.00     0.166 HD
ATOM     30  C   UNK d   0     -17.022 -20.191  58.015  0.00  0.00     0.062 C 
ATOM     31  C   UNK d   0     -18.450 -18.252  58.252  0.00  0.00    -0.013 A 
ATOM     32  C   UNK d   0     -16.780 -21.507  58.373  0.00  0.00     0.066 A 
BRANCH   8  33
ATOM     33  C   UNK d   0     -15.925 -25.081  58.254  0.00  0.00     0.151 C 
BRANCH  33  34
ATOM     34  C   UNK d   0     -14.604 -25.428  58.808  0.00  0.00     0.143 C 
ATOM     35  O   UNK d   0     -13.562 -25.103  58.221  0.00  0.00    -0.650 OA
BRANCH  34  36
ATOM     36  O   UNK d   0     -14.530 -26.124  59.993  0.00  0.00    -0.776 OA
ATOM     37  H   UNK d   0     -14.222 -25.667  60.862  0.00  0.00     0.167 HD
ENDBRANCH  34  36
ENDBRANCH  33  34
ENDBRANCH   8  33
BRANCH  31  38
ATOM     38  C   UNK d   0     -19.023 -18.252  56.854  0.00  0.00     0.151 C 
BRANCH  38  39
ATOM     39  C   UNK d   0     -20.326 -18.877  56.781  0.00  0.00     0.143 C 
ATOM     40  O   UNK d   0     -20.498 -20.087  57.012  0.00  0.00    -0.650 OA
BRANCH  39  41
ATOM     41  O   UNK d   0     -21.439 -18.108  56.442  0.00  0.00    -0.776 OA
ATOM     42  H   UNK d   0     -21.318 -17.431  55.682  0.00  0.00     0.167 HD
ENDBRANCH  39  41
ENDBRANCH  38  39
ENDBRANCH  31  38
BRANCH  27  43
ATOM     43  C   UNK d   0     -19.717 -16.224  59.070  0.00  0.00     0.052 C 
BRANCH  43  44
ATOM     44  C   UNK d   0     -21.073 -16.505  59.632  0.00  0.00     0.115 C 
BRANCH  44  45
ATOM     45  C   UNK d   0     -21.990 -15.486  59.058  0.00  0.00     0.139 C 
ATOM     46  O   UNK d   0     -22.388 -14.559  59.806  0.00  0.00    -0.650 OA
BRANCH  45  47
ATOM     47  O   UNK d   0     -22.413 -15.516  57.747  0.00  0.00    -0.776 OA
ATOM     48  H   UNK d   0     -23.405 -15.419  57.475  0.00  0.00     0.167 HD
ENDBRANCH  45  47
ENDBRANCH  44  45
ENDBRANCH  43  44
ENDBRANCH  27  43
BRANCH  24  49
ATOM     49  C   UNK d   0     -18.779 -15.533  64.483  0.00  0.00     0.052 C 
BRANCH  49  50
ATOM     50  C   UNK d   0     -20.253 -15.255  64.332  0.00  0.00     0.115 C 
BRANCH  50  51
ATOM     51  C   UNK d   0     -20.983 -14.870  65.532  0.00  0.00     0.139 C 
ATOM     52  O   UNK d   0     -20.432 -14.758  66.653  0.00  0.00    -0.650 OA
BRANCH  51  53
ATOM     53  O   UNK d   0     -22.344 -14.614  65.455  0.00  0.00    -0.776 OA
ATOM     54  H   UNK d   0     -22.711 -13.834  65.972  0.00  0.00     0.167 HD
ENDBRANCH  51  53
ENDBRANCH  50  51
ENDBRANCH  49  50
ENDBRANCH  24  49
BRANCH  21  55
ATOM     55  C   UNK d   0     -18.706 -17.860  66.515  0.00  0.00     0.151 C 
BRANCH  55  56
ATOM     56  C   UNK d   0     -17.651 -18.553  67.270  0.00  0.00     0.143 C 
ATOM     57  O   UNK d   0     -16.439 -18.300  67.124  0.00  0.00    -0.650 OA
BRANCH  56  58
ATOM     58  O   UNK d   0     -18.042 -19.531  68.182  0.00  0.00    -0.776 OA
ATOM     59  H   UNK d   0     -18.965 -19.371  68.625  0.00  0.00     0.167 HD
ENDBRANCH  56  58
ENDBRANCH  55  56
ENDBRANCH  21  55
BRANCH  18  60
ATOM     60  C   UNK d   0     -16.024 -22.455  65.808  0.00  0.00     0.151 C 
BRANCH  60  61
ATOM     61  C   UNK d   0     -17.010 -23.151  66.648  0.00  0.00     0.143 C 
ATOM     62  O   UNK d   0     -17.315 -24.344  66.602  0.00  0.00    -0.650 OA
BRANCH  61  63
ATOM     63  O   UNK d   0     -17.664 -22.340  67.607  0.00  0.00    -0.776 OA
ATOM     64  H   UNK d   0     -17.986 -22.724  68.477  0.00  0.00     0.167 HD
ENDBRANCH  61  63
ENDBRANCH  60  61
ENDBRANCH  18  60
BRANCH  14  65
ATOM     65  C   UNK d   0     -15.441 -24.525  63.667  0.00  0.00     0.052 C 
BRANCH  65  66
ATOM     66  C   UNK d   0     -14.054 -24.158  64.061  0.00  0.00     0.115 C 
BRANCH  66  67
ATOM     67  C   UNK d   0     -13.045 -24.004  63.051  0.00  0.00     0.139 C 
ATOM     68  O   UNK d   0     -13.377 -24.174  61.820  0.00  0.00    -0.650 OA
BRANCH  67  69
ATOM     69  O   UNK d   0     -11.700 -23.683  63.231  0.00  0.00    -0.776 OA
ATOM     70  H   UNK d   0     -11.308 -23.004  62.563  0.00  0.00     0.167 HD
ENDBRANCH  67  69
ENDBRANCH  66  67
ENDBRANCH  65  66
ENDBRANCH  14  65
ENDBRANCH   6   7
ENDBRANCH   5   6
ENDBRANCH   2   5
TORSDOF 28
ENDMDL
MODEL 12
REMARK VINA RESULT:      -6.3      1.883      8.159
REMARK  28 active torsions:
REMARK  status: ('A' for Active; 'I' for Inactive)
REMARK    1  A    between atoms: C_2  and  O_3 
REMARK    2  A    between atoms: C_2  and  C_4 
REMARK    3  A    between atoms: C_4  and  C_5 
REMARK    4  A    between atoms: C_5  and  C_6 
REMARK    5  A    between atoms: C_7  and  C_8 
REMARK    6  A    between atoms: C_8  and  C_9 
REMARK    7  A    between atoms: C_9  and  O_11 
REMARK    8  A    between atoms: C_28  and  C_29 
REMARK    9  A    between atoms: C_29  and  C_30 
REMARK   10  A    between atoms: C_30  and  O_32 
REMARK   11  A    between atoms: C_33  and  C_34 
REMARK   12  A    between atoms: C_34  and  C_35 
REMARK   13  A    between atoms: C_35  and  C_36 
REMARK   14  A    between atoms: C_36  and  O_38 
REMARK   15  A    between atoms: C_39  and  C_40 
REMARK   16  A    between atoms: C_40  and  C_41 
REMARK   17  A    between atoms: C_41  and  C_42 
REMARK   18  A    between atoms: C_42  and  O_44 
REMARK   19  A    between atoms: C_45  and  C_46 
REMARK   20  A    between atoms: C_46  and  C_47 
REMARK   21  A    between atoms: C_47  and  O_49 
REMARK   22  A    between atoms: C_50  and  C_51 
REMARK   23  A    between atoms: C_51  and  C_52 
REMARK   24  A    between atoms: C_52  and  O_54 
REMARK   25  A    between atoms: C_55  and  C_56 
REMARK   26  A    between atoms: C_56  and  C_57 
REMARK   27  A    between atoms: C_57  and  C_58 
REMARK   28  A    between atoms: C_58  and  O_60 
ROOT
ATOM      1  O   UNK d   0     -19.863 -24.549  54.573  0.00  0.00    -0.650 OA
ATOM      2  C   UNK d   0     -19.409 -23.629  53.856  0.00  0.00     0.139 C 
ENDROOT
BRANCH   2   3
ATOM      3  O   UNK d   0     -19.007 -23.911  52.573  0.00  0.00    -0.776 OA
ATOM      4  H   UNK d   0     -18.736 -24.858  52.301  0.00  0.00     0.167 HD
ENDBRANCH   2   3
BRANCH   2   5
ATOM      5  C   UNK d   0     -19.307 -22.243  54.394  0.00  0.00     0.115 C 
BRANCH   5   6
ATOM      6  C   UNK d   0     -17.917 -21.989  54.911  0.00  0.00     0.052 C 
BRANCH   6   7
ATOM      7  C   UNK d   0     -17.833 -22.072  56.417  0.00  0.00    -0.020 A 
ATOM      8  C   UNK d   0     -17.477 -23.101  57.141  0.00  0.00    -0.011 A 
ATOM      9  C   UNK d   0     -17.558 -22.711  58.539  0.00  0.00     0.067 A 
ATOM     10  C   UNK d   0     -17.299 -23.321  59.777  0.00  0.00     0.062 C 
ATOM     11  N   UNK d   0     -17.976 -21.429  58.573  0.00  0.00    -0.248 NA
ATOM     12  C   UNK d   0     -17.168 -22.692  61.019  0.00  0.00     0.041 A 
ATOM     13  N   UNK d   0     -17.881 -21.704  61.593  0.00  0.00    -0.355 N 
ATOM     14  C   UNK d   0     -16.099 -23.058  61.858  0.00  0.00    -0.022 A 
ATOM     15  C   UNK d   0     -17.287 -21.428  62.769  0.00  0.00     0.042 A 
ATOM     16  H   UNK d   0     -18.797 -21.224  61.182  0.00  0.00     0.166 HD
ATOM     17  C   UNK d   0     -17.622 -20.486  63.762  0.00  0.00     0.062 C 
ATOM     18  C   UNK d   0     -16.166 -22.257  62.970  0.00  0.00    -0.013 A 
ATOM     19  C   UNK d   0     -17.984 -19.171  63.616  0.00  0.00     0.067 A 
ATOM     20  N   UNK d   0     -18.255 -18.752  62.378  0.00  0.00    -0.248 NA
ATOM     21  C   UNK d   0     -18.152 -18.029  64.500  0.00  0.00    -0.011 A 
ATOM     22  C   UNK d   0     -18.586 -17.419  62.387  0.00  0.00     0.066 A 
ATOM     23  C   UNK d   0     -18.929 -16.861  61.164  0.00  0.00     0.062 C 
ATOM     24  C   UNK d   0     -18.500 -17.006  63.774  0.00  0.00    -0.020 A 
ATOM     25  C   UNK d   0     -19.068 -17.513  59.929  0.00  0.00     0.041 A 
ATOM     26  N   UNK d   0     -18.350 -18.485  59.353  0.00  0.00    -0.355 N 
ATOM     27  C   UNK d   0     -20.143 -17.148  59.090  0.00  0.00    -0.022 A 
ATOM     28  C   UNK d   0     -18.935 -18.756  58.175  0.00  0.00     0.042 A 
ATOM     29  H   UNK d   0     -17.424 -18.958  59.762  0.00  0.00     0.166 HD
ATOM     30  C   UNK d   0     -18.608 -19.683  57.174  0.00  0.00     0.062 C 
ATOM     31  C   UNK d   0     -20.067 -17.930  57.979  0.00  0.00    -0.013 A 
ATOM     32  C   UNK d   0     -18.160 -20.986  57.329  0.00  0.00     0.066 A 
BRANCH   8  33
ATOM     33  C   UNK d   0     -17.070 -24.431  56.649  0.00  0.00     0.151 C 
BRANCH  33  34
ATOM     34  C   UNK d   0     -15.798 -24.399  55.906  0.00  0.00     0.143 C 
ATOM     35  O   UNK d   0     -15.678 -24.992  54.824  0.00  0.00    -0.650 OA
BRANCH  34  36
ATOM     36  O   UNK d   0     -14.731 -23.701  56.422  0.00  0.00    -0.776 OA
ATOM     37  H   UNK d   0     -14.499 -23.744  57.424  0.00  0.00     0.167 HD
ENDBRANCH  34  36
ENDBRANCH  33  34
ENDBRANCH   8  33
BRANCH  31  38
ATOM     38  C   UNK d   0     -21.019 -17.906  56.805  0.00  0.00     0.151 C 
BRANCH  38  39
ATOM     39  C   UNK d   0     -22.161 -18.775  56.990  0.00  0.00     0.143 C 
ATOM     40  O   UNK d   0     -22.043 -20.000  57.170  0.00  0.00    -0.650 OA
BRANCH  39  41
ATOM     41  O   UNK d   0     -23.446 -18.233  56.970  0.00  0.00    -0.776 OA
ATOM     42  H   UNK d   0     -24.190 -18.794  57.397  0.00  0.00     0.167 HD
ENDBRANCH  39  41
ENDBRANCH  38  39
ENDBRANCH  31  38
BRANCH  27  43
ATOM     43  C   UNK d   0     -21.213 -16.106  59.302  0.00  0.00     0.052 C 
BRANCH  43  44
ATOM     44  C   UNK d   0     -22.410 -16.627  60.030  0.00  0.00     0.115 C 
BRANCH  44  45
ATOM     45  C   UNK d   0     -23.572 -15.827  59.564  0.00  0.00     0.139 C 
ATOM     46  O   UNK d   0     -24.284 -15.259  60.428  0.00  0.00    -0.650 OA
BRANCH  45  47
ATOM     47  O   UNK d   0     -23.893 -15.682  58.231  0.00  0.00    -0.776 OA
ATOM     48  H   UNK d   0     -24.517 -14.936  57.883  0.00  0.00     0.167 HD
ENDBRANCH  45  47
ENDBRANCH  44  45
ENDBRANCH  43  44
ENDBRANCH  27  43
BRANCH  24  49
ATOM     49  C   UNK d   0     -18.811 -15.655  64.270  0.00  0.00     0.052 C 
BRANCH  49  50
ATOM     50  C   UNK d   0     -20.297 -15.409  64.227  0.00  0.00     0.115 C 
BRANCH  50  51
ATOM     51  C   UNK d   0     -20.970 -15.184  65.499  0.00  0.00     0.139 C 
ATOM     52  O   UNK d   0     -20.452 -15.484  66.601  0.00  0.00    -0.650 OA
BRANCH  51  53
ATOM     53  O   UNK d   0     -22.236 -14.620  65.515  0.00  0.00    -0.776 OA
ATOM     54  H   UNK d   0     -22.324 -13.655  65.784  0.00  0.00     0.167 HD
ENDBRANCH  51  53
ENDBRANCH  50  51
ENDBRANCH  49  50
ENDBRANCH  24  49
BRANCH  21  55
ATOM     55  C   UNK d   0     -17.951 -18.081  65.978  0.00  0.00     0.151 C 
BRANCH  55  56
ATOM     56  C   UNK d   0     -19.016 -18.839  66.654  0.00  0.00     0.143 C 
ATOM     57  O   UNK d   0     -18.789 -19.853  67.343  0.00  0.00    -0.650 OA
BRANCH  56  58
ATOM     58  O   UNK d   0     -20.327 -18.390  66.505  0.00  0.00    -0.776 OA
ATOM     59  H   UNK d   0     -20.418 -17.403  66.204  0.00  0.00     0.167 HD
ENDBRANCH  56  58
ENDBRANCH  55  56
ENDBRANCH  21  55
BRANCH  18  60
ATOM     60  C   UNK d   0     -15.203 -22.305  64.130  0.00  0.00     0.151 C 
BRANCH  60  61
ATOM     61  C   UNK d   0     -15.684 -23.381  65.010  0.00  0.00     0.143 C 
ATOM     62  O   UNK d   0     -16.803 -23.481  65.516  0.00  0.00    -0.650 OA
BRANCH  61  63
ATOM     63  O   UNK d   0     -14.740 -24.398  65.290  0.00  0.00    -0.776 OA
ATOM     64  H   UNK d   0     -14.629 -25.185  64.676  0.00  0.00     0.167 HD
ENDBRANCH  61  63
ENDBRANCH  60  61
ENDBRANCH  18  60
BRANCH  14  65
ATOM     65  C   UNK d   0     -15.089 -24.163  61.734  0.00  0.00     0.052 C 
BRANCH  65  66
ATOM     66  C   UNK d   0     -13.862 -23.749  61.001  0.00  0.00     0.115 C 
BRANCH  66  67
ATOM     67  C   UNK d   0     -13.664 -24.178  59.645  0.00  0.00     0.139 C 
ATOM     68  O   UNK d   0     -13.031 -23.399  58.841  0.00  0.00    -0.650 OA
BRANCH  67  69
ATOM     69  O   UNK d   0     -14.083 -25.371  59.057  0.00  0.00    -0.776 OA
ATOM     70  H   UNK d   0     -14.109 -25.378  58.027  0.00  0.00     0.167 HD
ENDBRANCH  67  69
ENDBRANCH  66  67
ENDBRANCH  65  66
ENDBRANCH  14  65
ENDBRANCH   6   7
ENDBRANCH   5   6
ENDBRANCH   2   5
TORSDOF 28
ENDMDL
MODEL 13
REMARK VINA RESULT:      -6.3      1.809      7.712
REMARK  28 active torsions:
REMARK  status: ('A' for Active; 'I' for Inactive)
REMARK    1  A    between atoms: C_2  and  O_3 
REMARK    2  A    between atoms: C_2  and  C_4 
REMARK    3  A    between atoms: C_4  and  C_5 
REMARK    4  A    between atoms: C_5  and  C_6 
REMARK    5  A    between atoms: C_7  and  C_8 
REMARK    6  A    between atoms: C_8  and  C_9 
REMARK    7  A    between atoms: C_9  and  O_11 
REMARK    8  A    between atoms: C_28  and  C_29 
REMARK    9  A    between atoms: C_29  and  C_30 
REMARK   10  A    between atoms: C_30  and  O_32 
REMARK   11  A    between atoms: C_33  and  C_34 
REMARK   12  A    between atoms: C_34  and  C_35 
REMARK   13  A    between atoms: C_35  and  C_36 
REMARK   14  A    between atoms: C_36  and  O_38 
REMARK   15  A    between atoms: C_39  and  C_40 
REMARK   16  A    between atoms: C_40  and  C_41 
REMARK   17  A    between atoms: C_41  and  C_42 
REMARK   18  A    between atoms: C_42  and  O_44 
REMARK   19  A    between atoms: C_45  and  C_46 
REMARK   20  A    between atoms: C_46  and  C_47 
REMARK   21  A    between atoms: C_47  and  O_49 
REMARK   22  A    between atoms: C_50  and  C_51 
REMARK   23  A    between atoms: C_51  and  C_52 
REMARK   24  A    between atoms: C_52  and  O_54 
REMARK   25  A    between atoms: C_55  and  C_56 
REMARK   26  A    between atoms: C_56  and  C_57 
REMARK   27  A    between atoms: C_57  and  C_58 
REMARK   28  A    between atoms: C_58  and  O_60 
ROOT
ATOM      1  O   UNK d   0     -20.598 -19.201  58.244  0.00  0.00    -0.650 OA
ATOM      2  C   UNK d   0     -19.865 -18.672  57.378  0.00  0.00     0.139 C 
ENDROOT
BRANCH   2   3
ATOM      3  O   UNK d   0     -19.991 -19.055  56.065  0.00  0.00    -0.776 OA
ATOM      4  H   UNK d   0     -19.630 -18.470  55.308  0.00  0.00     0.167 HD
ENDBRANCH   2   3
BRANCH   2   5
ATOM      5  C   UNK d   0     -18.867 -17.638  57.773  0.00  0.00     0.115 C 
BRANCH   5   6
ATOM      6  C   UNK d   0     -17.474 -18.199  57.673  0.00  0.00     0.052 C 
BRANCH   6   7
ATOM      7  C   UNK d   0     -17.213 -19.290  58.684  0.00  0.00    -0.020 A 
ATOM      8  C   UNK d   0     -16.800 -20.510  58.453  0.00  0.00    -0.011 A 
ATOM      9  C   UNK d   0     -16.702 -21.195  59.731  0.00  0.00     0.067 A 
ATOM     10  C   UNK d   0     -16.313 -22.471  60.169  0.00  0.00     0.062 C 
ATOM     11  N   UNK d   0     -17.079 -20.319  60.686  0.00  0.00    -0.248 NA
ATOM     12  C   UNK d   0     -16.017 -22.864  61.478  0.00  0.00     0.041 A 
ATOM     13  N   UNK d   0     -16.630 -22.590  62.646  0.00  0.00    -0.355 N 
ATOM     14  C   UNK d   0     -14.866 -23.637  61.713  0.00  0.00    -0.022 A 
ATOM     15  C   UNK d   0     -15.893 -23.163  63.616  0.00  0.00     0.042 A 
ATOM     16  H   UNK d   0     -17.575 -22.019  62.780  0.00  0.00     0.166 HD
ATOM     17  C   UNK d   0     -16.081 -23.187  65.012  0.00  0.00     0.062 C 
ATOM     18  C   UNK d   0     -14.778 -23.828  63.070  0.00  0.00    -0.013 A 
ATOM     19  C   UNK d   0     -16.423 -22.160  65.854  0.00  0.00     0.067 A 
ATOM     20  N   UNK d   0     -16.830 -21.021  65.286  0.00  0.00    -0.248 NA
ATOM     21  C   UNK d   0     -16.454 -21.954  67.293  0.00  0.00    -0.011 A 
ATOM     22  C   UNK d   0     -17.122 -20.086  66.248  0.00  0.00     0.066 A 
ATOM     23  C   UNK d   0     -17.594 -18.863  65.795  0.00  0.00     0.062 C 
ATOM     24  C   UNK d   0     -16.859 -20.737  67.516  0.00  0.00    -0.020 A 
ATOM     25  C   UNK d   0     -17.897 -18.493  64.475  0.00  0.00     0.041 A 
ATOM     26  N   UNK d   0     -17.279 -18.752  63.317  0.00  0.00    -0.355 N 
ATOM     27  C   UNK d   0     -19.055 -17.720  64.240  0.00  0.00    -0.022 A 
ATOM     28  C   UNK d   0     -18.008 -18.175  62.348  0.00  0.00     0.042 A 
ATOM     29  H   UNK d   0     -16.324 -19.317  63.185  0.00  0.00     0.166 HD
ATOM     30  C   UNK d   0     -17.827 -18.135  60.957  0.00  0.00     0.062 C 
ATOM     31  C   UNK d   0     -19.133 -17.515  62.897  0.00  0.00    -0.013 A 
ATOM     32  C   UNK d   0     -17.398 -19.154  60.121  0.00  0.00     0.066 A 
BRANCH   8  33
ATOM     33  C   UNK d   0     -16.490 -21.106  57.141  0.00  0.00     0.151 C 
BRANCH  33  34
ATOM     34  C   UNK d   0     -17.696 -21.380  56.339  0.00  0.00     0.143 C 
ATOM     35  O   UNK d   0     -18.667 -21.971  56.833  0.00  0.00    -0.650 OA
BRANCH  34  36
ATOM     36  O   UNK d   0     -17.740 -20.975  55.025  0.00  0.00    -0.776 OA
ATOM     37  H   UNK d   0     -17.016 -20.359  54.631  0.00  0.00     0.167 HD
ENDBRANCH  34  36
ENDBRANCH  33  34
ENDBRANCH   8  33
BRANCH  31  38
ATOM     38  C   UNK d   0     -20.217 -16.750  62.173  0.00  0.00     0.151 C 
BRANCH  38  39
ATOM     39  C   UNK d   0     -21.356 -17.577  61.833  0.00  0.00     0.143 C 
ATOM     40  O   UNK d   0     -22.457 -17.459  62.399  0.00  0.00    -0.650 OA
BRANCH  39  41
ATOM     41  O   UNK d   0     -21.228 -18.543  60.835  0.00  0.00    -0.776 OA
ATOM     42  H   UNK d   0     -22.039 -18.688  60.226  0.00  0.00     0.167 HD
ENDBRANCH  39  41
ENDBRANCH  38  39
ENDBRANCH  31  38
BRANCH  27  43
ATOM     43  C   UNK d   0     -20.064 -17.181  65.223  0.00  0.00     0.052 C 
BRANCH  43  44
ATOM     44  C   UNK d   0     -19.538 -16.055  66.053  0.00  0.00     0.115 C 
BRANCH  44  45
ATOM     45  C   UNK d   0     -20.098 -14.806  65.477  0.00  0.00     0.139 C 
ATOM     46  O   UNK d   0     -19.433 -14.211  64.593  0.00  0.00    -0.650 OA
BRANCH  45  47
ATOM     47  O   UNK d   0     -21.311 -14.281  65.867  0.00  0.00    -0.776 OA
ATOM     48  H   UNK d   0     -22.082 -14.864  66.231  0.00  0.00     0.167 HD
ENDBRANCH  45  47
ENDBRANCH  44  45
ENDBRANCH  43  44
ENDBRANCH  27  43
BRANCH  24  49
ATOM     49  C   UNK d   0     -17.072 -20.121  68.837  0.00  0.00     0.052 C 
BRANCH  49  50
ATOM     50  C   UNK d   0     -15.974 -19.134  69.139  0.00  0.00     0.115 C 
BRANCH  50  51
ATOM     51  C   UNK d   0     -14.684 -19.677  69.541  0.00  0.00     0.139 C 
ATOM     52  O   UNK d   0     -14.450 -20.072  70.707  0.00  0.00    -0.650 OA
BRANCH  51  53
ATOM     53  O   UNK d   0     -13.658 -19.766  68.613  0.00  0.00    -0.776 OA
ATOM     54  H   UNK d   0     -12.710 -19.740  68.947  0.00  0.00     0.167 HD
ENDBRANCH  51  53
ENDBRANCH  50  51
ENDBRANCH  49  50
ENDBRANCH  24  49
BRANCH  21  55
ATOM     55  C   UNK d   0     -16.079 -22.996  68.293  0.00  0.00     0.151 C 
BRANCH  55  56
ATOM     56  C   UNK d   0     -14.684 -23.436  68.135  0.00  0.00     0.143 C 
ATOM     57  O   UNK d   0     -13.713 -22.667  68.277  0.00  0.00    -0.650 OA
BRANCH  56  58
ATOM     58  O   UNK d   0     -14.458 -24.773  67.812  0.00  0.00    -0.776 OA
ATOM     59  H   UNK d   0     -14.856 -25.076  66.905  0.00  0.00     0.167 HD
ENDBRANCH  56  58
ENDBRANCH  55  56
ENDBRANCH  21  55
BRANCH  18  60
ATOM     60  C   UNK d   0     -13.684 -24.600  63.765  0.00  0.00     0.151 C 
BRANCH  60  61
ATOM     61  C   UNK d   0     -12.807 -23.592  64.381  0.00  0.00     0.143 C 
ATOM     62  O   UNK d   0     -12.416 -22.541  63.874  0.00  0.00    -0.650 OA
BRANCH  61  63
ATOM     63  O   UNK d   0     -12.383 -23.887  65.699  0.00  0.00    -0.776 OA
ATOM     64  H   UNK d   0     -12.008 -24.790  65.933  0.00  0.00     0.167 HD
ENDBRANCH  61  63
ENDBRANCH  60  61
ENDBRANCH  18  60
BRANCH  14  65
ATOM     65  C   UNK d   0     -13.907 -24.285  60.755  0.00  0.00     0.052 C 
BRANCH  65  66
ATOM     66  C   UNK d   0     -12.739 -23.424  60.430  0.00  0.00     0.115 C 
BRANCH  66  67
ATOM     67  C   UNK d   0     -11.415 -23.980  60.457  0.00  0.00     0.139 C 
ATOM     68  O   UNK d   0     -10.714 -23.843  61.527  0.00  0.00    -0.650 OA
BRANCH  67  69
ATOM     69  O   UNK d   0     -10.760 -24.675  59.441  0.00  0.00    -0.776 OA
ATOM     70  H   UNK d   0     -10.029 -24.150  58.939  0.00  0.00     0.167 HD
ENDBRANCH  67  69
ENDBRANCH  66  67
ENDBRANCH  65  66
ENDBRANCH  14  65
ENDBRANCH   6   7
ENDBRANCH   5   6
ENDBRANCH   2   5
TORSDOF 28
ENDMDL
MODEL 14
REMARK VINA RESULT:      -6.3      1.601      2.550
REMARK  28 active torsions:
REMARK  status: ('A' for Active; 'I' for Inactive)
REMARK    1  A    between atoms: C_2  and  O_3 
REMARK    2  A    between atoms: C_2  and  C_4 
REMARK    3  A    between atoms: C_4  and  C_5 
REMARK    4  A    between atoms: C_5  and  C_6 
REMARK    5  A    between atoms: C_7  and  C_8 
REMARK    6  A    between atoms: C_8  and  C_9 
REMARK    7  A    between atoms: C_9  and  O_11 
REMARK    8  A    between atoms: C_28  and  C_29 
REMARK    9  A    between atoms: C_29  and  C_30 
REMARK   10  A    between atoms: C_30  and  O_32 
REMARK   11  A    between atoms: C_33  and  C_34 
REMARK   12  A    between atoms: C_34  and  C_35 
REMARK   13  A    between atoms: C_35  and  C_36 
REMARK   14  A    between atoms: C_36  and  O_38 
REMARK   15  A    between atoms: C_39  and  C_40 
REMARK   16  A    between atoms: C_40  and  C_41 
REMARK   17  A    between atoms: C_41  and  C_42 
REMARK   18  A    between atoms: C_42  and  O_44 
REMARK   19  A    between atoms: C_45  and  C_46 
REMARK   20  A    between atoms: C_46  and  C_47 
REMARK   21  A    between atoms: C_47  and  O_49 
REMARK   22  A    between atoms: C_50  and  C_51 
REMARK   23  A    between atoms: C_51  and  C_52 
REMARK   24  A    between atoms: C_52  and  O_54 
REMARK   25  A    between atoms: C_55  and  C_56 
REMARK   26  A    between atoms: C_56  and  C_57 
REMARK   27  A    between atoms: C_57  and  C_58 
REMARK   28  A    between atoms: C_58  and  O_60 
ROOT
ATOM      1  O   UNK d   0     -18.211 -20.921  55.476  0.00  0.00    -0.650 OA
ATOM      2  C   UNK d   0     -19.403 -20.796  55.836  0.00  0.00     0.139 C 
ENDROOT
BRANCH   2   3
ATOM      3  O   UNK d   0     -20.273 -21.844  55.657  0.00  0.00    -0.776 OA
ATOM      4  H   UNK d   0     -20.131 -22.736  56.137  0.00  0.00     0.167 HD
ENDBRANCH   2   3
BRANCH   2   5
ATOM      5  C   UNK d   0     -19.870 -19.521  56.450  0.00  0.00     0.115 C 
BRANCH   5   6
ATOM      6  C   UNK d   0     -18.691 -18.691  56.880  0.00  0.00     0.052 C 
BRANCH   6   7
ATOM      7  C   UNK d   0     -18.497 -18.688  58.377  0.00  0.00    -0.020 A 
ATOM      8  C   UNK d   0     -18.829 -17.746  59.223  0.00  0.00    -0.011 A 
ATOM      9  C   UNK d   0     -18.439 -18.184  60.553  0.00  0.00     0.067 A 
ATOM     10  C   UNK d   0     -18.529 -17.670  61.855  0.00  0.00     0.062 C 
ATOM     11  N   UNK d   0     -17.872 -19.402  60.423  0.00  0.00    -0.248 NA
ATOM     12  C   UNK d   0     -18.347 -18.365  63.056  0.00  0.00     0.041 A 
ATOM     13  N   UNK d   0     -17.426 -19.278  63.420  0.00  0.00    -0.355 N 
ATOM     14  C   UNK d   0     -19.273 -18.178  64.098  0.00  0.00    -0.022 A 
ATOM     15  C   UNK d   0     -17.748 -19.680  64.664  0.00  0.00     0.042 A 
ATOM     16  H   UNK d   0     -16.554 -19.616  62.818  0.00  0.00     0.166 HD
ATOM     17  C   UNK d   0     -17.122 -20.615  65.513  0.00  0.00     0.062 C 
ATOM     18  C   UNK d   0     -18.901 -19.013  65.122  0.00  0.00    -0.013 A 
ATOM     19  C   UNK d   0     -16.640 -21.864  65.214  0.00  0.00     0.067 A 
ATOM     20  N   UNK d   0     -16.562 -22.188  63.921  0.00  0.00    -0.248 NA
ATOM     21  C   UNK d   0     -16.174 -23.012  65.972  0.00  0.00    -0.011 A 
ATOM     22  C   UNK d   0     -16.079 -23.466  63.778  0.00  0.00     0.066 A 
ATOM     23  C   UNK d   0     -15.910 -23.920  62.479  0.00  0.00     0.062 C 
ATOM     24  C   UNK d   0     -15.851 -23.948  65.127  0.00  0.00    -0.020 A 
ATOM     25  C   UNK d   0     -16.087 -23.201  61.286  0.00  0.00     0.041 A 
ATOM     26  N   UNK d   0     -17.010 -22.305  60.918  0.00  0.00    -0.355 N 
ATOM     27  C   UNK d   0     -15.154 -23.386  60.242  0.00  0.00    -0.022 A 
ATOM     28  C   UNK d   0     -16.696 -21.909  59.675  0.00  0.00     0.042 A 
ATOM     29  H   UNK d   0     -17.892 -21.974  61.521  0.00  0.00     0.166 HD
ATOM     30  C   UNK d   0     -17.315 -20.987  58.816  0.00  0.00     0.062 C 
ATOM     31  C   UNK d   0     -15.532 -22.571  59.219  0.00  0.00    -0.013 A 
ATOM     32  C   UNK d   0     -17.877 -19.762  59.138  0.00  0.00     0.066 A 
BRANCH   8  33
ATOM     33  C   UNK d   0     -19.477 -16.460  58.906  0.00  0.00     0.151 C 
BRANCH  33  34
ATOM     34  C   UNK d   0     -20.922 -16.463  59.195  0.00  0.00     0.143 C 
ATOM     35  O   UNK d   0     -21.621 -17.453  58.937  0.00  0.00    -0.650 OA
BRANCH  34  36
ATOM     36  O   UNK d   0     -21.501 -15.348  59.757  0.00  0.00    -0.776 OA
ATOM     37  H   UNK d   0     -21.926 -14.615  59.173  0.00  0.00     0.167 HD
ENDBRANCH  34  36
ENDBRANCH  33  34
ENDBRANCH   8  33
BRANCH  31  38
ATOM     38  C   UNK d   0     -14.824 -22.420  57.893  0.00  0.00     0.151 C 
BRANCH  38  39
ATOM     39  C   UNK d   0     -15.289 -23.362  56.898  0.00  0.00     0.143 C 
ATOM     40  O   UNK d   0     -14.536 -24.202  56.373  0.00  0.00    -0.650 OA
BRANCH  39  41
ATOM     41  O   UNK d   0     -16.627 -23.340  56.503  0.00  0.00    -0.776 OA
ATOM     42  H   UNK d   0     -17.121 -24.238  56.495  0.00  0.00     0.167 HD
ENDBRANCH  39  41
ENDBRANCH  38  39
ENDBRANCH  31  38
BRANCH  27  43
ATOM     43  C   UNK d   0     -13.948 -24.289  60.184  0.00  0.00     0.052 C 
BRANCH  43  44
ATOM     44  C   UNK d   0     -12.652 -23.552  60.288  0.00  0.00     0.115 C 
BRANCH  44  45
ATOM     45  C   UNK d   0     -12.378 -23.376  61.738  0.00  0.00     0.139 C 
ATOM     46  O   UNK d   0     -11.721 -24.269  62.328  0.00  0.00    -0.650 OA
BRANCH  45  47
ATOM     47  O   UNK d   0     -12.810 -22.280  62.453  0.00  0.00    -0.776 OA
ATOM     48  H   UNK d   0     -12.818 -21.324  62.061  0.00  0.00     0.167 HD
ENDBRANCH  45  47
ENDBRANCH  44  45
ENDBRANCH  43  44
ENDBRANCH  27  43
BRANCH  24  49
ATOM     49  C   UNK d   0     -15.294 -25.269  65.464  0.00  0.00     0.052 C 
BRANCH  49  50
ATOM     50  C   UNK d   0     -13.858 -25.364  65.015  0.00  0.00     0.115 C 
BRANCH  50  51
ATOM     51  C   UNK d   0     -12.867 -24.639  65.800  0.00  0.00     0.139 C 
ATOM     52  O   UNK d   0     -12.485 -25.026  66.929  0.00  0.00    -0.650 OA
BRANCH  51  53
ATOM     53  O   UNK d   0     -12.314 -23.472  65.297  0.00  0.00    -0.776 OA
ATOM     54  H   UNK d   0     -11.329 -23.320  65.422  0.00  0.00     0.167 HD
ENDBRANCH  51  53
ENDBRANCH  50  51
ENDBRANCH  49  50
ENDBRANCH  24  49
BRANCH  21  55
ATOM     55  C   UNK d   0     -16.096 -23.053  67.462  0.00  0.00     0.151 C 
BRANCH  55  56
ATOM     56  C   UNK d   0     -15.150 -22.059  67.992  0.00  0.00     0.143 C 
ATOM     57  O   UNK d   0     -13.922 -22.116  67.782  0.00  0.00    -0.650 OA
BRANCH  56  58
ATOM     58  O   UNK d   0     -15.667 -21.017  68.760  0.00  0.00    -0.776 OA
ATOM     59  H   UNK d   0     -16.342 -20.405  68.266  0.00  0.00     0.167 HD
ENDBRANCH  56  58
ENDBRANCH  55  56
ENDBRANCH  21  55
BRANCH  18  60
ATOM     60  C   UNK d   0     -19.626 -19.142  66.439  0.00  0.00     0.151 C 
BRANCH  60  61
ATOM     61  C   UNK d   0     -18.886 -18.300  67.391  0.00  0.00     0.143 C 
ATOM     62  O   UNK d   0     -18.902 -17.071  67.463  0.00  0.00    -0.650 OA
BRANCH  61  63
ATOM     63  O   UNK d   0     -18.076 -19.004  68.314  0.00  0.00    -0.776 OA
ATOM     64  H   UNK d   0     -17.175 -19.360  68.047  0.00  0.00     0.167 HD
ENDBRANCH  61  63
ENDBRANCH  60  61
ENDBRANCH  18  60
BRANCH  14  65
ATOM     65  C   UNK d   0     -20.412 -17.209  64.236  0.00  0.00     0.052 C 
BRANCH  65  66
ATOM     66  C   UNK d   0     -21.683 -17.719  63.654  0.00  0.00     0.115 C 
BRANCH  66  67
ATOM     67  C   UNK d   0     -22.327 -16.988  62.600  0.00  0.00     0.139 C 
ATOM     68  O   UNK d   0     -22.212 -15.707  62.582  0.00  0.00    -0.650 OA
BRANCH  67  69
ATOM     69  O   UNK d   0     -23.093 -17.498  61.552  0.00  0.00    -0.776 OA
ATOM     70  H   UNK d   0     -23.893 -16.919  61.259  0.00  0.00     0.167 HD
ENDBRANCH  67  69
ENDBRANCH  66  67
ENDBRANCH  65  66
ENDBRANCH  14  65
ENDBRANCH   6   7
ENDBRANCH   5   6
ENDBRANCH   2   5
TORSDOF 28
ENDMDL
MODEL 15
REMARK VINA RESULT:      -6.2     15.398     21.954
REMARK  28 active torsions:
REMARK  status: ('A' for Active; 'I' for Inactive)
REMARK    1  A    between atoms: C_2  and  O_3 
REMARK    2  A    between atoms: C_2  and  C_4 
REMARK    3  A    between atoms: C_4  and  C_5 
REMARK    4  A    between atoms: C_5  and  C_6 
REMARK    5  A    between atoms: C_7  and  C_8 
REMARK    6  A    between atoms: C_8  and  C_9 
REMARK    7  A    between atoms: C_9  and  O_11 
REMARK    8  A    between atoms: C_28  and  C_29 
REMARK    9  A    between atoms: C_29  and  C_30 
REMARK   10  A    between atoms: C_30  and  O_32 
REMARK   11  A    between atoms: C_33  and  C_34 
REMARK   12  A    between atoms: C_34  and  C_35 
REMARK   13  A    between atoms: C_35  and  C_36 
REMARK   14  A    between atoms: C_36  and  O_38 
REMARK   15  A    between atoms: C_39  and  C_40 
REMARK   16  A    between atoms: C_40  and  C_41 
REMARK   17  A    between atoms: C_41  and  C_42 
REMARK   18  A    between atoms: C_42  and  O_44 
REMARK   19  A    between atoms: C_45  and  C_46 
REMARK   20  A    between atoms: C_46  and  C_47 
REMARK   21  A    between atoms: C_47  and  O_49 
REMARK   22  A    between atoms: C_50  and  C_51 
REMARK   23  A    between atoms: C_51  and  C_52 
REMARK   24  A    between atoms: C_52  and  O_54 
REMARK   25  A    between atoms: C_55  and  C_56 
REMARK   26  A    between atoms: C_56  and  C_57 
REMARK   27  A    between atoms: C_57  and  C_58 
REMARK   28  A    between atoms: C_58  and  O_60 
ROOT
ATOM      1  O   UNK d   0      -4.922 -37.353  47.646  0.00  0.00    -0.650 OA
ATOM      2  C   UNK d   0      -4.654 -37.435  48.865  0.00  0.00     0.139 C 
ENDROOT
BRANCH   2   3
ATOM      3  O   UNK d   0      -3.795 -38.414  49.302  0.00  0.00    -0.776 OA
ATOM      4  H   UNK d   0      -3.218 -38.277  50.134  0.00  0.00     0.167 HD
ENDBRANCH   2   3
BRANCH   2   5
ATOM      5  C   UNK d   0      -5.264 -36.478  49.831  0.00  0.00     0.115 C 
BRANCH   5   6
ATOM      6  C   UNK d   0      -5.068 -35.064  49.354  0.00  0.00     0.052 C 
BRANCH   6   7
ATOM      7  C   UNK d   0      -6.371 -34.316  49.203  0.00  0.00    -0.020 A 
ATOM      8  C   UNK d   0      -7.014 -33.640  50.120  0.00  0.00    -0.011 A 
ATOM      9  C   UNK d   0      -8.220 -33.102  49.513  0.00  0.00     0.067 A 
ATOM     10  C   UNK d   0      -9.293 -32.299  49.930  0.00  0.00     0.062 C 
ATOM     11  N   UNK d   0      -8.234 -33.505  48.225  0.00  0.00    -0.248 NA
ATOM     12  C   UNK d   0     -10.230 -31.649  49.120  0.00  0.00     0.041 A 
ATOM     13  N   UNK d   0     -10.896 -32.066  48.027  0.00  0.00    -0.355 N 
ATOM     14  C   UNK d   0     -10.552 -30.307  49.393  0.00  0.00    -0.022 A 
ATOM     15  C   UNK d   0     -11.626 -31.020  47.594  0.00  0.00     0.042 A 
ATOM     16  H   UNK d   0     -10.866 -33.084  47.581  0.00  0.00     0.166 HD
ATOM     17  C   UNK d   0     -12.501 -30.909  46.495  0.00  0.00     0.062 C 
ATOM     18  C   UNK d   0     -11.436 -29.899  48.425  0.00  0.00    -0.013 A 
ATOM     19  C   UNK d   0     -12.326 -31.344  45.206  0.00  0.00     0.067 A 
ATOM     20  N   UNK d   0     -11.288 -32.152  44.976  0.00  0.00    -0.248 NA
ATOM     21  C   UNK d   0     -12.999 -31.139  43.934  0.00  0.00    -0.011 A 
ATOM     22  C   UNK d   0     -11.233 -32.490  43.646  0.00  0.00     0.066 A 
ATOM     23  C   UNK d   0     -10.220 -33.361  43.273  0.00  0.00     0.062 C 
ATOM     24  C   UNK d   0     -12.352 -31.809  43.024  0.00  0.00    -0.020 A 
ATOM     25  C   UNK d   0      -9.295 -34.012  44.104  0.00  0.00     0.041 A 
ATOM     26  N   UNK d   0      -8.622 -33.594  45.182  0.00  0.00    -0.355 N 
ATOM     27  C   UNK d   0      -8.977 -35.361  43.832  0.00  0.00    -0.022 A 
ATOM     28  C   UNK d   0      -7.887 -34.632  45.611  0.00  0.00     0.042 A 
ATOM     29  H   UNK d   0      -8.645 -32.567  45.623  0.00  0.00     0.166 HD
ATOM     30  C   UNK d   0      -7.005 -34.753  46.696  0.00  0.00     0.062 C 
ATOM     31  C   UNK d   0      -8.087 -35.761  44.781  0.00  0.00    -0.013 A 
ATOM     32  C   UNK d   0      -7.149 -34.239  47.975  0.00  0.00     0.066 A 
BRANCH   8  33
ATOM     33  C   UNK d   0      -6.610 -33.449  51.525  0.00  0.00     0.151 C 
BRANCH  33  34
ATOM     34  C   UNK d   0      -7.425 -34.238  52.466  0.00  0.00     0.143 C 
ATOM     35  O   UNK d   0      -8.397 -33.733  53.045  0.00  0.00    -0.650 OA
BRANCH  34  36
ATOM     36  O   UNK d   0      -7.099 -35.553  52.703  0.00  0.00    -0.776 OA
ATOM     37  H   UNK d   0      -6.212 -35.953  52.367  0.00  0.00     0.167 HD
ENDBRANCH  34  36
ENDBRANCH  33  34
ENDBRANCH   8  33
BRANCH  31  38
ATOM     38  C   UNK d   0      -7.472 -37.135  44.903  0.00  0.00     0.151 C 
BRANCH  38  39
ATOM     39  C   UNK d   0      -8.172 -37.983  45.844  0.00  0.00     0.143 C 
ATOM     40  O   UNK d   0      -9.133 -38.698  45.508  0.00  0.00    -0.650 OA
BRANCH  39  41
ATOM     41  O   UNK d   0      -7.766 -38.010  47.178  0.00  0.00    -0.776 OA
ATOM     42  H   UNK d   0      -6.987 -37.396  47.435  0.00  0.00     0.167 HD
ENDBRANCH  39  41
ENDBRANCH  38  39
ENDBRANCH  31  38
BRANCH  27  43
ATOM     43  C   UNK d   0      -9.474 -36.259  42.728  0.00  0.00     0.052 C 
BRANCH  43  44
ATOM     44  C   UNK d   0     -10.727 -36.992  43.082  0.00  0.00     0.115 C 
BRANCH  44  45
ATOM     45  C   UNK d   0     -11.841 -36.284  42.399  0.00  0.00     0.139 C 
ATOM     46  O   UNK d   0     -11.836 -36.245  41.144  0.00  0.00    -0.650 OA
BRANCH  45  47
ATOM     47  O   UNK d   0     -12.873 -35.679  43.083  0.00  0.00    -0.776 OA
ATOM     48  H   UNK d   0     -13.787 -36.136  43.237  0.00  0.00     0.167 HD
ENDBRANCH  45  47
ENDBRANCH  44  45
ENDBRANCH  43  44
ENDBRANCH  27  43
BRANCH  24  49
ATOM     49  C   UNK d   0     -12.713 -31.912  41.600  0.00  0.00     0.052 C 
BRANCH  49  50
ATOM     50  C   UNK d   0     -11.645 -31.285  40.742  0.00  0.00     0.115 C 
BRANCH  50  51
ATOM     51  C   UNK d   0     -11.827 -29.889  40.368  0.00  0.00     0.139 C 
ATOM     52  O   UNK d   0     -12.434 -29.541  39.328  0.00  0.00    -0.650 OA
BRANCH  51  53
ATOM     53  O   UNK d   0     -11.315 -28.889  41.180  0.00  0.00    -0.776 OA
ATOM     54  H   UNK d   0     -11.318 -29.035  42.174  0.00  0.00     0.167 HD
ENDBRANCH  51  53
ENDBRANCH  50  51
ENDBRANCH  49  50
ENDBRANCH  24  49
BRANCH  21  55
ATOM     55  C   UNK d   0     -14.221 -30.299  43.761  0.00  0.00     0.151 C 
BRANCH  55  56
ATOM     56  C   UNK d   0     -13.893 -28.929  43.339  0.00  0.00     0.143 C 
ATOM     57  O   UNK d   0     -14.269 -28.450  42.251  0.00  0.00    -0.650 OA
BRANCH  56  58
ATOM     58  O   UNK d   0     -13.128 -28.148  44.204  0.00  0.00    -0.776 OA
ATOM     59  H   UNK d   0     -13.454 -27.171  44.313  0.00  0.00     0.167 HD
ENDBRANCH  56  58
ENDBRANCH  55  56
ENDBRANCH  21  55
BRANCH  18  60
ATOM     60  C   UNK d   0     -12.037 -28.519  48.330  0.00  0.00     0.151 C 
BRANCH  60  61
ATOM     61  C   UNK d   0     -11.212 -27.785  47.358  0.00  0.00     0.143 C 
ATOM     62  O   UNK d   0     -10.850 -28.175  46.248  0.00  0.00    -0.650 OA
BRANCH  61  63
ATOM     63  O   UNK d   0     -10.804 -26.493  47.769  0.00  0.00    -0.776 OA
ATOM     64  H   UNK d   0      -9.834 -26.235  47.780  0.00  0.00     0.167 HD
ENDBRANCH  61  63
ENDBRANCH  60  61
ENDBRANCH  18  60
BRANCH  14  65
ATOM     65  C   UNK d   0     -10.168 -29.421  50.544  0.00  0.00     0.052 C 
BRANCH  65  66
ATOM     66  C   UNK d   0     -10.946 -29.702  51.780  0.00  0.00     0.115 C 
BRANCH  66  67
ATOM     67  C   UNK d   0     -10.300 -30.320  52.903  0.00  0.00     0.139 C 
ATOM     68  O   UNK d   0     -10.992 -30.542  53.964  0.00  0.00    -0.650 OA
BRANCH  67  69
ATOM     69  O   UNK d   0      -8.970 -30.728  53.004  0.00  0.00    -0.776 OA
ATOM     70  H   UNK d   0      -8.812 -31.746  52.993  0.00  0.00     0.167 HD
ENDBRANCH  67  69
ENDBRANCH  66  67
ENDBRANCH  65  66
ENDBRANCH  14  65
ENDBRANCH   6   7
ENDBRANCH   5   6
ENDBRANCH   2   5
TORSDOF 28
ENDMDL
MODEL 16
REMARK VINA RESULT:      -6.2      2.337      8.372
REMARK  28 active torsions:
REMARK  status: ('A' for Active; 'I' for Inactive)
REMARK    1  A    between atoms: C_2  and  O_3 
REMARK    2  A    between atoms: C_2  and  C_4 
REMARK    3  A    between atoms: C_4  and  C_5 
REMARK    4  A    between atoms: C_5  and  C_6 
REMARK    5  A    between atoms: C_7  and  C_8 
REMARK    6  A    between atoms: C_8  and  C_9 
REMARK    7  A    between atoms: C_9  and  O_11 
REMARK    8  A    between atoms: C_28  and  C_29 
REMARK    9  A    between atoms: C_29  and  C_30 
REMARK   10  A    between atoms: C_30  and  O_32 
REMARK   11  A    between atoms: C_33  and  C_34 
REMARK   12  A    between atoms: C_34  and  C_35 
REMARK   13  A    between atoms: C_35  and  C_36 
REMARK   14  A    between atoms: C_36  and  O_38 
REMARK   15  A    between atoms: C_39  and  C_40 
REMARK   16  A    between atoms: C_40  and  C_41 
REMARK   17  A    between atoms: C_41  and  C_42 
REMARK   18  A    between atoms: C_42  and  O_44 
REMARK   19  A    between atoms: C_45  and  C_46 
REMARK   20  A    between atoms: C_46  and  C_47 
REMARK   21  A    between atoms: C_47  and  O_49 
REMARK   22  A    between atoms: C_50  and  C_51 
REMARK   23  A    between atoms: C_51  and  C_52 
REMARK   24  A    between atoms: C_52  and  O_54 
REMARK   25  A    between atoms: C_55  and  C_56 
REMARK   26  A    between atoms: C_56  and  C_57 
REMARK   27  A    between atoms: C_57  and  C_58 
REMARK   28  A    between atoms: C_58  and  O_60 
ROOT
ATOM      1  O   UNK d   0     -17.458 -16.818  56.822  0.00  0.00    -0.650 OA
ATOM      2  C   UNK d   0     -17.601 -17.460  57.886  0.00  0.00     0.139 C 
ENDROOT
BRANCH   2   3
ATOM      3  O   UNK d   0     -18.175 -16.844  58.972  0.00  0.00    -0.776 OA
ATOM      4  H   UNK d   0     -18.607 -15.922  58.888  0.00  0.00     0.167 HD
ENDBRANCH   2   3
BRANCH   2   5
ATOM      5  C   UNK d   0     -17.151 -18.879  57.970  0.00  0.00     0.115 C 
BRANCH   5   6
ATOM      6  C   UNK d   0     -18.219 -19.723  58.612  0.00  0.00     0.052 C 
BRANCH   6   7
ATOM      7  C   UNK d   0     -17.696 -20.537  59.771  0.00  0.00    -0.020 A 
ATOM      8  C   UNK d   0     -17.156 -21.728  59.730  0.00  0.00    -0.011 A 
ATOM      9  C   UNK d   0     -16.816 -22.110  61.091  0.00  0.00     0.067 A 
ATOM     10  C   UNK d   0     -16.212 -23.214  61.712  0.00  0.00     0.062 C 
ATOM     11  N   UNK d   0     -17.190 -21.094  61.897  0.00  0.00    -0.248 NA
ATOM     12  C   UNK d   0     -15.713 -23.284  63.018  0.00  0.00     0.041 A 
ATOM     13  N   UNK d   0     -16.214 -22.832  64.183  0.00  0.00    -0.355 N 
ATOM     14  C   UNK d   0     -14.450 -23.864  63.233  0.00  0.00    -0.022 A 
ATOM     15  C   UNK d   0     -15.297 -23.103  65.131  0.00  0.00     0.042 A 
ATOM     16  H   UNK d   0     -17.204 -22.349  64.336  0.00  0.00     0.166 HD
ATOM     17  C   UNK d   0     -15.313 -22.847  66.517  0.00  0.00     0.062 C 
ATOM     18  C   UNK d   0     -14.177 -23.749  64.574  0.00  0.00    -0.013 A 
ATOM     19  C   UNK d   0     -15.686 -21.705  67.179  0.00  0.00     0.067 A 
ATOM     20  N   UNK d   0     -16.305 -20.765  66.460  0.00  0.00    -0.248 NA
ATOM     21  C   UNK d   0     -15.573 -21.200  68.537  0.00  0.00    -0.011 A 
ATOM     22  C   UNK d   0     -16.602 -19.681  67.249  0.00  0.00     0.066 A 
ATOM     23  C   UNK d   0     -17.283 -18.640  66.636  0.00  0.00     0.062 C 
ATOM     24  C   UNK d   0     -16.107 -20.014  68.571  0.00  0.00    -0.020 A 
ATOM     25  C   UNK d   0     -17.787 -18.595  65.327  0.00  0.00     0.041 A 
ATOM     26  N   UNK d   0     -17.283 -19.030  64.166  0.00  0.00    -0.355 N 
ATOM     27  C   UNK d   0     -19.057 -18.017  65.112  0.00  0.00    -0.022 A 
ATOM     28  C   UNK d   0     -18.191 -18.753  63.217  0.00  0.00     0.042 A 
ATOM     29  H   UNK d   0     -16.283 -19.506  64.012  0.00  0.00     0.166 HD
ATOM     30  C   UNK d   0     -18.184 -18.994  61.834  0.00  0.00     0.062 C 
ATOM     31  C   UNK d   0     -19.321 -18.113  63.780  0.00  0.00    -0.013 A 
ATOM     32  C   UNK d   0     -17.726 -20.117  61.164  0.00  0.00     0.066 A 
BRANCH   8  33
ATOM     33  C   UNK d   0     -16.927 -22.556  58.531  0.00  0.00     0.151 C 
BRANCH  33  34
ATOM     34  C   UNK d   0     -15.579 -22.378  57.964  0.00  0.00     0.143 C 
ATOM     35  O   UNK d   0     -14.581 -22.838  58.537  0.00  0.00    -0.650 OA
BRANCH  34  36
ATOM     36  O   UNK d   0     -15.429 -21.689  56.782  0.00  0.00    -0.776 OA
ATOM     37  H   UNK d   0     -15.883 -22.009  55.916  0.00  0.00     0.167 HD
ENDBRANCH  34  36
ENDBRANCH  33  34
ENDBRANCH   8  33
BRANCH  31  38
ATOM     38  C   UNK d   0     -20.575 -17.640  63.083  0.00  0.00     0.151 C 
BRANCH  38  39
ATOM     39  C   UNK d   0     -20.460 -16.289  62.577  0.00  0.00     0.143 C 
ATOM     40  O   UNK d   0     -20.867 -15.302  63.214  0.00  0.00    -0.650 OA
BRANCH  39  41
ATOM     41  O   UNK d   0     -19.873 -16.071  61.331  0.00  0.00    -0.776 OA
ATOM     42  H   UNK d   0     -20.435 -15.568  60.637  0.00  0.00     0.167 HD
ENDBRANCH  39  41
ENDBRANCH  38  39
ENDBRANCH  31  38
BRANCH  27  43
ATOM     43  C   UNK d   0     -20.004 -17.389  66.103  0.00  0.00     0.052 C 
BRANCH  43  44
ATOM     44  C   UNK d   0     -19.690 -15.958  66.397  0.00  0.00     0.115 C 
BRANCH  44  45
ATOM     45  C   UNK d   0     -20.988 -15.283  66.656  0.00  0.00     0.139 C 
ATOM     46  O   UNK d   0     -21.726 -15.747  67.560  0.00  0.00    -0.650 OA
BRANCH  45  47
ATOM     47  O   UNK d   0     -21.407 -14.173  65.954  0.00  0.00    -0.776 OA
ATOM     48  H   UNK d   0     -20.915 -13.266  65.995  0.00  0.00     0.167 HD
ENDBRANCH  45  47
ENDBRANCH  44  45
ENDBRANCH  43  44
ENDBRANCH  27  43
BRANCH  24  49
ATOM     49  C   UNK d   0     -16.241 -19.155  69.760  0.00  0.00     0.052 C 
BRANCH  49  50
ATOM     50  C   UNK d   0     -15.493 -17.862  69.560  0.00  0.00     0.115 C 
BRANCH  50  51
ATOM     51  C   UNK d   0     -14.052 -17.951  69.361  0.00  0.00     0.139 C 
ATOM     52  O   UNK d   0     -13.257 -18.227  70.290  0.00  0.00    -0.650 OA
BRANCH  51  53
ATOM     53  O   UNK d   0     -13.518 -17.722  68.102  0.00  0.00    -0.776 OA
ATOM     54  H   UNK d   0     -12.698 -17.146  68.032  0.00  0.00     0.167 HD
ENDBRANCH  51  53
ENDBRANCH  50  51
ENDBRANCH  49  50
ENDBRANCH  24  49
BRANCH  21  55
ATOM     55  C   UNK d   0     -14.946 -21.959  69.660  0.00  0.00     0.151 C 
BRANCH  55  56
ATOM     56  C   UNK d   0     -13.480 -21.997  69.549  0.00  0.00     0.143 C 
ATOM     57  O   UNK d   0     -12.876 -22.863  68.886  0.00  0.00    -0.650 OA
BRANCH  56  58
ATOM     58  O   UNK d   0     -12.752 -21.016  70.221  0.00  0.00    -0.776 OA
ATOM     59  H   UNK d   0     -11.723 -21.127  70.174  0.00  0.00     0.167 HD
ENDBRANCH  56  58
ENDBRANCH  55  56
ENDBRANCH  21  55
BRANCH  18  60
ATOM     60  C   UNK d   0     -12.915 -24.235  65.243  0.00  0.00     0.151 C 
BRANCH  60  61
ATOM     61  C   UNK d   0     -13.303 -25.421  66.022  0.00  0.00     0.143 C 
ATOM     62  O   UNK d   0     -14.041 -26.338  65.660  0.00  0.00    -0.650 OA
BRANCH  61  63
ATOM     63  O   UNK d   0     -12.753 -25.493  67.325  0.00  0.00    -0.776 OA
ATOM     64  H   UNK d   0     -13.166 -24.990  68.090  0.00  0.00     0.167 HD
ENDBRANCH  61  63
ENDBRANCH  60  61
ENDBRANCH  18  60
BRANCH  14  65
ATOM     65  C   UNK d   0     -13.534 -24.598  62.295  0.00  0.00     0.052 C 
BRANCH  65  66
ATOM     66  C   UNK d   0     -12.702 -23.687  61.464  0.00  0.00     0.115 C 
BRANCH  66  67
ATOM     67  C   UNK d   0     -11.297 -23.561  61.735  0.00  0.00     0.139 C 
ATOM     68  O   UNK d   0     -10.464 -24.119  60.930  0.00  0.00    -0.650 OA
BRANCH  67  69
ATOM     69  O   UNK d   0     -10.690 -22.890  62.796  0.00  0.00    -0.776 OA
ATOM     70  H   UNK d   0     -11.310 -22.293  63.362  0.00  0.00     0.167 HD
ENDBRANCH  67  69
ENDBRANCH  66  67
ENDBRANCH  65  66
ENDBRANCH  14  65
ENDBRANCH   6   7
ENDBRANCH   5   6
ENDBRANCH   2   5
TORSDOF 28
ENDMDL
MODEL 17
REMARK VINA RESULT:      -6.2     15.877     22.062
REMARK  28 active torsions:
REMARK  status: ('A' for Active; 'I' for Inactive)
REMARK    1  A    between atoms: C_2  and  O_3 
REMARK    2  A    between atoms: C_2  and  C_4 
REMARK    3  A    between atoms: C_4  and  C_5 
REMARK    4  A    between atoms: C_5  and  C_6 
REMARK    5  A    between atoms: C_7  and  C_8 
REMARK    6  A    between atoms: C_8  and  C_9 
REMARK    7  A    between atoms: C_9  and  O_11 
REMARK    8  A    between atoms: C_28  and  C_29 
REMARK    9  A    between atoms: C_29  and  C_30 
REMARK   10  A    between atoms: C_30  and  O_32 
REMARK   11  A    between atoms: C_33  and  C_34 
REMARK   12  A    between atoms: C_34  and  C_35 
REMARK   13  A    between atoms: C_35  and  C_36 
REMARK   14  A    between atoms: C_36  and  O_38 
REMARK   15  A    between atoms: C_39  and  C_40 
REMARK   16  A    between atoms: C_40  and  C_41 
REMARK   17  A    between atoms: C_41  and  C_42 
REMARK   18  A    between atoms: C_42  and  O_44 
REMARK   19  A    between atoms: C_45  and  C_46 
REMARK   20  A    between atoms: C_46  and  C_47 
REMARK   21  A    between atoms: C_47  and  O_49 
REMARK   22  A    between atoms: C_50  and  C_51 
REMARK   23  A    between atoms: C_51  and  C_52 
REMARK   24  A    between atoms: C_52  and  O_54 
REMARK   25  A    between atoms: C_55  and  C_56 
REMARK   26  A    between atoms: C_56  and  C_57 
REMARK   27  A    between atoms: C_57  and  C_58 
REMARK   28  A    between atoms: C_58  and  O_60 
ROOT
ATOM      1  O   UNK d   0     -16.024 -31.286  43.305  0.00  0.00    -0.650 OA
ATOM      2  C   UNK d   0     -15.786 -30.060  43.380  0.00  0.00     0.139 C 
ENDROOT
BRANCH   2   3
ATOM      3  O   UNK d   0     -16.448 -29.193  42.545  0.00  0.00    -0.776 OA
ATOM      4  H   UNK d   0     -16.030 -28.301  42.271  0.00  0.00     0.167 HD
ENDBRANCH   2   3
BRANCH   2   5
ATOM      5  C   UNK d   0     -14.793 -29.549  44.368  0.00  0.00     0.115 C 
BRANCH   5   6
ATOM      6  C   UNK d   0     -13.473 -29.298  43.692  0.00  0.00     0.052 C 
BRANCH   6   7
ATOM      7  C   UNK d   0     -12.567 -30.506  43.718  0.00  0.00    -0.020 A 
ATOM      8  C   UNK d   0     -12.393 -31.394  42.774  0.00  0.00    -0.011 A 
ATOM      9  C   UNK d   0     -11.434 -32.374  43.256  0.00  0.00     0.067 A 
ATOM     10  C   UNK d   0     -10.821 -33.528  42.743  0.00  0.00     0.062 C 
ATOM     11  N   UNK d   0     -11.082 -32.009  44.506  0.00  0.00    -0.248 NA
ATOM     12  C   UNK d   0      -9.704 -34.194  43.259  0.00  0.00     0.041 A 
ATOM     13  N   UNK d   0      -9.364 -34.508  44.523  0.00  0.00    -0.355 N 
ATOM     14  C   UNK d   0      -8.683 -34.592  42.377  0.00  0.00    -0.022 A 
ATOM     15  C   UNK d   0      -8.150 -35.088  44.467  0.00  0.00     0.042 A 
ATOM     16  H   UNK d   0      -9.979 -34.341  45.435  0.00  0.00     0.166 HD
ATOM     17  C   UNK d   0      -7.337 -35.605  45.495  0.00  0.00     0.062 C 
ATOM     18  C   UNK d   0      -7.690 -35.158  43.138  0.00  0.00    -0.013 A 
ATOM     19  C   UNK d   0      -7.039 -35.058  46.717  0.00  0.00     0.067 A 
ATOM     20  N   UNK d   0      -7.751 -33.992  47.092  0.00  0.00    -0.248 NA
ATOM     21  C   UNK d   0      -6.087 -35.332  47.780  0.00  0.00    -0.011 A 
ATOM     22  C   UNK d   0      -7.332 -33.548  48.322  0.00  0.00     0.066 A 
ATOM     23  C   UNK d   0      -8.015 -32.463  48.851  0.00  0.00     0.062 C 
ATOM     24  C   UNK d   0      -6.261 -34.442  48.715  0.00  0.00    -0.020 A 
ATOM     25  C   UNK d   0      -9.144 -31.816  48.324  0.00  0.00     0.041 A 
ATOM     26  N   UNK d   0      -9.475 -31.491  47.068  0.00  0.00    -0.355 N 
ATOM     27  C   UNK d   0     -10.171 -31.421  49.209  0.00  0.00    -0.022 A 
ATOM     28  C   UNK d   0     -10.681 -30.904  47.122  0.00  0.00     0.042 A 
ATOM     29  H   UNK d   0      -8.851 -31.649  46.154  0.00  0.00     0.166 HD
ATOM     30  C   UNK d   0     -11.497 -30.377  46.109  0.00  0.00     0.062 C 
ATOM     31  C   UNK d   0     -11.147 -30.844  48.457  0.00  0.00    -0.013 A 
ATOM     32  C   UNK d   0     -11.728 -30.891  44.843  0.00  0.00     0.066 A 
BRANCH   8  33
ATOM     33  C   UNK d   0     -13.045 -31.419  41.451  0.00  0.00     0.151 C 
BRANCH  33  34
ATOM     34  C   UNK d   0     -12.715 -30.240  40.630  0.00  0.00     0.143 C 
ATOM     35  O   UNK d   0     -11.537 -29.942  40.389  0.00  0.00    -0.650 OA
BRANCH  34  36
ATOM     36  O   UNK d   0     -13.732 -29.462  40.127  0.00  0.00    -0.776 OA
ATOM     37  H   UNK d   0     -14.636 -29.384  40.613  0.00  0.00     0.167 HD
ENDBRANCH  34  36
ENDBRANCH  33  34
ENDBRANCH   8  33
BRANCH  31  38
ATOM     38  C   UNK d   0     -12.452 -30.280  48.971  0.00  0.00     0.151 C 
BRANCH  38  39
ATOM     39  C   UNK d   0     -12.337 -28.903  49.401  0.00  0.00     0.143 C 
ATOM     40  O   UNK d   0     -11.553 -28.101  48.865  0.00  0.00    -0.650 OA
BRANCH  39  41
ATOM     41  O   UNK d   0     -13.129 -28.445  50.454  0.00  0.00    -0.776 OA
ATOM     42  H   UNK d   0     -12.643 -27.990  51.233  0.00  0.00     0.167 HD
ENDBRANCH  39  41
ENDBRANCH  38  39
ENDBRANCH  31  38
BRANCH  27  43
ATOM     43  C   UNK d   0     -10.253 -31.568  50.708  0.00  0.00     0.052 C 
BRANCH  43  44
ATOM     44  C   UNK d   0      -9.685 -30.400  51.447  0.00  0.00     0.115 C 
BRANCH  44  45
ATOM     45  C   UNK d   0      -9.635 -30.789  52.881  0.00  0.00     0.139 C 
ATOM     46  O   UNK d   0     -10.624 -30.513  53.604  0.00  0.00    -0.650 OA
BRANCH  45  47
ATOM     47  O   UNK d   0      -8.558 -31.441  53.441  0.00  0.00    -0.776 OA
ATOM     48  H   UNK d   0      -8.568 -32.448  53.668  0.00  0.00     0.167 HD
ENDBRANCH  45  47
ENDBRANCH  44  45
ENDBRANCH  43  44
ENDBRANCH  27  43
BRANCH  24  49
ATOM     49  C   UNK d   0      -5.532 -34.371  49.993  0.00  0.00     0.052 C 
BRANCH  49  50
ATOM     50  C   UNK d   0      -6.212 -35.224  51.032  0.00  0.00     0.115 C 
BRANCH  50  51
ATOM     51  C   UNK d   0      -6.985 -34.535  52.057  0.00  0.00     0.139 C 
ATOM     52  O   UNK d   0      -8.054 -34.995  52.521  0.00  0.00    -0.650 OA
BRANCH  51  53
ATOM     53  O   UNK d   0      -6.540 -33.318  52.550  0.00  0.00    -0.776 OA
ATOM     54  H   UNK d   0      -7.187 -32.550  52.575  0.00  0.00     0.167 HD
ENDBRANCH  51  53
ENDBRANCH  50  51
ENDBRANCH  49  50
ENDBRANCH  24  49
BRANCH  21  55
ATOM     55  C   UNK d   0      -5.106 -36.457  47.754  0.00  0.00     0.151 C 
BRANCH  55  56
ATOM     56  C   UNK d   0      -5.771 -37.768  47.738  0.00  0.00     0.143 C 
ATOM     57  O   UNK d   0      -6.421 -38.208  48.707  0.00  0.00    -0.650 OA
BRANCH  56  58
ATOM     58  O   UNK d   0      -5.660 -38.538  46.581  0.00  0.00    -0.776 OA
ATOM     59  H   UNK d   0      -4.855 -38.301  45.974  0.00  0.00     0.167 HD
ENDBRANCH  56  58
ENDBRANCH  55  56
ENDBRANCH  21  55
BRANCH  18  60
ATOM     60  C   UNK d   0      -6.398 -35.716  42.597  0.00  0.00     0.151 C 
BRANCH  60  61
ATOM     61  C   UNK d   0      -6.570 -37.177  42.567  0.00  0.00     0.143 C 
ATOM     62  O   UNK d   0      -7.316 -37.821  41.829  0.00  0.00    -0.650 OA
BRANCH  61  63
ATOM     63  O   UNK d   0      -5.780 -37.896  43.496  0.00  0.00    -0.776 OA
ATOM     64  H   UNK d   0      -5.782 -38.900  43.510  0.00  0.00     0.167 HD
ENDBRANCH  61  63
ENDBRANCH  60  61
ENDBRANCH  18  60
BRANCH  14  65
ATOM     65  C   UNK d   0      -8.617 -34.567  40.876  0.00  0.00     0.052 C 
BRANCH  65  66
ATOM     66  C   UNK d   0      -7.900 -33.378  40.345  0.00  0.00     0.115 C 
BRANCH  66  67
ATOM     67  C   UNK d   0      -8.644 -32.214  39.953  0.00  0.00     0.139 C 
ATOM     68  O   UNK d   0      -8.047 -31.075  39.956  0.00  0.00    -0.650 OA
BRANCH  67  69
ATOM     69  O   UNK d   0      -9.979 -32.148  39.556  0.00  0.00    -0.776 OA
ATOM     70  H   UNK d   0     -10.505 -31.326  39.887  0.00  0.00     0.167 HD
ENDBRANCH  67  69
ENDBRANCH  66  67
ENDBRANCH  65  66
ENDBRANCH  14  65
ENDBRANCH   6   7
ENDBRANCH   5   6
ENDBRANCH   2   5
TORSDOF 28
ENDMDL
MODEL 18
REMARK VINA RESULT:      -6.2     15.050     22.096
REMARK  28 active torsions:
REMARK  status: ('A' for Active; 'I' for Inactive)
REMARK    1  A    between atoms: C_2  and  O_3 
REMARK    2  A    between atoms: C_2  and  C_4 
REMARK    3  A    between atoms: C_4  and  C_5 
REMARK    4  A    between atoms: C_5  and  C_6 
REMARK    5  A    between atoms: C_7  and  C_8 
REMARK    6  A    between atoms: C_8  and  C_9 
REMARK    7  A    between atoms: C_9  and  O_11 
REMARK    8  A    between atoms: C_28  and  C_29 
REMARK    9  A    between atoms: C_29  and  C_30 
REMARK   10  A    between atoms: C_30  and  O_32 
REMARK   11  A    between atoms: C_33  and  C_34 
REMARK   12  A    between atoms: C_34  and  C_35 
REMARK   13  A    between atoms: C_35  and  C_36 
REMARK   14  A    between atoms: C_36  and  O_38 
REMARK   15  A    between atoms: C_39  and  C_40 
REMARK   16  A    between atoms: C_40  and  C_41 
REMARK   17  A    between atoms: C_41  and  C_42 
REMARK   18  A    between atoms: C_42  and  O_44 
REMARK   19  A    between atoms: C_45  and  C_46 
REMARK   20  A    between atoms: C_46  and  C_47 
REMARK   21  A    between atoms: C_47  and  O_49 
REMARK   22  A    between atoms: C_50  and  C_51 
REMARK   23  A    between atoms: C_51  and  C_52 
REMARK   24  A    between atoms: C_52  and  O_54 
REMARK   25  A    between atoms: C_55  and  C_56 
REMARK   26  A    between atoms: C_56  and  C_57 
REMARK   27  A    between atoms: C_57  and  C_58 
REMARK   28  A    between atoms: C_58  and  O_60 
ROOT
ATOM      1  O   UNK d   0     -12.010 -27.565  51.553  0.00  0.00    -0.650 OA
ATOM      2  C   UNK d   0     -12.418 -27.998  50.452  0.00  0.00     0.139 C 
ENDROOT
BRANCH   2   3
ATOM      3  O   UNK d   0     -11.920 -27.459  49.290  0.00  0.00    -0.776 OA
ATOM      4  H   UNK d   0     -11.350 -28.018  48.652  0.00  0.00     0.167 HD
ENDBRANCH   2   3
BRANCH   2   5
ATOM      5  C   UNK d   0     -13.435 -29.087  50.407  0.00  0.00     0.115 C 
BRANCH   5   6
ATOM      6  C   UNK d   0     -12.974 -30.259  51.230  0.00  0.00     0.052 C 
BRANCH   6   7
ATOM      7  C   UNK d   0     -11.641 -30.802  50.773  0.00  0.00    -0.020 A 
ATOM      8  C   UNK d   0     -10.537 -30.897  51.469  0.00  0.00    -0.011 A 
ATOM      9  C   UNK d   0      -9.517 -31.472  50.608  0.00  0.00     0.067 A 
ATOM     10  C   UNK d   0      -8.169 -31.841  50.743  0.00  0.00     0.062 C 
ATOM     11  N   UNK d   0     -10.085 -31.690  49.404  0.00  0.00    -0.248 NA
ATOM     12  C   UNK d   0      -7.420 -32.644  49.875  0.00  0.00     0.041 A 
ATOM     13  N   UNK d   0      -7.351 -32.670  48.531  0.00  0.00    -0.355 N 
ATOM     14  C   UNK d   0      -6.612 -33.661  50.416  0.00  0.00    -0.022 A 
ATOM     15  C   UNK d   0      -6.526 -33.683  48.204  0.00  0.00     0.042 A 
ATOM     16  H   UNK d   0      -7.859 -31.975  47.827  0.00  0.00     0.166 HD
ATOM     17  C   UNK d   0      -6.105 -34.148  46.942  0.00  0.00     0.062 C 
ATOM     18  C   UNK d   0      -6.043 -34.328  49.360  0.00  0.00    -0.013 A 
ATOM     19  C   UNK d   0      -6.850 -34.366  45.811  0.00  0.00     0.067 A 
ATOM     20  N   UNK d   0      -8.103 -33.903  45.814  0.00  0.00    -0.248 NA
ATOM     21  C   UNK d   0      -6.639 -35.020  44.531  0.00  0.00    -0.011 A 
ATOM     22  C   UNK d   0      -8.726 -34.208  44.629  0.00  0.00     0.066 A 
ATOM     23  C   UNK d   0     -10.027 -33.751  44.481  0.00  0.00     0.062 C 
ATOM     24  C   UNK d   0      -7.741 -34.928  43.845  0.00  0.00    -0.020 A 
ATOM     25  C   UNK d   0     -10.758 -32.936  45.359  0.00  0.00     0.041 A 
ATOM     26  N   UNK d   0     -10.838 -32.918  46.695  0.00  0.00    -0.355 N 
ATOM     27  C   UNK d   0     -11.565 -31.912  44.816  0.00  0.00    -0.022 A 
ATOM     28  C   UNK d   0     -11.667 -31.915  47.023  0.00  0.00     0.042 A 
ATOM     29  H   UNK d   0     -10.335 -33.625  47.400  0.00  0.00     0.166 HD
ATOM     30  C   UNK d   0     -12.101 -31.447  48.273  0.00  0.00     0.062 C 
ATOM     31  C   UNK d   0     -12.144 -31.261  45.862  0.00  0.00    -0.013 A 
ATOM     32  C   UNK d   0     -11.362 -31.309  49.438  0.00  0.00     0.066 A 
BRANCH   8  33
ATOM     33  C   UNK d   0     -10.339 -30.495  52.874  0.00  0.00     0.151 C 
BRANCH  33  34
ATOM     34  C   UNK d   0     -10.728 -31.548  53.829  0.00  0.00     0.143 C 
ATOM     35  O   UNK d   0      -9.957 -32.481  54.096  0.00  0.00    -0.650 OA
BRANCH  34  36
ATOM     36  O   UNK d   0     -11.964 -31.492  54.430  0.00  0.00    -0.776 OA
ATOM     37  H   UNK d   0     -12.430 -30.592  54.611  0.00  0.00     0.167 HD
ENDBRANCH  34  36
ENDBRANCH  33  34
ENDBRANCH   8  33
BRANCH  31  38
ATOM     38  C   UNK d   0     -13.082 -30.081  45.768  0.00  0.00     0.151 C 
BRANCH  38  39
ATOM     39  C   UNK d   0     -12.385 -28.819  45.635  0.00  0.00     0.143 C 
ATOM     40  O   UNK d   0     -11.608 -28.393  46.508  0.00  0.00    -0.650 OA
BRANCH  39  41
ATOM     41  O   UNK d   0     -12.582 -28.043  44.493  0.00  0.00    -0.776 OA
ATOM     42  H   UNK d   0     -13.225 -27.249  44.580  0.00  0.00     0.167 HD
ENDBRANCH  39  41
ENDBRANCH  38  39
ENDBRANCH  31  38
BRANCH  27  43
ATOM     43  C   UNK d   0     -11.801 -31.542  43.373  0.00  0.00     0.052 C 
BRANCH  43  44
ATOM     44  C   UNK d   0     -13.046 -32.144  42.805  0.00  0.00     0.115 C 
BRANCH  44  45
ATOM     45  C   UNK d   0     -13.804 -31.033  42.173  0.00  0.00     0.139 C 
ATOM     46  O   UNK d   0     -13.322 -29.875  42.239  0.00  0.00    -0.650 OA
BRANCH  45  47
ATOM     47  O   UNK d   0     -15.001 -31.223  41.517  0.00  0.00    -0.776 OA
ATOM     48  H   UNK d   0     -15.707 -30.477  41.413  0.00  0.00     0.167 HD
ENDBRANCH  45  47
ENDBRANCH  44  45
ENDBRANCH  43  44
ENDBRANCH  27  43
BRANCH  24  49
ATOM     49  C   UNK d   0      -7.956 -35.423  42.474  0.00  0.00     0.052 C 
BRANCH  49  50
ATOM     50  C   UNK d   0      -8.471 -36.839  42.503  0.00  0.00     0.115 C 
BRANCH  50  51
ATOM     51  C   UNK d   0      -7.793 -37.810  41.654  0.00  0.00     0.139 C 
ATOM     52  O   UNK d   0      -7.337 -38.891  42.095  0.00  0.00    -0.650 OA
BRANCH  51  53
ATOM     53  O   UNK d   0      -7.633 -37.547  40.303  0.00  0.00    -0.776 OA
ATOM     54  H   UNK d   0      -6.773 -37.126  39.999  0.00  0.00     0.167 HD
ENDBRANCH  51  53
ENDBRANCH  50  51
ENDBRANCH  49  50
ENDBRANCH  24  49
BRANCH  21  55
ATOM     55  C   UNK d   0      -5.355 -35.665  44.124  0.00  0.00     0.151 C 
BRANCH  55  56
ATOM     56  C   UNK d   0      -5.273 -37.063  44.575  0.00  0.00     0.143 C 
ATOM     57  O   UNK d   0      -5.518 -37.410  45.747  0.00  0.00    -0.650 OA
BRANCH  56  58
ATOM     58  O   UNK d   0      -4.905 -38.027  43.638  0.00  0.00    -0.776 OA
ATOM     59  H   UNK d   0      -4.669 -38.954  44.035  0.00  0.00     0.167 HD
ENDBRANCH  56  58
ENDBRANCH  55  56
ENDBRANCH  21  55
BRANCH  18  60
ATOM     60  C   UNK d   0      -5.106 -35.503  49.484  0.00  0.00     0.151 C 
BRANCH  60  61
ATOM     61  C   UNK d   0      -5.962 -36.687  49.654  0.00  0.00     0.143 C 
ATOM     62  O   UNK d   0      -6.956 -36.985  48.991  0.00  0.00    -0.650 OA
BRANCH  61  63
ATOM     63  O   UNK d   0      -5.581 -37.561  50.699  0.00  0.00    -0.776 OA
ATOM     64  H   UNK d   0      -6.183 -37.721  51.488  0.00  0.00     0.167 HD
ENDBRANCH  61  63
ENDBRANCH  60  61
ENDBRANCH  18  60
BRANCH  14  65
ATOM     65  C   UNK d   0      -6.264 -33.983  51.841  0.00  0.00     0.052 C 
BRANCH  65  66
ATOM     66  C   UNK d   0      -7.439 -34.417  52.643  0.00  0.00     0.115 C 
BRANCH  66  67
ATOM     67  C   UNK d   0      -8.051 -35.688  52.378  0.00  0.00     0.139 C 
ATOM     68  O   UNK d   0      -9.115 -35.718  51.656  0.00  0.00    -0.650 OA
BRANCH  67  69
ATOM     69  O   UNK d   0      -7.633 -36.945  52.815  0.00  0.00    -0.776 OA
ATOM     70  H   UNK d   0      -8.364 -37.669  52.862  0.00  0.00     0.167 HD
ENDBRANCH  67  69
ENDBRANCH  66  67
ENDBRANCH  65  66
ENDBRANCH  14  65
ENDBRANCH   6   7
ENDBRANCH   5   6
ENDBRANCH   2   5
TORSDOF 28
ENDMDL
MODEL 19
REMARK VINA RESULT:      -6.1      5.170     10.425
REMARK  28 active torsions:
REMARK  status: ('A' for Active; 'I' for Inactive)
REMARK    1  A    between atoms: C_2  and  O_3 
REMARK    2  A    between atoms: C_2  and  C_4 
REMARK    3  A    between atoms: C_4  and  C_5 
REMARK    4  A    between atoms: C_5  and  C_6 
REMARK    5  A    between atoms: C_7  and  C_8 
REMARK    6  A    between atoms: C_8  and  C_9 
REMARK    7  A    between atoms: C_9  and  O_11 
REMARK    8  A    between atoms: C_28  and  C_29 
REMARK    9  A    between atoms: C_29  and  C_30 
REMARK   10  A    between atoms: C_30  and  O_32 
REMARK   11  A    between atoms: C_33  and  C_34 
REMARK   12  A    between atoms: C_34  and  C_35 
REMARK   13  A    between atoms: C_35  and  C_36 
REMARK   14  A    between atoms: C_36  and  O_38 
REMARK   15  A    between atoms: C_39  and  C_40 
REMARK   16  A    between atoms: C_40  and  C_41 
REMARK   17  A    between atoms: C_41  and  C_42 
REMARK   18  A    between atoms: C_42  and  O_44 
REMARK   19  A    between atoms: C_45  and  C_46 
REMARK   20  A    between atoms: C_46  and  C_47 
REMARK   21  A    between atoms: C_47  and  O_49 
REMARK   22  A    between atoms: C_50  and  C_51 
REMARK   23  A    between atoms: C_51  and  C_52 
REMARK   24  A    between atoms: C_52  and  O_54 
REMARK   25  A    between atoms: C_55  and  C_56 
REMARK   26  A    between atoms: C_56  and  C_57 
REMARK   27  A    between atoms: C_57  and  C_58 
REMARK   28  A    between atoms: C_58  and  O_60 
ROOT
ATOM      1  O   UNK d   0     -27.644 -18.302  57.601  0.00  0.00    -0.650 OA
ATOM      2  C   UNK d   0     -27.486 -17.401  58.455  0.00  0.00     0.139 C 
ENDROOT
BRANCH   2   3
ATOM      3  O   UNK d   0     -28.370 -17.303  59.502  0.00  0.00    -0.776 OA
ATOM      4  H   UNK d   0     -29.217 -16.736  59.426  0.00  0.00     0.167 HD
ENDBRANCH   2   3
BRANCH   2   5
ATOM      5  C   UNK d   0     -26.348 -16.446  58.333  0.00  0.00     0.115 C 
BRANCH   5   6
ATOM      6  C   UNK d   0     -25.272 -16.792  59.325  0.00  0.00     0.052 C 
BRANCH   6   7
ATOM      7  C   UNK d   0     -24.081 -17.461  58.682  0.00  0.00    -0.020 A 
ATOM      8  C   UNK d   0     -23.006 -16.888  58.205  0.00  0.00    -0.011 A 
ATOM      9  C   UNK d   0     -22.142 -17.932  57.678  0.00  0.00     0.067 A 
ATOM     10  C   UNK d   0     -20.878 -17.990  57.071  0.00  0.00     0.062 C 
ATOM     11  N   UNK d   0     -22.773 -19.109  57.871  0.00  0.00    -0.248 NA
ATOM     12  C   UNK d   0     -20.080 -19.123  56.881  0.00  0.00     0.041 A 
ATOM     13  N   UNK d   0     -20.393 -20.369  56.476  0.00  0.00    -0.355 N 
ATOM     14  C   UNK d   0     -18.711 -19.052  57.194  0.00  0.00    -0.022 A 
ATOM     15  C   UNK d   0     -19.258 -21.092  56.532  0.00  0.00     0.042 A 
ATOM     16  H   UNK d   0     -21.391 -20.725  56.139  0.00  0.00     0.166 HD
ATOM     17  C   UNK d   0     -19.022 -22.446  56.218  0.00  0.00     0.062 C 
ATOM     18  C   UNK d   0     -18.182 -20.301  56.978  0.00  0.00    -0.013 A 
ATOM     19  C   UNK d   0     -19.764 -23.550  56.549  0.00  0.00     0.067 A 
ATOM     20  N   UNK d   0     -20.975 -23.332  57.067  0.00  0.00    -0.248 NA
ATOM     21  C   UNK d   0     -19.573 -24.990  56.499  0.00  0.00    -0.011 A 
ATOM     22  C   UNK d   0     -21.589 -24.525  57.361  0.00  0.00     0.066 A 
ATOM     23  C   UNK d   0     -22.876 -24.445  57.873  0.00  0.00     0.062 C 
ATOM     24  C   UNK d   0     -20.643 -25.555  56.980  0.00  0.00    -0.020 A 
ATOM     25  C   UNK d   0     -23.664 -23.297  58.045  0.00  0.00     0.041 A 
ATOM     26  N   UNK d   0     -23.357 -22.063  58.461  0.00  0.00    -0.355 N 
ATOM     27  C   UNK d   0     -25.038 -23.368  57.726  0.00  0.00    -0.022 A 
ATOM     28  C   UNK d   0     -24.488 -21.342  58.415  0.00  0.00     0.042 A 
ATOM     29  H   UNK d   0     -22.355 -21.710  58.810  0.00  0.00     0.166 HD
ATOM     30  C   UNK d   0     -24.740 -19.999  58.733  0.00  0.00     0.062 C 
ATOM     31  C   UNK d   0     -25.567 -22.136  57.957  0.00  0.00    -0.013 A 
ATOM     32  C   UNK d   0     -23.945 -18.894  58.471  0.00  0.00     0.066 A 
BRANCH   8  33
ATOM     33  C   UNK d   0     -22.705 -15.445  58.189  0.00  0.00     0.151 C 
BRANCH  33  34
ATOM     34  C   UNK d   0     -22.193 -14.954  59.481  0.00  0.00     0.143 C 
ATOM     35  O   UNK d   0     -22.878 -14.207  60.195  0.00  0.00    -0.650 OA
BRANCH  34  36
ATOM     36  O   UNK d   0     -20.937 -15.332  59.898  0.00  0.00    -0.776 OA
ATOM     37  H   UNK d   0     -20.775 -15.691  60.849  0.00  0.00     0.167 HD
ENDBRANCH  34  36
ENDBRANCH  33  34
ENDBRANCH   8  33
BRANCH  31  38
ATOM     38  C   UNK d   0     -27.006 -21.729  57.743  0.00  0.00     0.151 C 
BRANCH  38  39
ATOM     39  C   UNK d   0     -27.865 -22.104  58.846  0.00  0.00     0.143 C 
ATOM     40  O   UNK d   0     -27.544 -21.919  60.033  0.00  0.00    -0.650 OA
BRANCH  39  41
ATOM     41  O   UNK d   0     -29.101 -22.694  58.583  0.00  0.00    -0.776 OA
ATOM     42  H   UNK d   0     -29.932 -22.112  58.729  0.00  0.00     0.167 HD
ENDBRANCH  39  41
ENDBRANCH  38  39
ENDBRANCH  31  38
BRANCH  27  43
ATOM     43  C   UNK d   0     -25.846 -24.539  57.224  0.00  0.00     0.052 C 
BRANCH  43  44
ATOM     44  C   UNK d   0     -26.379 -25.402  58.321  0.00  0.00     0.115 C 
BRANCH  44  45
ATOM     45  C   UNK d   0     -26.551 -26.762  57.746  0.00  0.00     0.139 C 
ATOM     46  O   UNK d   0     -26.861 -26.856  56.532  0.00  0.00    -0.650 OA
BRANCH  45  47
ATOM     47  O   UNK d   0     -26.379 -27.913  58.484  0.00  0.00    -0.776 OA
ATOM     48  H   UNK d   0     -27.147 -28.363  59.007  0.00  0.00     0.167 HD
ENDBRANCH  45  47
ENDBRANCH  44  45
ENDBRANCH  43  44
ENDBRANCH  27  43
BRANCH  24  49
ATOM     49  C   UNK d   0     -20.890 -27.003  57.080  0.00  0.00     0.052 C 
BRANCH  49  50
ATOM     50  C   UNK d   0     -21.874 -27.441  56.026  0.00  0.00     0.115 C 
BRANCH  50  51
ATOM     51  C   UNK d   0     -23.184 -27.886  56.483  0.00  0.00     0.139 C 
ATOM     52  O   UNK d   0     -23.441 -28.105  57.690  0.00  0.00    -0.650 OA
BRANCH  51  53
ATOM     53  O   UNK d   0     -24.202 -28.082  55.562  0.00  0.00    -0.776 OA
ATOM     54  H   UNK d   0     -24.611 -28.998  55.493  0.00  0.00     0.167 HD
ENDBRANCH  51  53
ENDBRANCH  50  51
ENDBRANCH  49  50
ENDBRANCH  24  49
BRANCH  21  55
ATOM     55  C   UNK d   0     -18.342 -25.652  55.973  0.00  0.00     0.151 C 
BRANCH  55  56
ATOM     56  C   UNK d   0     -18.402 -25.849  54.516  0.00  0.00     0.143 C 
ATOM     57  O   UNK d   0     -17.959 -25.014  53.704  0.00  0.00    -0.650 OA
BRANCH  56  58
ATOM     58  O   UNK d   0     -18.982 -27.025  54.044  0.00  0.00    -0.776 OA
ATOM     59  H   UNK d   0     -19.172 -27.039  53.025  0.00  0.00     0.167 HD
ENDBRANCH  56  58
ENDBRANCH  55  56
ENDBRANCH  21  55
BRANCH  18  60
ATOM     60  C   UNK d   0     -16.738 -20.678  57.197  0.00  0.00     0.151 C 
BRANCH  60  61
ATOM     61  C   UNK d   0     -16.739 -21.657  58.295  0.00  0.00     0.143 C 
ATOM     62  O   UNK d   0     -16.242 -22.783  58.285  0.00  0.00    -0.650 OA
BRANCH  61  63
ATOM     63  O   UNK d   0     -17.387 -21.232  59.480  0.00  0.00    -0.776 OA
ATOM     64  H   UNK d   0     -18.146 -21.759  59.873  0.00  0.00     0.167 HD
ENDBRANCH  61  63
ENDBRANCH  60  61
ENDBRANCH  18  60
BRANCH  14  65
ATOM     65  C   UNK d   0     -17.853 -17.882  57.583  0.00  0.00     0.052 C 
BRANCH  65  66
ATOM     66  C   UNK d   0     -17.377 -17.953  58.990  0.00  0.00     0.115 C 
BRANCH  66  67
ATOM     67  C   UNK d   0     -17.789 -16.951  59.932  0.00  0.00     0.139 C 
ATOM     68  O   UNK d   0     -18.943 -17.069  60.488  0.00  0.00    -0.650 OA
BRANCH  67  69
ATOM     69  O   UNK d   0     -17.081 -15.822  60.343  0.00  0.00    -0.776 OA
ATOM     70  H   UNK d   0     -16.072 -15.958  60.497  0.00  0.00     0.167 HD
ENDBRANCH  67  69
ENDBRANCH  66  67
ENDBRANCH  65  66
ENDBRANCH  14  65
ENDBRANCH   6   7
ENDBRANCH   5   6
ENDBRANCH   2   5
TORSDOF 28
ENDMDL
MODEL 20
REMARK VINA RESULT:      -6.1      2.345      9.952
REMARK  28 active torsions:
REMARK  status: ('A' for Active; 'I' for Inactive)
REMARK    1  A    between atoms: C_2  and  O_3 
REMARK    2  A    between atoms: C_2  and  C_4 
REMARK    3  A    between atoms: C_4  and  C_5 
REMARK    4  A    between atoms: C_5  and  C_6 
REMARK    5  A    between atoms: C_7  and  C_8 
REMARK    6  A    between atoms: C_8  and  C_9 
REMARK    7  A    between atoms: C_9  and  O_11 
REMARK    8  A    between atoms: C_28  and  C_29 
REMARK    9  A    between atoms: C_29  and  C_30 
REMARK   10  A    between atoms: C_30  and  O_32 
REMARK   11  A    between atoms: C_33  and  C_34 
REMARK   12  A    between atoms: C_34  and  C_35 
REMARK   13  A    between atoms: C_35  and  C_36 
REMARK   14  A    between atoms: C_36  and  O_38 
REMARK   15  A    between atoms: C_39  and  C_40 
REMARK   16  A    between atoms: C_40  and  C_41 
REMARK   17  A    between atoms: C_41  and  C_42 
REMARK   18  A    between atoms: C_42  and  O_44 
REMARK   19  A    between atoms: C_45  and  C_46 
REMARK   20  A    between atoms: C_46  and  C_47 
REMARK   21  A    between atoms: C_47  and  O_49 
REMARK   22  A    between atoms: C_50  and  C_51 
REMARK   23  A    between atoms: C_51  and  C_52 
REMARK   24  A    between atoms: C_52  and  O_54 
REMARK   25  A    between atoms: C_55  and  C_56 
REMARK   26  A    between atoms: C_56  and  C_57 
REMARK   27  A    between atoms: C_57  and  C_58 
REMARK   28  A    between atoms: C_58  and  O_60 
ROOT
ATOM      1  O   UNK d   0     -16.185 -25.818  65.805  0.00  0.00    -0.650 OA
ATOM      2  C   UNK d   0     -15.729 -25.040  64.938  0.00  0.00     0.139 C 
ENDROOT
BRANCH   2   3
ATOM      3  O   UNK d   0     -14.547 -25.350  64.310  0.00  0.00    -0.776 OA
ATOM      4  H   UNK d   0     -13.951 -24.619  63.917  0.00  0.00     0.167 HD
ENDBRANCH   2   3
BRANCH   2   5
ATOM      5  C   UNK d   0     -16.463 -23.789  64.595  0.00  0.00     0.115 C 
BRANCH   5   6
ATOM      6  C   UNK d   0     -15.507 -22.758  64.059  0.00  0.00     0.052 C 
BRANCH   6   7
ATOM      7  C   UNK d   0     -16.046 -22.043  62.843  0.00  0.00    -0.020 A 
ATOM      8  C   UNK d   0     -15.761 -22.277  61.588  0.00  0.00    -0.011 A 
ATOM      9  C   UNK d   0     -16.512 -21.333  60.777  0.00  0.00     0.067 A 
ATOM     10  C   UNK d   0     -16.667 -21.074  59.406  0.00  0.00     0.062 C 
ATOM     11  N   UNK d   0     -17.223 -20.557  61.622  0.00  0.00    -0.248 NA
ATOM     12  C   UNK d   0     -17.658 -20.296  58.798  0.00  0.00     0.041 A 
ATOM     13  N   UNK d   0     -18.181 -19.103  59.139  0.00  0.00    -0.355 N 
ATOM     14  C   UNK d   0     -18.310 -20.795  57.656  0.00  0.00    -0.022 A 
ATOM     15  C   UNK d   0     -19.154 -18.836  58.247  0.00  0.00     0.042 A 
ATOM     16  H   UNK d   0     -17.856 -18.453  59.981  0.00  0.00     0.166 HD
ATOM     17  C   UNK d   0     -20.015 -17.726  58.140  0.00  0.00     0.062 C 
ATOM     18  C   UNK d   0     -19.265 -19.875  57.303  0.00  0.00    -0.013 A 
ATOM     19  C   UNK d   0     -20.716 -17.079  59.125  0.00  0.00     0.067 A 
ATOM     20  N   UNK d   0     -20.414 -17.393  60.388  0.00  0.00    -0.248 NA
ATOM     21  C   UNK d   0     -21.779 -16.089  59.174  0.00  0.00    -0.011 A 
ATOM     22  C   UNK d   0     -21.203 -16.681  61.258  0.00  0.00     0.066 A 
ATOM     23  C   UNK d   0     -20.967 -16.884  62.610  0.00  0.00     0.062 C 
ATOM     24  C   UNK d   0     -22.062 -15.863  60.424  0.00  0.00    -0.020 A 
ATOM     25  C   UNK d   0     -19.958 -17.660  63.200  0.00  0.00     0.041 A 
ATOM     26  N   UNK d   0     -19.448 -18.853  62.871  0.00  0.00    -0.355 N 
ATOM     27  C   UNK d   0     -19.301 -17.156  64.344  0.00  0.00    -0.022 A 
ATOM     28  C   UNK d   0     -18.483 -19.125  63.763  0.00  0.00     0.042 A 
ATOM     29  H   UNK d   0     -19.783 -19.510  62.030  0.00  0.00     0.166 HD
ATOM     30  C   UNK d   0     -17.626 -20.230  63.888  0.00  0.00     0.062 C 
ATOM     31  C   UNK d   0     -18.366 -18.076  64.706  0.00  0.00    -0.013 A 
ATOM     32  C   UNK d   0     -16.987 -20.933  62.879  0.00  0.00     0.066 A 
BRANCH   8  33
ATOM     33  C   UNK d   0     -14.842 -23.306  61.066  0.00  0.00     0.151 C 
BRANCH  33  34
ATOM     34  C   UNK d   0     -15.512 -24.595  60.814  0.00  0.00     0.143 C 
ATOM     35  O   UNK d   0     -16.434 -24.683  59.991  0.00  0.00    -0.650 OA
BRANCH  34  36
ATOM     36  O   UNK d   0     -15.107 -25.713  61.506  0.00  0.00    -0.776 OA
ATOM     37  H   UNK d   0     -15.605 -26.608  61.413  0.00  0.00     0.167 HD
ENDBRANCH  34  36
ENDBRANCH  33  34
ENDBRANCH   8  33
BRANCH  31  38
ATOM     38  C   UNK d   0     -17.407 -17.963  65.869  0.00  0.00     0.151 C 
BRANCH  38  39
ATOM     39  C   UNK d   0     -17.913 -18.583  67.075  0.00  0.00     0.143 C 
ATOM     40  O   UNK d   0     -18.779 -18.045  67.787  0.00  0.00    -0.650 OA
BRANCH  39  41
ATOM     41  O   UNK d   0     -17.420 -19.828  67.465  0.00  0.00    -0.776 OA
ATOM     42  H   UNK d   0     -18.019 -20.639  67.282  0.00  0.00     0.167 HD
ENDBRANCH  39  41
ENDBRANCH  38  39
ENDBRANCH  31  38
BRANCH  27  43
ATOM     43  C   UNK d   0     -19.526 -15.863  65.087  0.00  0.00     0.052 C 
BRANCH  43  44
ATOM     44  C   UNK d   0     -18.951 -14.673  64.390  0.00  0.00     0.115 C 
BRANCH  44  45
ATOM     45  C   UNK d   0     -18.952 -13.562  65.377  0.00  0.00     0.139 C 
ATOM     46  O   UNK d   0     -19.560 -13.735  66.462  0.00  0.00    -0.650 OA
BRANCH  45  47
ATOM     47  O   UNK d   0     -18.311 -12.363  65.152  0.00  0.00    -0.776 OA
ATOM     48  H   UNK d   0     -17.870 -12.124  64.249  0.00  0.00     0.167 HD
ENDBRANCH  45  47
ENDBRANCH  44  45
ENDBRANCH  43  44
ENDBRANCH  27  43
BRANCH  24  49
ATOM     49  C   UNK d   0     -23.054 -14.900  60.930  0.00  0.00     0.052 C 
BRANCH  49  50
ATOM     50  C   UNK d   0     -24.351 -15.600  61.247  0.00  0.00     0.115 C 
BRANCH  50  51
ATOM     51  C   UNK d   0     -25.572 -15.011  60.715  0.00  0.00     0.139 C 
ATOM     52  O   UNK d   0     -26.360 -15.643  59.972  0.00  0.00    -0.650 OA
BRANCH  51  53
ATOM     53  O   UNK d   0     -25.894 -13.700  61.028  0.00  0.00    -0.776 OA
ATOM     54  H   UNK d   0     -26.702 -13.291  60.592  0.00  0.00     0.167 HD
ENDBRANCH  51  53
ENDBRANCH  50  51
ENDBRANCH  49  50
ENDBRANCH  24  49
BRANCH  21  55
ATOM     55  C   UNK d   0     -22.397 -15.468  57.965  0.00  0.00     0.151 C 
BRANCH  55  56
ATOM     56  C   UNK d   0     -23.432 -16.328  57.371  0.00  0.00     0.143 C 
ATOM     57  O   UNK d   0     -23.162 -17.319  56.664  0.00  0.00    -0.650 OA
BRANCH  56  58
ATOM     58  O   UNK d   0     -24.765 -16.007  57.621  0.00  0.00    -0.776 OA
ATOM     59  H   UNK d   0     -25.098 -16.237  58.575  0.00  0.00     0.167 HD
ENDBRANCH  56  58
ENDBRANCH  55  56
ENDBRANCH  21  55
BRANCH  18  60
ATOM     60  C   UNK d   0     -20.208 -20.013  56.133  0.00  0.00     0.151 C 
BRANCH  60  61
ATOM     61  C   UNK d   0     -21.506 -20.402  56.704  0.00  0.00     0.143 C 
ATOM     62  O   UNK d   0     -21.707 -20.937  57.795  0.00  0.00    -0.650 OA
BRANCH  61  63
ATOM     63  O   UNK d   0     -22.631 -20.121  55.891  0.00  0.00    -0.776 OA
ATOM     64  H   UNK d   0     -22.577 -20.190  54.890  0.00  0.00     0.167 HD
ENDBRANCH  61  63
ENDBRANCH  60  61
ENDBRANCH  18  60
BRANCH  14  65
ATOM     65  C   UNK d   0     -18.037 -22.017  56.826  0.00  0.00     0.052 C 
BRANCH  65  66
ATOM     66  C   UNK d   0     -18.695 -23.241  57.357  0.00  0.00     0.115 C 
BRANCH  66  67
ATOM     67  C   UNK d   0     -19.916 -23.707  56.763  0.00  0.00     0.139 C 
ATOM     68  O   UNK d   0     -19.914 -24.014  55.514  0.00  0.00    -0.650 OA
BRANCH  67  69
ATOM     69  O   UNK d   0     -21.154 -23.877  57.381  0.00  0.00    -0.776 OA
ATOM     70  H   UNK d   0     -21.966 -23.934  56.750  0.00  0.00     0.167 HD
ENDBRANCH  67  69
ENDBRANCH  66  67
ENDBRANCH  65  66
ENDBRANCH  14  65
ENDBRANCH   6   7
ENDBRANCH   5   6
ENDBRANCH   2   5
TORSDOF 28
ENDMDL
