MODEL 1
REMARK VINA RESULT:     -10.6      0.000      0.000
REMARK  16 active torsions:
REMARK  status: ('A' for Active; 'I' for Inactive)
REMARK    1  A    between atoms: C_6  and  C_7 
REMARK    2  A    between atoms: C_7  and  C_8 
REMARK    3  A    between atoms: C_8  and  C_9 
REMARK    4  A    between atoms: C_9  and  O_11 
REMARK    5  A    between atoms: C_16  and  C_17 
REMARK    6  A    between atoms: C_17  and  C_18 
REMARK    7  A    between atoms: C_18  and  C_19 
REMARK    8  A    between atoms: C_19  and  O_21 
REMARK    9  A    between atoms: C_28  and  C_29 
REMARK   10  A    between atoms: C_29  and  C_30 
REMARK   11  A    between atoms: C_30  and  C_31 
REMARK   12  A    between atoms: C_31  and  O_33 
REMARK   13  A    between atoms: C_42  and  C_43 
REMARK   14  A    between atoms: C_43  and  C_44 
REMARK   15  A    between atoms: C_44  and  C_45 
REMARK   16  A    between atoms: C_45  and  O_47 
ROOT
HETATM    1  C   UNK     0       0.612  -5.724  12.618  0.00  0.00     0.051 C 
HETATM    2  C   UNK     0       1.879  -6.532  12.421  0.00  0.00    -0.031 A 
HETATM    3  C   UNK     0       3.200  -6.112  12.422  0.00  0.00     0.021 A 
HETATM    4  N   UNK     0       4.001  -7.174  12.174  0.00  0.00    -0.361 N 
HETATM    5  C   UNK     0       3.221  -8.264  12.022  0.00  0.00     0.022 A 
HETATM    6  C   UNK     0       1.887  -7.898  12.168  0.00  0.00    -0.027 A 
HETATM    7  C   UNK     0       3.612  -9.696  11.826  0.00  0.00     0.115 C 
HETATM    8  C   UNK     0       4.762 -10.210  12.675  0.00  0.00     0.021 A 
HETATM    9  N   UNK     0       5.075  -9.892  13.940  0.00  0.00    -0.361 N 
HETATM   10  C   UNK     0       6.228 -10.518  14.257  0.00  0.00     0.022 A 
HETATM   11  C   UNK     0       6.666 -11.267  13.168  0.00  0.00    -0.027 A 
HETATM   12  C   UNK     0       5.746 -11.077  12.168  0.00  0.00    -0.031 A 
HETATM   13  C   UNK     0       5.809 -11.704  10.793  0.00  0.00     0.051 C 
HETATM   14  C   UNK     0       6.989 -10.393  15.574  0.00  0.00     0.115 C 
HETATM   15  C   UNK     0       7.453  -8.979  15.886  0.00  0.00     0.021 A 
HETATM   16  N   UNK     0       6.693  -7.876  16.016  0.00  0.00    -0.361 N 
HETATM   17  C   UNK     0       7.484  -6.820  16.220  0.00  0.00     0.022 A 
HETATM   18  C   UNK     0       8.823  -7.259  16.233  0.00  0.00    -0.027 A 
HETATM   19  C   UNK     0       8.790  -8.613  16.024  0.00  0.00    -0.031 A 
HETATM   20  C   UNK     0      10.026  -9.494  15.999  0.00  0.00     0.051 C 
HETATM   21  C   UNK     0       7.135  -5.356  16.356  0.00  0.00     0.115 C 
HETATM   22  C   UNK     0       5.965  -4.840  15.551  0.00  0.00     0.022 A 
HETATM   23  N   UNK     0       5.627  -5.142  14.291  0.00  0.00    -0.361 N 
HETATM   24  C   UNK     0       4.436  -4.571  14.023  0.00  0.00     0.021 A 
HETATM   25  C   UNK     0       4.000  -3.875  15.135  0.00  0.00    -0.031 A 
HETATM   26  C   UNK     0       2.747  -3.043  15.308  0.00  0.00     0.051 C 
HETATM   27  C   UNK     0       4.963  -4.032  16.126  0.00  0.00    -0.027 A 
HETATM   28  C   UNK     0       3.604  -4.704  12.759  0.00  0.00     0.115 C 
HETATM   29  H   UNK     0       5.110  -7.140  12.068  0.00  0.00     0.165 HD
HETATM   30  H   UNK     0       4.457  -9.266  14.630  0.00  0.00     0.165 HD
HETATM   31  H   UNK     0       5.572  -7.847  16.012  0.00  0.00     0.165 HD
HETATM   32  H   UNK     0       6.248  -5.727  13.563  0.00  0.00     0.165 HD
ENDROOT
BRANCH   6  33
HETATM   33  C   UNK     0       0.636  -8.735  12.083  0.00  0.00     0.051 C 
BRANCH  33  34
HETATM   34  C   UNK     0       0.210  -9.200  13.455  0.00  0.00     0.114 C 
BRANCH  34  35
HETATM   35  C   UNK     0       0.701 -10.598  13.626  0.00  0.00     0.139 C 
HETATM   36  O   UNK     0       0.568 -11.438  12.689  0.00  0.00    -0.650 OA
BRANCH  35  37
HETATM   37  O   UNK     0       1.317 -11.039  14.791  0.00  0.00    -0.776 OA
HETATM   38  H   UNK     0       1.305 -12.007  15.068  0.00  0.00     0.167 HD
ENDBRANCH  35  37
ENDBRANCH  34  35
ENDBRANCH  33  34
ENDBRANCH   6  33
BRANCH  27  39
HETATM   39  C   UNK     0       4.876  -3.364  17.453  0.00  0.00     0.051 C 
BRANCH  39  40
HETATM   40  C   UNK     0       5.811  -2.277  17.745  0.00  0.00     0.114 C 
BRANCH  40  41
HETATM   41  C   UNK     0       5.554  -0.912  17.345  0.00  0.00     0.139 C 
HETATM   42  O   UNK     0       4.417  -0.428  17.256  0.00  0.00    -0.650 OA
BRANCH  41  43
HETATM   43  O   UNK     0       6.654  -0.064  17.034  0.00  0.00    -0.776 OA
HETATM   44  H   UNK     0       7.054  -0.217  16.116  0.00  0.00     0.167 HD
ENDBRANCH  41  43
ENDBRANCH  40  41
ENDBRANCH  39  40
ENDBRANCH  27  39
BRANCH  11  45
HETATM   45  C   UNK     0       7.891 -12.133  13.053  0.00  0.00     0.051 C 
BRANCH  45  46
HETATM   46  C   UNK     0       7.599 -13.585  12.943  0.00  0.00     0.114 C 
BRANCH  46  47
HETATM   47  C   UNK     0       6.863 -13.981  14.178  0.00  0.00     0.139 C 
HETATM   48  O   UNK     0       7.355 -13.697  15.278  0.00  0.00    -0.650 OA
BRANCH  47  49
HETATM   49  O   UNK     0       5.666 -14.648  14.099  0.00  0.00    -0.776 OA
HETATM   50  H   UNK     0       4.860 -14.263  13.593  0.00  0.00     0.167 HD
ENDBRANCH  47  49
ENDBRANCH  46  47
ENDBRANCH  45  46
ENDBRANCH  11  45
BRANCH  18  51
HETATM   51  C   UNK     0      10.065  -6.435  16.454  0.00  0.00     0.051 C 
BRANCH  51  52
HETATM   52  C   UNK     0      10.499  -5.942  15.081  0.00  0.00     0.114 C 
BRANCH  52  53
HETATM   53  C   UNK     0      11.251  -4.675  15.165  0.00  0.00     0.139 C 
HETATM   54  O   UNK     0      12.386  -4.658  15.667  0.00  0.00    -0.650 OA
BRANCH  53  55
HETATM   55  O   UNK     0      10.687  -3.517  14.686  0.00  0.00    -0.776 OA
HETATM   56  H   UNK     0      11.157  -2.804  14.180  0.00  0.00     0.167 HD
ENDBRANCH  53  55
ENDBRANCH  52  53
ENDBRANCH  51  52
ENDBRANCH  18  51
TORSDOF 16
ENDMDL
MODEL 2
REMARK VINA RESULT:     -10.6      2.373      6.988
REMARK  16 active torsions:
REMARK  status: ('A' for Active; 'I' for Inactive)
REMARK    1  A    between atoms: C_6  and  C_7 
REMARK    2  A    between atoms: C_7  and  C_8 
REMARK    3  A    between atoms: C_8  and  C_9 
REMARK    4  A    between atoms: C_9  and  O_11 
REMARK    5  A    between atoms: C_16  and  C_17 
REMARK    6  A    between atoms: C_17  and  C_18 
REMARK    7  A    between atoms: C_18  and  C_19 
REMARK    8  A    between atoms: C_19  and  O_21 
REMARK    9  A    between atoms: C_28  and  C_29 
REMARK   10  A    between atoms: C_29  and  C_30 
REMARK   11  A    between atoms: C_30  and  C_31 
REMARK   12  A    between atoms: C_31  and  O_33 
REMARK   13  A    between atoms: C_42  and  C_43 
REMARK   14  A    between atoms: C_43  and  C_44 
REMARK   15  A    between atoms: C_44  and  C_45 
REMARK   16  A    between atoms: C_45  and  O_47 
ROOT
HETATM    1  C   UNK     0       7.379 -11.371  13.311  0.00  0.00     0.051 C 
HETATM    2  C   UNK     0       6.073 -10.614  13.434  0.00  0.00    -0.031 A 
HETATM    3  C   UNK     0       5.610  -9.821  14.473  0.00  0.00     0.021 A 
HETATM    4  N   UNK     0       4.372  -9.368  14.164  0.00  0.00    -0.361 N 
HETATM    5  C   UNK     0       4.039  -9.847  12.948  0.00  0.00     0.022 A 
HETATM    6  C   UNK     0       5.079 -10.632  12.464  0.00  0.00    -0.027 A 
HETATM    7  C   UNK     0       2.827  -9.569  12.115  0.00  0.00     0.115 C 
HETATM    8  C   UNK     0       2.353  -8.128  12.059  0.00  0.00     0.021 A 
HETATM    9  N   UNK     0       3.089  -7.005  12.059  0.00  0.00    -0.361 N 
HETATM   10  C   UNK     0       2.246  -5.952  12.094  0.00  0.00     0.022 A 
HETATM   11  C   UNK     0       0.931  -6.408  12.107  0.00  0.00    -0.027 A 
HETATM   12  C   UNK     0       0.991  -7.778  12.085  0.00  0.00    -0.031 A 
HETATM   13  C   UNK     0      -0.203  -8.705  12.085  0.00  0.00     0.051 C 
HETATM   14  C   UNK     0       2.644  -4.480  12.169  0.00  0.00     0.115 C 
HETATM   15  C   UNK     0       3.442  -4.122  13.413  0.00  0.00     0.021 A 
HETATM   16  N   UNK     0       4.616  -4.643  13.814  0.00  0.00    -0.361 N 
HETATM   17  C   UNK     0       4.951  -4.113  14.993  0.00  0.00     0.022 A 
HETATM   18  C   UNK     0       3.952  -3.195  15.373  0.00  0.00    -0.027 A 
HETATM   19  C   UNK     0       3.013  -3.209  14.374  0.00  0.00    -0.031 A 
HETATM   20  C   UNK     0       1.775  -2.330  14.368  0.00  0.00     0.051 C 
HETATM   21  C   UNK     0       6.127  -4.413  15.894  0.00  0.00     0.115 C 
HETATM   22  C   UNK     0       6.637  -5.835  15.926  0.00  0.00     0.022 A 
HETATM   23  N   UNK     0       5.928  -6.971  15.923  0.00  0.00    -0.361 N 
HETATM   24  C   UNK     0       6.786  -8.005  15.809  0.00  0.00     0.021 A 
HETATM   25  C   UNK     0       8.079  -7.524  15.748  0.00  0.00    -0.031 A 
HETATM   26  C   UNK     0       9.380  -8.294  15.659  0.00  0.00     0.051 C 
HETATM   27  C   UNK     0       8.010  -6.137  15.821  0.00  0.00    -0.027 A 
HETATM   28  C   UNK     0       6.450  -9.480  15.671  0.00  0.00     0.115 C 
HETATM   29  H   UNK     0       3.726  -8.745  14.825  0.00  0.00     0.165 HD
HETATM   30  H   UNK     0       4.202  -6.952  11.984  0.00  0.00     0.165 HD
HETATM   31  H   UNK     0       5.246  -5.365  13.232  0.00  0.00     0.165 HD
HETATM   32  H   UNK     0       4.817  -7.056  16.044  0.00  0.00     0.165 HD
ENDROOT
BRANCH   6  33
HETATM   33  C   UNK     0       5.199 -11.392  11.166  0.00  0.00     0.051 C 
BRANCH  33  34
HETATM   34  C   UNK     0       5.208 -10.444   9.990  0.00  0.00     0.114 C 
BRANCH  34  35
HETATM   35  C   UNK     0       4.167 -10.913   9.031  0.00  0.00     0.139 C 
HETATM   36  O   UNK     0       3.464 -11.930   9.301  0.00  0.00    -0.650 OA
BRANCH  35  37
HETATM   37  O   UNK     0       3.917 -10.271   7.824  0.00  0.00    -0.776 OA
HETATM   38  H   UNK     0       4.606  -9.689   7.376  0.00  0.00     0.167 HD
ENDBRANCH  35  37
ENDBRANCH  34  35
ENDBRANCH  33  34
ENDBRANCH   6  33
BRANCH  27  39
HETATM   39  C   UNK     0       9.216  -5.266  15.857  0.00  0.00     0.051 C 
BRANCH  39  40
HETATM   40  C   UNK     0       9.710  -4.818  17.159  0.00  0.00     0.114 C 
BRANCH  40  41
HETATM   41  C   UNK     0       8.846  -4.696  18.311  0.00  0.00     0.139 C 
HETATM   42  O   UNK     0       8.245  -3.654  18.607  0.00  0.00    -0.650 OA
BRANCH  41  43
HETATM   43  O   UNK     0       8.664  -5.823  19.162  0.00  0.00    -0.776 OA
HETATM   44  H   UNK     0       8.886  -6.713  18.731  0.00  0.00     0.167 HD
ENDBRANCH  41  43
ENDBRANCH  40  41
ENDBRANCH  39  40
ENDBRANCH  27  39
BRANCH  11  45
HETATM   45  C   UNK     0      -0.343  -5.607  12.136  0.00  0.00     0.051 C 
BRANCH  45  46
HETATM   46  C   UNK     0      -0.942  -5.469  13.489  0.00  0.00     0.114 C 
BRANCH  46  47
HETATM   47  C   UNK     0      -2.404  -5.726  13.353  0.00  0.00     0.139 C 
HETATM   48  O   UNK     0      -2.911  -6.635  14.025  0.00  0.00    -0.650 OA
BRANCH  47  49
HETATM   49  O   UNK     0      -3.174  -4.975  12.501  0.00  0.00    -0.776 OA
HETATM   50  H   UNK     0      -4.143  -5.228  12.275  0.00  0.00     0.167 HD
ENDBRANCH  47  49
ENDBRANCH  46  47
ENDBRANCH  45  46
ENDBRANCH  11  45
BRANCH  18  51
HETATM   51  C   UNK     0       3.905  -2.336  16.610  0.00  0.00     0.051 C 
BRANCH  51  52
HETATM   52  C   UNK     0       4.885  -1.197  16.375  0.00  0.00     0.114 C 
BRANCH  52  53
HETATM   53  C   UNK     0       4.222   0.120  16.438  0.00  0.00     0.139 C 
HETATM   54  O   UNK     0       3.000   0.191  16.647  0.00  0.00    -0.650 OA
BRANCH  53  55
HETATM   55  O   UNK     0       4.963   1.263  16.261  0.00  0.00    -0.776 OA
HETATM   56  H   UNK     0       4.602   2.177  16.119  0.00  0.00     0.167 HD
ENDBRANCH  53  55
ENDBRANCH  52  53
ENDBRANCH  51  52
ENDBRANCH  18  51
TORSDOF 16
ENDMDL
MODEL 3
REMARK VINA RESULT:     -10.5     28.313     31.541
REMARK  16 active torsions:
REMARK  status: ('A' for Active; 'I' for Inactive)
REMARK    1  A    between atoms: C_6  and  C_7 
REMARK    2  A    between atoms: C_7  and  C_8 
REMARK    3  A    between atoms: C_8  and  C_9 
REMARK    4  A    between atoms: C_9  and  O_11 
REMARK    5  A    between atoms: C_16  and  C_17 
REMARK    6  A    between atoms: C_17  and  C_18 
REMARK    7  A    between atoms: C_18  and  C_19 
REMARK    8  A    between atoms: C_19  and  O_21 
REMARK    9  A    between atoms: C_28  and  C_29 
REMARK   10  A    between atoms: C_29  and  C_30 
REMARK   11  A    between atoms: C_30  and  C_31 
REMARK   12  A    between atoms: C_31  and  O_33 
REMARK   13  A    between atoms: C_42  and  C_43 
REMARK   14  A    between atoms: C_43  and  C_44 
REMARK   15  A    between atoms: C_44  and  C_45 
REMARK   16  A    between atoms: C_45  and  O_47 
ROOT
HETATM    1  C   UNK     0      13.634  19.867  -2.469  0.00  0.00     0.051 C 
HETATM    2  C   UNK     0      13.782  18.469  -3.033  0.00  0.00    -0.031 A 
HETATM    3  C   UNK     0      13.108  17.307  -2.692  0.00  0.00     0.021 A 
HETATM    4  N   UNK     0      13.589  16.283  -3.437  0.00  0.00    -0.361 N 
HETATM    5  C   UNK     0      14.548  16.769  -4.251  0.00  0.00     0.022 A 
HETATM    6  C   UNK     0      14.696  18.133  -4.023  0.00  0.00    -0.027 A 
HETATM    7  C   UNK     0      15.322  16.077  -5.329  0.00  0.00     0.115 C 
HETATM    8  C   UNK     0      14.542  15.141  -6.236  0.00  0.00     0.021 A 
HETATM    9  N   UNK     0      13.282  15.267  -6.682  0.00  0.00    -0.361 N 
HETATM   10  C   UNK     0      12.973  14.156  -7.383  0.00  0.00     0.022 A 
HETATM   11  C   UNK     0      14.066  13.294  -7.396  0.00  0.00    -0.027 A 
HETATM   12  C   UNK     0      15.058  13.909  -6.675  0.00  0.00    -0.031 A 
HETATM   13  C   UNK     0      16.437  13.341  -6.425  0.00  0.00     0.051 C 
HETATM   14  C   UNK     0      11.623  13.839  -8.021  0.00  0.00     0.115 C 
HETATM   15  C   UNK     0      10.476  13.757  -7.026  0.00  0.00     0.021 A 
HETATM   16  N   UNK     0      10.051  14.716  -6.182  0.00  0.00    -0.361 N 
HETATM   17  C   UNK     0       9.066  14.228  -5.425  0.00  0.00     0.022 A 
HETATM   18  C   UNK     0       8.831  12.890  -5.801  0.00  0.00    -0.027 A 
HETATM   19  C   UNK     0       9.720  12.608  -6.806  0.00  0.00    -0.031 A 
HETATM   20  C   UNK     0       9.782  11.275  -7.527  0.00  0.00     0.051 C 
HETATM   21  C   UNK     0       8.307  14.870  -4.286  0.00  0.00     0.115 C 
HETATM   22  C   UNK     0       9.060  15.837  -3.403  0.00  0.00     0.022 A 
HETATM   23  N   UNK     0      10.315  15.738  -2.946  0.00  0.00    -0.361 N 
HETATM   24  C   UNK     0      10.628  16.889  -2.317  0.00  0.00     0.021 A 
HETATM   25  C   UNK     0       9.544  17.746  -2.362  0.00  0.00    -0.031 A 
HETATM   26  C   UNK     0       9.398  19.129  -1.763  0.00  0.00     0.051 C 
HETATM   27  C   UNK     0       8.528  17.094  -3.051  0.00  0.00    -0.027 A 
HETATM   28  C   UNK     0      11.965  17.286  -1.716  0.00  0.00     0.115 C 
HETATM   29  H   UNK     0      13.275  15.217  -3.354  0.00  0.00     0.165 HD
HETATM   30  H   UNK     0      12.626  16.162  -6.547  0.00  0.00     0.165 HD
HETATM   31  H   UNK     0      10.422  15.773  -6.151  0.00  0.00     0.165 HD
HETATM   32  H   UNK     0      10.978  14.838  -3.025  0.00  0.00     0.165 HD
ENDROOT
BRANCH   6  33
HETATM   33  C   UNK     0      15.630  19.128  -4.664  0.00  0.00     0.051 C 
BRANCH  33  34
HETATM   34  C   UNK     0      15.136  19.519  -6.036  0.00  0.00     0.114 C 
BRANCH  34  35
HETATM   35  C   UNK     0      14.331  20.765  -5.883  0.00  0.00     0.139 C 
HETATM   36  O   UNK     0      13.115  20.785  -6.232  0.00  0.00    -0.650 OA
BRANCH  35  37
HETATM   37  O   UNK     0      14.859  21.938  -5.359  0.00  0.00    -0.776 OA
HETATM   38  H   UNK     0      14.785  22.820  -5.841  0.00  0.00     0.167 HD
ENDBRANCH  35  37
ENDBRANCH  34  35
ENDBRANCH  33  34
ENDBRANCH   6  33
BRANCH  27  39
HETATM   39  C   UNK     0       7.173  17.678  -3.240  0.00  0.00     0.051 C 
BRANCH  39  40
HETATM   40  C   UNK     0       6.616  18.501  -2.167  0.00  0.00     0.114 C 
BRANCH  40  41
HETATM   41  C   UNK     0       5.785  19.654  -2.431  0.00  0.00     0.139 C 
HETATM   42  O   UNK     0       4.779  19.939  -1.767  0.00  0.00    -0.650 OA
BRANCH  41  43
HETATM   43  O   UNK     0       6.126  20.519  -3.510  0.00  0.00    -0.776 OA
HETATM   44  H   UNK     0       7.116  20.556  -3.720  0.00  0.00     0.167 HD
ENDBRANCH  41  43
ENDBRANCH  40  41
ENDBRANCH  39  40
ENDBRANCH  27  39
BRANCH  11  45
HETATM   45  C   UNK     0      14.195  11.947  -8.054  0.00  0.00     0.051 C 
BRANCH  45  46
HETATM   46  C   UNK     0      14.563  10.850  -7.123  0.00  0.00     0.114 C 
BRANCH  46  47
HETATM   47  C   UNK     0      13.452   9.855  -7.152  0.00  0.00     0.139 C 
HETATM   48  O   UNK     0      13.473   8.970  -8.019  0.00  0.00    -0.650 OA
BRANCH  47  49
HETATM   49  O   UNK     0      12.429   9.917  -6.241  0.00  0.00    -0.776 OA
HETATM   50  H   UNK     0      12.580  10.218  -5.271  0.00  0.00     0.167 HD
ENDBRANCH  47  49
ENDBRANCH  46  47
ENDBRANCH  45  46
ENDBRANCH  11  45
BRANCH  18  51
HETATM   51  C   UNK     0       7.801  11.940  -5.248  0.00  0.00     0.051 C 
BRANCH  51  52
HETATM   52  C   UNK     0       6.521  12.198  -6.028  0.00  0.00     0.114 C 
BRANCH  52  53
HETATM   53  C   UNK     0       5.513  12.904  -5.213  0.00  0.00     0.139 C 
HETATM   54  O   UNK     0       4.496  13.371  -5.749  0.00  0.00    -0.650 OA
BRANCH  53  55
HETATM   55  O   UNK     0       5.709  13.042  -3.860  0.00  0.00    -0.776 OA
HETATM   56  H   UNK     0       6.122  13.822  -3.407  0.00  0.00     0.167 HD
ENDBRANCH  53  55
ENDBRANCH  52  53
ENDBRANCH  51  52
ENDBRANCH  18  51
TORSDOF 16
ENDMDL
MODEL 4
REMARK VINA RESULT:     -10.5      2.384      6.919
REMARK  16 active torsions:
REMARK  status: ('A' for Active; 'I' for Inactive)
REMARK    1  A    between atoms: C_6  and  C_7 
REMARK    2  A    between atoms: C_7  and  C_8 
REMARK    3  A    between atoms: C_8  and  C_9 
REMARK    4  A    between atoms: C_9  and  O_11 
REMARK    5  A    between atoms: C_16  and  C_17 
REMARK    6  A    between atoms: C_17  and  C_18 
REMARK    7  A    between atoms: C_18  and  C_19 
REMARK    8  A    between atoms: C_19  and  O_21 
REMARK    9  A    between atoms: C_28  and  C_29 
REMARK   10  A    between atoms: C_29  and  C_30 
REMARK   11  A    between atoms: C_30  and  C_31 
REMARK   12  A    between atoms: C_31  and  O_33 
REMARK   13  A    between atoms: C_42  and  C_43 
REMARK   14  A    between atoms: C_43  and  C_44 
REMARK   15  A    between atoms: C_44  and  C_45 
REMARK   16  A    between atoms: C_45  and  O_47 
ROOT
HETATM    1  C   UNK     0       8.758 -11.774  13.765  0.00  0.00     0.051 C 
HETATM    2  C   UNK     0       7.355 -11.203  13.732  0.00  0.00    -0.031 A 
HETATM    3  C   UNK     0       6.692 -10.444  14.682  0.00  0.00     0.021 A 
HETATM    4  N   UNK     0       5.439 -10.180  14.241  0.00  0.00    -0.361 N 
HETATM    5  C   UNK     0       5.293 -10.748  13.026  0.00  0.00     0.022 A 
HETATM    6  C   UNK     0       6.472 -11.398  12.678  0.00  0.00    -0.027 A 
HETATM    7  C   UNK     0       4.139 -10.676  12.074  0.00  0.00     0.115 C 
HETATM    8  C   UNK     0       3.482  -9.318  11.902  0.00  0.00     0.021 A 
HETATM    9  N   UNK     0       4.055  -8.105  11.910  0.00  0.00    -0.361 N 
HETATM   10  C   UNK     0       3.077  -7.179  11.814  0.00  0.00     0.022 A 
HETATM   11  C   UNK     0       1.841  -7.814  11.733  0.00  0.00    -0.027 A 
HETATM   12  C   UNK     0       2.089  -9.162  11.788  0.00  0.00    -0.031 A 
HETATM   13  C   UNK     0       1.037 -10.247  11.728  0.00  0.00     0.051 C 
HETATM   14  C   UNK     0       3.263  -5.664  11.849  0.00  0.00     0.115 C 
HETATM   15  C   UNK     0       3.881  -5.149  13.139  0.00  0.00     0.021 A 
HETATM   16  N   UNK     0       5.072  -5.485  13.670  0.00  0.00    -0.361 N 
HETATM   17  C   UNK     0       5.217  -4.868  14.845  0.00  0.00     0.022 A 
HETATM   18  C   UNK     0       4.070  -4.085  15.086  0.00  0.00    -0.027 A 
HETATM   19  C   UNK     0       3.242  -4.269  14.009  0.00  0.00    -0.031 A 
HETATM   20  C   UNK     0       1.903  -3.574  13.846  0.00  0.00     0.051 C 
HETATM   21  C   UNK     0       6.331  -4.965  15.863  0.00  0.00     0.115 C 
HETATM   22  C   UNK     0       7.024  -6.299  16.013  0.00  0.00     0.022 A 
HETATM   23  N   UNK     0       6.479  -7.523  16.006  0.00  0.00    -0.361 N 
HETATM   24  C   UNK     0       7.476  -8.430  16.023  0.00  0.00     0.021 A 
HETATM   25  C   UNK     0       8.692  -7.775  16.053  0.00  0.00    -0.031 A 
HETATM   26  C   UNK     0      10.088  -8.359  16.121  0.00  0.00     0.051 C 
HETATM   27  C   UNK     0       8.429  -6.410  16.048  0.00  0.00    -0.027 A 
HETATM   28  C   UNK     0       7.359  -9.942  15.932  0.00  0.00     0.115 C 
HETATM   29  H   UNK     0       4.654  -9.629  14.808  0.00  0.00     0.165 HD
HETATM   30  H   UNK     0       5.153  -7.899  11.932  0.00  0.00     0.165 HD
HETATM   31  H   UNK     0       5.847  -6.134  13.185  0.00  0.00     0.165 HD
HETATM   32  H   UNK     0       5.383  -7.758  16.031  0.00  0.00     0.165 HD
ENDROOT
BRANCH   6  33
HETATM   33  C   UNK     0       6.817 -12.183  11.438  0.00  0.00     0.051 C 
BRANCH  33  34
HETATM   34  C   UNK     0       7.568 -11.321  10.451  0.00  0.00     0.114 C 
BRANCH  34  35
HETATM   35  C   UNK     0       8.653 -12.159   9.862  0.00  0.00     0.139 C 
HETATM   36  O   UNK     0       8.381 -13.281   9.344  0.00  0.00    -0.650 OA
BRANCH  35  37
HETATM   37  O   UNK     0       9.984 -11.760   9.849  0.00  0.00    -0.776 OA
HETATM   38  H   UNK     0      10.540 -11.783   9.009  0.00  0.00     0.167 HD
ENDBRANCH  35  37
ENDBRANCH  34  35
ENDBRANCH  33  34
ENDBRANCH   6  33
BRANCH  27  39
HETATM   39  C   UNK     0       9.496  -5.378  16.147  0.00  0.00     0.051 C 
BRANCH  39  40
HETATM   40  C   UNK     0       9.776  -4.792  17.457  0.00  0.00     0.114 C 
BRANCH  40  41
HETATM   41  C   UNK     0       8.777  -4.722  18.500  0.00  0.00     0.139 C 
HETATM   42  O   UNK     0       8.045  -3.739  18.681  0.00  0.00    -0.650 OA
BRANCH  41  43
HETATM   43  O   UNK     0       8.611  -5.834  19.373  0.00  0.00    -0.776 OA
HETATM   44  H   UNK     0       7.997  -5.661  20.160  0.00  0.00     0.167 HD
ENDBRANCH  41  43
ENDBRANCH  40  41
ENDBRANCH  39  40
ENDBRANCH  27  39
BRANCH  11  45
HETATM   45  C   UNK     0       0.473  -7.199  11.607  0.00  0.00     0.051 C 
BRANCH  45  46
HETATM   46  C   UNK     0      -0.291  -7.153  12.879  0.00  0.00     0.114 C 
BRANCH  46  47
HETATM   47  C   UNK     0      -0.872  -5.785  12.997  0.00  0.00     0.139 C 
HETATM   48  O   UNK     0      -1.411  -5.460  14.064  0.00  0.00    -0.650 OA
BRANCH  47  49
HETATM   49  O   UNK     0      -0.815  -4.905  11.946  0.00  0.00    -0.776 OA
HETATM   50  H   UNK     0      -1.144  -3.936  12.028  0.00  0.00     0.167 HD
ENDBRANCH  47  49
ENDBRANCH  46  47
ENDBRANCH  45  46
ENDBRANCH  11  45
BRANCH  18  51
HETATM   51  C   UNK     0       3.789  -3.194  16.268  0.00  0.00     0.051 C 
BRANCH  51  52
HETATM   52  C   UNK     0       4.336  -1.821  15.906  0.00  0.00     0.114 C 
BRANCH  52  53
HETATM   53  C   UNK     0       5.134  -1.241  17.003  0.00  0.00     0.139 C 
HETATM   54  O   UNK     0       4.763  -0.192  17.554  0.00  0.00    -0.650 OA
BRANCH  53  55
HETATM   55  O   UNK     0       6.289  -1.866  17.408  0.00  0.00    -0.776 OA
HETATM   56  H   UNK     0       6.413  -2.843  17.527  0.00  0.00     0.167 HD
ENDBRANCH  53  55
ENDBRANCH  52  53
ENDBRANCH  51  52
ENDBRANCH  18  51
TORSDOF 16
ENDMDL
MODEL 5
REMARK VINA RESULT:     -10.1      2.177      7.070
REMARK  16 active torsions:
REMARK  status: ('A' for Active; 'I' for Inactive)
REMARK    1  A    between atoms: C_6  and  C_7 
REMARK    2  A    between atoms: C_7  and  C_8 
REMARK    3  A    between atoms: C_8  and  C_9 
REMARK    4  A    between atoms: C_9  and  O_11 
REMARK    5  A    between atoms: C_16  and  C_17 
REMARK    6  A    between atoms: C_17  and  C_18 
REMARK    7  A    between atoms: C_18  and  C_19 
REMARK    8  A    between atoms: C_19  and  O_21 
REMARK    9  A    between atoms: C_28  and  C_29 
REMARK   10  A    between atoms: C_29  and  C_30 
REMARK   11  A    between atoms: C_30  and  C_31 
REMARK   12  A    between atoms: C_31  and  O_33 
REMARK   13  A    between atoms: C_42  and  C_43 
REMARK   14  A    between atoms: C_43  and  C_44 
REMARK   15  A    between atoms: C_44  and  C_45 
REMARK   16  A    between atoms: C_45  and  O_47 
ROOT
HETATM    1  C   UNK     0       9.396 -12.160  13.530  0.00  0.00     0.051 C 
HETATM    2  C   UNK     0       8.026 -11.535  13.695  0.00  0.00    -0.031 A 
HETATM    3  C   UNK     0       7.502 -10.834  14.770  0.00  0.00     0.021 A 
HETATM    4  N   UNK     0       6.223 -10.488  14.490  0.00  0.00    -0.361 N 
HETATM    5  C   UNK     0       5.924 -10.945  13.256  0.00  0.00     0.022 A 
HETATM    6  C   UNK     0       7.028 -11.608  12.731  0.00  0.00    -0.027 A 
HETATM    7  C   UNK     0       4.682 -10.749  12.444  0.00  0.00     0.115 C 
HETATM    8  C   UNK     0       4.073  -9.358  12.453  0.00  0.00     0.021 A 
HETATM    9  N   UNK     0       4.700  -8.172  12.496  0.00  0.00    -0.361 N 
HETATM   10  C   UNK     0       3.761  -7.205  12.581  0.00  0.00     0.022 A 
HETATM   11  C   UNK     0       2.496  -7.784  12.584  0.00  0.00    -0.027 A 
HETATM   12  C   UNK     0       2.685  -9.140  12.504  0.00  0.00    -0.031 A 
HETATM   13  C   UNK     0       1.584 -10.176  12.472  0.00  0.00     0.051 C 
HETATM   14  C   UNK     0       4.020  -5.707  12.716  0.00  0.00     0.115 C 
HETATM   15  C   UNK     0       4.794  -5.327  13.968  0.00  0.00     0.021 A 
HETATM   16  N   UNK     0       6.016  -5.751  14.339  0.00  0.00    -0.361 N 
HETATM   17  C   UNK     0       6.313  -5.241  15.537  0.00  0.00     0.022 A 
HETATM   18  C   UNK     0       5.236  -4.439  15.963  0.00  0.00    -0.027 A 
HETATM   19  C   UNK     0       4.291  -4.500  14.971  0.00  0.00    -0.031 A 
HETATM   20  C   UNK     0       2.976  -3.743  15.010  0.00  0.00     0.051 C 
HETATM   21  C   UNK     0       7.522  -5.466  16.416  0.00  0.00     0.115 C 
HETATM   22  C   UNK     0       8.164  -6.833  16.384  0.00  0.00     0.022 A 
HETATM   23  N   UNK     0       7.565  -8.030  16.337  0.00  0.00    -0.361 N 
HETATM   24  C   UNK     0       8.515  -8.973  16.174  0.00  0.00     0.021 A 
HETATM   25  C   UNK     0       9.757  -8.368  16.125  0.00  0.00    -0.031 A 
HETATM   26  C   UNK     0      11.124  -9.008  15.994  0.00  0.00     0.051 C 
HETATM   27  C   UNK     0       9.558  -6.999  16.257  0.00  0.00    -0.027 A 
HETATM   28  C   UNK     0       8.319 -10.466  15.976  0.00  0.00     0.115 C 
HETATM   29  H   UNK     0       5.528  -9.957  15.181  0.00  0.00     0.165 HD
HETATM   30  H   UNK     0       5.803  -8.011  12.415  0.00  0.00     0.165 HD
HETATM   31  H   UNK     0       6.705  -6.385  13.723  0.00  0.00     0.165 HD
HETATM   32  H   UNK     0       6.468  -8.225  16.463  0.00  0.00     0.165 HD
ENDROOT
BRANCH   6  33
HETATM   33  C   UNK     0       7.205 -12.297  11.402  0.00  0.00     0.051 C 
BRANCH  33  34
HETATM   34  C   UNK     0       8.009 -11.438  10.456  0.00  0.00     0.114 C 
BRANCH  34  35
HETATM   35  C   UNK     0       9.111 -12.284   9.913  0.00  0.00     0.139 C 
HETATM   36  O   UNK     0       8.904 -13.501   9.638  0.00  0.00    -0.650 OA
BRANCH  35  37
HETATM   37  O   UNK     0      10.390 -11.791   9.685  0.00  0.00    -0.776 OA
HETATM   38  H   UNK     0      11.092 -12.330   9.203  0.00  0.00     0.167 HD
ENDBRANCH  35  37
ENDBRANCH  34  35
ENDBRANCH  33  34
ENDBRANCH   6  33
BRANCH  27  39
HETATM   39  C   UNK     0      10.677  -6.020  16.322  0.00  0.00     0.051 C 
BRANCH  39  40
HETATM   40  C   UNK     0      10.864  -5.106  15.195  0.00  0.00     0.114 C 
BRANCH  40  41
HETATM   41  C   UNK     0      11.150  -3.701  15.382  0.00  0.00     0.139 C 
HETATM   42  O   UNK     0      10.273  -2.834  15.500  0.00  0.00    -0.650 OA
BRANCH  41  43
HETATM   43  O   UNK     0      12.507  -3.273  15.436  0.00  0.00    -0.776 OA
HETATM   44  H   UNK     0      13.172  -3.938  15.059  0.00  0.00     0.167 HD
ENDBRANCH  41  43
ENDBRANCH  40  41
ENDBRANCH  39  40
ENDBRANCH  27  39
BRANCH  11  45
HETATM   45  C   UNK     0       1.152  -7.110  12.656  0.00  0.00     0.051 C 
BRANCH  45  46
HETATM   46  C   UNK     0       0.955  -6.042  11.643  0.00  0.00     0.114 C 
BRANCH  46  47
HETATM   47  C   UNK     0       0.519  -4.816  12.373  0.00  0.00     0.139 C 
HETATM   48  O   UNK     0      -0.149  -4.949  13.408  0.00  0.00    -0.650 OA
BRANCH  47  49
HETATM   49  O   UNK     0       0.849  -3.568  11.908  0.00  0.00    -0.776 OA
HETATM   50  H   UNK     0       1.653  -3.045  12.274  0.00  0.00     0.167 HD
ENDBRANCH  47  49
ENDBRANCH  46  47
ENDBRANCH  45  46
ENDBRANCH  11  45
BRANCH  18  51
HETATM   51  C   UNK     0       5.122  -3.640  17.235  0.00  0.00     0.051 C 
BRANCH  51  52
HETATM   52  C   UNK     0       5.977  -2.398  17.037  0.00  0.00     0.114 C 
BRANCH  52  53
HETATM   53  C   UNK     0       5.163  -1.223  16.670  0.00  0.00     0.139 C 
HETATM   54  O   UNK     0       4.695  -0.490  17.556  0.00  0.00    -0.650 OA
BRANCH  53  55
HETATM   55  O   UNK     0       4.925  -0.949  15.345  0.00  0.00    -0.776 OA
HETATM   56  H   UNK     0       5.016  -0.063  14.907  0.00  0.00     0.167 HD
ENDBRANCH  53  55
ENDBRANCH  52  53
ENDBRANCH  51  52
ENDBRANCH  18  51
TORSDOF 16
ENDMDL
MODEL 6
REMARK VINA RESULT:     -10.1     29.021     31.881
REMARK  16 active torsions:
REMARK  status: ('A' for Active; 'I' for Inactive)
REMARK    1  A    between atoms: C_6  and  C_7 
REMARK    2  A    between atoms: C_7  and  C_8 
REMARK    3  A    between atoms: C_8  and  C_9 
REMARK    4  A    between atoms: C_9  and  O_11 
REMARK    5  A    between atoms: C_16  and  C_17 
REMARK    6  A    between atoms: C_17  and  C_18 
REMARK    7  A    between atoms: C_18  and  C_19 
REMARK    8  A    between atoms: C_19  and  O_21 
REMARK    9  A    between atoms: C_28  and  C_29 
REMARK   10  A    between atoms: C_29  and  C_30 
REMARK   11  A    between atoms: C_30  and  C_31 
REMARK   12  A    between atoms: C_31  and  O_33 
REMARK   13  A    between atoms: C_42  and  C_43 
REMARK   14  A    between atoms: C_43  and  C_44 
REMARK   15  A    between atoms: C_44  and  C_45 
REMARK   16  A    between atoms: C_45  and  O_47 
ROOT
HETATM    1  C   UNK     0      11.875  10.879  -7.336  0.00  0.00     0.051 C 
HETATM    2  C   UNK     0      12.578  12.193  -7.065  0.00  0.00    -0.031 A 
HETATM    3  C   UNK     0      12.084  13.486  -7.137  0.00  0.00     0.021 A 
HETATM    4  N   UNK     0      13.078  14.356  -6.839  0.00  0.00    -0.361 N 
HETATM    5  C   UNK     0      14.193  13.645  -6.571  0.00  0.00     0.022 A 
HETATM    6  C   UNK     0      13.916  12.289  -6.706  0.00  0.00    -0.027 A 
HETATM    7  C   UNK     0      15.534  14.118  -6.102  0.00  0.00     0.115 C 
HETATM    8  C   UNK     0      15.540  15.188  -5.025  0.00  0.00     0.021 A 
HETATM    9  N   UNK     0      14.691  15.346  -3.997  0.00  0.00    -0.361 N 
HETATM   10  C   UNK     0      15.023  16.483  -3.350  0.00  0.00     0.022 A 
HETATM   11  C   UNK     0      16.120  17.070  -3.973  0.00  0.00    -0.027 A 
HETATM   12  C   UNK     0      16.452  16.259  -5.029  0.00  0.00    -0.031 A 
HETATM   13  C   UNK     0      17.593  16.500  -5.991  0.00  0.00     0.051 C 
HETATM   14  C   UNK     0      14.288  17.088  -2.157  0.00  0.00     0.115 C 
HETATM   15  C   UNK     0      12.841  17.453  -2.446  0.00  0.00     0.021 A 
HETATM   16  N   UNK     0      11.855  16.636  -2.863  0.00  0.00    -0.361 N 
HETATM   17  C   UNK     0      10.749  17.353  -3.069  0.00  0.00     0.022 A 
HETATM   18  C   UNK     0      11.023  18.701  -2.761  0.00  0.00    -0.027 A 
HETATM   19  C   UNK     0      12.336  18.749  -2.371  0.00  0.00    -0.031 A 
HETATM   20  C   UNK     0      13.034  20.018  -1.915  0.00  0.00     0.051 C 
HETATM   21  C   UNK     0       9.400  16.928  -3.603  0.00  0.00     0.115 C 
HETATM   22  C   UNK     0       9.376  15.833  -4.643  0.00  0.00     0.022 A 
HETATM   23  N   UNK     0      10.210  15.649  -5.675  0.00  0.00    -0.361 N 
HETATM   24  C   UNK     0       9.910  14.470  -6.257  0.00  0.00     0.021 A 
HETATM   25  C   UNK     0       8.851  13.886  -5.591  0.00  0.00    -0.031 A 
HETATM   26  C   UNK     0       8.135  12.586  -5.894  0.00  0.00     0.051 C 
HETATM   27  C   UNK     0       8.491  14.739  -4.554  0.00  0.00    -0.027 A 
HETATM   28  C   UNK     0      10.637  13.789  -7.404  0.00  0.00     0.115 C 
HETATM   29  H   UNK     0      12.996  15.467  -6.860  0.00  0.00     0.165 HD
HETATM   30  H   UNK     0      13.889  14.629  -3.695  0.00  0.00     0.165 HD
HETATM   31  H   UNK     0      11.928  15.522  -2.970  0.00  0.00     0.165 HD
HETATM   32  H   UNK     0      10.991  16.371  -6.029  0.00  0.00     0.165 HD
ENDROOT
BRANCH   6  33
HETATM   33  C   UNK     0      14.816  11.092  -6.524  0.00  0.00     0.051 C 
BRANCH  33  34
HETATM   34  C   UNK     0      15.809  10.993  -7.657  0.00  0.00     0.114 C 
BRANCH  34  35
HETATM   35  C   UNK     0      15.051  10.611  -8.883  0.00  0.00     0.139 C 
HETATM   36  O   UNK     0      14.368   9.547  -8.904  0.00  0.00    -0.650 OA
BRANCH  35  37
HETATM   37  O   UNK     0      15.053  11.386 -10.037  0.00  0.00    -0.776 OA
HETATM   38  H   UNK     0      14.792  12.359 -10.028  0.00  0.00     0.167 HD
ENDBRANCH  35  37
ENDBRANCH  34  35
ENDBRANCH  33  34
ENDBRANCH   6  33
BRANCH  27  39
HETATM   39  C   UNK     0       7.335  14.478  -3.654  0.00  0.00     0.051 C 
BRANCH  39  40
HETATM   40  C   UNK     0       6.008  14.919  -4.083  0.00  0.00     0.114 C 
BRANCH  40  41
HETATM   41  C   UNK     0       4.996  13.991  -4.536  0.00  0.00     0.139 C 
HETATM   42  O   UNK     0       3.950  13.763  -3.913  0.00  0.00    -0.650 OA
BRANCH  41  43
HETATM   43  O   UNK     0       5.197  13.293  -5.760  0.00  0.00    -0.776 OA
HETATM   44  H   UNK     0       5.515  13.874  -6.526  0.00  0.00     0.167 HD
ENDBRANCH  41  43
ENDBRANCH  40  41
ENDBRANCH  39  40
ENDBRANCH  27  39
BRANCH  11  45
HETATM   45  C   UNK     0      16.845  18.337  -3.606  0.00  0.00     0.051 C 
BRANCH  45  46
HETATM   46  C   UNK     0      16.122  19.579  -3.983  0.00  0.00     0.114 C 
BRANCH  46  47
HETATM   47  C   UNK     0      16.803  20.138  -5.186  0.00  0.00     0.139 C 
HETATM   48  O   UNK     0      16.380  19.821  -6.307  0.00  0.00    -0.650 OA
BRANCH  47  49
HETATM   49  O   UNK     0      17.875  20.985  -5.057  0.00  0.00    -0.776 OA
HETATM   50  H   UNK     0      18.566  20.878  -4.304  0.00  0.00     0.167 HD
ENDBRANCH  47  49
ENDBRANCH  46  47
ENDBRANCH  45  46
ENDBRANCH  11  45
BRANCH  18  51
HETATM   51  C   UNK     0      10.079  19.874  -2.815  0.00  0.00     0.051 C 
BRANCH  51  52
HETATM   52  C   UNK     0       9.290  19.846  -1.515  0.00  0.00     0.114 C 
BRANCH  52  53
HETATM   53  C   UNK     0       7.843  20.024  -1.747  0.00  0.00     0.139 C 
HETATM   54  O   UNK     0       7.445  20.821  -2.611  0.00  0.00    -0.650 OA
BRANCH  53  55
HETATM   55  O   UNK     0       6.942  19.306  -0.998  0.00  0.00    -0.776 OA
HETATM   56  H   UNK     0       6.744  19.440  -0.035  0.00  0.00     0.167 HD
ENDBRANCH  53  55
ENDBRANCH  52  53
ENDBRANCH  51  52
ENDBRANCH  18  51
TORSDOF 16
ENDMDL
MODEL 7
REMARK VINA RESULT:      -9.8     30.640     33.727
REMARK  16 active torsions:
REMARK  status: ('A' for Active; 'I' for Inactive)
REMARK    1  A    between atoms: C_6  and  C_7 
REMARK    2  A    between atoms: C_7  and  C_8 
REMARK    3  A    between atoms: C_8  and  C_9 
REMARK    4  A    between atoms: C_9  and  O_11 
REMARK    5  A    between atoms: C_16  and  C_17 
REMARK    6  A    between atoms: C_17  and  C_18 
REMARK    7  A    between atoms: C_18  and  C_19 
REMARK    8  A    between atoms: C_19  and  O_21 
REMARK    9  A    between atoms: C_28  and  C_29 
REMARK   10  A    between atoms: C_29  and  C_30 
REMARK   11  A    between atoms: C_30  and  C_31 
REMARK   12  A    between atoms: C_31  and  O_33 
REMARK   13  A    between atoms: C_42  and  C_43 
REMARK   14  A    between atoms: C_43  and  C_44 
REMARK   15  A    between atoms: C_44  and  C_45 
REMARK   16  A    between atoms: C_45  and  O_47 
ROOT
HETATM    1  C   UNK     0      11.316  18.143  -3.882  0.00  0.00     0.051 C 
HETATM    2  C   UNK     0      12.785  18.053  -3.524  0.00  0.00    -0.031 A 
HETATM    3  C   UNK     0      13.568  16.932  -3.297  0.00  0.00     0.021 A 
HETATM    4  N   UNK     0      14.822  17.328  -2.974  0.00  0.00    -0.361 N 
HETATM    5  C   UNK     0      14.858  18.676  -2.998  0.00  0.00     0.022 A 
HETATM    6  C   UNK     0      13.599  19.162  -3.336  0.00  0.00    -0.027 A 
HETATM    7  C   UNK     0      16.019  19.601  -2.809  0.00  0.00     0.115 C 
HETATM    8  C   UNK     0      17.320  19.210  -3.487  0.00  0.00     0.021 A 
HETATM    9  N   UNK     0      17.496  18.604  -4.672  0.00  0.00    -0.361 N 
HETATM   10  C   UNK     0      18.816  18.368  -4.830  0.00  0.00     0.022 A 
HETATM   11  C   UNK     0      19.510  18.845  -3.721  0.00  0.00    -0.027 A 
HETATM   12  C   UNK     0      18.573  19.376  -2.872  0.00  0.00    -0.031 A 
HETATM   13  C   UNK     0      18.870  20.017  -1.535  0.00  0.00     0.051 C 
HETATM   14  C   UNK     0      19.467  17.641  -6.003  0.00  0.00     0.115 C 
HETATM   15  C   UNK     0      19.001  16.204  -6.172  0.00  0.00     0.021 A 
HETATM   16  N   UNK     0      17.743  15.767  -6.370  0.00  0.00    -0.361 N 
HETATM   17  C   UNK     0      17.742  14.432  -6.397  0.00  0.00     0.022 A 
HETATM   18  C   UNK     0      19.064  13.978  -6.218  0.00  0.00    -0.027 A 
HETATM   19  C   UNK     0      19.843  15.098  -6.079  0.00  0.00    -0.031 A 
HETATM   20  C   UNK     0      21.349  15.061  -5.900  0.00  0.00     0.051 C 
HETATM   21  C   UNK     0      16.588  13.463  -6.519  0.00  0.00     0.115 C 
HETATM   22  C   UNK     0      15.275  13.860  -5.887  0.00  0.00     0.022 A 
HETATM   23  N   UNK     0      15.070  14.468  -4.711  0.00  0.00    -0.361 N 
HETATM   24  C   UNK     0      13.758  14.762  -4.610  0.00  0.00     0.021 A 
HETATM   25  C   UNK     0      13.100  14.324  -5.743  0.00  0.00    -0.031 A 
HETATM   26  C   UNK     0      11.624  14.390  -6.074  0.00  0.00     0.051 C 
HETATM   27  C   UNK     0      14.050  13.742  -6.575  0.00  0.00    -0.027 A 
HETATM   28  C   UNK     0      13.061  15.532  -3.501  0.00  0.00     0.115 C 
HETATM   29  H   UNK     0      15.663  16.653  -2.692  0.00  0.00     0.165 HD
HETATM   30  H   UNK     0      16.696  18.385  -5.421  0.00  0.00     0.165 HD
HETATM   31  H   UNK     0      16.844  16.413  -6.542  0.00  0.00     0.165 HD
HETATM   32  H   UNK     0      15.843  14.657  -3.922  0.00  0.00     0.165 HD
ENDROOT
BRANCH   6  33
HETATM   33  C   UNK     0      13.117  20.583  -3.490  0.00  0.00     0.051 C 
BRANCH  33  34
HETATM   34  C   UNK     0      12.927  20.929  -4.947  0.00  0.00     0.114 C 
BRANCH  34  35
HETATM   35  C   UNK     0      14.283  21.073  -5.552  0.00  0.00     0.139 C 
HETATM   36  O   UNK     0      15.012  22.063  -5.252  0.00  0.00    -0.650 OA
BRANCH  35  37
HETATM   37  O   UNK     0      14.804  20.151  -6.451  0.00  0.00    -0.776 OA
HETATM   38  H   UNK     0      14.675  20.243  -7.446  0.00  0.00     0.167 HD
ENDBRANCH  35  37
ENDBRANCH  34  35
ENDBRANCH  33  34
ENDBRANCH   6  33
BRANCH  27  39
HETATM   39  C   UNK     0      13.705  13.089  -7.867  0.00  0.00     0.051 C 
BRANCH  39  40
HETATM   40  C   UNK     0      13.805  11.632  -7.956  0.00  0.00     0.114 C 
BRANCH  40  41
HETATM   41  C   UNK     0      14.921  10.975  -8.598  0.00  0.00     0.139 C 
HETATM   42  O   UNK     0      15.785  10.337  -7.982  0.00  0.00    -0.650 OA
BRANCH  41  43
HETATM   43  O   UNK     0      15.048  11.054 -10.014  0.00  0.00    -0.776 OA
HETATM   44  H   UNK     0      14.370  10.505 -10.527  0.00  0.00     0.167 HD
ENDBRANCH  41  43
ENDBRANCH  40  41
ENDBRANCH  39  40
ENDBRANCH  27  39
BRANCH  11  45
HETATM   45  C   UNK     0      20.990  18.814  -3.453  0.00  0.00     0.051 C 
BRANCH  45  46
HETATM   46  C   UNK     0      21.510  17.476  -3.071  0.00  0.00     0.114 C 
BRANCH  46  47
HETATM   47  C   UNK     0      22.606  17.693  -2.084  0.00  0.00     0.139 C 
HETATM   48  O   UNK     0      23.691  17.124  -2.269  0.00  0.00    -0.650 OA
BRANCH  47  49
HETATM   49  O   UNK     0      22.419  18.505  -0.994  0.00  0.00    -0.776 OA
HETATM   50  H   UNK     0      23.045  18.478  -0.180  0.00  0.00     0.167 HD
ENDBRANCH  47  49
ENDBRANCH  46  47
ENDBRANCH  45  46
ENDBRANCH  11  45
BRANCH  18  51
HETATM   51  C   UNK     0      19.561  12.556  -6.200  0.00  0.00     0.051 C 
BRANCH  51  52
HETATM   52  C   UNK     0      19.544  12.081  -7.646  0.00  0.00     0.114 C 
BRANCH  52  53
HETATM   53  C   UNK     0      20.890  12.113  -8.251  0.00  0.00     0.139 C 
HETATM   54  O   UNK     0      21.897  12.109  -7.525  0.00  0.00    -0.650 OA
BRANCH  53  55
HETATM   55  O   UNK     0      21.020  12.151  -9.618  0.00  0.00    -0.776 OA
HETATM   56  H   UNK     0      20.807  11.412 -10.245  0.00  0.00     0.167 HD
ENDBRANCH  53  55
ENDBRANCH  52  53
ENDBRANCH  51  52
ENDBRANCH  18  51
TORSDOF 16
ENDMDL
MODEL 8
REMARK VINA RESULT:      -9.8      4.420      9.863
REMARK  16 active torsions:
REMARK  status: ('A' for Active; 'I' for Inactive)
REMARK    1  A    between atoms: C_6  and  C_7 
REMARK    2  A    between atoms: C_7  and  C_8 
REMARK    3  A    between atoms: C_8  and  C_9 
REMARK    4  A    between atoms: C_9  and  O_11 
REMARK    5  A    between atoms: C_16  and  C_17 
REMARK    6  A    between atoms: C_17  and  C_18 
REMARK    7  A    between atoms: C_18  and  C_19 
REMARK    8  A    between atoms: C_19  and  O_21 
REMARK    9  A    between atoms: C_28  and  C_29 
REMARK   10  A    between atoms: C_29  and  C_30 
REMARK   11  A    between atoms: C_30  and  C_31 
REMARK   12  A    between atoms: C_31  and  O_33 
REMARK   13  A    between atoms: C_42  and  C_43 
REMARK   14  A    between atoms: C_43  and  C_44 
REMARK   15  A    between atoms: C_44  and  C_45 
REMARK   16  A    between atoms: C_45  and  O_47 
ROOT
HETATM    1  C   UNK     0       7.408 -11.954  14.187  0.00  0.00     0.051 C 
HETATM    2  C   UNK     0       8.098 -10.858  14.973  0.00  0.00    -0.031 A 
HETATM    3  C   UNK     0       9.278 -10.905  15.699  0.00  0.00     0.021 A 
HETATM    4  N   UNK     0       9.496  -9.694  16.265  0.00  0.00    -0.361 N 
HETATM    5  C   UNK     0       8.486  -8.874  15.908  0.00  0.00     0.022 A 
HETATM    6  C   UNK     0       7.592  -9.571  15.102  0.00  0.00    -0.027 A 
HETATM    7  C   UNK     0       8.299  -7.416  16.188  0.00  0.00     0.115 C 
HETATM    8  C   UNK     0       9.526  -6.532  16.047  0.00  0.00     0.021 A 
HETATM    9  N   UNK     0      10.531  -6.632  15.164  0.00  0.00    -0.361 N 
HETATM   10  C   UNK     0      11.451  -5.692  15.467  0.00  0.00     0.022 A 
HETATM   11  C   UNK     0      11.022  -4.960  16.570  0.00  0.00    -0.027 A 
HETATM   12  C   UNK     0       9.810  -5.484  16.941  0.00  0.00    -0.031 A 
HETATM   13  C   UNK     0       8.964  -4.997  18.095  0.00  0.00     0.051 C 
HETATM   14  C   UNK     0      12.790  -5.481  14.765  0.00  0.00     0.115 C 
HETATM   15  C   UNK     0      13.720  -6.681  14.839  0.00  0.00     0.021 A 
HETATM   16  N   UNK     0      13.484  -7.931  14.398  0.00  0.00    -0.361 N 
HETATM   17  C   UNK     0      14.521  -8.710  14.714  0.00  0.00     0.022 A 
HETATM   18  C   UNK     0      15.483  -7.928  15.384  0.00  0.00    -0.027 A 
HETATM   19  C   UNK     0      14.969  -6.659  15.455  0.00  0.00    -0.031 A 
HETATM   20  C   UNK     0      15.705  -5.485  16.074  0.00  0.00     0.051 C 
HETATM   21  C   UNK     0      14.719 -10.195  14.509  0.00  0.00     0.115 C 
HETATM   22  C   UNK     0      13.499 -11.081  14.603  0.00  0.00     0.022 A 
HETATM   23  N   UNK     0      12.481 -11.002  15.469  0.00  0.00    -0.361 N 
HETATM   24  C   UNK     0      11.542 -11.896  15.101  0.00  0.00     0.021 A 
HETATM   25  C   UNK     0      11.970 -12.574  13.976  0.00  0.00    -0.031 A 
HETATM   26  C   UNK     0      11.285 -13.693  13.219  0.00  0.00     0.051 C 
HETATM   27  C   UNK     0      13.220 -12.070  13.638  0.00  0.00    -0.027 A 
HETATM   28  C   UNK     0      10.171 -12.113  15.720  0.00  0.00     0.115 C 
HETATM   29  H   UNK     0      10.341  -9.439  16.945  0.00  0.00     0.165 HD
HETATM   30  H   UNK     0      10.571  -7.333  14.294  0.00  0.00     0.165 HD
HETATM   31  H   UNK     0      12.589  -8.261  13.809  0.00  0.00     0.165 HD
HETATM   32  H   UNK     0      12.435 -10.344  16.376  0.00  0.00     0.165 HD
ENDROOT
BRANCH   6  33
HETATM   33  C   UNK     0       6.309  -9.114  14.456  0.00  0.00     0.051 C 
BRANCH  33  34
HETATM   34  C   UNK     0       6.548  -8.705  13.021  0.00  0.00     0.114 C 
BRANCH  34  35
HETATM   35  C   UNK     0       6.243  -7.250  12.915  0.00  0.00     0.139 C 
HETATM   36  O   UNK     0       5.048  -6.857  12.778  0.00  0.00    -0.650 OA
BRANCH  35  37
HETATM   37  O   UNK     0       7.230  -6.272  12.961  0.00  0.00    -0.776 OA
HETATM   38  H   UNK     0       8.097  -6.411  13.453  0.00  0.00     0.167 HD
ENDBRANCH  35  37
ENDBRANCH  34  35
ENDBRANCH  33  34
ENDBRANCH   6  33
BRANCH  27  39
HETATM   39  C   UNK     0      14.034 -12.607  12.514  0.00  0.00     0.051 C 
BRANCH  39  40
HETATM   40  C   UNK     0      13.828 -12.048  11.178  0.00  0.00     0.114 C 
BRANCH  40  41
HETATM   41  C   UNK     0      13.758 -12.879   9.997  0.00  0.00     0.139 C 
HETATM   42  O   UNK     0      13.954 -12.454   8.850  0.00  0.00    -0.650 OA
BRANCH  41  43
HETATM   43  O   UNK     0      13.449 -14.261  10.142  0.00  0.00    -0.776 OA
HETATM   44  H   UNK     0      13.851 -14.857   9.429  0.00  0.00     0.167 HD
ENDBRANCH  41  43
ENDBRANCH  40  41
ENDBRANCH  39  40
ENDBRANCH  27  39
BRANCH  11  45
HETATM   45  C   UNK     0      11.706  -3.811  17.262  0.00  0.00     0.051 C 
BRANCH  45  46
HETATM   46  C   UNK     0      11.954  -2.638  16.385  0.00  0.00     0.114 C 
BRANCH  46  47
HETATM   47  C   UNK     0      13.395  -2.281  16.524  0.00  0.00     0.139 C 
HETATM   48  O   UNK     0      13.857  -2.111  17.661  0.00  0.00    -0.650 OA
BRANCH  47  49
HETATM   49  O   UNK     0      14.195  -2.141  15.417  0.00  0.00    -0.776 OA
HETATM   50  H   UNK     0      14.694  -1.268  15.212  0.00  0.00     0.167 HD
ENDBRANCH  47  49
ENDBRANCH  46  47
ENDBRANCH  45  46
ENDBRANCH  11  45
BRANCH  18  51
HETATM   51  C   UNK     0      16.826  -8.362  15.910  0.00  0.00     0.051 C 
BRANCH  51  52
HETATM   52  C   UNK     0      16.546  -9.353  17.030  0.00  0.00     0.114 C 
BRANCH  52  53
HETATM   53  C   UNK     0      15.686  -8.770  18.078  0.00  0.00     0.139 C 
HETATM   54  O   UNK     0      14.521  -9.174  18.222  0.00  0.00    -0.650 OA
BRANCH  53  55
HETATM   55  O   UNK     0      16.181  -7.777  18.888  0.00  0.00    -0.776 OA
HETATM   56  H   UNK     0      16.794  -7.903  19.658  0.00  0.00     0.167 HD
ENDBRANCH  53  55
ENDBRANCH  52  53
ENDBRANCH  51  52
ENDBRANCH  18  51
TORSDOF 16
ENDMDL
MODEL 9
REMARK VINA RESULT:      -9.8     29.228     32.229
REMARK  16 active torsions:
REMARK  status: ('A' for Active; 'I' for Inactive)
REMARK    1  A    between atoms: C_6  and  C_7 
REMARK    2  A    between atoms: C_7  and  C_8 
REMARK    3  A    between atoms: C_8  and  C_9 
REMARK    4  A    between atoms: C_9  and  O_11 
REMARK    5  A    between atoms: C_16  and  C_17 
REMARK    6  A    between atoms: C_17  and  C_18 
REMARK    7  A    between atoms: C_18  and  C_19 
REMARK    8  A    between atoms: C_19  and  O_21 
REMARK    9  A    between atoms: C_28  and  C_29 
REMARK   10  A    between atoms: C_29  and  C_30 
REMARK   11  A    between atoms: C_30  and  C_31 
REMARK   12  A    between atoms: C_31  and  O_33 
REMARK   13  A    between atoms: C_42  and  C_43 
REMARK   14  A    between atoms: C_43  and  C_44 
REMARK   15  A    between atoms: C_44  and  C_45 
REMARK   16  A    between atoms: C_45  and  O_47 
ROOT
HETATM    1  C   UNK     0      11.735  20.359  -2.577  0.00  0.00     0.051 C 
HETATM    2  C   UNK     0      11.894  19.258  -3.606  0.00  0.00    -0.031 A 
HETATM    3  C   UNK     0      12.796  19.157  -4.654  0.00  0.00     0.021 A 
HETATM    4  N   UNK     0      12.552  18.014  -5.338  0.00  0.00    -0.361 N 
HETATM    5  C   UNK     0      11.519  17.380  -4.744  0.00  0.00     0.022 A 
HETATM    6  C   UNK     0      11.082  18.133  -3.659  0.00  0.00    -0.027 A 
HETATM    7  C   UNK     0      10.921  16.042  -5.048  0.00  0.00     0.115 C 
HETATM    8  C   UNK     0      11.892  14.914  -5.347  0.00  0.00     0.021 A 
HETATM    9  N   UNK     0      13.100  14.685  -4.809  0.00  0.00    -0.361 N 
HETATM   10  C   UNK     0      13.646  13.624  -5.440  0.00  0.00     0.022 A 
HETATM   11  C   UNK     0      12.762  13.150  -6.405  0.00  0.00    -0.027 A 
HETATM   12  C   UNK     0      11.654  13.958  -6.351  0.00  0.00    -0.031 A 
HETATM   13  C   UNK     0      10.426  13.815  -7.221  0.00  0.00     0.051 C 
HETATM   14  C   UNK     0      15.038  13.049  -5.196  0.00  0.00     0.115 C 
HETATM   15  C   UNK     0      16.166  14.030  -5.473  0.00  0.00     0.021 A 
HETATM   16  N   UNK     0      16.369  15.232  -4.900  0.00  0.00    -0.361 N 
HETATM   17  C   UNK     0      17.428  15.815  -5.466  0.00  0.00     0.022 A 
HETATM   18  C   UNK     0      17.946  14.948  -6.448  0.00  0.00    -0.027 A 
HETATM   19  C   UNK     0      17.148  13.833  -6.442  0.00  0.00    -0.031 A 
HETATM   20  C   UNK     0      17.378  12.625  -7.331  0.00  0.00     0.051 C 
HETATM   21  C   UNK     0      18.022  17.185  -5.234  0.00  0.00     0.115 C 
HETATM   22  C   UNK     0      17.071  18.309  -4.893  0.00  0.00     0.022 A 
HETATM   23  N   UNK     0      15.861  18.559  -5.409  0.00  0.00    -0.361 N 
HETATM   24  C   UNK     0      15.304  19.570  -4.714  0.00  0.00     0.021 A 
HETATM   25  C   UNK     0      16.181  19.989  -3.731  0.00  0.00    -0.031 A 
HETATM   26  C   UNK     0      16.024  21.114  -2.730  0.00  0.00     0.051 C 
HETATM   27  C   UNK     0      17.320  19.197  -3.826  0.00  0.00    -0.027 A 
HETATM   28  C   UNK     0      13.907  20.146  -4.868  0.00  0.00     0.115 C 
HETATM   29  H   UNK     0      13.085  17.682  -6.259  0.00  0.00     0.165 HD
HETATM   30  H   UNK     0      13.549  15.240  -3.949  0.00  0.00     0.165 HD
HETATM   31  H   UNK     0      15.781  15.658  -4.045  0.00  0.00     0.165 HD
HETATM   32  H   UNK     0      15.406  18.051  -6.299  0.00  0.00     0.165 HD
ENDROOT
BRANCH   6  33
HETATM   33  C   UNK     0       9.964  17.868  -2.682  0.00  0.00     0.051 C 
BRANCH  33  34
HETATM   34  C   UNK     0      10.297  16.694  -1.793  0.00  0.00     0.114 C 
BRANCH  34  35
HETATM   35  C   UNK     0       9.116  15.784  -1.794  0.00  0.00     0.139 C 
HETATM   36  O   UNK     0       9.057  14.817  -2.608  0.00  0.00    -0.650 OA
BRANCH  35  37
HETATM   37  O   UNK     0       8.047  15.943  -0.921  0.00  0.00    -0.776 OA
HETATM   38  H   UNK     0       7.123  16.180  -1.245  0.00  0.00     0.167 HD
ENDBRANCH  35  37
ENDBRANCH  34  35
ENDBRANCH  33  34
ENDBRANCH   6  33
BRANCH  27  39
HETATM   39  C   UNK     0      18.521  19.399  -2.972  0.00  0.00     0.051 C 
BRANCH  39  40
HETATM   40  C   UNK     0      18.644  18.609  -1.748  0.00  0.00     0.114 C 
BRANCH  40  41
HETATM   41  C   UNK     0      19.722  18.811  -0.805  0.00  0.00     0.139 C 
HETATM   42  O   UNK     0      20.809  19.319  -1.109  0.00  0.00    -0.650 OA
BRANCH  41  43
HETATM   43  O   UNK     0      19.540  18.408   0.548  0.00  0.00    -0.776 OA
HETATM   44  H   UNK     0      19.592  19.164   1.221  0.00  0.00     0.167 HD
ENDBRANCH  41  43
ENDBRANCH  40  41
ENDBRANCH  39  40
ENDBRANCH  27  39
BRANCH  11  45
HETATM   45  C   UNK     0      12.929  11.987  -7.345  0.00  0.00     0.051 C 
BRANCH  45  46
HETATM   46  C   UNK     0      13.893  12.233  -8.448  0.00  0.00     0.114 C 
BRANCH  46  47
HETATM   47  C   UNK     0      14.554  10.933  -8.755  0.00  0.00     0.139 C 
HETATM   48  O   UNK     0      14.315   9.960  -8.025  0.00  0.00    -0.650 OA
BRANCH  47  49
HETATM   49  O   UNK     0      15.409  10.813  -9.821  0.00  0.00    -0.776 OA
HETATM   50  H   UNK     0      16.286  10.282  -9.760  0.00  0.00     0.167 HD
ENDBRANCH  47  49
ENDBRANCH  46  47
ENDBRANCH  45  46
ENDBRANCH  11  45
BRANCH  18  51
HETATM   51  C   UNK     0      19.149  15.160  -7.330  0.00  0.00     0.051 C 
BRANCH  51  52
HETATM   52  C   UNK     0      20.201  14.165  -6.864  0.00  0.00     0.114 C 
BRANCH  52  53
HETATM   53  C   UNK     0      20.642  13.278  -7.958  0.00  0.00     0.139 C 
HETATM   54  O   UNK     0      21.555  12.460  -7.766  0.00  0.00    -0.650 OA
BRANCH  53  55
HETATM   55  O   UNK     0      20.039  13.368  -9.190  0.00  0.00    -0.776 OA
HETATM   56  H   UNK     0      20.499  13.528 -10.055  0.00  0.00     0.167 HD
ENDBRANCH  53  55
ENDBRANCH  52  53
ENDBRANCH  51  52
ENDBRANCH  18  51
TORSDOF 16
ENDMDL
MODEL 10
REMARK VINA RESULT:      -9.6      2.928      4.554
REMARK  16 active torsions:
REMARK  status: ('A' for Active; 'I' for Inactive)
REMARK    1  A    between atoms: C_6  and  C_7 
REMARK    2  A    between atoms: C_7  and  C_8 
REMARK    3  A    between atoms: C_8  and  C_9 
REMARK    4  A    between atoms: C_9  and  O_11 
REMARK    5  A    between atoms: C_16  and  C_17 
REMARK    6  A    between atoms: C_17  and  C_18 
REMARK    7  A    between atoms: C_18  and  C_19 
REMARK    8  A    between atoms: C_19  and  O_21 
REMARK    9  A    between atoms: C_28  and  C_29 
REMARK   10  A    between atoms: C_29  and  C_30 
REMARK   11  A    between atoms: C_30  and  C_31 
REMARK   12  A    between atoms: C_31  and  O_33 
REMARK   13  A    between atoms: C_42  and  C_43 
REMARK   14  A    between atoms: C_43  and  C_44 
REMARK   15  A    between atoms: C_44  and  C_45 
REMARK   16  A    between atoms: C_45  and  O_47 
ROOT
HETATM    1  C   UNK     0       4.320  -6.651  15.250  0.00  0.00     0.051 C 
HETATM    2  C   UNK     0       5.337  -7.576  14.613  0.00  0.00    -0.031 A 
HETATM    3  C   UNK     0       6.592  -7.285  14.102  0.00  0.00     0.021 A 
HETATM    4  N   UNK     0       7.138  -8.418  13.600  0.00  0.00    -0.361 N 
HETATM    5  C   UNK     0       6.262  -9.427  13.789  0.00  0.00     0.022 A 
HETATM    6  C   UNK     0       5.123  -8.934  14.417  0.00  0.00    -0.027 A 
HETATM    7  C   UNK     0       6.417 -10.888  13.502  0.00  0.00     0.115 C 
HETATM    8  C   UNK     0       7.750 -11.516  13.868  0.00  0.00     0.021 A 
HETATM    9  N   UNK     0       8.548 -11.239  14.911  0.00  0.00    -0.361 N 
HETATM   10  C   UNK     0       9.672 -11.975  14.786  0.00  0.00     0.022 A 
HETATM   11  C   UNK     0       9.593 -12.755  13.636  0.00  0.00    -0.027 A 
HETATM   12  C   UNK     0       8.385 -12.471  13.053  0.00  0.00    -0.031 A 
HETATM   13  C   UNK     0       7.863 -13.092  11.777  0.00  0.00     0.051 C 
HETATM   14  C   UNK     0      10.884 -11.933  15.713  0.00  0.00     0.115 C 
HETATM   15  C   UNK     0      11.559 -10.573  15.783  0.00  0.00     0.021 A 
HETATM   16  N   UNK     0      11.011  -9.402  16.158  0.00  0.00    -0.361 N 
HETATM   17  C   UNK     0      11.913  -8.429  16.015  0.00  0.00     0.022 A 
HETATM   18  C   UNK     0      13.111  -8.995  15.533  0.00  0.00    -0.027 A 
HETATM   19  C   UNK     0      12.876 -10.338  15.393  0.00  0.00    -0.031 A 
HETATM   20  C   UNK     0      13.924 -11.333  14.930  0.00  0.00     0.051 C 
HETATM   21  C   UNK     0      11.777  -6.939  16.229  0.00  0.00     0.115 C 
HETATM   22  C   UNK     0      10.443  -6.307  15.911  0.00  0.00     0.022 A 
HETATM   23  N   UNK     0       9.625  -6.567  14.882  0.00  0.00    -0.361 N 
HETATM   24  C   UNK     0       8.479  -5.881  15.068  0.00  0.00     0.021 A 
HETATM   25  C   UNK     0       8.564  -5.155  16.240  0.00  0.00    -0.031 A 
HETATM   26  C   UNK     0       7.553  -4.206  16.850  0.00  0.00     0.051 C 
HETATM   27  C   UNK     0       9.812  -5.411  16.798  0.00  0.00    -0.027 A 
HETATM   28  C   UNK     0       7.221  -5.925  14.218  0.00  0.00     0.115 C 
HETATM   29  H   UNK     0       8.122  -8.490  13.082  0.00  0.00     0.165 HD
HETATM   30  H   UNK     0       8.298 -10.561  15.764  0.00  0.00     0.165 HD
HETATM   31  H   UNK     0       9.980  -9.266  16.577  0.00  0.00     0.165 HD
HETATM   32  H   UNK     0       9.867  -7.203  13.992  0.00  0.00     0.165 HD
ENDROOT
BRANCH   6  33
HETATM   33  C   UNK     0       3.863  -9.647  14.837  0.00  0.00     0.051 C 
BRANCH  33  34
HETATM   34  C   UNK     0       2.765  -9.436  13.822  0.00  0.00     0.114 C 
BRANCH  34  35
HETATM   35  C   UNK     0       1.695 -10.434  14.108  0.00  0.00     0.139 C 
HETATM   36  O   UNK     0       0.921 -10.820  13.184  0.00  0.00    -0.650 OA
BRANCH  35  37
HETATM   37  O   UNK     0       1.498 -10.981  15.370  0.00  0.00    -0.776 OA
HETATM   38  H   UNK     0       2.261 -11.336  15.924  0.00  0.00     0.167 HD
ENDBRANCH  35  37
ENDBRANCH  34  35
ENDBRANCH  33  34
ENDBRANCH   6  33
BRANCH  27  39
HETATM   39  C   UNK     0      10.298  -4.746  18.038  0.00  0.00     0.051 C 
BRANCH  39  40
HETATM   40  C   UNK     0      11.435  -3.833  17.936  0.00  0.00     0.114 C 
BRANCH  40  41
HETATM   41  C   UNK     0      11.879  -3.293  16.670  0.00  0.00     0.139 C 
HETATM   42  O   UNK     0      12.901  -3.674  16.085  0.00  0.00    -0.650 OA
BRANCH  41  43
HETATM   43  O   UNK     0      11.111  -2.267  16.050  0.00  0.00    -0.776 OA
HETATM   44  H   UNK     0      10.537  -1.729  16.688  0.00  0.00     0.167 HD
ENDBRANCH  41  43
ENDBRANCH  40  41
ENDBRANCH  39  40
ENDBRANCH  27  39
BRANCH  11  45
HETATM   45  C   UNK     0      10.598 -13.734  13.092  0.00  0.00     0.051 C 
BRANCH  45  46
HETATM   46  C   UNK     0      11.843 -13.105  12.581  0.00  0.00     0.114 C 
BRANCH  46  47
HETATM   47  C   UNK     0      11.855 -13.287  11.101  0.00  0.00     0.139 C 
HETATM   48  O   UNK     0      12.689 -14.058  10.606  0.00  0.00    -0.650 OA
BRANCH  47  49
HETATM   49  O   UNK     0      10.963 -12.616  10.303  0.00  0.00    -0.776 OA
HETATM   50  H   UNK     0      10.428 -13.089   9.565  0.00  0.00     0.167 HD
ENDBRANCH  47  49
ENDBRANCH  46  47
ENDBRANCH  45  46
ENDBRANCH  11  45
BRANCH  18  51
HETATM   51  C   UNK     0      14.413  -8.296  15.242  0.00  0.00     0.051 C 
BRANCH  51  52
HETATM   52  C   UNK     0      14.309  -7.777  13.816  0.00  0.00     0.114 C 
BRANCH  52  53
HETATM   53  C   UNK     0      14.525  -6.319  13.745  0.00  0.00     0.139 C 
HETATM   54  O   UNK     0      15.672  -5.854  13.839  0.00  0.00    -0.650 OA
BRANCH  53  55
HETATM   55  O   UNK     0      13.449  -5.480  13.578  0.00  0.00    -0.776 OA
HETATM   56  H   UNK     0      13.342  -4.804  12.860  0.00  0.00     0.167 HD
ENDBRANCH  53  55
ENDBRANCH  52  53
ENDBRANCH  51  52
ENDBRANCH  18  51
TORSDOF 16
ENDMDL
MODEL 11
REMARK VINA RESULT:      -9.6     28.656     32.334
REMARK  16 active torsions:
REMARK  status: ('A' for Active; 'I' for Inactive)
REMARK    1  A    between atoms: C_6  and  C_7 
REMARK    2  A    between atoms: C_7  and  C_8 
REMARK    3  A    between atoms: C_8  and  C_9 
REMARK    4  A    between atoms: C_9  and  O_11 
REMARK    5  A    between atoms: C_16  and  C_17 
REMARK    6  A    between atoms: C_17  and  C_18 
REMARK    7  A    between atoms: C_18  and  C_19 
REMARK    8  A    between atoms: C_19  and  O_21 
REMARK    9  A    between atoms: C_28  and  C_29 
REMARK   10  A    between atoms: C_29  and  C_30 
REMARK   11  A    between atoms: C_30  and  C_31 
REMARK   12  A    between atoms: C_31  and  O_33 
REMARK   13  A    between atoms: C_42  and  C_43 
REMARK   14  A    between atoms: C_43  and  C_44 
REMARK   15  A    between atoms: C_44  and  C_45 
REMARK   16  A    between atoms: C_45  and  O_47 
ROOT
HETATM    1  C   UNK     0       7.917  18.657  -2.060  0.00  0.00     0.051 C 
HETATM    2  C   UNK     0       9.416  18.439  -2.089  0.00  0.00    -0.031 A 
HETATM    3  C   UNK     0      10.135  17.256  -2.028  0.00  0.00     0.021 A 
HETATM    4  N   UNK     0      11.458  17.541  -2.055  0.00  0.00    -0.361 N 
HETATM    5  C   UNK     0      11.599  18.880  -2.140  0.00  0.00     0.022 A 
HETATM    6  C   UNK     0      10.341  19.473  -2.161  0.00  0.00    -0.027 A 
HETATM    7  C   UNK     0      12.842  19.700  -2.293  0.00  0.00     0.115 C 
HETATM    8  C   UNK     0      13.884  19.181  -3.268  0.00  0.00     0.021 A 
HETATM    9  N   UNK     0      13.695  18.543  -4.433  0.00  0.00    -0.361 N 
HETATM   10  C   UNK     0      14.904  18.186  -4.917  0.00  0.00     0.022 A 
HETATM   11  C   UNK     0      15.900  18.615  -4.045  0.00  0.00    -0.027 A 
HETATM   12  C   UNK     0      15.264  19.243  -3.004  0.00  0.00    -0.031 A 
HETATM   13  C   UNK     0      15.951  19.876  -1.815  0.00  0.00     0.051 C 
HETATM   14  C   UNK     0      15.165  17.384  -6.189  0.00  0.00     0.115 C 
HETATM   15  C   UNK     0      14.552  15.993  -6.176  0.00  0.00     0.021 A 
HETATM   16  N   UNK     0      13.254  15.668  -6.026  0.00  0.00    -0.361 N 
HETATM   17  C   UNK     0      13.135  14.339  -6.000  0.00  0.00     0.022 A 
HETATM   18  C   UNK     0      14.416  13.770  -6.150  0.00  0.00    -0.027 A 
HETATM   19  C   UNK     0      15.294  14.817  -6.261  0.00  0.00    -0.031 A 
HETATM   20  C   UNK     0      16.787  14.646  -6.474  0.00  0.00     0.051 C 
HETATM   21  C   UNK     0      11.913  13.477  -5.782  0.00  0.00     0.115 C 
HETATM   22  C   UNK     0      10.847  14.001  -4.849  0.00  0.00     0.022 A 
HETATM   23  N   UNK     0      11.006  14.644  -3.685  0.00  0.00    -0.361 N 
HETATM   24  C   UNK     0       9.795  15.057  -3.260  0.00  0.00     0.021 A 
HETATM   25  C   UNK     0       8.832  14.662  -4.167  0.00  0.00    -0.031 A 
HETATM   26  C   UNK     0       7.331  14.856  -4.109  0.00  0.00     0.051 C 
HETATM   27  C   UNK     0       9.480  13.984  -5.193  0.00  0.00    -0.027 A 
HETATM   28  C   UNK     0       9.478  15.905  -2.040  0.00  0.00     0.115 C 
HETATM   29  H   UNK     0      12.285  16.798  -1.974  0.00  0.00     0.165 HD
HETATM   30  H   UNK     0      12.712  18.386  -4.942  0.00  0.00     0.165 HD
HETATM   31  H   UNK     0      12.398  16.391  -5.985  0.00  0.00     0.165 HD
HETATM   32  H   UNK     0      11.972  14.774  -3.130  0.00  0.00     0.165 HD
ENDROOT
BRANCH   6  33
HETATM   33  C   UNK     0       9.955  20.929  -2.240  0.00  0.00     0.051 C 
BRANCH  33  34
HETATM   34  C   UNK     0       9.701  21.491  -0.862  0.00  0.00     0.114 C 
BRANCH  34  35
HETATM   35  C   UNK     0      10.776  22.485  -0.579  0.00  0.00     0.139 C 
HETATM   36  O   UNK     0      10.831  23.062   0.546  0.00  0.00    -0.650 OA
BRANCH  35  37
HETATM   37  O   UNK     0      11.750  22.820  -1.511  0.00  0.00    -0.776 OA
HETATM   38  H   UNK     0      11.983  22.215  -2.282  0.00  0.00     0.167 HD
ENDBRANCH  35  37
ENDBRANCH  34  35
ENDBRANCH  33  34
ENDBRANCH   6  33
BRANCH  27  39
HETATM   39  C   UNK     0       8.757  13.343  -6.325  0.00  0.00     0.051 C 
BRANCH  39  40
HETATM   40  C   UNK     0       8.305  11.961  -6.167  0.00  0.00     0.114 C 
BRANCH  40  41
HETATM   41  C   UNK     0       6.928  11.629  -5.879  0.00  0.00     0.139 C 
HETATM   42  O   UNK     0       5.969  12.334  -6.221  0.00  0.00    -0.650 OA
BRANCH  41  43
HETATM   43  O   UNK     0       6.641  10.432  -5.163  0.00  0.00    -0.776 OA
HETATM   44  H   UNK     0       7.394  10.111  -4.566  0.00  0.00     0.167 HD
ENDBRANCH  41  43
ENDBRANCH  40  41
ENDBRANCH  39  40
ENDBRANCH  27  39
BRANCH  11  45
HETATM   45  C   UNK     0      17.391  18.456  -4.166  0.00  0.00     0.051 C 
BRANCH  45  46
HETATM   46  C   UNK     0      18.026  19.399  -5.121  0.00  0.00     0.114 C 
BRANCH  46  47
HETATM   47  C   UNK     0      18.808  18.583  -6.094  0.00  0.00     0.139 C 
HETATM   48  O   UNK     0      19.194  19.120  -7.142  0.00  0.00    -0.650 OA
BRANCH  47  49
HETATM   49  O   UNK     0      19.095  17.267  -5.837  0.00  0.00    -0.776 OA
HETATM   50  H   UNK     0      18.374  16.601  -5.534  0.00  0.00     0.167 HD
ENDBRANCH  47  49
ENDBRANCH  46  47
ENDBRANCH  45  46
ENDBRANCH  11  45
BRANCH  18  51
HETATM   51  C   UNK     0      14.780  12.309  -6.206  0.00  0.00     0.051 C 
BRANCH  51  52
HETATM   52  C   UNK     0      14.523  11.861  -7.637  0.00  0.00     0.114 C 
BRANCH  52  53
HETATM   53  C   UNK     0      15.592  10.974  -8.136  0.00  0.00     0.139 C 
HETATM   54  O   UNK     0      16.420  10.494  -7.345  0.00  0.00    -0.650 OA
BRANCH  53  55
HETATM   55  O   UNK     0      15.667  10.688  -9.477  0.00  0.00    -0.776 OA
HETATM   56  H   UNK     0      15.968  11.309 -10.191  0.00  0.00     0.167 HD
ENDBRANCH  53  55
ENDBRANCH  52  53
ENDBRANCH  51  52
ENDBRANCH  18  51
TORSDOF 16
ENDMDL
MODEL 12
REMARK VINA RESULT:      -9.6     28.981     32.419
REMARK  16 active torsions:
REMARK  status: ('A' for Active; 'I' for Inactive)
REMARK    1  A    between atoms: C_6  and  C_7 
REMARK    2  A    between atoms: C_7  and  C_8 
REMARK    3  A    between atoms: C_8  and  C_9 
REMARK    4  A    between atoms: C_9  and  O_11 
REMARK    5  A    between atoms: C_16  and  C_17 
REMARK    6  A    between atoms: C_17  and  C_18 
REMARK    7  A    between atoms: C_18  and  C_19 
REMARK    8  A    between atoms: C_19  and  O_21 
REMARK    9  A    between atoms: C_28  and  C_29 
REMARK   10  A    between atoms: C_29  and  C_30 
REMARK   11  A    between atoms: C_30  and  C_31 
REMARK   12  A    between atoms: C_31  and  O_33 
REMARK   13  A    between atoms: C_42  and  C_43 
REMARK   14  A    between atoms: C_43  and  C_44 
REMARK   15  A    between atoms: C_44  and  C_45 
REMARK   16  A    between atoms: C_45  and  O_47 
ROOT
HETATM    1  C   UNK     0      13.457  11.343  -6.897  0.00  0.00     0.051 C 
HETATM    2  C   UNK     0      13.997  12.746  -6.711  0.00  0.00    -0.031 A 
HETATM    3  C   UNK     0      13.343  13.963  -6.821  0.00  0.00     0.021 A 
HETATM    4  N   UNK     0      14.229  14.963  -6.600  0.00  0.00    -0.361 N 
HETATM    5  C   UNK     0      15.432  14.409  -6.343  0.00  0.00     0.022 A 
HETATM    6  C   UNK     0      15.324  13.024  -6.407  0.00  0.00    -0.027 A 
HETATM    7  C   UNK     0      16.717  15.067  -5.945  0.00  0.00     0.115 C 
HETATM    8  C   UNK     0      16.623  16.181  -4.917  0.00  0.00     0.021 A 
HETATM    9  N   UNK     0      15.794  16.281  -3.866  0.00  0.00    -0.361 N 
HETATM   10  C   UNK     0      16.000  17.481  -3.283  0.00  0.00     0.022 A 
HETATM   11  C   UNK     0      16.995  18.169  -3.972  0.00  0.00    -0.027 A 
HETATM   12  C   UNK     0      17.392  17.355  -5.002  0.00  0.00    -0.031 A 
HETATM   13  C   UNK     0      18.463  17.689  -6.016  0.00  0.00     0.051 C 
HETATM   14  C   UNK     0      15.233  18.048  -2.092  0.00  0.00     0.115 C 
HETATM   15  C   UNK     0      13.743  18.216  -2.342  0.00  0.00     0.021 A 
HETATM   16  N   UNK     0      12.855  17.264  -2.686  0.00  0.00    -0.361 N 
HETATM   17  C   UNK     0      11.661  17.828  -2.881  0.00  0.00     0.022 A 
HETATM   18  C   UNK     0      11.774  19.212  -2.644  0.00  0.00    -0.027 A 
HETATM   19  C   UNK     0      13.082  19.442  -2.306  0.00  0.00    -0.031 A 
HETATM   20  C   UNK     0      13.630  20.807  -1.932  0.00  0.00     0.051 C 
HETATM   21  C   UNK     0      10.361  17.213  -3.346  0.00  0.00     0.115 C 
HETATM   22  C   UNK     0      10.441  16.074  -4.335  0.00  0.00     0.022 A 
HETATM   23  N   UNK     0      11.259  15.945  -5.388  0.00  0.00    -0.361 N 
HETATM   24  C   UNK     0      11.092  14.712  -5.906  0.00  0.00     0.021 A 
HETATM   25  C   UNK     0      10.135  14.033  -5.175  0.00  0.00    -0.031 A 
HETATM   26  C   UNK     0       9.579  12.641  -5.393  0.00  0.00     0.051 C 
HETATM   27  C   UNK     0       9.704  14.884  -4.164  0.00  0.00    -0.027 A 
HETATM   28  C   UNK     0      11.861  14.071  -7.048  0.00  0.00     0.115 C 
HETATM   29  H   UNK     0      14.007  16.053  -6.667  0.00  0.00     0.165 HD
HETATM   30  H   UNK     0      15.097  15.486  -3.503  0.00  0.00     0.165 HD
HETATM   31  H   UNK     0      13.064  16.164  -2.746  0.00  0.00     0.165 HD
HETATM   32  H   UNK     0      11.932  16.741  -5.802  0.00  0.00     0.165 HD
ENDROOT
BRANCH   6  33
HETATM   33  C   UNK     0      16.371  11.959  -6.206  0.00  0.00     0.051 C 
BRANCH  33  34
HETATM   34  C   UNK     0      16.456  11.559  -4.751  0.00  0.00     0.114 C 
BRANCH  34  35
HETATM   35  C   UNK     0      17.900  11.536  -4.378  0.00  0.00     0.139 C 
HETATM   36  O   UNK     0      18.726  12.282  -4.981  0.00  0.00    -0.650 OA
BRANCH  35  37
HETATM   37  O   UNK     0      18.401  10.718  -3.373  0.00  0.00    -0.776 OA
HETATM   38  H   UNK     0      19.040  11.060  -2.674  0.00  0.00     0.167 HD
ENDBRANCH  35  37
ENDBRANCH  34  35
ENDBRANCH  33  34
ENDBRANCH   6  33
BRANCH  27  39
HETATM   39  C   UNK     0       8.619  14.526  -3.211  0.00  0.00     0.051 C 
BRANCH  39  40
HETATM   40  C   UNK     0       7.536  15.486  -3.000  0.00  0.00     0.114 C 
BRANCH  40  41
HETATM   41  C   UNK     0       6.677  15.929  -4.075  0.00  0.00     0.139 C 
HETATM   42  O   UNK     0       6.716  17.070  -4.555  0.00  0.00    -0.650 OA
BRANCH  41  43
HETATM   43  O   UNK     0       5.731  15.018  -4.624  0.00  0.00    -0.776 OA
HETATM   44  H   UNK     0       6.134  14.161  -4.983  0.00  0.00     0.167 HD
ENDBRANCH  41  43
ENDBRANCH  40  41
ENDBRANCH  39  40
ENDBRANCH  27  39
BRANCH  11  45
HETATM   45  C   UNK     0      17.566  19.532  -3.689  0.00  0.00     0.051 C 
BRANCH  45  46
HETATM   46  C   UNK     0      16.563  20.627  -3.717  0.00  0.00     0.114 C 
BRANCH  46  47
HETATM   47  C   UNK     0      16.952  21.554  -4.819  0.00  0.00     0.139 C 
HETATM   48  O   UNK     0      17.833  21.194  -5.612  0.00  0.00    -0.650 OA
BRANCH  47  49
HETATM   49  O   UNK     0      16.350  22.780  -4.951  0.00  0.00    -0.776 OA
HETATM   50  H   UNK     0      16.177  23.392  -4.144  0.00  0.00     0.167 HD
ENDBRANCH  47  49
ENDBRANCH  46  47
ENDBRANCH  45  46
ENDBRANCH  11  45
BRANCH  18  51
HETATM   51  C   UNK     0      10.689  20.255  -2.715  0.00  0.00     0.051 C 
BRANCH  51  52
HETATM   52  C   UNK     0       9.672  19.886  -1.645  0.00  0.00     0.114 C 
BRANCH  52  53
HETATM   53  C   UNK     0       8.977  21.074  -1.114  0.00  0.00     0.139 C 
HETATM   54  O   UNK     0       9.618  21.955  -0.519  0.00  0.00    -0.650 OA
BRANCH  53  55
HETATM   55  O   UNK     0       7.619  21.197  -1.279  0.00  0.00    -0.776 OA
HETATM   56  H   UNK     0       6.927  20.593  -0.902  0.00  0.00     0.167 HD
ENDBRANCH  53  55
ENDBRANCH  52  53
ENDBRANCH  51  52
ENDBRANCH  18  51
TORSDOF 16
ENDMDL
MODEL 13
REMARK VINA RESULT:      -9.6      2.584      7.568
REMARK  16 active torsions:
REMARK  status: ('A' for Active; 'I' for Inactive)
REMARK    1  A    between atoms: C_6  and  C_7 
REMARK    2  A    between atoms: C_7  and  C_8 
REMARK    3  A    between atoms: C_8  and  C_9 
REMARK    4  A    between atoms: C_9  and  O_11 
REMARK    5  A    between atoms: C_16  and  C_17 
REMARK    6  A    between atoms: C_17  and  C_18 
REMARK    7  A    between atoms: C_18  and  C_19 
REMARK    8  A    between atoms: C_19  and  O_21 
REMARK    9  A    between atoms: C_28  and  C_29 
REMARK   10  A    between atoms: C_29  and  C_30 
REMARK   11  A    between atoms: C_30  and  C_31 
REMARK   12  A    between atoms: C_31  and  O_33 
REMARK   13  A    between atoms: C_42  and  C_43 
REMARK   14  A    between atoms: C_43  and  C_44 
REMARK   15  A    between atoms: C_44  and  C_45 
REMARK   16  A    between atoms: C_45  and  O_47 
ROOT
HETATM    1  C   UNK     0       3.267 -10.799  11.987  0.00  0.00     0.051 C 
HETATM    2  C   UNK     0       4.159  -9.644  12.395  0.00  0.00    -0.031 A 
HETATM    3  C   UNK     0       4.155  -8.331  11.953  0.00  0.00     0.021 A 
HETATM    4  N   UNK     0       5.152  -7.654  12.571  0.00  0.00    -0.361 N 
HETATM    5  C   UNK     0       5.785  -8.506  13.404  0.00  0.00     0.022 A 
HETATM    6  C   UNK     0       5.191  -9.760  13.317  0.00  0.00    -0.027 A 
HETATM    7  C   UNK     0       6.889  -8.238  14.379  0.00  0.00     0.115 C 
HETATM    8  C   UNK     0       6.777  -6.968  15.204  0.00  0.00     0.021 A 
HETATM    9  N   UNK     0       5.673  -6.387  15.699  0.00  0.00    -0.361 N 
HETATM   10  C   UNK     0       6.037  -5.228  16.287  0.00  0.00     0.022 A 
HETATM   11  C   UNK     0       7.414  -5.063  16.176  0.00  0.00    -0.027 A 
HETATM   12  C   UNK     0       7.887  -6.156  15.496  0.00  0.00    -0.031 A 
HETATM   13  C   UNK     0       9.336  -6.408  15.146  0.00  0.00     0.051 C 
HETATM   14  C   UNK     0       5.099  -4.209  16.927  0.00  0.00     0.115 C 
HETATM   15  C   UNK     0       4.082  -3.617  15.963  0.00  0.00     0.021 A 
HETATM   16  N   UNK     0       3.159  -4.275  15.238  0.00  0.00    -0.361 N 
HETATM   17  C   UNK     0       2.508  -3.404  14.463  0.00  0.00     0.022 A 
HETATM   18  C   UNK     0       3.026  -2.116  14.702  0.00  0.00    -0.027 A 
HETATM   19  C   UNK     0       4.011  -2.262  15.645  0.00  0.00    -0.031 A 
HETATM   20  C   UNK     0       4.808  -1.106  16.219  0.00  0.00     0.051 C 
HETATM   21  C   UNK     0       1.439  -3.640  13.421  0.00  0.00     0.115 C 
HETATM   22  C   UNK     0       1.513  -4.921  12.623  0.00  0.00     0.022 A 
HETATM   23  N   UNK     0       2.598  -5.525  12.122  0.00  0.00    -0.361 N 
HETATM   24  C   UNK     0       2.222  -6.714  11.609  0.00  0.00     0.021 A 
HETATM   25  C   UNK     0       0.860  -6.875  11.776  0.00  0.00    -0.031 A 
HETATM   26  C   UNK     0      -0.025  -8.021  11.332  0.00  0.00     0.051 C 
HETATM   27  C   UNK     0       0.384  -5.741  12.422  0.00  0.00    -0.027 A 
HETATM   28  C   UNK     0       3.112  -7.793  11.015  0.00  0.00     0.115 C 
HETATM   29  H   UNK     0       5.426  -6.590  12.385  0.00  0.00     0.165 HD
HETATM   30  H   UNK     0       4.641  -6.817  15.678  0.00  0.00     0.165 HD
HETATM   31  H   UNK     0       2.928  -5.370  15.308  0.00  0.00     0.165 HD
HETATM   32  H   UNK     0       3.634  -5.097  12.086  0.00  0.00     0.165 HD
ENDROOT
BRANCH   6  33
HETATM   33  C   UNK     0       5.528 -11.044  14.032  0.00  0.00     0.051 C 
BRANCH  33  34
HETATM   34  C   UNK     0       6.610 -11.798  13.296  0.00  0.00     0.114 C 
BRANCH  34  35
HETATM   35  C   UNK     0       6.904 -13.033  14.078  0.00  0.00     0.139 C 
HETATM   36  O   UNK     0       7.951 -13.105  14.786  0.00  0.00    -0.650 OA
BRANCH  35  37
HETATM   37  O   UNK     0       6.065 -14.141  14.074  0.00  0.00    -0.776 OA
HETATM   38  H   UNK     0       6.364 -15.037  13.724  0.00  0.00     0.167 HD
ENDBRANCH  35  37
ENDBRANCH  34  35
ENDBRANCH  33  34
ENDBRANCH   6  33
BRANCH  27  39
HETATM   39  C   UNK     0      -1.059  -5.518  12.711  0.00  0.00     0.051 C 
BRANCH  39  40
HETATM   40  C   UNK     0      -1.569  -5.897  14.029  0.00  0.00     0.114 C 
BRANCH  40  41
HETATM   41  C   UNK     0      -2.969  -5.792  14.373  0.00  0.00     0.139 C 
HETATM   42  O   UNK     0      -3.752  -6.752  14.352  0.00  0.00    -0.650 OA
BRANCH  41  43
HETATM   43  O   UNK     0      -3.493  -4.526  14.757  0.00  0.00    -0.776 OA
HETATM   44  H   UNK     0      -3.549  -3.849  14.006  0.00  0.00     0.167 HD
ENDBRANCH  41  43
ENDBRANCH  40  41
ENDBRANCH  39  40
ENDBRANCH  27  39
BRANCH  11  45
HETATM   45  C   UNK     0       8.271  -3.934  16.684  0.00  0.00     0.051 C 
BRANCH  45  46
HETATM   46  C   UNK     0       9.168  -4.312  17.806  0.00  0.00     0.114 C 
BRANCH  46  47
HETATM   47  C   UNK     0       8.300  -4.717  18.949  0.00  0.00     0.139 C 
HETATM   48  O   UNK     0       7.429  -3.928  19.339  0.00  0.00    -0.650 OA
BRANCH  47  49
HETATM   49  O   UNK     0       8.462  -5.937  19.556  0.00  0.00    -0.776 OA
HETATM   50  H   UNK     0       8.050  -6.796  19.173  0.00  0.00     0.167 HD
ENDBRANCH  47  49
ENDBRANCH  46  47
ENDBRANCH  45  46
ENDBRANCH  11  45
BRANCH  18  51
HETATM   51  C   UNK     0       2.592  -0.813  14.082  0.00  0.00     0.051 C 
BRANCH  51  52
HETATM   52  C   UNK     0       1.281  -0.437  14.755  0.00  0.00     0.114 C 
BRANCH  52  53
HETATM   53  C   UNK     0       1.471   0.595  15.792  0.00  0.00     0.139 C 
HETATM   54  O   UNK     0       1.378   0.294  16.993  0.00  0.00    -0.650 OA
BRANCH  53  55
HETATM   55  O   UNK     0       1.749   1.889  15.421  0.00  0.00    -0.776 OA
HETATM   56  H   UNK     0       1.496   2.707  15.923  0.00  0.00     0.167 HD
ENDBRANCH  53  55
ENDBRANCH  52  53
ENDBRANCH  51  52
ENDBRANCH  18  51
TORSDOF 16
ENDMDL
MODEL 14
REMARK VINA RESULT:      -9.5     28.886     32.353
REMARK  16 active torsions:
REMARK  status: ('A' for Active; 'I' for Inactive)
REMARK    1  A    between atoms: C_6  and  C_7 
REMARK    2  A    between atoms: C_7  and  C_8 
REMARK    3  A    between atoms: C_8  and  C_9 
REMARK    4  A    between atoms: C_9  and  O_11 
REMARK    5  A    between atoms: C_16  and  C_17 
REMARK    6  A    between atoms: C_17  and  C_18 
REMARK    7  A    between atoms: C_18  and  C_19 
REMARK    8  A    between atoms: C_19  and  O_21 
REMARK    9  A    between atoms: C_28  and  C_29 
REMARK   10  A    between atoms: C_29  and  C_30 
REMARK   11  A    between atoms: C_30  and  C_31 
REMARK   12  A    between atoms: C_31  and  O_33 
REMARK   13  A    between atoms: C_42  and  C_43 
REMARK   14  A    between atoms: C_43  and  C_44 
REMARK   15  A    between atoms: C_44  and  C_45 
REMARK   16  A    between atoms: C_45  and  O_47 
ROOT
HETATM    1  C   UNK     0      17.014  20.227  -3.314  0.00  0.00     0.051 C 
HETATM    2  C   UNK     0      16.605  18.784  -3.531  0.00  0.00    -0.031 A 
HETATM    3  C   UNK     0      15.689  18.015  -2.830  0.00  0.00     0.021 A 
HETATM    4  N   UNK     0      15.668  16.767  -3.356  0.00  0.00    -0.361 N 
HETATM    5  C   UNK     0      16.544  16.727  -4.381  0.00  0.00     0.022 A 
HETATM    6  C   UNK     0      17.149  17.972  -4.517  0.00  0.00    -0.027 A 
HETATM    7  C   UNK     0      16.830  15.619  -5.346  0.00  0.00     0.115 C 
HETATM    8  C   UNK     0      15.632  14.859  -5.886  0.00  0.00     0.021 A 
HETATM    9  N   UNK     0      14.410  15.327  -6.185  0.00  0.00    -0.361 N 
HETATM   10  C   UNK     0      13.636  14.281  -6.545  0.00  0.00     0.022 A 
HETATM   11  C   UNK     0      14.383  13.108  -6.485  0.00  0.00    -0.027 A 
HETATM   12  C   UNK     0      15.641  13.465  -6.071  0.00  0.00    -0.031 A 
HETATM   13  C   UNK     0      16.798  12.512  -5.869  0.00  0.00     0.051 C 
HETATM   14  C   UNK     0      12.155  14.337  -6.906  0.00  0.00     0.115 C 
HETATM   15  C   UNK     0      11.266  14.847  -5.783  0.00  0.00     0.021 A 
HETATM   16  N   UNK     0      11.339  16.035  -5.152  0.00  0.00    -0.361 N 
HETATM   17  C   UNK     0      10.427  16.071  -4.179  0.00  0.00     0.022 A 
HETATM   18  C   UNK     0       9.719  14.853  -4.180  0.00  0.00    -0.027 A 
HETATM   19  C   UNK     0      10.254  14.096  -5.191  0.00  0.00    -0.031 A 
HETATM   20  C   UNK     0       9.753  12.712  -5.564  0.00  0.00     0.051 C 
HETATM   21  C   UNK     0      10.151  17.139  -3.145  0.00  0.00     0.115 C 
HETATM   22  C   UNK     0      11.329  17.934  -2.631  0.00  0.00     0.022 A 
HETATM   23  N   UNK     0      12.558  17.494  -2.329  0.00  0.00    -0.361 N 
HETATM   24  C   UNK     0      13.332  18.562  -2.049  0.00  0.00     0.021 A 
HETATM   25  C   UNK     0      12.581  19.716  -2.163  0.00  0.00    -0.031 A 
HETATM   26  C   UNK     0      12.994  21.151  -1.910  0.00  0.00     0.051 C 
HETATM   27  C   UNK     0      11.295  19.339  -2.534  0.00  0.00    -0.027 A 
HETATM   28  C   UNK     0      14.820  18.577  -1.741  0.00  0.00     0.115 C 
HETATM   29  H   UNK     0      15.064  15.912  -2.973  0.00  0.00     0.165 HD
HETATM   30  H   UNK     0      14.104  16.402  -6.191  0.00  0.00     0.165 HD
HETATM   31  H   UNK     0      12.017  16.884  -5.430  0.00  0.00     0.165 HD
HETATM   32  H   UNK     0      12.880  16.422  -2.269  0.00  0.00     0.165 HD
ENDROOT
BRANCH   6  33
HETATM   33  C   UNK     0      18.194  18.441  -5.497  0.00  0.00     0.051 C 
BRANCH  33  34
HETATM   34  C   UNK     0      17.745  19.702  -6.196  0.00  0.00     0.114 C 
BRANCH  34  35
HETATM   35  C   UNK     0      18.568  19.847  -7.430  0.00  0.00     0.139 C 
HETATM   36  O   UNK     0      19.470  19.000  -7.698  0.00  0.00    -0.650 OA
BRANCH  35  37
HETATM   37  O   UNK     0      18.392  20.891  -8.330  0.00  0.00    -0.776 OA
HETATM   38  H   UNK     0      19.171  21.359  -8.765  0.00  0.00     0.167 HD
ENDBRANCH  35  37
ENDBRANCH  34  35
ENDBRANCH  33  34
ENDBRANCH   6  33
BRANCH  27  39
HETATM   39  C   UNK     0      10.178  20.311  -2.685  0.00  0.00     0.051 C 
BRANCH  39  40
HETATM   40  C   UNK     0       9.198  20.415  -1.604  0.00  0.00     0.114 C 
BRANCH  40  41
HETATM   41  C   UNK     0       7.782  20.226  -1.827  0.00  0.00     0.139 C 
HETATM   42  O   UNK     0       7.136  20.848  -2.681  0.00  0.00    -0.650 OA
BRANCH  41  43
HETATM   43  O   UNK     0       7.077  19.279  -1.031  0.00  0.00    -0.776 OA
HETATM   44  H   UNK     0       6.069  19.367  -1.069  0.00  0.00     0.167 HD
ENDBRANCH  41  43
ENDBRANCH  40  41
ENDBRANCH  39  40
ENDBRANCH  27  39
BRANCH  11  45
HETATM   45  C   UNK     0      13.953  11.700  -6.803  0.00  0.00     0.051 C 
BRANCH  45  46
HETATM   46  C   UNK     0      13.641  11.471  -8.236  0.00  0.00     0.114 C 
BRANCH  46  47
HETATM   47  C   UNK     0      14.856  10.875  -8.863  0.00  0.00     0.139 C 
HETATM   48  O   UNK     0      15.651  10.256  -8.142  0.00  0.00    -0.650 OA
BRANCH  47  49
HETATM   49  O   UNK     0      15.091  11.009 -10.208  0.00  0.00    -0.776 OA
HETATM   50  H   UNK     0      16.015  10.834 -10.620  0.00  0.00     0.167 HD
ENDBRANCH  47  49
ENDBRANCH  46  47
ENDBRANCH  45  46
ENDBRANCH  11  45
BRANCH  18  51
HETATM   51  C   UNK     0       8.581  14.441  -3.283  0.00  0.00     0.051 C 
BRANCH  51  52
HETATM   52  C   UNK     0       7.310  14.948  -3.947  0.00  0.00     0.114 C 
BRANCH  52  53
HETATM   53  C   UNK     0       6.259  13.912  -3.984  0.00  0.00     0.139 C 
HETATM   54  O   UNK     0       5.102  14.213  -4.317  0.00  0.00    -0.650 OA
BRANCH  53  55
HETATM   55  O   UNK     0       6.569  12.618  -3.644  0.00  0.00    -0.776 OA
HETATM   56  H   UNK     0       6.390  12.185  -2.769  0.00  0.00     0.167 HD
ENDBRANCH  53  55
ENDBRANCH  52  53
ENDBRANCH  51  52
ENDBRANCH  18  51
TORSDOF 16
ENDMDL
MODEL 15
REMARK VINA RESULT:      -9.5      2.943      7.875
REMARK  16 active torsions:
REMARK  status: ('A' for Active; 'I' for Inactive)
REMARK    1  A    between atoms: C_6  and  C_7 
REMARK    2  A    between atoms: C_7  and  C_8 
REMARK    3  A    between atoms: C_8  and  C_9 
REMARK    4  A    between atoms: C_9  and  O_11 
REMARK    5  A    between atoms: C_16  and  C_17 
REMARK    6  A    between atoms: C_17  and  C_18 
REMARK    7  A    between atoms: C_18  and  C_19 
REMARK    8  A    between atoms: C_19  and  O_21 
REMARK    9  A    between atoms: C_28  and  C_29 
REMARK   10  A    between atoms: C_29  and  C_30 
REMARK   11  A    between atoms: C_30  and  C_31 
REMARK   12  A    between atoms: C_31  and  O_33 
REMARK   13  A    between atoms: C_42  and  C_43 
REMARK   14  A    between atoms: C_43  and  C_44 
REMARK   15  A    between atoms: C_44  and  C_45 
REMARK   16  A    between atoms: C_45  and  O_47 
ROOT
HETATM    1  C   UNK     0      13.355 -11.731  14.576  0.00  0.00     0.051 C 
HETATM    2  C   UNK     0      11.936 -11.448  15.024  0.00  0.00    -0.031 A 
HETATM    3  C   UNK     0      11.470 -10.510  15.932  0.00  0.00     0.021 A 
HETATM    4  N   UNK     0      10.127 -10.635  16.046  0.00  0.00    -0.361 N 
HETATM    5  C   UNK     0       9.725 -11.627  15.225  0.00  0.00     0.022 A 
HETATM    6  C   UNK     0      10.832 -12.160  14.572  0.00  0.00    -0.027 A 
HETATM    7  C   UNK     0       8.340 -12.100  14.910  0.00  0.00     0.115 C 
HETATM    8  C   UNK     0       7.286 -11.028  14.697  0.00  0.00     0.021 A 
HETATM    9  N   UNK     0       7.424  -9.821  14.125  0.00  0.00    -0.361 N 
HETATM   10  C   UNK     0       6.248  -9.168  14.235  0.00  0.00     0.022 A 
HETATM   11  C   UNK     0       5.324  -9.979  14.888  0.00  0.00    -0.027 A 
HETATM   12  C   UNK     0       5.972 -11.152  15.181  0.00  0.00    -0.031 A 
HETATM   13  C   UNK     0       5.355 -12.338  15.889  0.00  0.00     0.051 C 
HETATM   14  C   UNK     0       5.964  -7.740  13.780  0.00  0.00     0.115 C 
HETATM   15  C   UNK     0       6.824  -6.692  14.467  0.00  0.00     0.021 A 
HETATM   16  N   UNK     0       8.168  -6.610  14.477  0.00  0.00    -0.361 N 
HETATM   17  C   UNK     0       8.539  -5.587  15.252  0.00  0.00     0.022 A 
HETATM   18  C   UNK     0       7.381  -4.968  15.763  0.00  0.00    -0.027 A 
HETATM   19  C   UNK     0       6.314  -5.668  15.263  0.00  0.00    -0.031 A 
HETATM   20  C   UNK     0       4.865  -5.309  15.539  0.00  0.00     0.051 C 
HETATM   21  C   UNK     0       9.921  -5.120  15.647  0.00  0.00     0.115 C 
HETATM   22  C   UNK     0      10.991  -6.172  15.820  0.00  0.00     0.022 A 
HETATM   23  N   UNK     0      10.881  -7.383  16.382  0.00  0.00    -0.361 N 
HETATM   24  C   UNK     0      12.040  -8.045  16.191  0.00  0.00     0.021 A 
HETATM   25  C   UNK     0      12.921  -7.237  15.498  0.00  0.00    -0.031 A 
HETATM   26  C   UNK     0      14.351  -7.520  15.086  0.00  0.00     0.051 C 
HETATM   27  C   UNK     0      12.273  -6.033  15.250  0.00  0.00    -0.027 A 
HETATM   28  C   UNK     0      12.363  -9.481  16.567  0.00  0.00     0.115 C 
HETATM   29  H   UNK     0       9.477 -10.048  16.736  0.00  0.00     0.165 HD
HETATM   30  H   UNK     0       8.335  -9.447  13.597  0.00  0.00     0.165 HD
HETATM   31  H   UNK     0       8.869  -7.257  13.888  0.00  0.00     0.165 HD
HETATM   32  H   UNK     0       9.998  -7.766  16.957  0.00  0.00     0.165 HD
ENDROOT
BRANCH   6  33
HETATM   33  C   UNK     0      10.919 -13.280  13.567  0.00  0.00     0.051 C 
BRANCH  33  34
HETATM   34  C   UNK     0      10.691 -12.762  12.167  0.00  0.00     0.114 C 
BRANCH  34  35
HETATM   35  C   UNK     0      11.658 -13.457  11.270  0.00  0.00     0.139 C 
HETATM   36  O   UNK     0      12.792 -13.809  11.707  0.00  0.00    -0.650 OA
BRANCH  35  37
HETATM   37  O   UNK     0      11.372 -13.750   9.942  0.00  0.00    -0.776 OA
HETATM   38  H   UNK     0      10.435 -13.705   9.575  0.00  0.00     0.167 HD
ENDBRANCH  35  37
ENDBRANCH  34  35
ENDBRANCH  33  34
ENDBRANCH   6  33
BRANCH  27  39
HETATM   39  C   UNK     0      12.934  -4.879  14.582  0.00  0.00     0.051 C 
BRANCH  39  40
HETATM   40  C   UNK     0      12.694  -4.673  13.154  0.00  0.00     0.114 C 
BRANCH  40  41
HETATM   41  C   UNK     0      13.774  -4.509  12.207  0.00  0.00     0.139 C 
HETATM   42  O   UNK     0      13.617  -4.067  11.061  0.00  0.00    -0.650 OA
BRANCH  41  43
HETATM   43  O   UNK     0      15.095  -4.870  12.596  0.00  0.00    -0.776 OA
HETATM   44  H   UNK     0      15.824  -4.498  11.999  0.00  0.00     0.167 HD
ENDBRANCH  41  43
ENDBRANCH  40  41
ENDBRANCH  39  40
ENDBRANCH  27  39
BRANCH  11  45
HETATM   45  C   UNK     0       3.888  -9.685  15.229  0.00  0.00     0.051 C 
BRANCH  45  46
HETATM   46  C   UNK     0       3.011  -9.492  14.046  0.00  0.00     0.114 C 
BRANCH  46  47
HETATM   47  C   UNK     0       1.771 -10.286  14.281  0.00  0.00     0.139 C 
HETATM   48  O   UNK     0       0.864 -10.231  13.439  0.00  0.00    -0.650 OA
BRANCH  47  49
HETATM   49  O   UNK     0       1.634 -11.059  15.406  0.00  0.00    -0.776 OA
HETATM   50  H   UNK     0       0.723 -11.218  15.851  0.00  0.00     0.167 HD
ENDBRANCH  47  49
ENDBRANCH  46  47
ENDBRANCH  45  46
ENDBRANCH  11  45
BRANCH  18  51
HETATM   51  C   UNK     0       7.296  -3.761  16.662  0.00  0.00     0.051 C 
BRANCH  51  52
HETATM   52  C   UNK     0       7.239  -4.294  18.086  0.00  0.00     0.114 C 
BRANCH  52  53
HETATM   53  C   UNK     0       6.656  -3.309  19.017  0.00  0.00     0.139 C 
HETATM   54  O   UNK     0       6.531  -2.124  18.671  0.00  0.00    -0.650 OA
BRANCH  53  55
HETATM   55  O   UNK     0       6.256  -3.711  20.269  0.00  0.00    -0.776 OA
HETATM   56  H   UNK     0       5.457  -4.262  20.478  0.00  0.00     0.167 HD
ENDBRANCH  53  55
ENDBRANCH  52  53
ENDBRANCH  51  52
ENDBRANCH  18  51
TORSDOF 16
ENDMDL
MODEL 16
REMARK VINA RESULT:      -9.3      2.246      7.085
REMARK  16 active torsions:
REMARK  status: ('A' for Active; 'I' for Inactive)
REMARK    1  A    between atoms: C_6  and  C_7 
REMARK    2  A    between atoms: C_7  and  C_8 
REMARK    3  A    between atoms: C_8  and  C_9 
REMARK    4  A    between atoms: C_9  and  O_11 
REMARK    5  A    between atoms: C_16  and  C_17 
REMARK    6  A    between atoms: C_17  and  C_18 
REMARK    7  A    between atoms: C_18  and  C_19 
REMARK    8  A    between atoms: C_19  and  O_21 
REMARK    9  A    between atoms: C_28  and  C_29 
REMARK   10  A    between atoms: C_29  and  C_30 
REMARK   11  A    between atoms: C_30  and  C_31 
REMARK   12  A    between atoms: C_31  and  O_33 
REMARK   13  A    between atoms: C_42  and  C_43 
REMARK   14  A    between atoms: C_43  and  C_44 
REMARK   15  A    between atoms: C_44  and  C_45 
REMARK   16  A    between atoms: C_45  and  O_47 
ROOT
HETATM    1  C   UNK     0       9.738  -3.912  17.589  0.00  0.00     0.051 C 
HETATM    2  C   UNK     0       9.047  -5.214  17.239  0.00  0.00    -0.031 A 
HETATM    3  C   UNK     0       7.703  -5.545  17.317  0.00  0.00     0.021 A 
HETATM    4  N   UNK     0       7.543  -6.833  16.930  0.00  0.00    -0.361 N 
HETATM    5  C   UNK     0       8.754  -7.327  16.600  0.00  0.00     0.022 A 
HETATM    6  C   UNK     0       9.718  -6.341  16.784  0.00  0.00    -0.027 A 
HETATM    7  C   UNK     0       9.113  -8.662  16.026  0.00  0.00     0.115 C 
HETATM    8  C   UNK     0       8.211  -9.196  14.927  0.00  0.00     0.021 A 
HETATM    9  N   UNK     0       7.579  -8.515  13.959  0.00  0.00    -0.361 N 
HETATM   10  C   UNK     0       6.815  -9.385  13.265  0.00  0.00     0.022 A 
HETATM   11  C   UNK     0       6.966 -10.663  13.795  0.00  0.00    -0.027 A 
HETATM   12  C   UNK     0       7.844 -10.551  14.842  0.00  0.00    -0.031 A 
HETATM   13  C   UNK     0       8.313 -11.693  15.716  0.00  0.00     0.051 C 
HETATM   14  C   UNK     0       5.875  -9.039  12.114  0.00  0.00     0.115 C 
HETATM   15  C   UNK     0       4.761  -8.077  12.496  0.00  0.00     0.021 A 
HETATM   16  N   UNK     0       4.886  -6.835  13.000  0.00  0.00    -0.361 N 
HETATM   17  C   UNK     0       3.673  -6.346  13.268  0.00  0.00     0.022 A 
HETATM   18  C   UNK     0       2.711  -7.312  12.911  0.00  0.00    -0.027 A 
HETATM   19  C   UNK     0       3.405  -8.391  12.427  0.00  0.00    -0.031 A 
HETATM   20  C   UNK     0       2.746  -9.650  11.895  0.00  0.00     0.051 C 
HETATM   21  C   UNK     0       3.272  -5.036  13.906  0.00  0.00     0.115 C 
HETATM   22  C   UNK     0       4.183  -4.470  14.970  0.00  0.00     0.022 A 
HETATM   23  N   UNK     0       4.829  -5.125  15.943  0.00  0.00    -0.361 N 
HETATM   24  C   UNK     0       5.643  -4.254  16.572  0.00  0.00     0.021 A 
HETATM   25  C   UNK     0       5.511  -3.005  15.996  0.00  0.00    -0.031 A 
HETATM   26  C   UNK     0       6.183  -1.703  16.378  0.00  0.00     0.051 C 
HETATM   27  C   UNK     0       4.582  -3.118  14.968  0.00  0.00    -0.027 A 
HETATM   28  C   UNK     0       6.640  -4.547  17.680  0.00  0.00     0.115 C 
HETATM   29  H   UNK     0       6.581  -7.395  16.931  0.00  0.00     0.165 HD
HETATM   30  H   UNK     0       7.709  -7.429  13.731  0.00  0.00     0.165 HD
HETATM   31  H   UNK     0       5.847  -6.272  13.127  0.00  0.00     0.165 HD
HETATM   32  H   UNK     0       4.683  -6.201  16.224  0.00  0.00     0.165 HD
ENDROOT
BRANCH   6  33
HETATM   33  C   UNK     0      11.209  -6.390  16.566  0.00  0.00     0.051 C 
BRANCH  33  34
HETATM   34  C   UNK     0      11.537  -6.305  15.094  0.00  0.00     0.114 C 
BRANCH  34  35
HETATM   35  C   UNK     0      11.767  -4.867  14.770  0.00  0.00     0.139 C 
HETATM   36  O   UNK     0      12.748  -4.249  15.277  0.00  0.00    -0.650 OA
BRANCH  35  37
HETATM   37  O   UNK     0      10.939  -4.150  13.915  0.00  0.00    -0.776 OA
HETATM   38  H   UNK     0       9.935  -4.206  13.972  0.00  0.00     0.167 HD
ENDBRANCH  35  37
ENDBRANCH  34  35
ENDBRANCH  33  34
ENDBRANCH   6  33
BRANCH  27  39
HETATM   39  C   UNK     0       4.123  -1.957  14.158  0.00  0.00     0.051 C 
BRANCH  39  40
HETATM   40  C   UNK     0       2.851  -1.326  14.509  0.00  0.00     0.114 C 
BRANCH  40  41
HETATM   41  C   UNK     0       1.626  -1.612  13.796  0.00  0.00     0.139 C 
HETATM   42  O   UNK     0       0.722  -2.327  14.249  0.00  0.00    -0.650 OA
BRANCH  41  43
HETATM   43  O   UNK     0       1.432  -1.049  12.502  0.00  0.00    -0.776 OA
HETATM   44  H   UNK     0       0.843  -0.225  12.488  0.00  0.00     0.167 HD
ENDBRANCH  41  43
ENDBRANCH  40  41
ENDBRANCH  39  40
ENDBRANCH  27  39
BRANCH  11  45
HETATM   45  C   UNK     0       6.324 -11.949  13.349  0.00  0.00     0.051 C 
BRANCH  45  46
HETATM   46  C   UNK     0       7.143 -12.736  12.392  0.00  0.00     0.114 C 
BRANCH  46  47
HETATM   47  C   UNK     0       7.431 -14.050  13.035  0.00  0.00     0.139 C 
HETATM   48  O   UNK     0       8.561 -14.541  12.900  0.00  0.00    -0.650 OA
BRANCH  47  49
HETATM   49  O   UNK     0       6.466 -14.705  13.759  0.00  0.00    -0.776 OA
HETATM   50  H   UNK     0       5.476 -14.687  13.488  0.00  0.00     0.167 HD
ENDBRANCH  47  49
ENDBRANCH  46  47
ENDBRANCH  45  46
ENDBRANCH  11  45
BRANCH  18  51
HETATM   51  C   UNK     0       1.211  -7.205  13.005  0.00  0.00     0.051 C 
BRANCH  51  52
HETATM   52  C   UNK     0       0.763  -6.410  11.788  0.00  0.00     0.114 C 
BRANCH  52  53
HETATM   53  C   UNK     0       0.062  -5.169  12.170  0.00  0.00     0.139 C 
HETATM   54  O   UNK     0      -0.978  -5.225  12.846  0.00  0.00    -0.650 OA
BRANCH  53  55
HETATM   55  O   UNK     0       0.565  -3.954  11.771  0.00  0.00    -0.776 OA
HETATM   56  H   UNK     0       0.521  -3.106  12.285  0.00  0.00     0.167 HD
ENDBRANCH  53  55
ENDBRANCH  52  53
ENDBRANCH  51  52
ENDBRANCH  18  51
TORSDOF 16
ENDMDL
MODEL 17
REMARK VINA RESULT:      -9.2     29.026     32.410
REMARK  16 active torsions:
REMARK  status: ('A' for Active; 'I' for Inactive)
REMARK    1  A    between atoms: C_6  and  C_7 
REMARK    2  A    between atoms: C_7  and  C_8 
REMARK    3  A    between atoms: C_8  and  C_9 
REMARK    4  A    between atoms: C_9  and  O_11 
REMARK    5  A    between atoms: C_16  and  C_17 
REMARK    6  A    between atoms: C_17  and  C_18 
REMARK    7  A    between atoms: C_18  and  C_19 
REMARK    8  A    between atoms: C_19  and  O_21 
REMARK    9  A    between atoms: C_28  and  C_29 
REMARK   10  A    between atoms: C_29  and  C_30 
REMARK   11  A    between atoms: C_30  and  C_31 
REMARK   12  A    between atoms: C_31  and  O_33 
REMARK   13  A    between atoms: C_42  and  C_43 
REMARK   14  A    between atoms: C_43  and  C_44 
REMARK   15  A    between atoms: C_44  and  C_45 
REMARK   16  A    between atoms: C_45  and  O_47 
ROOT
HETATM    1  C   UNK     0      13.260  10.641  -6.631  0.00  0.00     0.051 C 
HETATM    2  C   UNK     0      13.996  11.961  -6.734  0.00  0.00    -0.031 A 
HETATM    3  C   UNK     0      13.499  13.227  -6.999  0.00  0.00     0.021 A 
HETATM    4  N   UNK     0      14.527  14.108  -7.026  0.00  0.00    -0.361 N 
HETATM    5  C   UNK     0      15.668  13.432  -6.776  0.00  0.00     0.022 A 
HETATM    6  C   UNK     0      15.372  12.086  -6.592  0.00  0.00    -0.027 A 
HETATM    7  C   UNK     0      17.062  13.948  -6.604  0.00  0.00     0.115 C 
HETATM    8  C   UNK     0      17.223  15.213  -5.779  0.00  0.00     0.021 A 
HETATM    9  N   UNK     0      16.530  15.601  -4.698  0.00  0.00    -0.361 N 
HETATM   10  C   UNK     0      16.952  16.835  -4.349  0.00  0.00     0.022 A 
HETATM   11  C   UNK     0      17.951  17.250  -5.225  0.00  0.00    -0.027 A 
HETATM   12  C   UNK     0      18.127  16.233  -6.128  0.00  0.00    -0.031 A 
HETATM   13  C   UNK     0      19.120  16.240  -7.269  0.00  0.00     0.051 C 
HETATM   14  C   UNK     0      16.395  17.690  -3.214  0.00  0.00     0.115 C 
HETATM   15  C   UNK     0      14.922  18.033  -3.367  0.00  0.00     0.021 A 
HETATM   16  N   UNK     0      13.886  17.179  -3.468  0.00  0.00    -0.361 N 
HETATM   17  C   UNK     0      12.762  17.874  -3.660  0.00  0.00     0.022 A 
HETATM   18  C   UNK     0      13.080  19.247  -3.674  0.00  0.00    -0.027 A 
HETATM   19  C   UNK     0      14.435  19.333  -3.489  0.00  0.00    -0.031 A 
HETATM   20  C   UNK     0      15.194  20.645  -3.403  0.00  0.00     0.051 C 
HETATM   21  C   UNK     0      11.351  17.391  -3.903  0.00  0.00     0.115 C 
HETATM   22  C   UNK     0      11.177  16.110  -4.685  0.00  0.00     0.022 A 
HETATM   23  N   UNK     0      11.856  15.697  -5.763  0.00  0.00    -0.361 N 
HETATM   24  C   UNK     0      11.475  14.435  -6.045  0.00  0.00     0.021 A 
HETATM   25  C   UNK     0      10.520  14.029  -5.133  0.00  0.00    -0.031 A 
HETATM   26  C   UNK     0       9.765  12.717  -5.062  0.00  0.00     0.051 C 
HETATM   27  C   UNK     0      10.312  15.084  -4.252  0.00  0.00    -0.027 A 
HETATM   28  C   UNK     0      12.029  13.514  -7.119  0.00  0.00     0.115 C 
HETATM   29  H   UNK     0      14.445  15.195  -7.261  0.00  0.00     0.165 HD
HETATM   30  H   UNK     0      15.777  14.985  -4.148  0.00  0.00     0.165 HD
HETATM   31  H   UNK     0      13.941  16.065  -3.355  0.00  0.00     0.165 HD
HETATM   32  H   UNK     0      12.580  16.308  -6.361  0.00  0.00     0.165 HD
ENDROOT
BRANCH   6  33
HETATM   33  C   UNK     0      16.286  10.923  -6.296  0.00  0.00     0.051 C 
BRANCH  33  34
HETATM   34  C   UNK     0      16.824  11.010  -4.887  0.00  0.00     0.114 C 
BRANCH  34  35
HETATM   35  C   UNK     0      18.238  10.536  -4.919  0.00  0.00     0.139 C 
HETATM   36  O   UNK     0      19.181  11.359  -5.102  0.00  0.00    -0.650 OA
BRANCH  35  37
HETATM   37  O   UNK     0      18.584   9.201  -4.750  0.00  0.00    -0.776 OA
HETATM   38  H   UNK     0      19.544   8.903  -4.681  0.00  0.00     0.167 HD
ENDBRANCH  35  37
ENDBRANCH  34  35
ENDBRANCH  33  34
ENDBRANCH   6  33
BRANCH  27  39
HETATM   39  C   UNK     0       9.295  15.046  -3.166  0.00  0.00     0.051 C 
BRANCH  39  40
HETATM   40  C   UNK     0       8.247  16.065  -3.161  0.00  0.00     0.114 C 
BRANCH  40  41
HETATM   41  C   UNK     0       7.143  16.040  -4.094  0.00  0.00     0.139 C 
HETATM   42  O   UNK     0       6.519  17.052  -4.442  0.00  0.00    -0.650 OA
BRANCH  41  43
HETATM   43  O   UNK     0       6.737  14.794  -4.651  0.00  0.00    -0.776 OA
HETATM   44  H   UNK     0       5.739  14.708  -4.802  0.00  0.00     0.167 HD
ENDBRANCH  41  43
ENDBRANCH  40  41
ENDBRANCH  39  40
ENDBRANCH  27  39
BRANCH  11  45
HETATM   45  C   UNK     0      18.722  18.542  -5.228  0.00  0.00     0.051 C 
BRANCH  45  46
HETATM   46  C   UNK     0      19.851  18.577  -4.264  0.00  0.00     0.114 C 
BRANCH  46  47
HETATM   47  C   UNK     0      19.547  19.642  -3.266  0.00  0.00     0.139 C 
HETATM   48  O   UNK     0      18.690  20.491  -3.548  0.00  0.00    -0.650 OA
BRANCH  47  49
HETATM   49  O   UNK     0      20.201  19.682  -2.060  0.00  0.00    -0.776 OA
HETATM   50  H   UNK     0      19.797  20.144  -1.236  0.00  0.00     0.167 HD
ENDBRANCH  47  49
ENDBRANCH  46  47
ENDBRANCH  45  46
ENDBRANCH  11  45
BRANCH  18  51
HETATM   51  C   UNK     0      12.140  20.413  -3.835  0.00  0.00     0.051 C 
BRANCH  51  52
HETATM   52  C   UNK     0      11.458  20.600  -2.488  0.00  0.00     0.114 C 
BRANCH  52  53
HETATM   53  C   UNK     0      11.992  21.765  -1.758  0.00  0.00     0.139 C 
HETATM   54  O   UNK     0      11.422  22.865  -1.840  0.00  0.00    -0.650 OA
BRANCH  53  55
HETATM   55  O   UNK     0      13.124  21.627  -0.992  0.00  0.00    -0.776 OA
HETATM   56  H   UNK     0      13.810  20.915  -1.086  0.00  0.00     0.167 HD
ENDBRANCH  53  55
ENDBRANCH  52  53
ENDBRANCH  51  52
ENDBRANCH  18  51
TORSDOF 16
ENDMDL
MODEL 18
REMARK VINA RESULT:      -9.1      2.451      7.920
REMARK  16 active torsions:
REMARK  status: ('A' for Active; 'I' for Inactive)
REMARK    1  A    between atoms: C_6  and  C_7 
REMARK    2  A    between atoms: C_7  and  C_8 
REMARK    3  A    between atoms: C_8  and  C_9 
REMARK    4  A    between atoms: C_9  and  O_11 
REMARK    5  A    between atoms: C_16  and  C_17 
REMARK    6  A    between atoms: C_17  and  C_18 
REMARK    7  A    between atoms: C_18  and  C_19 
REMARK    8  A    between atoms: C_19  and  O_21 
REMARK    9  A    between atoms: C_28  and  C_29 
REMARK   10  A    between atoms: C_29  and  C_30 
REMARK   11  A    between atoms: C_30  and  C_31 
REMARK   12  A    between atoms: C_31  and  O_33 
REMARK   13  A    between atoms: C_42  and  C_43 
REMARK   14  A    between atoms: C_43  and  C_44 
REMARK   15  A    between atoms: C_44  and  C_45 
REMARK   16  A    between atoms: C_45  and  O_47 
ROOT
HETATM    1  C   UNK     0       5.817 -12.789  12.998  0.00  0.00     0.051 C 
HETATM    2  C   UNK     0       6.404 -11.413  13.239  0.00  0.00    -0.031 A 
HETATM    3  C   UNK     0       6.210 -10.238  12.530  0.00  0.00     0.021 A 
HETATM    4  N   UNK     0       6.962  -9.259  13.086  0.00  0.00    -0.361 N 
HETATM    5  C   UNK     0       7.623  -9.782  14.139  0.00  0.00     0.022 A 
HETATM    6  C   UNK     0       7.299 -11.129  14.262  0.00  0.00    -0.027 A 
HETATM    7  C   UNK     0       8.507  -9.105  15.140  0.00  0.00     0.115 C 
HETATM    8  C   UNK     0       8.038  -7.757  15.661  0.00  0.00     0.021 A 
HETATM    9  N   UNK     0       6.785  -7.347  15.909  0.00  0.00    -0.361 N 
HETATM   10  C   UNK     0       6.834  -6.047  16.271  0.00  0.00     0.022 A 
HETATM   11  C   UNK     0       8.156  -5.611  16.265  0.00  0.00    -0.027 A 
HETATM   12  C   UNK     0       8.920  -6.684  15.882  0.00  0.00    -0.031 A 
HETATM   13  C   UNK     0      10.425  -6.678  15.740  0.00  0.00     0.051 C 
HETATM   14  C   UNK     0       5.637  -5.153  16.584  0.00  0.00     0.115 C 
HETATM   15  C   UNK     0       4.672  -4.986  15.422  0.00  0.00     0.021 A 
HETATM   16  N   UNK     0       4.003  -5.952  14.764  0.00  0.00    -0.361 N 
HETATM   17  C   UNK     0       3.314  -5.403  13.762  0.00  0.00     0.022 A 
HETATM   18  C   UNK     0       3.536  -4.012  13.772  0.00  0.00    -0.027 A 
HETATM   19  C   UNK     0       4.388  -3.764  14.817  0.00  0.00    -0.031 A 
HETATM   20  C   UNK     0       4.860  -2.376  15.210  0.00  0.00     0.051 C 
HETATM   21  C   UNK     0       2.467  -6.056  12.693  0.00  0.00     0.115 C 
HETATM   22  C   UNK     0       2.896  -7.416  12.196  0.00  0.00     0.022 A 
HETATM   23  N   UNK     0       4.137  -7.854  11.944  0.00  0.00    -0.361 N 
HETATM   24  C   UNK     0       4.072  -9.171  11.662  0.00  0.00     0.021 A 
HETATM   25  C   UNK     0       2.757  -9.589  11.723  0.00  0.00    -0.031 A 
HETATM   26  C   UNK     0       2.179 -10.961  11.446  0.00  0.00     0.051 C 
HETATM   27  C   UNK     0       1.985  -8.484  12.063  0.00  0.00    -0.027 A 
HETATM   28  C   UNK     0       5.226 -10.123  11.400  0.00  0.00     0.115 C 
HETATM   29  H   UNK     0       7.051  -8.214  12.706  0.00  0.00     0.165 HD
HETATM   30  H   UNK     0       5.869  -7.985  15.879  0.00  0.00     0.165 HD
HETATM   31  H   UNK     0       3.979  -7.038  15.042  0.00  0.00     0.165 HD
HETATM   32  H   UNK     0       5.066  -7.227  11.922  0.00  0.00     0.165 HD
ENDROOT
BRANCH   6  33
HETATM   33  C   UNK     0       7.772 -12.153  15.262  0.00  0.00     0.051 C 
BRANCH  33  34
HETATM   34  C   UNK     0       9.212 -12.528  15.004  0.00  0.00     0.114 C 
BRANCH  34  35
HETATM   35  C   UNK     0       9.982 -12.222  16.244  0.00  0.00     0.139 C 
HETATM   36  O   UNK     0      10.878 -11.329  16.233  0.00  0.00    -0.650 OA
BRANCH  35  37
HETATM   37  O   UNK     0       9.760 -12.883  17.446  0.00  0.00    -0.776 OA
HETATM   38  H   UNK     0       8.831 -13.059  17.796  0.00  0.00     0.167 HD
ENDBRANCH  35  37
ENDBRANCH  34  35
ENDBRANCH  33  34
ENDBRANCH   6  33
BRANCH  27  39
HETATM   39  C   UNK     0       0.500  -8.528  12.154  0.00  0.00     0.051 C 
BRANCH  39  40
HETATM   40  C   UNK     0      -0.262  -7.400  11.620  0.00  0.00     0.114 C 
BRANCH  40  41
HETATM   41  C   UNK     0      -0.814  -6.371  12.472  0.00  0.00     0.139 C 
HETATM   42  O   UNK     0      -1.305  -6.596  13.587  0.00  0.00    -0.650 OA
BRANCH  41  43
HETATM   43  O   UNK     0      -0.801  -5.021  12.021  0.00  0.00    -0.776 OA
HETATM   44  H   UNK     0      -0.462  -4.898  11.074  0.00  0.00     0.167 HD
ENDBRANCH  41  43
ENDBRANCH  40  41
ENDBRANCH  39  40
ENDBRANCH  27  39
BRANCH  11  45
HETATM   45  C   UNK     0       8.700  -4.250  16.605  0.00  0.00     0.051 C 
BRANCH  45  46
HETATM   46  C   UNK     0       9.361  -4.175  17.933  0.00  0.00     0.114 C 
BRANCH  46  47
HETATM   47  C   UNK     0       8.361  -4.613  18.949  0.00  0.00     0.139 C 
HETATM   48  O   UNK     0       7.401  -3.870  19.193  0.00  0.00    -0.650 OA
BRANCH  47  49
HETATM   49  O   UNK     0       8.501  -5.812  19.600  0.00  0.00    -0.776 OA
HETATM   50  H   UNK     0       9.407  -6.133  19.964  0.00  0.00     0.167 HD
ENDBRANCH  47  49
ENDBRANCH  46  47
ENDBRANCH  45  46
ENDBRANCH  11  45
BRANCH  18  51
HETATM   51  C   UNK     0       2.952  -2.973  12.850  0.00  0.00     0.051 C 
BRANCH  51  52
HETATM   52  C   UNK     0       1.660  -2.503  13.502  0.00  0.00     0.114 C 
BRANCH  52  53
HETATM   53  C   UNK     0       1.715  -1.072  13.860  0.00  0.00     0.139 C 
HETATM   54  O   UNK     0       0.823  -0.574  14.565  0.00  0.00    -0.650 OA
BRANCH  53  55
HETATM   55  O   UNK     0       2.755  -0.297  13.406  0.00  0.00    -0.776 OA
HETATM   56  H   UNK     0       3.192   0.442  13.904  0.00  0.00     0.167 HD
ENDBRANCH  53  55
ENDBRANCH  52  53
ENDBRANCH  51  52
ENDBRANCH  18  51
TORSDOF 16
ENDMDL
MODEL 19
REMARK VINA RESULT:      -9.1      1.917      7.172
REMARK  16 active torsions:
REMARK  status: ('A' for Active; 'I' for Inactive)
REMARK    1  A    between atoms: C_6  and  C_7 
REMARK    2  A    between atoms: C_7  and  C_8 
REMARK    3  A    between atoms: C_8  and  C_9 
REMARK    4  A    between atoms: C_9  and  O_11 
REMARK    5  A    between atoms: C_16  and  C_17 
REMARK    6  A    between atoms: C_17  and  C_18 
REMARK    7  A    between atoms: C_18  and  C_19 
REMARK    8  A    between atoms: C_19  and  O_21 
REMARK    9  A    between atoms: C_28  and  C_29 
REMARK   10  A    between atoms: C_29  and  C_30 
REMARK   11  A    between atoms: C_30  and  C_31 
REMARK   12  A    between atoms: C_31  and  O_33 
REMARK   13  A    between atoms: C_42  and  C_43 
REMARK   14  A    between atoms: C_43  and  C_44 
REMARK   15  A    between atoms: C_44  and  C_45 
REMARK   16  A    between atoms: C_45  and  O_47 
ROOT
HETATM    1  C   UNK     0       8.349  -3.908  16.867  0.00  0.00     0.051 C 
HETATM    2  C   UNK     0       7.900  -5.325  16.572  0.00  0.00    -0.031 A 
HETATM    3  C   UNK     0       6.618  -5.849  16.525  0.00  0.00     0.021 A 
HETATM    4  N   UNK     0       6.692  -7.174  16.255  0.00  0.00    -0.361 N 
HETATM    5  C   UNK     0       7.994  -7.504  16.121  0.00  0.00     0.022 A 
HETATM    6  C   UNK     0       8.777  -6.371  16.316  0.00  0.00    -0.027 A 
HETATM    7  C   UNK     0       8.609  -8.811  15.732  0.00  0.00     0.115 C 
HETATM    8  C   UNK     0       7.943  -9.566  14.595  0.00  0.00     0.021 A 
HETATM    9  N   UNK     0       7.354  -9.073  13.495  0.00  0.00    -0.361 N 
HETATM   10  C   UNK     0       6.817 -10.103  12.808  0.00  0.00     0.022 A 
HETATM   11  C   UNK     0       7.076 -11.295  13.479  0.00  0.00    -0.027 A 
HETATM   12  C   UNK     0       7.786 -10.964  14.606  0.00  0.00    -0.031 A 
HETATM   13  C   UNK     0       8.292 -11.945  15.639  0.00  0.00     0.051 C 
HETATM   14  C   UNK     0       5.996 -10.002  11.526  0.00  0.00     0.115 C 
HETATM   15  C   UNK     0       4.718  -9.193  11.675  0.00  0.00     0.021 A 
HETATM   16  N   UNK     0       4.599  -7.909  12.062  0.00  0.00    -0.361 N 
HETATM   17  C   UNK     0       3.305  -7.591  12.134  0.00  0.00     0.022 A 
HETATM   18  C   UNK     0       2.544  -8.718  11.767  0.00  0.00    -0.027 A 
HETATM   19  C   UNK     0       3.441  -9.714  11.481  0.00  0.00    -0.031 A 
HETATM   20  C   UNK     0       3.041 -11.099  11.005  0.00  0.00     0.051 C 
HETATM   21  C   UNK     0       2.643  -6.308  12.585  0.00  0.00     0.115 C 
HETATM   22  C   UNK     0       3.319  -5.523  13.685  0.00  0.00     0.022 A 
HETATM   23  N   UNK     0       3.917  -5.989  14.789  0.00  0.00    -0.361 N 
HETATM   24  C   UNK     0       4.511  -4.954  15.417  0.00  0.00     0.021 A 
HETATM   25  C   UNK     0       4.281  -3.793  14.705  0.00  0.00    -0.031 A 
HETATM   26  C   UNK     0       4.707  -2.376  15.029  0.00  0.00     0.051 C 
HETATM   27  C   UNK     0       3.519  -4.131  13.593  0.00  0.00    -0.027 A 
HETATM   28  C   UNK     0       5.386  -4.998  16.658  0.00  0.00     0.115 C 
HETATM   29  H   UNK     0       5.827  -7.875  16.201  0.00  0.00     0.165 HD
HETATM   30  H   UNK     0       7.357  -8.002  13.175  0.00  0.00     0.165 HD
HETATM   31  H   UNK     0       5.447  -7.197  12.243  0.00  0.00     0.165 HD
HETATM   32  H   UNK     0       3.889  -7.047  15.159  0.00  0.00     0.165 HD
ENDROOT
BRANCH   6  33
HETATM   33  C   UNK     0      10.275  -6.209  16.280  0.00  0.00     0.051 C 
BRANCH  33  34
HETATM   34  C   UNK     0      10.742  -5.854  14.888  0.00  0.00     0.114 C 
BRANCH  34  35
HETATM   35  C   UNK     0      12.222  -6.028  14.855  0.00  0.00     0.139 C 
HETATM   36  O   UNK     0      12.982  -5.107  15.276  0.00  0.00    -0.650 OA
BRANCH  35  37
HETATM   37  O   UNK     0      12.831  -7.182  14.376  0.00  0.00    -0.776 OA
HETATM   38  H   UNK     0      12.676  -8.083  14.798  0.00  0.00     0.167 HD
ENDBRANCH  35  37
ENDBRANCH  34  35
ENDBRANCH  33  34
ENDBRANCH   6  33
BRANCH  27  39
HETATM   39  C   UNK     0       3.011  -3.125  12.621  0.00  0.00     0.051 C 
BRANCH  39  40
HETATM   40  C   UNK     0       1.690  -2.543  12.852  0.00  0.00     0.114 C 
BRANCH  40  41
HETATM   41  C   UNK     0       1.099  -2.472  14.170  0.00  0.00     0.139 C 
HETATM   42  O   UNK     0       1.248  -1.510  14.935  0.00  0.00    -0.650 OA
BRANCH  41  43
HETATM   43  O   UNK     0       0.299  -3.557  14.627  0.00  0.00    -0.776 OA
HETATM   44  H   UNK     0       0.692  -4.066  15.410  0.00  0.00     0.167 HD
ENDBRANCH  41  43
ENDBRANCH  40  41
ENDBRANCH  39  40
ENDBRANCH  27  39
BRANCH  11  45
HETATM   45  C   UNK     0       6.686 -12.697  13.094  0.00  0.00     0.051 C 
BRANCH  45  46
HETATM   46  C   UNK     0       7.825 -13.547  12.664  0.00  0.00     0.114 C 
BRANCH  46  47
HETATM   47  C   UNK     0       8.351 -12.970  11.394  0.00  0.00     0.139 C 
HETATM   48  O   UNK     0       9.516 -12.551  11.371  0.00  0.00    -0.650 OA
BRANCH  47  49
HETATM   49  O   UNK     0       7.562 -12.902  10.273  0.00  0.00    -0.776 OA
HETATM   50  H   UNK     0       7.886 -12.460   9.404  0.00  0.00     0.167 HD
ENDBRANCH  47  49
ENDBRANCH  46  47
ENDBRANCH  45  46
ENDBRANCH  11  45
BRANCH  18  51
HETATM   51  C   UNK     0       1.045  -8.834  11.674  0.00  0.00     0.051 C 
BRANCH  51  52
HETATM   52  C   UNK     0       0.550  -9.113  13.086  0.00  0.00     0.114 C 
BRANCH  52  53
HETATM   53  C   UNK     0       0.610 -10.551  13.414  0.00  0.00     0.139 C 
HETATM   54  O   UNK     0       0.135 -11.388  12.630  0.00  0.00    -0.650 OA
BRANCH  53  55
HETATM   55  O   UNK     0       1.189 -10.955  14.592  0.00  0.00    -0.776 OA
HETATM   56  H   UNK     0       2.139 -11.216  14.716  0.00  0.00     0.167 HD
ENDBRANCH  53  55
ENDBRANCH  52  53
ENDBRANCH  51  52
ENDBRANCH  18  51
TORSDOF 16
ENDMDL
MODEL 20
REMARK VINA RESULT:      -9.0      2.753      7.437
REMARK  16 active torsions:
REMARK  status: ('A' for Active; 'I' for Inactive)
REMARK    1  A    between atoms: C_6  and  C_7 
REMARK    2  A    between atoms: C_7  and  C_8 
REMARK    3  A    between atoms: C_8  and  C_9 
REMARK    4  A    between atoms: C_9  and  O_11 
REMARK    5  A    between atoms: C_16  and  C_17 
REMARK    6  A    between atoms: C_17  and  C_18 
REMARK    7  A    between atoms: C_18  and  C_19 
REMARK    8  A    between atoms: C_19  and  O_21 
REMARK    9  A    between atoms: C_28  and  C_29 
REMARK   10  A    between atoms: C_29  and  C_30 
REMARK   11  A    between atoms: C_30  and  C_31 
REMARK   12  A    between atoms: C_31  and  O_33 
REMARK   13  A    between atoms: C_42  and  C_43 
REMARK   14  A    between atoms: C_43  and  C_44 
REMARK   15  A    between atoms: C_44  and  C_45 
REMARK   16  A    between atoms: C_45  and  O_47 
ROOT
HETATM    1  C   UNK     0      11.555 -12.881  13.561  0.00  0.00     0.051 C 
HETATM    2  C   UNK     0      10.067 -12.714  13.330  0.00  0.00    -0.031 A 
HETATM    3  C   UNK     0       9.087 -12.262  14.200  0.00  0.00     0.021 A 
HETATM    4  N   UNK     0       7.887 -12.309  13.575  0.00  0.00    -0.361 N 
HETATM    5  C   UNK     0       8.082 -12.774  12.323  0.00  0.00     0.022 A 
HETATM    6  C   UNK     0       9.434 -13.040  12.138  0.00  0.00    -0.027 A 
HETATM    7  C   UNK     0       7.103 -12.927  11.201  0.00  0.00     0.115 C 
HETATM    8  C   UNK     0       6.116 -11.790  10.997  0.00  0.00     0.021 A 
HETATM    9  N   UNK     0       6.312 -10.473  11.164  0.00  0.00    -0.361 N 
HETATM   10  C   UNK     0       5.135  -9.845  10.961  0.00  0.00     0.022 A 
HETATM   11  C   UNK     0       4.156 -10.782  10.645  0.00  0.00    -0.027 A 
HETATM   12  C   UNK     0       4.767 -12.010  10.666  0.00  0.00    -0.031 A 
HETATM   13  C   UNK     0       4.088 -13.329  10.376  0.00  0.00     0.051 C 
HETATM   14  C   UNK     0       4.875  -8.348  11.107  0.00  0.00     0.115 C 
HETATM   15  C   UNK     0       5.131  -7.813  12.507  0.00  0.00     0.021 A 
HETATM   16  N   UNK     0       6.280  -7.861  13.207  0.00  0.00    -0.361 N 
HETATM   17  C   UNK     0       6.076  -7.346  14.421  0.00  0.00     0.022 A 
HETATM   18  C   UNK     0       4.731  -6.934  14.514  0.00  0.00    -0.027 A 
HETATM   19  C   UNK     0       4.151  -7.230  13.308  0.00  0.00    -0.031 A 
HETATM   20  C   UNK     0       2.706  -6.915  12.966  0.00  0.00     0.051 C 
HETATM   21  C   UNK     0       7.015  -7.234  15.600  0.00  0.00     0.115 C 
HETATM   22  C   UNK     0       8.031  -8.336  15.790  0.00  0.00     0.022 A 
HETATM   23  N   UNK     0       7.865  -9.655  15.627  0.00  0.00    -0.361 N 
HETATM   24  C   UNK     0       9.067 -10.253  15.758  0.00  0.00     0.021 A 
HETATM   25  C   UNK     0      10.028  -9.296  16.022  0.00  0.00    -0.031 A 
HETATM   26  C   UNK     0      11.508  -9.480  16.285  0.00  0.00     0.051 C 
HETATM   27  C   UNK     0       9.390  -8.062  16.047  0.00  0.00    -0.027 A 
HETATM   28  C   UNK     0       9.400 -11.722  15.567  0.00  0.00     0.115 C 
HETATM   29  H   UNK     0       6.905 -12.052  14.035  0.00  0.00     0.165 HD
HETATM   30  H   UNK     0       7.292  -9.978  11.377  0.00  0.00     0.165 HD
HETATM   31  H   UNK     0       7.269  -8.222  12.820  0.00  0.00     0.165 HD
HETATM   32  H   UNK     0       6.890 -10.182  15.460  0.00  0.00     0.165 HD
ENDROOT
BRANCH   6  33
HETATM   33  C   UNK     0      10.161 -13.575  10.930  0.00  0.00     0.051 C 
BRANCH  33  34
HETATM   34  C   UNK     0      10.422 -12.473   9.931  0.00  0.00     0.114 C 
BRANCH  34  35
HETATM   35  C   UNK     0      11.791 -12.686   9.379  0.00  0.00     0.139 C 
HETATM   36  O   UNK     0      11.982 -12.679   8.128  0.00  0.00    -0.650 OA
BRANCH  35  37
HETATM   37  O   UNK     0      12.901 -12.896  10.188  0.00  0.00    -0.776 OA
HETATM   38  H   UNK     0      12.815 -13.203  11.143  0.00  0.00     0.167 HD
ENDBRANCH  35  37
ENDBRANCH  34  35
ENDBRANCH  33  34
ENDBRANCH   6  33
BRANCH  27  39
HETATM   39  C   UNK     0      10.093  -6.792  16.375  0.00  0.00     0.051 C 
BRANCH  39  40
HETATM   40  C   UNK     0      10.373  -5.854  15.288  0.00  0.00     0.114 C 
BRANCH  40  41
HETATM   41  C   UNK     0      10.215  -4.425  15.443  0.00  0.00     0.139 C 
HETATM   42  O   UNK     0       9.581  -3.905  16.371  0.00  0.00    -0.650 OA
BRANCH  41  43
HETATM   43  O   UNK     0      10.813  -3.555  14.488  0.00  0.00    -0.776 OA
HETATM   44  H   UNK     0      10.152  -3.018  13.939  0.00  0.00     0.167 HD
ENDBRANCH  41  43
ENDBRANCH  40  41
ENDBRANCH  39  40
ENDBRANCH  27  39
BRANCH  11  45
HETATM   45  C   UNK     0       2.702 -10.555  10.330  0.00  0.00     0.051 C 
BRANCH  45  46
HETATM   46  C   UNK     0       1.846 -10.355  11.527  0.00  0.00     0.114 C 
BRANCH  46  47
HETATM   47  C   UNK     0       0.513 -10.950  11.222  0.00  0.00     0.139 C 
HETATM   48  O   UNK     0      -0.141 -10.485  10.279  0.00  0.00    -0.650 OA
BRANCH  47  49
HETATM   49  O   UNK     0       0.020 -11.989  11.970  0.00  0.00    -0.776 OA
HETATM   50  H   UNK     0      -0.684 -12.640  11.601  0.00  0.00     0.167 HD
ENDBRANCH  47  49
ENDBRANCH  46  47
ENDBRANCH  45  46
ENDBRANCH  11  45
BRANCH  18  51
HETATM   51  C   UNK     0       4.043  -6.273  15.680  0.00  0.00     0.051 C 
BRANCH  51  52
HETATM   52  C   UNK     0       4.549  -4.839  15.717  0.00  0.00     0.114 C 
BRANCH  52  53
HETATM   53  C   UNK     0       3.447  -3.865  15.597  0.00  0.00     0.139 C 
HETATM   54  O   UNK     0       2.490  -4.098  14.840  0.00  0.00    -0.650 OA
BRANCH  53  55
HETATM   55  O   UNK     0       3.487  -2.699  16.323  0.00  0.00    -0.776 OA
HETATM   56  H   UNK     0       4.198  -2.008  16.278  0.00  0.00     0.167 HD
ENDBRANCH  53  55
ENDBRANCH  52  53
ENDBRANCH  51  52
ENDBRANCH  18  51
TORSDOF 16
ENDMDL
