MODEL 1
REMARK VINA RESULT:      -8.2      0.000      0.000
REMARK  28 active torsions:
REMARK  status: ('A' for Active; 'I' for Inactive)
REMARK    1  A    between atoms: C_2  and  O_3 
REMARK    2  A    between atoms: C_2  and  C_4 
REMARK    3  A    between atoms: C_4  and  C_5 
REMARK    4  A    between atoms: C_5  and  C_6 
REMARK    5  A    between atoms: C_7  and  C_8 
REMARK    6  A    between atoms: C_8  and  C_9 
REMARK    7  A    between atoms: C_9  and  O_11 
REMARK    8  A    between atoms: C_28  and  C_29 
REMARK    9  A    between atoms: C_29  and  C_30 
REMARK   10  A    between atoms: C_30  and  O_32 
REMARK   11  A    between atoms: C_33  and  C_34 
REMARK   12  A    between atoms: C_34  and  C_35 
REMARK   13  A    between atoms: C_35  and  C_36 
REMARK   14  A    between atoms: C_36  and  O_38 
REMARK   15  A    between atoms: C_39  and  C_40 
REMARK   16  A    between atoms: C_40  and  C_41 
REMARK   17  A    between atoms: C_41  and  C_42 
REMARK   18  A    between atoms: C_42  and  O_44 
REMARK   19  A    between atoms: C_45  and  C_46 
REMARK   20  A    between atoms: C_46  and  C_47 
REMARK   21  A    between atoms: C_47  and  O_49 
REMARK   22  A    between atoms: C_50  and  C_51 
REMARK   23  A    between atoms: C_51  and  C_52 
REMARK   24  A    between atoms: C_52  and  O_54 
REMARK   25  A    between atoms: C_55  and  C_56 
REMARK   26  A    between atoms: C_56  and  C_57 
REMARK   27  A    between atoms: C_57  and  C_58 
REMARK   28  A    between atoms: C_58  and  O_60 
ROOT
ATOM      1  O   UNK d   0     -31.849 -10.539  11.061  0.00  0.00    -0.650 OA
ATOM      2  C   UNK d   0     -31.274  -9.433  10.958  0.00  0.00     0.139 C 
ENDROOT
BRANCH   2   3
ATOM      3  O   UNK d   0     -30.159  -9.324  10.162  0.00  0.00    -0.776 OA
ATOM      4  H   UNK d   0     -29.990  -9.982   9.399  0.00  0.00     0.167 HD
ENDBRANCH   2   3
BRANCH   2   5
ATOM      5  C   UNK d   0     -31.798  -8.246  11.692  0.00  0.00     0.115 C 
BRANCH   5   6
ATOM      6  C   UNK d   0     -33.253  -8.039  11.371  0.00  0.00     0.052 C 
BRANCH   6   7
ATOM      7  C   UNK d   0     -33.560  -6.620  10.956  0.00  0.00    -0.020 A 
ATOM      8  C   UNK d   0     -34.341  -5.762  11.562  0.00  0.00    -0.011 A 
ATOM      9  C   UNK d   0     -34.333  -4.531  10.790  0.00  0.00     0.067 A 
ATOM     10  C   UNK d   0     -34.922  -3.262  10.901  0.00  0.00     0.062 C 
ATOM     11  N   UNK d   0     -33.527  -4.730   9.726  0.00  0.00    -0.248 NA
ATOM     12  C   UNK d   0     -34.575  -2.102  10.200  0.00  0.00     0.041 A 
ATOM     13  N   UNK d   0     -34.272  -1.908   8.903  0.00  0.00    -0.355 N 
ATOM     14  C   UNK d   0     -34.445  -0.893  10.907  0.00  0.00    -0.022 A 
ATOM     15  C   UNK d   0     -33.945  -0.608   8.770  0.00  0.00     0.042 A 
ATOM     16  H   UNK d   0     -34.307  -2.670   8.093  0.00  0.00     0.166 HD
ATOM     17  C   UNK d   0     -33.552   0.122   7.631  0.00  0.00     0.062 C 
ATOM     18  C   UNK d   0     -34.042   0.060  10.006  0.00  0.00    -0.013 A 
ATOM     19  C   UNK d   0     -32.654  -0.222   6.654  0.00  0.00     0.067 A 
ATOM     20  N   UNK d   0     -32.226  -1.487   6.643  0.00  0.00    -0.248 NA
ATOM     21  C   UNK d   0     -31.985   0.464   5.561  0.00  0.00    -0.011 A 
ATOM     22  C   UNK d   0     -31.325  -1.677   5.624  0.00  0.00     0.066 A 
ATOM     23  C   UNK d   0     -30.827  -2.963   5.474  0.00  0.00     0.062 C 
ATOM     24  C   UNK d   0     -31.206  -0.392   4.965  0.00  0.00    -0.020 A 
ATOM     25  C   UNK d   0     -31.198  -4.118   6.181  0.00  0.00     0.041 A 
ATOM     26  N   UNK d   0     -31.485  -4.314   7.473  0.00  0.00    -0.355 N 
ATOM     27  C   UNK d   0     -31.333  -5.330   5.470  0.00  0.00    -0.022 A 
ATOM     28  C   UNK d   0     -31.803  -5.611   7.610  0.00  0.00     0.042 A 
ATOM     29  H   UNK d   0     -31.439  -3.549   8.288  0.00  0.00     0.166 HD
ATOM     30  C   UNK d   0     -32.187  -6.353   8.738  0.00  0.00     0.062 C 
ATOM     31  C   UNK d   0     -31.716  -6.280   6.366  0.00  0.00    -0.013 A 
ATOM     32  C   UNK d   0     -33.030  -5.967   9.768  0.00  0.00     0.066 A 
BRANCH   8  33
ATOM     33  C   UNK d   0     -35.105  -5.985  12.804  0.00  0.00     0.151 C 
BRANCH  33  34
ATOM     34  C   UNK d   0     -36.552  -6.128  12.565  0.00  0.00     0.143 C 
ATOM     35  O   UNK d   0     -37.152  -5.352  11.808  0.00  0.00    -0.650 OA
BRANCH  34  36
ATOM     36  O   UNK d   0     -37.244  -7.137  13.194  0.00  0.00    -0.776 OA
ATOM     37  H   UNK d   0     -38.138  -6.956  13.670  0.00  0.00     0.167 HD
ENDBRANCH  34  36
ENDBRANCH  33  34
ENDBRANCH   8  33
BRANCH  31  38
ATOM     38  C   UNK d   0     -31.995  -7.733   6.060  0.00  0.00     0.151 C 
BRANCH  38  39
ATOM     39  C   UNK d   0     -30.936  -8.614   6.503  0.00  0.00     0.143 C 
ATOM     40  O   UNK d   0     -29.800  -8.597   5.996  0.00  0.00    -0.650 OA
BRANCH  39  41
ATOM     41  O   UNK d   0     -31.182  -9.519   7.535  0.00  0.00    -0.776 OA
ATOM     42  H   UNK d   0     -32.163  -9.677   7.786  0.00  0.00     0.167 HD
ENDBRANCH  39  41
ENDBRANCH  38  39
ENDBRANCH  31  38
BRANCH  27  43
ATOM     43  C   UNK d   0     -31.113  -5.611   4.004  0.00  0.00     0.052 C 
BRANCH  43  44
ATOM     44  C   UNK d   0     -29.835  -6.333   3.726  0.00  0.00     0.115 C 
BRANCH  44  45
ATOM     45  C   UNK d   0     -30.171  -7.453   2.810  0.00  0.00     0.139 C 
ATOM     46  O   UNK d   0     -31.344  -7.903   2.830  0.00  0.00    -0.650 OA
BRANCH  45  47
ATOM     47  O   UNK d   0     -29.256  -8.010   1.943  0.00  0.00    -0.776 OA
ATOM     48  H   UNK d   0     -28.240  -7.835   2.012  0.00  0.00     0.167 HD
ENDBRANCH  45  47
ENDBRANCH  44  45
ENDBRANCH  43  44
ENDBRANCH  27  43
BRANCH  24  49
ATOM     49  C   UNK d   0     -30.371  -0.129   3.780  0.00  0.00     0.052 C 
BRANCH  49  50
ATOM     50  C   UNK d   0     -28.986   0.294   4.198  0.00  0.00     0.115 C 
BRANCH  50  51
ATOM     51  C   UNK d   0     -27.939  -0.718   4.149  0.00  0.00     0.139 C 
ATOM     52  O   UNK d   0     -27.693  -1.485   5.110  0.00  0.00    -0.650 OA
BRANCH  51  53
ATOM     53  O   UNK d   0     -27.170  -0.854   3.003  0.00  0.00    -0.776 OA
ATOM     54  H   UNK d   0     -26.235  -1.210   3.098  0.00  0.00     0.167 HD
ENDBRANCH  51  53
ENDBRANCH  50  51
ENDBRANCH  49  50
ENDBRANCH  24  49
BRANCH  21  55
ATOM     55  C   UNK d   0     -32.198   1.903   5.223  0.00  0.00     0.151 C 
BRANCH  55  56
ATOM     56  C   UNK d   0     -33.411   2.106   4.416  0.00  0.00     0.143 C 
ATOM     57  O   UNK d   0     -34.538   2.274   4.922  0.00  0.00    -0.650 OA
BRANCH  56  58
ATOM     58  O   UNK d   0     -33.275   2.109   3.029  0.00  0.00    -0.776 OA
ATOM     59  H   UNK d   0     -34.058   2.551   2.515  0.00  0.00     0.167 HD
ENDBRANCH  56  58
ENDBRANCH  55  56
ENDBRANCH  21  55
BRANCH  18  60
ATOM     60  C   UNK d   0     -33.773   1.507  10.339  0.00  0.00     0.151 C 
BRANCH  60  61
ATOM     61  C   UNK d   0     -34.895   2.268   9.769  0.00  0.00     0.143 C 
ATOM     62  O   UNK d   0     -36.002   2.450  10.277  0.00  0.00    -0.650 OA
BRANCH  61  63
ATOM     63  O   UNK d   0     -34.649   2.844   8.499  0.00  0.00    -0.776 OA
ATOM     64  H   UNK d   0     -35.406   3.125   7.902  0.00  0.00     0.167 HD
ENDBRANCH  61  63
ENDBRANCH  60  61
ENDBRANCH  18  60
BRANCH  14  65
ATOM     65  C   UNK d   0     -34.765  -0.552  12.335  0.00  0.00     0.052 C 
BRANCH  65  66
ATOM     66  C   UNK d   0     -36.160  -0.069  12.519  0.00  0.00     0.115 C 
BRANCH  66  67
ATOM     67  C   UNK d   0     -37.191  -0.512  11.623  0.00  0.00     0.139 C 
ATOM     68  O   UNK d   0     -37.594  -1.730  11.706  0.00  0.00    -0.650 OA
BRANCH  67  69
ATOM     69  O   UNK d   0     -37.840   0.229  10.636  0.00  0.00    -0.776 OA
ATOM     70  H   UNK d   0     -38.410  -0.313   9.971  0.00  0.00     0.167 HD
ENDBRANCH  67  69
ENDBRANCH  66  67
ENDBRANCH  65  66
ENDBRANCH  14  65
ENDBRANCH   6   7
ENDBRANCH   5   6
ENDBRANCH   2   5
TORSDOF 28
ENDMDL
MODEL 2
REMARK VINA RESULT:      -7.9      2.155      8.402
REMARK  28 active torsions:
REMARK  status: ('A' for Active; 'I' for Inactive)
REMARK    1  A    between atoms: C_2  and  O_3 
REMARK    2  A    between atoms: C_2  and  C_4 
REMARK    3  A    between atoms: C_4  and  C_5 
REMARK    4  A    between atoms: C_5  and  C_6 
REMARK    5  A    between atoms: C_7  and  C_8 
REMARK    6  A    between atoms: C_8  and  C_9 
REMARK    7  A    between atoms: C_9  and  O_11 
REMARK    8  A    between atoms: C_28  and  C_29 
REMARK    9  A    between atoms: C_29  and  C_30 
REMARK   10  A    between atoms: C_30  and  O_32 
REMARK   11  A    between atoms: C_33  and  C_34 
REMARK   12  A    between atoms: C_34  and  C_35 
REMARK   13  A    between atoms: C_35  and  C_36 
REMARK   14  A    between atoms: C_36  and  O_38 
REMARK   15  A    between atoms: C_39  and  C_40 
REMARK   16  A    between atoms: C_40  and  C_41 
REMARK   17  A    between atoms: C_41  and  C_42 
REMARK   18  A    between atoms: C_42  and  O_44 
REMARK   19  A    between atoms: C_45  and  C_46 
REMARK   20  A    between atoms: C_46  and  C_47 
REMARK   21  A    between atoms: C_47  and  O_49 
REMARK   22  A    between atoms: C_50  and  C_51 
REMARK   23  A    between atoms: C_51  and  C_52 
REMARK   24  A    between atoms: C_52  and  O_54 
REMARK   25  A    between atoms: C_55  and  C_56 
REMARK   26  A    between atoms: C_56  and  C_57 
REMARK   27  A    between atoms: C_57  and  C_58 
REMARK   28  A    between atoms: C_58  and  O_60 
ROOT
ATOM      1  O   UNK d   0     -36.530  -0.332  10.521  0.00  0.00    -0.650 OA
ATOM      2  C   UNK d   0     -35.858  -0.394  11.574  0.00  0.00     0.139 C 
ENDROOT
BRANCH   2   3
ATOM      3  O   UNK d   0     -35.703   0.735  12.342  0.00  0.00    -0.776 OA
ATOM      4  H   UNK d   0     -34.791   1.186  12.440  0.00  0.00     0.167 HD
ENDBRANCH   2   3
BRANCH   2   5
ATOM      5  C   UNK d   0     -35.231  -1.682  11.988  0.00  0.00     0.115 C 
BRANCH   5   6
ATOM      6  C   UNK d   0     -35.983  -2.839  11.388  0.00  0.00     0.052 C 
BRANCH   6   7
ATOM      7  C   UNK d   0     -35.078  -3.988  11.013  0.00  0.00    -0.020 A 
ATOM      8  C   UNK d   0     -34.798  -5.049  11.725  0.00  0.00    -0.011 A 
ATOM      9  C   UNK d   0     -33.877  -5.870  10.957  0.00  0.00     0.067 A 
ATOM     10  C   UNK d   0     -33.231  -7.103  11.134  0.00  0.00     0.062 C 
ATOM     11  N   UNK d   0     -33.647  -5.230   9.791  0.00  0.00    -0.248 NA
ATOM     12  C   UNK d   0     -32.592  -7.873  10.156  0.00  0.00     0.041 A 
ATOM     13  N   UNK d   0     -31.767  -7.523   9.151  0.00  0.00    -0.355 N 
ATOM     14  C   UNK d   0     -32.841  -9.257  10.109  0.00  0.00    -0.022 A 
ATOM     15  C   UNK d   0     -31.493  -8.647   8.463  0.00  0.00     0.042 A 
ATOM     16  H   UNK d   0     -31.371  -6.504   8.944  0.00  0.00     0.166 HD
ATOM     17  C   UNK d   0     -30.684  -8.848   7.326  0.00  0.00     0.062 C 
ATOM     18  C   UNK d   0     -32.148  -9.755   9.033  0.00  0.00    -0.013 A 
ATOM     19  C   UNK d   0     -30.615  -8.105   6.175  0.00  0.00     0.067 A 
ATOM     20  N   UNK d   0     -31.236  -6.922   6.180  0.00  0.00    -0.248 NA
ATOM     21  C   UNK d   0     -30.021  -8.270   4.859  0.00  0.00    -0.011 A 
ATOM     22  C   UNK d   0     -31.093  -6.304   4.962  0.00  0.00     0.066 A 
ATOM     23  C   UNK d   0     -31.661  -5.044   4.841  0.00  0.00     0.062 C 
ATOM     24  C   UNK d   0     -30.308  -7.215   4.153  0.00  0.00    -0.020 A 
ATOM     25  C   UNK d   0     -32.287  -4.282   5.839  0.00  0.00     0.041 A 
ATOM     26  N   UNK d   0     -33.119  -4.628   6.829  0.00  0.00    -0.355 N 
ATOM     27  C   UNK d   0     -32.033  -2.894   5.888  0.00  0.00    -0.022 A 
ATOM     28  C   UNK d   0     -33.401  -3.507   7.511  0.00  0.00     0.042 A 
ATOM     29  H   UNK d   0     -33.525  -5.651   7.029  0.00  0.00     0.166 HD
ATOM     30  C   UNK d   0     -34.210  -3.292   8.638  0.00  0.00     0.062 C 
ATOM     31  C   UNK d   0     -32.733  -2.396   6.944  0.00  0.00    -0.013 A 
ATOM     32  C   UNK d   0     -34.341  -4.091   9.762  0.00  0.00     0.066 A 
BRANCH   8  33
ATOM     33  C   UNK d   0     -35.308  -5.371  13.071  0.00  0.00     0.151 C 
BRANCH  33  34
ATOM     34  C   UNK d   0     -36.557  -6.152  13.035  0.00  0.00     0.143 C 
ATOM     35  O   UNK d   0     -37.515  -5.789  12.338  0.00  0.00    -0.650 OA
BRANCH  34  36
ATOM     36  O   UNK d   0     -36.659  -7.299  13.788  0.00  0.00    -0.776 OA
ATOM     37  H   UNK d   0     -36.388  -8.215  13.406  0.00  0.00     0.167 HD
ENDBRANCH  34  36
ENDBRANCH  33  34
ENDBRANCH   8  33
BRANCH  31  38
ATOM     38  C   UNK d   0     -32.758  -0.955   7.397  0.00  0.00     0.151 C 
BRANCH  38  39
ATOM     39  C   UNK d   0     -31.957  -0.724   8.580  0.00  0.00     0.143 C 
ATOM     40  O   UNK d   0     -32.391  -0.928   9.728  0.00  0.00    -0.650 OA
BRANCH  39  41
ATOM     41  O   UNK d   0     -30.650  -0.258   8.443  0.00  0.00    -0.776 OA
ATOM     42  H   UNK d   0     -30.432   0.641   8.884  0.00  0.00     0.167 HD
ENDBRANCH  39  41
ENDBRANCH  38  39
ENDBRANCH  31  38
BRANCH  27  43
ATOM     43  C   UNK d   0     -31.171  -2.045   4.988  0.00  0.00     0.052 C 
BRANCH  43  44
ATOM     44  C   UNK d   0     -29.800  -1.809   5.534  0.00  0.00     0.115 C 
BRANCH  44  45
ATOM     45  C   UNK d   0     -29.390  -0.455   5.079  0.00  0.00     0.139 C 
ATOM     46  O   UNK d   0     -29.817   0.539   5.719  0.00  0.00    -0.650 OA
BRANCH  45  47
ATOM     47  O   UNK d   0     -28.563  -0.249   3.997  0.00  0.00    -0.776 OA
ATOM     48  H   UNK d   0     -28.584   0.616   3.432  0.00  0.00     0.167 HD
ENDBRANCH  45  47
ENDBRANCH  44  45
ENDBRANCH  43  44
ENDBRANCH  27  43
BRANCH  24  49
ATOM     49  C   UNK d   0     -29.872  -6.950   2.771  0.00  0.00     0.052 C 
BRANCH  49  50
ATOM     50  C   UNK d   0     -28.369  -6.858   2.704  0.00  0.00     0.115 C 
BRANCH  50  51
ATOM     51  C   UNK d   0     -27.675  -7.881   1.934  0.00  0.00     0.139 C 
ATOM     52  O   UNK d   0     -26.425  -7.981   1.914  0.00  0.00    -0.650 OA
BRANCH  51  53
ATOM     53  O   UNK d   0     -28.405  -8.789   1.183  0.00  0.00    -0.776 OA
ATOM     54  H   UNK d   0     -28.883  -8.454   0.364  0.00  0.00     0.167 HD
ENDBRANCH  51  53
ENDBRANCH  50  51
ENDBRANCH  49  50
ENDBRANCH  24  49
BRANCH  21  55
ATOM     55  C   UNK d   0     -29.226  -9.464   4.446  0.00  0.00     0.151 C 
BRANCH  55  56
ATOM     56  C   UNK d   0     -27.967  -9.576   5.199  0.00  0.00     0.143 C 
ATOM     57  O   UNK d   0     -27.234  -8.596   5.436  0.00  0.00    -0.650 OA
BRANCH  56  58
ATOM     58  O   UNK d   0     -27.596 -10.838   5.659  0.00  0.00    -0.776 OA
ATOM     59  H   UNK d   0     -27.084 -10.841   6.559  0.00  0.00     0.167 HD
ENDBRANCH  56  58
ENDBRANCH  55  56
ENDBRANCH  21  55
BRANCH  18  60
ATOM     60  C   UNK d   0     -32.139 -11.202   8.605  0.00  0.00     0.151 C 
BRANCH  60  61
ATOM     61  C   UNK d   0     -31.353 -11.918   9.621  0.00  0.00     0.143 C 
ATOM     62  O   UNK d   0     -31.631 -12.994  10.152  0.00  0.00    -0.650 OA
BRANCH  61  63
ATOM     63  O   UNK d   0     -30.152 -11.281  10.013  0.00  0.00    -0.776 OA
ATOM     64  H   UNK d   0     -29.536 -10.871   9.333  0.00  0.00     0.167 HD
ENDBRANCH  61  63
ENDBRANCH  60  61
ENDBRANCH  18  60
BRANCH  14  65
ATOM     65  C   UNK d   0     -33.597 -10.150  11.051  0.00  0.00     0.052 C 
BRANCH  65  66
ATOM     66  C   UNK d   0     -32.962 -10.249  12.393  0.00  0.00     0.115 C 
BRANCH  66  67
ATOM     67  C   UNK d   0     -32.390 -11.495  12.820  0.00  0.00     0.139 C 
ATOM     68  O   UNK d   0     -33.128 -12.315  13.480  0.00  0.00    -0.650 OA
BRANCH  67  69
ATOM     69  O   UNK d   0     -31.090 -11.954  12.607  0.00  0.00    -0.776 OA
ATOM     70  H   UNK d   0     -31.000 -12.956  12.387  0.00  0.00     0.167 HD
ENDBRANCH  67  69
ENDBRANCH  66  67
ENDBRANCH  65  66
ENDBRANCH  14  65
ENDBRANCH   6   7
ENDBRANCH   5   6
ENDBRANCH   2   5
TORSDOF 28
ENDMDL
MODEL 3
REMARK VINA RESULT:      -7.8      2.014      7.845
REMARK  28 active torsions:
REMARK  status: ('A' for Active; 'I' for Inactive)
REMARK    1  A    between atoms: C_2  and  O_3 
REMARK    2  A    between atoms: C_2  and  C_4 
REMARK    3  A    between atoms: C_4  and  C_5 
REMARK    4  A    between atoms: C_5  and  C_6 
REMARK    5  A    between atoms: C_7  and  C_8 
REMARK    6  A    between atoms: C_8  and  C_9 
REMARK    7  A    between atoms: C_9  and  O_11 
REMARK    8  A    between atoms: C_28  and  C_29 
REMARK    9  A    between atoms: C_29  and  C_30 
REMARK   10  A    between atoms: C_30  and  O_32 
REMARK   11  A    between atoms: C_33  and  C_34 
REMARK   12  A    between atoms: C_34  and  C_35 
REMARK   13  A    between atoms: C_35  and  C_36 
REMARK   14  A    between atoms: C_36  and  O_38 
REMARK   15  A    between atoms: C_39  and  C_40 
REMARK   16  A    between atoms: C_40  and  C_41 
REMARK   17  A    between atoms: C_41  and  C_42 
REMARK   18  A    between atoms: C_42  and  O_44 
REMARK   19  A    between atoms: C_45  and  C_46 
REMARK   20  A    between atoms: C_46  and  C_47 
REMARK   21  A    between atoms: C_47  and  O_49 
REMARK   22  A    between atoms: C_50  and  C_51 
REMARK   23  A    between atoms: C_51  and  C_52 
REMARK   24  A    between atoms: C_52  and  O_54 
REMARK   25  A    between atoms: C_55  and  C_56 
REMARK   26  A    between atoms: C_56  and  C_57 
REMARK   27  A    between atoms: C_57  and  C_58 
REMARK   28  A    between atoms: C_58  and  O_60 
ROOT
ATOM      1  O   UNK d   0     -35.965   2.419   4.595  0.00  0.00    -0.650 OA
ATOM      2  C   UNK d   0     -36.586   2.091   5.630  0.00  0.00     0.139 C 
ENDROOT
BRANCH   2   3
ATOM      3  O   UNK d   0     -37.324   0.932   5.635  0.00  0.00    -0.776 OA
ATOM      4  H   UNK d   0     -37.653   0.512   4.763  0.00  0.00     0.167 HD
ENDBRANCH   2   3
BRANCH   2   5
ATOM      5  C   UNK d   0     -36.525   2.954   6.844  0.00  0.00     0.115 C 
BRANCH   5   6
ATOM      6  C   UNK d   0     -35.160   2.869   7.471  0.00  0.00     0.052 C 
BRANCH   6   7
ATOM      7  C   UNK d   0     -34.987   1.633   8.320  0.00  0.00    -0.020 A 
ATOM      8  C   UNK d   0     -35.390   1.447   9.551  0.00  0.00    -0.011 A 
ATOM      9  C   UNK d   0     -34.990   0.108   9.953  0.00  0.00     0.067 A 
ATOM     10  C   UNK d   0     -35.130  -0.689  11.099  0.00  0.00     0.062 C 
ATOM     11  N   UNK d   0     -34.344  -0.448   8.906  0.00  0.00    -0.248 NA
ATOM     12  C   UNK d   0     -34.919  -2.069  11.203  0.00  0.00     0.041 A 
ATOM     13  N   UNK d   0     -33.947  -2.856  10.707  0.00  0.00    -0.355 N 
ATOM     14  C   UNK d   0     -35.869  -2.853  11.882  0.00  0.00    -0.022 A 
ATOM     15  C   UNK d   0     -34.259  -4.121  11.047  0.00  0.00     0.042 A 
ATOM     16  H   UNK d   0     -33.047  -2.523  10.144  0.00  0.00     0.166 HD
ATOM     17  C   UNK d   0     -33.585  -5.330  10.784  0.00  0.00     0.062 C 
ATOM     18  C   UNK d   0     -35.458  -4.159  11.784  0.00  0.00    -0.013 A 
ATOM     19  C   UNK d   0     -33.020  -5.766   9.612  0.00  0.00     0.067 A 
ATOM     20  N   UNK d   0     -32.903  -4.871   8.628  0.00  0.00    -0.248 NA
ATOM     21  C   UNK d   0     -32.490  -7.023   9.112  0.00  0.00    -0.011 A 
ATOM     22  C   UNK d   0     -32.337  -5.452   7.520  0.00  0.00     0.066 A 
ATOM     23  C   UNK d   0     -32.122  -4.621   6.430  0.00  0.00     0.062 C 
ATOM     24  C   UNK d   0     -32.096  -6.834   7.886  0.00  0.00    -0.020 A 
ATOM     25  C   UNK d   0     -32.329  -3.235   6.350  0.00  0.00     0.041 A 
ATOM     26  N   UNK d   0     -33.304  -2.454   6.831  0.00  0.00    -0.355 N 
ATOM     27  C   UNK d   0     -31.373  -2.448   5.672  0.00  0.00    -0.022 A 
ATOM     28  C   UNK d   0     -32.999  -1.193   6.486  0.00  0.00     0.042 A 
ATOM     29  H   UNK d   0     -34.212  -2.792   7.387  0.00  0.00     0.166 HD
ATOM     30  C   UNK d   0     -33.665   0.018   6.732  0.00  0.00     0.062 C 
ATOM     31  C   UNK d   0     -31.788  -1.155   5.754  0.00  0.00    -0.013 A 
ATOM     32  C   UNK d   0     -34.309   0.418   7.892  0.00  0.00     0.066 A 
BRANCH   8  33
ATOM     33  C   UNK d   0     -36.115   2.410  10.400  0.00  0.00     0.151 C 
BRANCH  33  34
ATOM     34  C   UNK d   0     -35.859   2.210  11.838  0.00  0.00     0.143 C 
ATOM     35  O   UNK d   0     -36.673   1.606  12.551  0.00  0.00    -0.650 OA
BRANCH  34  36
ATOM     36  O   UNK d   0     -34.700   2.701  12.392  0.00  0.00    -0.776 OA
ATOM     37  H   UNK d   0     -34.359   3.646  12.168  0.00  0.00     0.167 HD
ENDBRANCH  34  36
ENDBRANCH  33  34
ENDBRANCH   8  33
BRANCH  31  38
ATOM     38  C   UNK d   0     -31.075   0.049   5.184  0.00  0.00     0.151 C 
BRANCH  38  39
ATOM     39  C   UNK d   0     -30.438   0.858   6.201  0.00  0.00     0.143 C 
ATOM     40  O   UNK d   0     -29.928   1.964   5.949  0.00  0.00    -0.650 OA
BRANCH  39  41
ATOM     41  O   UNK d   0     -30.387   0.394   7.515  0.00  0.00    -0.776 OA
ATOM     42  H   UNK d   0     -29.727  -0.365   7.711  0.00  0.00     0.167 HD
ENDBRANCH  39  41
ENDBRANCH  38  39
ENDBRANCH  31  38
BRANCH  27  43
ATOM     43  C   UNK d   0     -30.110  -2.872   4.965  0.00  0.00     0.052 C 
BRANCH  43  44
ATOM     44  C   UNK d   0     -28.885  -2.188   5.481  0.00  0.00     0.115 C 
BRANCH  44  45
ATOM     45  C   UNK d   0     -28.738  -2.595   6.903  0.00  0.00     0.139 C 
ATOM     46  O   UNK d   0     -28.521  -1.699   7.756  0.00  0.00    -0.650 OA
BRANCH  45  47
ATOM     47  O   UNK d   0     -28.836  -3.905   7.318  0.00  0.00    -0.776 OA
ATOM     48  H   UNK d   0     -29.648  -4.504   7.098  0.00  0.00     0.167 HD
ENDBRANCH  45  47
ENDBRANCH  44  45
ENDBRANCH  43  44
ENDBRANCH  27  43
BRANCH  24  49
ATOM     49  C   UNK d   0     -31.460  -7.836   7.013  0.00  0.00     0.052 C 
BRANCH  49  50
ATOM     50  C   UNK d   0     -31.725  -7.515   5.565  0.00  0.00     0.115 C 
BRANCH  50  51
ATOM     51  C   UNK d   0     -30.630  -7.722   4.627  0.00  0.00     0.139 C 
ATOM     52  O   UNK d   0     -30.725  -8.481   3.633  0.00  0.00    -0.650 OA
BRANCH  51  53
ATOM     53  O   UNK d   0     -29.425  -7.065   4.823  0.00  0.00    -0.776 OA
ATOM     54  H   UNK d   0     -28.654  -7.297   4.222  0.00  0.00     0.167 HD
ENDBRANCH  51  53
ENDBRANCH  50  51
ENDBRANCH  49  50
ENDBRANCH  24  49
BRANCH  21  55
ATOM     55  C   UNK d   0     -32.429  -8.281   9.913  0.00  0.00     0.151 C 
BRANCH  55  56
ATOM     56  C   UNK d   0     -31.148  -8.422  10.622  0.00  0.00     0.143 C 
ATOM     57  O   UNK d   0     -30.287  -9.265  10.301  0.00  0.00    -0.650 OA
BRANCH  56  58
ATOM     58  O   UNK d   0     -30.904  -7.568  11.696  0.00  0.00    -0.776 OA
ATOM     59  H   UNK d   0     -30.954  -8.015  12.629  0.00  0.00     0.167 HD
ENDBRANCH  56  58
ENDBRANCH  55  56
ENDBRANCH  21  55
BRANCH  18  60
ATOM     60  C   UNK d   0     -36.191  -5.342  12.367  0.00  0.00     0.151 C 
BRANCH  60  61
ATOM     61  C   UNK d   0     -37.424  -5.483  11.578  0.00  0.00     0.143 C 
ATOM     62  O   UNK d   0     -38.490  -5.975  11.948  0.00  0.00    -0.650 OA
BRANCH  61  63
ATOM     63  O   UNK d   0     -37.350  -4.990  10.252  0.00  0.00    -0.776 OA
ATOM     64  H   UNK d   0     -38.154  -4.590   9.803  0.00  0.00     0.167 HD
ENDBRANCH  61  63
ENDBRANCH  60  61
ENDBRANCH  18  60
BRANCH  14  65
ATOM     65  C   UNK d   0     -37.071  -2.456  12.692  0.00  0.00     0.052 C 
BRANCH  65  66
ATOM     66  C   UNK d   0     -36.714  -1.845  14.000  0.00  0.00     0.115 C 
BRANCH  66  67
ATOM     67  C   UNK d   0     -35.360  -1.914  14.473  0.00  0.00     0.139 C 
ATOM     68  O   UNK d   0     -34.618  -0.869  14.364  0.00  0.00    -0.650 OA
BRANCH  67  69
ATOM     69  O   UNK d   0     -34.714  -3.004  15.056  0.00  0.00    -0.776 OA
ATOM     70  H   UNK d   0     -33.689  -2.931  15.128  0.00  0.00     0.167 HD
ENDBRANCH  67  69
ENDBRANCH  66  67
ENDBRANCH  65  66
ENDBRANCH  14  65
ENDBRANCH   6   7
ENDBRANCH   5   6
ENDBRANCH   2   5
TORSDOF 28
ENDMDL
MODEL 4
REMARK VINA RESULT:      -7.5      4.700     11.435
REMARK  28 active torsions:
REMARK  status: ('A' for Active; 'I' for Inactive)
REMARK    1  A    between atoms: C_2  and  O_3 
REMARK    2  A    between atoms: C_2  and  C_4 
REMARK    3  A    between atoms: C_4  and  C_5 
REMARK    4  A    between atoms: C_5  and  C_6 
REMARK    5  A    between atoms: C_7  and  C_8 
REMARK    6  A    between atoms: C_8  and  C_9 
REMARK    7  A    between atoms: C_9  and  O_11 
REMARK    8  A    between atoms: C_28  and  C_29 
REMARK    9  A    between atoms: C_29  and  C_30 
REMARK   10  A    between atoms: C_30  and  O_32 
REMARK   11  A    between atoms: C_33  and  C_34 
REMARK   12  A    between atoms: C_34  and  C_35 
REMARK   13  A    between atoms: C_35  and  C_36 
REMARK   14  A    between atoms: C_36  and  O_38 
REMARK   15  A    between atoms: C_39  and  C_40 
REMARK   16  A    between atoms: C_40  and  C_41 
REMARK   17  A    between atoms: C_41  and  C_42 
REMARK   18  A    between atoms: C_42  and  O_44 
REMARK   19  A    between atoms: C_45  and  C_46 
REMARK   20  A    between atoms: C_46  and  C_47 
REMARK   21  A    between atoms: C_47  and  O_49 
REMARK   22  A    between atoms: C_50  and  C_51 
REMARK   23  A    between atoms: C_51  and  C_52 
REMARK   24  A    between atoms: C_52  and  O_54 
REMARK   25  A    between atoms: C_55  and  C_56 
REMARK   26  A    between atoms: C_56  and  C_57 
REMARK   27  A    between atoms: C_57  and  C_58 
REMARK   28  A    between atoms: C_58  and  O_60 
ROOT
ATOM      1  O   UNK d   0     -21.955   3.868   5.122  0.00  0.00    -0.650 OA
ATOM      2  C   UNK d   0     -22.369   3.234   4.126  0.00  0.00     0.139 C 
ENDROOT
BRANCH   2   3
ATOM      3  O   UNK d   0     -22.259   1.864   4.107  0.00  0.00    -0.776 OA
ATOM      4  H   UNK d   0     -21.447   1.394   4.514  0.00  0.00     0.167 HD
ENDBRANCH   2   3
BRANCH   2   5
ATOM      5  C   UNK d   0     -22.973   3.960   2.974  0.00  0.00     0.115 C 
BRANCH   5   6
ATOM      6  C   UNK d   0     -23.632   2.986   2.035  0.00  0.00     0.052 C 
BRANCH   6   7
ATOM      7  C   UNK d   0     -25.133   2.953   2.192  0.00  0.00    -0.020 A 
ATOM      8  C   UNK d   0     -26.022   3.631   1.513  0.00  0.00    -0.011 A 
ATOM      9  C   UNK d   0     -27.337   3.278   2.023  0.00  0.00     0.067 A 
ATOM     10  C   UNK d   0     -28.664   3.621   1.724  0.00  0.00     0.062 C 
ATOM     11  N   UNK d   0     -27.154   2.382   3.015  0.00  0.00    -0.248 NA
ATOM     12  C   UNK d   0     -29.825   2.962   2.143  0.00  0.00     0.041 A 
ATOM     13  N   UNK d   0     -30.169   2.446   3.339  0.00  0.00    -0.355 N 
ATOM     14  C   UNK d   0     -30.838   2.703   1.202  0.00  0.00    -0.022 A 
ATOM     15  C   UNK d   0     -31.370   1.860   3.179  0.00  0.00     0.042 A 
ATOM     16  H   UNK d   0     -29.583   2.512   4.282  0.00  0.00     0.166 HD
ATOM     17  C   UNK d   0     -32.183   1.176   4.104  0.00  0.00     0.062 C 
ATOM     18  C   UNK d   0     -31.822   2.000   1.852  0.00  0.00    -0.013 A 
ATOM     19  C   UNK d   0     -31.827   0.231   5.032  0.00  0.00     0.067 A 
ATOM     20  N   UNK d   0     -30.520   0.058   5.247  0.00  0.00    -0.248 NA
ATOM     21  C   UNK d   0     -32.529  -0.705   5.894  0.00  0.00    -0.011 A 
ATOM     22  C   UNK d   0     -30.317  -0.924   6.185  0.00  0.00     0.066 A 
ATOM     23  C   UNK d   0     -29.000  -1.182   6.533  0.00  0.00     0.062 C 
ATOM     24  C   UNK d   0     -31.641  -1.381   6.563  0.00  0.00    -0.020 A 
ATOM     25  C   UNK d   0     -27.849  -0.499   6.111  0.00  0.00     0.041 A 
ATOM     26  N   UNK d   0     -27.500   0.000   4.919  0.00  0.00    -0.355 N 
ATOM     27  C   UNK d   0     -26.834  -0.236   7.057  0.00  0.00    -0.022 A 
ATOM     28  C   UNK d   0     -26.298   0.578   5.074  0.00  0.00     0.042 A 
ATOM     29  H   UNK d   0     -28.086  -0.076   3.970  0.00  0.00     0.166 HD
ATOM     30  C   UNK d   0     -25.474   1.254   4.160  0.00  0.00     0.062 C 
ATOM     31  C   UNK d   0     -25.850   0.445   6.409  0.00  0.00    -0.013 A 
ATOM     32  C   UNK d   0     -25.850   2.144   3.167  0.00  0.00     0.066 A 
BRANCH   8  33
ATOM     33  C   UNK d   0     -25.760   4.592   0.425  0.00  0.00     0.151 C 
BRANCH  33  34
ATOM     34  C   UNK d   0     -26.215   4.104  -0.889  0.00  0.00     0.143 C 
ATOM     35  O   UNK d   0     -26.368   4.884  -1.840  0.00  0.00    -0.650 OA
BRANCH  34  36
ATOM     36  O   UNK d   0     -26.474   2.763  -1.059  0.00  0.00    -0.776 OA
ATOM     37  H   UNK d   0     -27.438   2.410  -1.131  0.00  0.00     0.167 HD
ENDBRANCH  34  36
ENDBRANCH  33  34
ENDBRANCH   8  33
BRANCH  31  38
ATOM     38  C   UNK d   0     -24.566   0.953   7.023  0.00  0.00     0.151 C 
BRANCH  38  39
ATOM     39  C   UNK d   0     -24.620   2.361   7.354  0.00  0.00     0.143 C 
ATOM     40  O   UNK d   0     -25.693   2.954   7.567  0.00  0.00    -0.650 OA
BRANCH  39  41
ATOM     41  O   UNK d   0     -23.436   3.092   7.443  0.00  0.00    -0.776 OA
ATOM     42  H   UNK d   0     -23.444   3.911   8.058  0.00  0.00     0.167 HD
ENDBRANCH  39  41
ENDBRANCH  38  39
ENDBRANCH  31  38
BRANCH  27  43
ATOM     43  C   UNK d   0     -26.768  -0.603   8.518  0.00  0.00     0.052 C 
BRANCH  43  44
ATOM     44  C   UNK d   0     -26.254  -1.985   8.758  0.00  0.00     0.115 C 
BRANCH  44  45
ATOM     45  C   UNK d   0     -24.809  -1.851   9.077  0.00  0.00     0.139 C 
ATOM     46  O   UNK d   0     -23.976  -2.271   8.236  0.00  0.00    -0.650 OA
BRANCH  45  47
ATOM     47  O   UNK d   0     -24.351  -1.284  10.246  0.00  0.00    -0.776 OA
ATOM     48  H   UNK d   0     -23.753  -0.443  10.264  0.00  0.00     0.167 HD
ENDBRANCH  45  47
ENDBRANCH  44  45
ENDBRANCH  43  44
ENDBRANCH  27  43
BRANCH  24  49
ATOM     49  C   UNK d   0     -31.917  -2.410   7.579  0.00  0.00     0.052 C 
BRANCH  49  50
ATOM     50  C   UNK d   0     -31.761  -3.787   6.987  0.00  0.00     0.115 C 
BRANCH  50  51
ATOM     51  C   UNK d   0     -30.742  -4.650   7.570  0.00  0.00     0.139 C 
ATOM     52  O   UNK d   0     -31.018  -5.595   8.346  0.00  0.00    -0.650 OA
BRANCH  51  53
ATOM     53  O   UNK d   0     -29.406  -4.434   7.269  0.00  0.00    -0.776 OA
ATOM     54  H   UNK d   0     -28.946  -5.082   6.654  0.00  0.00     0.167 HD
ENDBRANCH  51  53
ENDBRANCH  50  51
ENDBRANCH  49  50
ENDBRANCH  24  49
BRANCH  21  55
ATOM     55  C   UNK d   0     -34.016  -0.823   5.961  0.00  0.00     0.151 C 
BRANCH  55  56
ATOM     56  C   UNK d   0     -34.557  -1.622   4.851  0.00  0.00     0.143 C 
ATOM     57  O   UNK d   0     -35.077  -1.108   3.840  0.00  0.00    -0.650 OA
BRANCH  56  58
ATOM     58  O   UNK d   0     -34.476  -3.010   4.950  0.00  0.00    -0.776 OA
ATOM     59  H   UNK d   0     -35.374  -3.486   5.151  0.00  0.00     0.167 HD
ENDBRANCH  56  58
ENDBRANCH  55  56
ENDBRANCH  21  55
BRANCH  18  60
ATOM     60  C   UNK d   0     -33.097   1.508   1.214  0.00  0.00     0.151 C 
BRANCH  60  61
ATOM     61  C   UNK d   0     -34.035   2.640   1.259  0.00  0.00     0.143 C 
ATOM     62  O   UNK d   0     -34.137   3.484   2.150  0.00  0.00    -0.650 OA
BRANCH  61  63
ATOM     63  O   UNK d   0     -34.903   2.748   0.146  0.00  0.00    -0.776 OA
ATOM     64  H   UNK d   0     -35.314   3.630  -0.107  0.00  0.00     0.167 HD
ENDBRANCH  61  63
ENDBRANCH  60  61
ENDBRANCH  18  60
BRANCH  14  65
ATOM     65  C   UNK d   0     -30.990   3.151  -0.224  0.00  0.00     0.052 C 
BRANCH  65  66
ATOM     66  C   UNK d   0     -30.839   2.039  -1.201  0.00  0.00     0.115 C 
BRANCH  66  67
ATOM     67  C   UNK d   0     -29.527   1.580  -1.559  0.00  0.00     0.139 C 
ATOM     68  O   UNK d   0     -28.816   0.994  -0.662  0.00  0.00    -0.650 OA
BRANCH  67  69
ATOM     69  O   UNK d   0     -28.893   1.687  -2.797  0.00  0.00    -0.776 OA
ATOM     70  H   UNK d   0     -28.895   2.626  -3.221  0.00  0.00     0.167 HD
ENDBRANCH  67  69
ENDBRANCH  66  67
ENDBRANCH  65  66
ENDBRANCH  14  65
ENDBRANCH   6   7
ENDBRANCH   5   6
ENDBRANCH   2   5
TORSDOF 28
ENDMDL
MODEL 5
REMARK VINA RESULT:      -7.4     20.574     25.277
REMARK  28 active torsions:
REMARK  status: ('A' for Active; 'I' for Inactive)
REMARK    1  A    between atoms: C_2  and  O_3 
REMARK    2  A    between atoms: C_2  and  C_4 
REMARK    3  A    between atoms: C_4  and  C_5 
REMARK    4  A    between atoms: C_5  and  C_6 
REMARK    5  A    between atoms: C_7  and  C_8 
REMARK    6  A    between atoms: C_8  and  C_9 
REMARK    7  A    between atoms: C_9  and  O_11 
REMARK    8  A    between atoms: C_28  and  C_29 
REMARK    9  A    between atoms: C_29  and  C_30 
REMARK   10  A    between atoms: C_30  and  O_32 
REMARK   11  A    between atoms: C_33  and  C_34 
REMARK   12  A    between atoms: C_34  and  C_35 
REMARK   13  A    between atoms: C_35  and  C_36 
REMARK   14  A    between atoms: C_36  and  O_38 
REMARK   15  A    between atoms: C_39  and  C_40 
REMARK   16  A    between atoms: C_40  and  C_41 
REMARK   17  A    between atoms: C_41  and  C_42 
REMARK   18  A    between atoms: C_42  and  O_44 
REMARK   19  A    between atoms: C_45  and  C_46 
REMARK   20  A    between atoms: C_46  and  C_47 
REMARK   21  A    between atoms: C_47  and  O_49 
REMARK   22  A    between atoms: C_50  and  C_51 
REMARK   23  A    between atoms: C_51  and  C_52 
REMARK   24  A    between atoms: C_52  and  O_54 
REMARK   25  A    between atoms: C_55  and  C_56 
REMARK   26  A    between atoms: C_56  and  C_57 
REMARK   27  A    between atoms: C_57  and  C_58 
REMARK   28  A    between atoms: C_58  and  O_60 
ROOT
ATOM      1  O   UNK d   0     -15.545   9.716   8.568  0.00  0.00    -0.650 OA
ATOM      2  C   UNK d   0     -16.288   9.421   9.531  0.00  0.00     0.139 C 
ENDROOT
BRANCH   2   3
ATOM      3  O   UNK d   0     -16.641  10.396  10.432  0.00  0.00    -0.776 OA
ATOM      4  H   UNK d   0     -17.173  11.218  10.139  0.00  0.00     0.167 HD
ENDBRANCH   2   3
BRANCH   2   5
ATOM      5  C   UNK d   0     -16.781   8.024   9.694  0.00  0.00     0.115 C 
BRANCH   5   6
ATOM      6  C   UNK d   0     -15.791   7.054   9.108  0.00  0.00     0.052 C 
BRANCH   6   7
ATOM      7  C   UNK d   0     -15.095   6.226  10.162  0.00  0.00    -0.020 A 
ATOM      8  C   UNK d   0     -15.388   5.009  10.543  0.00  0.00    -0.011 A 
ATOM      9  C   UNK d   0     -14.450   4.631  11.587  0.00  0.00     0.067 A 
ATOM     10  C   UNK d   0     -14.214   3.492  12.373  0.00  0.00     0.062 C 
ATOM     11  N   UNK d   0     -13.625   5.681  11.783  0.00  0.00    -0.248 NA
ATOM     12  C   UNK d   0     -13.078   3.213  13.140  0.00  0.00     0.041 A 
ATOM     13  N   UNK d   0     -12.345   3.995  13.955  0.00  0.00    -0.355 N 
ATOM     14  C   UNK d   0     -12.505   1.931  13.065  0.00  0.00    -0.022 A 
ATOM     15  C   UNK d   0     -11.317   3.244  14.393  0.00  0.00     0.042 A 
ATOM     16  H   UNK d   0     -12.561   5.051  14.230  0.00  0.00     0.166 HD
ATOM     17  C   UNK d   0     -10.257   3.566  15.264  0.00  0.00     0.062 C 
ATOM     18  C   UNK d   0     -11.383   1.944  13.856  0.00  0.00    -0.013 A 
ATOM     19  C   UNK d   0      -9.470   4.689  15.287  0.00  0.00     0.067 A 
ATOM     20  N   UNK d   0      -9.858   5.715  14.525  0.00  0.00    -0.248 NA
ATOM     21  C   UNK d   0      -8.239   5.089  15.948  0.00  0.00    -0.011 A 
ATOM     22  C   UNK d   0      -8.970   6.756  14.639  0.00  0.00     0.066 A 
ATOM     23  C   UNK d   0      -9.273   7.906  13.926  0.00  0.00     0.062 C 
ATOM     24  C   UNK d   0      -7.949   6.298  15.562  0.00  0.00    -0.020 A 
ATOM     25  C   UNK d   0     -10.426   8.172  13.171  0.00  0.00     0.041 A 
ATOM     26  N   UNK d   0     -11.147   7.399  12.350  0.00  0.00    -0.355 N 
ATOM     27  C   UNK d   0     -11.004   9.458  13.250  0.00  0.00    -0.022 A 
ATOM     28  C   UNK d   0     -12.168   8.148  11.905  0.00  0.00     0.042 A 
ATOM     29  H   UNK d   0     -10.923   6.341  12.066  0.00  0.00     0.166 HD
ATOM     30  C   UNK d   0     -13.224   7.844  11.031  0.00  0.00     0.062 C 
ATOM     31  C   UNK d   0     -12.107   9.451  12.453  0.00  0.00    -0.013 A 
ATOM     32  C   UNK d   0     -13.960   6.672  10.956  0.00  0.00     0.066 A 
BRANCH   8  33
ATOM     33  C   UNK d   0     -16.474   4.156  10.023  0.00  0.00     0.151 C 
BRANCH  33  34
ATOM     34  C   UNK d   0     -16.004   3.179   9.025  0.00  0.00     0.143 C 
ATOM     35  O   UNK d   0     -16.695   2.896   8.036  0.00  0.00    -0.650 OA
BRANCH  34  36
ATOM     36  O   UNK d   0     -14.781   2.573   9.197  0.00  0.00    -0.776 OA
ATOM     37  H   UNK d   0     -14.666   1.773   9.834  0.00  0.00     0.167 HD
ENDBRANCH  34  36
ENDBRANCH  33  34
ENDBRANCH   8  33
BRANCH  31  38
ATOM     38  C   UNK d   0     -13.054  10.607  12.232  0.00  0.00     0.151 C 
BRANCH  38  39
ATOM     39  C   UNK d   0     -12.642  11.472  11.147  0.00  0.00     0.143 C 
ATOM     40  O   UNK d   0     -12.904  11.218   9.958  0.00  0.00    -0.650 OA
BRANCH  39  41
ATOM     41  O   UNK d   0     -11.927  12.635  11.430  0.00  0.00    -0.776 OA
ATOM     42  H   UNK d   0     -11.547  13.150  10.630  0.00  0.00     0.167 HD
ENDBRANCH  39  41
ENDBRANCH  38  39
ENDBRANCH  31  38
BRANCH  27  43
ATOM     43  C   UNK d   0     -10.554  10.664  14.037  0.00  0.00     0.052 C 
BRANCH  43  44
ATOM     44  C   UNK d   0      -9.083  10.911  13.948  0.00  0.00     0.115 C 
BRANCH  44  45
ATOM     45  C   UNK d   0      -8.905  12.383  13.847  0.00  0.00     0.139 C 
ATOM     46  O   UNK d   0      -8.324  12.976  14.790  0.00  0.00    -0.650 OA
BRANCH  45  47
ATOM     47  O   UNK d   0      -9.345  13.117  12.766  0.00  0.00    -0.776 OA
ATOM     48  H   UNK d   0     -10.345  13.299  12.582  0.00  0.00     0.167 HD
ENDBRANCH  45  47
ENDBRANCH  44  45
ENDBRANCH  43  44
ENDBRANCH  27  43
BRANCH  24  49
ATOM     49  C   UNK d   0      -6.804   7.104  16.016  0.00  0.00     0.052 C 
BRANCH  49  50
ATOM     50  C   UNK d   0      -7.271   8.218  16.918  0.00  0.00     0.115 C 
BRANCH  50  51
ATOM     51  C   UNK d   0      -7.516   7.885  18.315  0.00  0.00     0.139 C 
ATOM     52  O   UNK d   0      -6.621   7.437  19.070  0.00  0.00    -0.650 OA
BRANCH  51  53
ATOM     53  O   UNK d   0      -8.782   8.060  18.850  0.00  0.00    -0.776 OA
ATOM     54  H   UNK d   0      -8.864   8.531  19.734  0.00  0.00     0.167 HD
ENDBRANCH  51  53
ENDBRANCH  50  51
ENDBRANCH  49  50
ENDBRANCH  24  49
BRANCH  21  55
ATOM     55  C   UNK d   0      -7.483   4.223  16.900  0.00  0.00     0.151 C 
BRANCH  55  56
ATOM     56  C   UNK d   0      -8.063   4.252  18.252  0.00  0.00     0.143 C 
ATOM     57  O   UNK d   0      -9.070   4.928  18.540  0.00  0.00    -0.650 OA
BRANCH  56  58
ATOM     58  O   UNK d   0      -7.447   3.485  19.240  0.00  0.00    -0.776 OA
ATOM     59  H   UNK d   0      -8.078   2.842  19.750  0.00  0.00     0.167 HD
ENDBRANCH  56  58
ENDBRANCH  55  56
ENDBRANCH  21  55
BRANCH  18  60
ATOM     60  C   UNK d   0     -10.456   0.772  14.060  0.00  0.00     0.151 C 
BRANCH  60  61
ATOM     61  C   UNK d   0     -10.812   0.198  15.367  0.00  0.00     0.143 C 
ATOM     62  O   UNK d   0     -11.943  -0.053  15.784  0.00  0.00    -0.650 OA
BRANCH  61  63
ATOM     63  O   UNK d   0      -9.717  -0.089  16.218  0.00  0.00    -0.776 OA
ATOM     64  H   UNK d   0      -9.289   0.631  16.772  0.00  0.00     0.167 HD
ENDBRANCH  61  63
ENDBRANCH  60  61
ENDBRANCH  18  60
BRANCH  14  65
ATOM     65  C   UNK d   0     -12.987   0.679  12.389  0.00  0.00     0.052 C 
BRANCH  65  66
ATOM     66  C   UNK d   0     -14.172   0.077  13.055  0.00  0.00     0.115 C 
BRANCH  66  67
ATOM     67  C   UNK d   0     -15.379  -0.135  12.306  0.00  0.00     0.139 C 
ATOM     68  O   UNK d   0     -15.680   0.702  11.378  0.00  0.00    -0.650 OA
BRANCH  67  69
ATOM     69  O   UNK d   0     -16.305  -1.167  12.454  0.00  0.00    -0.776 OA
ATOM     70  H   UNK d   0     -15.930  -2.058  12.812  0.00  0.00     0.167 HD
ENDBRANCH  67  69
ENDBRANCH  66  67
ENDBRANCH  65  66
ENDBRANCH  14  65
ENDBRANCH   6   7
ENDBRANCH   5   6
ENDBRANCH   2   5
TORSDOF 28
ENDMDL
MODEL 6
REMARK VINA RESULT:      -7.3     20.086     24.080
REMARK  28 active torsions:
REMARK  status: ('A' for Active; 'I' for Inactive)
REMARK    1  A    between atoms: C_2  and  O_3 
REMARK    2  A    between atoms: C_2  and  C_4 
REMARK    3  A    between atoms: C_4  and  C_5 
REMARK    4  A    between atoms: C_5  and  C_6 
REMARK    5  A    between atoms: C_7  and  C_8 
REMARK    6  A    between atoms: C_8  and  C_9 
REMARK    7  A    between atoms: C_9  and  O_11 
REMARK    8  A    between atoms: C_28  and  C_29 
REMARK    9  A    between atoms: C_29  and  C_30 
REMARK   10  A    between atoms: C_30  and  O_32 
REMARK   11  A    between atoms: C_33  and  C_34 
REMARK   12  A    between atoms: C_34  and  C_35 
REMARK   13  A    between atoms: C_35  and  C_36 
REMARK   14  A    between atoms: C_36  and  O_38 
REMARK   15  A    between atoms: C_39  and  C_40 
REMARK   16  A    between atoms: C_40  and  C_41 
REMARK   17  A    between atoms: C_41  and  C_42 
REMARK   18  A    between atoms: C_42  and  O_44 
REMARK   19  A    between atoms: C_45  and  C_46 
REMARK   20  A    between atoms: C_46  and  C_47 
REMARK   21  A    between atoms: C_47  and  O_49 
REMARK   22  A    between atoms: C_50  and  C_51 
REMARK   23  A    between atoms: C_51  and  C_52 
REMARK   24  A    between atoms: C_52  and  O_54 
REMARK   25  A    between atoms: C_55  and  C_56 
REMARK   26  A    between atoms: C_56  and  C_57 
REMARK   27  A    between atoms: C_57  and  C_58 
REMARK   28  A    between atoms: C_58  and  O_60 
ROOT
ATOM      1  O   UNK d   0     -11.447  -0.407  17.917  0.00  0.00    -0.650 OA
ATOM      2  C   UNK d   0     -10.709   0.192  17.103  0.00  0.00     0.139 C 
ENDROOT
BRANCH   2   3
ATOM      3  O   UNK d   0      -9.716  -0.503  16.456  0.00  0.00    -0.776 OA
ATOM      4  H   UNK d   0      -8.974  -0.014  15.951  0.00  0.00     0.167 HD
ENDBRANCH   2   3
BRANCH   2   5
ATOM      5  C   UNK d   0     -10.910   1.646  16.842  0.00  0.00     0.115 C 
BRANCH   5   6
ATOM      6  C   UNK d   0      -9.986   2.107  15.747  0.00  0.00     0.052 C 
BRANCH   6   7
ATOM      7  C   UNK d   0     -10.728   2.689  14.568  0.00  0.00    -0.020 A 
ATOM      8  C   UNK d   0     -11.380   2.042  13.636  0.00  0.00    -0.011 A 
ATOM      9  C   UNK d   0     -11.921   3.022  12.709  0.00  0.00     0.067 A 
ATOM     10  C   UNK d   0     -12.708   2.990  11.547  0.00  0.00     0.062 C 
ATOM     11  N   UNK d   0     -11.545   4.241  13.150  0.00  0.00    -0.248 NA
ATOM     12  C   UNK d   0     -13.367   4.065  10.941  0.00  0.00     0.041 A 
ATOM     13  N   UNK d   0     -12.969   5.329  10.702  0.00  0.00    -0.355 N 
ATOM     14  C   UNK d   0     -14.701   3.898  10.525  0.00  0.00    -0.022 A 
ATOM     15  C   UNK d   0     -14.018   5.971  10.154  0.00  0.00     0.042 A 
ATOM     16  H   UNK d   0     -11.960   5.753  10.900  0.00  0.00     0.166 HD
ATOM     17  C   UNK d   0     -14.144   7.303   9.714  0.00  0.00     0.062 C 
ATOM     18  C   UNK d   0     -15.122   5.106  10.027  0.00  0.00    -0.013 A 
ATOM     19  C   UNK d   0     -13.738   8.458  10.333  0.00  0.00     0.067 A 
ATOM     20  N   UNK d   0     -12.942   8.326  11.397  0.00  0.00    -0.248 NA
ATOM     21  C   UNK d   0     -13.964   9.881  10.141  0.00  0.00    -0.011 A 
ATOM     22  C   UNK d   0     -12.632   9.559  11.916  0.00  0.00     0.066 A 
ATOM     23  C   UNK d   0     -11.777   9.571  13.008  0.00  0.00     0.062 C 
ATOM     24  C   UNK d   0     -13.317  10.520  11.074  0.00  0.00    -0.020 A 
ATOM     25  C   UNK d   0     -11.115   8.481  13.595  0.00  0.00     0.041 A 
ATOM     26  N   UNK d   0     -11.516   7.229  13.845  0.00  0.00    -0.355 N 
ATOM     27  C   UNK d   0      -9.775   8.648  14.007  0.00  0.00    -0.022 A 
ATOM     28  C   UNK d   0     -10.475   6.589  14.400  0.00  0.00     0.042 A 
ATOM     29  H   UNK d   0     -12.534   6.807  13.656  0.00  0.00     0.166 HD
ATOM     30  C   UNK d   0     -10.338   5.267  14.851  0.00  0.00     0.062 C 
ATOM     31  C   UNK d   0      -9.362   7.455  14.517  0.00  0.00    -0.013 A 
ATOM     32  C   UNK d   0     -10.825   4.109  14.265  0.00  0.00     0.066 A 
BRANCH   8  33
ATOM     33  C   UNK d   0     -11.546   0.581  13.524  0.00  0.00     0.151 C 
BRANCH  33  34
ATOM     34  C   UNK d   0     -10.479  -0.055  12.730  0.00  0.00     0.143 C 
ATOM     35  O   UNK d   0     -10.407   0.121  11.505  0.00  0.00    -0.650 OA
BRANCH  34  36
ATOM     36  O   UNK d   0      -9.553  -0.854  13.359  0.00  0.00    -0.776 OA
ATOM     37  H   UNK d   0      -9.727  -1.236  14.299  0.00  0.00     0.167 HD
ENDBRANCH  34  36
ENDBRANCH  33  34
ENDBRANCH   8  33
BRANCH  31  38
ATOM     38  C   UNK d   0      -7.990   7.150  15.071  0.00  0.00     0.151 C 
BRANCH  38  39
ATOM     39  C   UNK d   0      -7.891   7.396  16.494  0.00  0.00     0.143 C 
ATOM     40  O   UNK d   0      -8.146   6.521  17.340  0.00  0.00    -0.650 OA
BRANCH  39  41
ATOM     41  O   UNK d   0      -7.496   8.655  16.947  0.00  0.00    -0.776 OA
ATOM     42  H   UNK d   0      -7.314   9.366  16.232  0.00  0.00     0.167 HD
ENDBRANCH  39  41
ENDBRANCH  38  39
ENDBRANCH  31  38
BRANCH  27  43
ATOM     43  C   UNK d   0      -8.896   9.871  13.937  0.00  0.00     0.052 C 
BRANCH  43  44
ATOM     44  C   UNK d   0      -9.666  11.152  13.921  0.00  0.00     0.115 C 
BRANCH  44  45
ATOM     45  C   UNK d   0      -8.664  12.249  13.960  0.00  0.00     0.139 C 
ATOM     46  O   UNK d   0      -8.124  12.519  15.061  0.00  0.00    -0.650 OA
BRANCH  45  47
ATOM     47  O   UNK d   0      -8.306  12.973  12.843  0.00  0.00    -0.776 OA
ATOM     48  H   UNK d   0      -8.439  13.994  12.770  0.00  0.00     0.167 HD
ENDBRANCH  45  47
ENDBRANCH  44  45
ENDBRANCH  43  44
ENDBRANCH  27  43
BRANCH  24  49
ATOM     49  C   UNK d   0     -13.241  11.982  11.232  0.00  0.00     0.052 C 
BRANCH  49  50
ATOM     50  C   UNK d   0     -12.302  12.571  10.211  0.00  0.00     0.115 C 
BRANCH  50  51
ATOM     51  C   UNK d   0     -11.561  13.764  10.599  0.00  0.00     0.139 C 
ATOM     52  O   UNK d   0     -10.713  13.763  11.523  0.00  0.00    -0.650 OA
BRANCH  51  53
ATOM     53  O   UNK d   0     -11.789  14.960   9.936  0.00  0.00    -0.776 OA
ATOM     54  H   UNK d   0     -11.633  15.818  10.435  0.00  0.00     0.167 HD
ENDBRANCH  51  53
ENDBRANCH  50  51
ENDBRANCH  49  50
ENDBRANCH  24  49
BRANCH  21  55
ATOM     55  C   UNK d   0     -14.798  10.454   9.044  0.00  0.00     0.151 C 
BRANCH  55  56
ATOM     56  C   UNK d   0     -16.209  10.053   9.157  0.00  0.00     0.143 C 
ATOM     57  O   UNK d   0     -17.000  10.588   9.959  0.00  0.00    -0.650 OA
BRANCH  56  58
ATOM     58  O   UNK d   0     -16.662   9.031   8.325  0.00  0.00    -0.776 OA
ATOM     59  H   UNK d   0     -17.277   9.340   7.551  0.00  0.00     0.167 HD
ENDBRANCH  56  58
ENDBRANCH  55  56
ENDBRANCH  21  55
BRANCH  18  60
ATOM     60  C   UNK d   0     -16.500   5.382   9.477  0.00  0.00     0.151 C 
BRANCH  60  61
ATOM     61  C   UNK d   0     -17.292   5.888  10.608  0.00  0.00     0.143 C 
ATOM     62  O   UNK d   0     -17.701   5.245  11.575  0.00  0.00    -0.650 OA
BRANCH  61  63
ATOM     63  O   UNK d   0     -17.605   7.268  10.554  0.00  0.00    -0.776 OA
ATOM     64  H   UNK d   0     -17.663   7.752   9.675  0.00  0.00     0.167 HD
ENDBRANCH  61  63
ENDBRANCH  60  61
ENDBRANCH  18  60
BRANCH  14  65
ATOM     65  C   UNK d   0     -15.566   2.671  10.473  0.00  0.00     0.052 C 
BRANCH  65  66
ATOM     66  C   UNK d   0     -15.938   2.164  11.821  0.00  0.00     0.115 C 
BRANCH  66  67
ATOM     67  C   UNK d   0     -15.640   0.805  12.177  0.00  0.00     0.139 C 
ATOM     68  O   UNK d   0     -15.098   0.575  13.320  0.00  0.00    -0.650 OA
BRANCH  67  69
ATOM     69  O   UNK d   0     -15.867  -0.344  11.421  0.00  0.00    -0.776 OA
ATOM     70  H   UNK d   0     -16.501  -0.234  10.617  0.00  0.00     0.167 HD
ENDBRANCH  67  69
ENDBRANCH  66  67
ENDBRANCH  65  66
ENDBRANCH  14  65
ENDBRANCH   6   7
ENDBRANCH   5   6
ENDBRANCH   2   5
TORSDOF 28
ENDMDL
MODEL 7
REMARK VINA RESULT:      -7.2      5.115     11.773
REMARK  28 active torsions:
REMARK  status: ('A' for Active; 'I' for Inactive)
REMARK    1  A    between atoms: C_2  and  O_3 
REMARK    2  A    between atoms: C_2  and  C_4 
REMARK    3  A    between atoms: C_4  and  C_5 
REMARK    4  A    between atoms: C_5  and  C_6 
REMARK    5  A    between atoms: C_7  and  C_8 
REMARK    6  A    between atoms: C_8  and  C_9 
REMARK    7  A    between atoms: C_9  and  O_11 
REMARK    8  A    between atoms: C_28  and  C_29 
REMARK    9  A    between atoms: C_29  and  C_30 
REMARK   10  A    between atoms: C_30  and  O_32 
REMARK   11  A    between atoms: C_33  and  C_34 
REMARK   12  A    between atoms: C_34  and  C_35 
REMARK   13  A    between atoms: C_35  and  C_36 
REMARK   14  A    between atoms: C_36  and  O_38 
REMARK   15  A    between atoms: C_39  and  C_40 
REMARK   16  A    between atoms: C_40  and  C_41 
REMARK   17  A    between atoms: C_41  and  C_42 
REMARK   18  A    between atoms: C_42  and  O_44 
REMARK   19  A    between atoms: C_45  and  C_46 
REMARK   20  A    between atoms: C_46  and  C_47 
REMARK   21  A    between atoms: C_47  and  O_49 
REMARK   22  A    between atoms: C_50  and  C_51 
REMARK   23  A    between atoms: C_51  and  C_52 
REMARK   24  A    between atoms: C_52  and  O_54 
REMARK   25  A    between atoms: C_55  and  C_56 
REMARK   26  A    between atoms: C_56  and  C_57 
REMARK   27  A    between atoms: C_57  and  C_58 
REMARK   28  A    between atoms: C_58  and  O_60 
ROOT
ATOM      1  O   UNK d   0     -27.371   4.812  -2.012  0.00  0.00    -0.650 OA
ATOM      2  C   UNK d   0     -26.611   3.912  -1.591  0.00  0.00     0.139 C 
ENDROOT
BRANCH   2   3
ATOM      3  O   UNK d   0     -26.895   2.599  -1.882  0.00  0.00    -0.776 OA
ATOM      4  H   UNK d   0     -27.797   2.187  -1.634  0.00  0.00     0.167 HD
ENDBRANCH   2   3
BRANCH   2   5
ATOM      5  C   UNK d   0     -25.410   4.264  -0.782  0.00  0.00     0.115 C 
BRANCH   5   6
ATOM      6  C   UNK d   0     -25.825   4.701   0.597  0.00  0.00     0.052 C 
BRANCH   6   7
ATOM      7  C   UNK d   0     -26.243   3.543   1.472  0.00  0.00    -0.020 A 
ATOM      8  C   UNK d   0     -25.469   2.727   2.140  0.00  0.00    -0.011 A 
ATOM      9  C   UNK d   0     -26.319   1.770   2.827  0.00  0.00     0.067 A 
ATOM     10  C   UNK d   0     -26.126   0.684   3.696  0.00  0.00     0.062 C 
ATOM     11  N   UNK d   0     -27.597   2.074   2.517  0.00  0.00    -0.248 NA
ATOM     12  C   UNK d   0     -27.090   0.047   4.484  0.00  0.00     0.041 A 
ATOM     13  N   UNK d   0     -28.354  -0.328   4.208  0.00  0.00    -0.355 N 
ATOM     14  C   UNK d   0     -26.790  -0.240   5.828  0.00  0.00    -0.022 A 
ATOM     15  C   UNK d   0     -28.865  -0.838   5.344  0.00  0.00     0.042 A 
ATOM     16  H   UNK d   0     -28.867  -0.251   3.224  0.00  0.00     0.166 HD
ATOM     17  C   UNK d   0     -30.140  -1.375   5.611  0.00  0.00     0.062 C 
ATOM     18  C   UNK d   0     -27.914  -0.799   6.382  0.00  0.00    -0.013 A 
ATOM     19  C   UNK d   0     -31.372  -0.891   5.252  0.00  0.00     0.067 A 
ATOM     20  N   UNK d   0     -31.395   0.110   4.369  0.00  0.00    -0.248 NA
ATOM     21  C   UNK d   0     -32.752  -1.181   5.606  0.00  0.00    -0.011 A 
ATOM     22  C   UNK d   0     -32.689   0.497   4.120  0.00  0.00     0.066 A 
ATOM     23  C   UNK d   0     -32.862   1.509   3.187  0.00  0.00     0.062 C 
ATOM     24  C   UNK d   0     -33.517  -0.363   4.943  0.00  0.00    -0.020 A 
ATOM     25  C   UNK d   0     -31.880   2.126   2.397  0.00  0.00     0.041 A 
ATOM     26  N   UNK d   0     -30.630   2.513   2.676  0.00  0.00    -0.355 N 
ATOM     27  C   UNK d   0     -32.181   2.410   1.047  0.00  0.00    -0.022 A 
ATOM     28  C   UNK d   0     -30.120   3.030   1.547  0.00  0.00     0.042 A 
ATOM     29  H   UNK d   0     -30.119   2.445   3.668  0.00  0.00     0.166 HD
ATOM     30  C   UNK d   0     -28.857   3.577   1.269  0.00  0.00     0.062 C 
ATOM     31  C   UNK d   0     -31.073   2.981   0.501  0.00  0.00    -0.013 A 
ATOM     32  C   UNK d   0     -27.619   3.132   1.705  0.00  0.00     0.066 A 
BRANCH   8  33
ATOM     33  C   UNK d   0     -23.995   2.751   2.195  0.00  0.00     0.151 C 
BRANCH  33  34
ATOM     34  C   UNK d   0     -23.480   3.185   3.506  0.00  0.00     0.143 C 
ATOM     35  O   UNK d   0     -24.047   4.081   4.148  0.00  0.00    -0.650 OA
BRANCH  34  36
ATOM     36  O   UNK d   0     -22.354   2.586   4.021  0.00  0.00    -0.776 OA
ATOM     37  H   UNK d   0     -22.353   2.171   4.963  0.00  0.00     0.167 HD
ENDBRANCH  34  36
ENDBRANCH  33  34
ENDBRANCH   8  33
BRANCH  31  38
ATOM     38  C   UNK d   0     -30.920   3.442  -0.930  0.00  0.00     0.151 C 
BRANCH  38  39
ATOM     39  C   UNK d   0     -30.747   2.345  -1.857  0.00  0.00     0.143 C 
ATOM     40  O   UNK d   0     -29.712   1.656  -1.887  0.00  0.00    -0.650 OA
BRANCH  39  41
ATOM     41  O   UNK d   0     -31.769   2.037  -2.755  0.00  0.00    -0.776 OA
ATOM     42  H   UNK d   0     -31.991   2.745  -3.462  0.00  0.00     0.167 HD
ENDBRANCH  39  41
ENDBRANCH  38  39
ENDBRANCH  31  38
BRANCH  27  43
ATOM     43  C   UNK d   0     -33.455   2.165   0.277  0.00  0.00     0.052 C 
BRANCH  43  44
ATOM     44  C   UNK d   0     -34.303   3.387   0.134  0.00  0.00     0.115 C 
BRANCH  44  45
ATOM     45  C   UNK d   0     -35.066   3.228  -1.132  0.00  0.00     0.139 C 
ATOM     46  O   UNK d   0     -36.296   2.990  -1.055  0.00  0.00    -0.650 OA
BRANCH  45  47
ATOM     47  O   UNK d   0     -34.481   3.337  -2.375  0.00  0.00    -0.776 OA
ATOM     48  H   UNK d   0     -35.018   3.562  -3.229  0.00  0.00     0.167 HD
ENDBRANCH  45  47
ENDBRANCH  44  45
ENDBRANCH  43  44
ENDBRANCH  27  43
BRANCH  24  49
ATOM     49  C   UNK d   0     -34.990  -0.334   4.973  0.00  0.00     0.052 C 
BRANCH  49  50
ATOM     50  C   UNK d   0     -35.480   1.035   5.370  0.00  0.00     0.115 C 
BRANCH  50  51
ATOM     51  C   UNK d   0     -35.276   1.438   6.754  0.00  0.00     0.139 C 
ATOM     52  O   UNK d   0     -34.608   2.451   7.072  0.00  0.00    -0.650 OA
BRANCH  51  53
ATOM     53  O   UNK d   0     -35.831   0.686   7.778  0.00  0.00    -0.776 OA
ATOM     54  H   UNK d   0     -35.232   0.061   8.288  0.00  0.00     0.167 HD
ENDBRANCH  51  53
ENDBRANCH  50  51
ENDBRANCH  49  50
ENDBRANCH  24  49
BRANCH  21  55
ATOM     55  C   UNK d   0     -33.162  -2.249   6.565  0.00  0.00     0.151 C 
BRANCH  55  56
ATOM     56  C   UNK d   0     -32.994  -1.827   7.965  0.00  0.00     0.143 C 
ATOM     57  O   UNK d   0     -31.932  -1.993   8.597  0.00  0.00    -0.650 OA
BRANCH  56  58
ATOM     58  O   UNK d   0     -34.078  -1.217   8.593  0.00  0.00    -0.776 OA
ATOM     59  H   UNK d   0     -34.037  -1.214   9.628  0.00  0.00     0.167 HD
ENDBRANCH  56  58
ENDBRANCH  55  56
ENDBRANCH  21  55
BRANCH  18  60
ATOM     60  C   UNK d   0     -28.037  -1.254   7.815  0.00  0.00     0.151 C 
BRANCH  60  61
ATOM     61  C   UNK d   0     -28.486  -0.077   8.575  0.00  0.00     0.143 C 
ATOM     62  O   UNK d   0     -27.778   0.786   9.094  0.00  0.00    -0.650 OA
BRANCH  61  63
ATOM     63  O   UNK d   0     -29.890   0.055   8.708  0.00  0.00    -0.776 OA
ATOM     64  H   UNK d   0     -30.295   0.483   9.521  0.00  0.00     0.167 HD
ENDBRANCH  61  63
ENDBRANCH  60  61
ENDBRANCH  18  60
BRANCH  14  65
ATOM     65  C   UNK d   0     -25.503  -0.117   6.594  0.00  0.00     0.052 C 
BRANCH  65  66
ATOM     66  C   UNK d   0     -25.033   1.289   6.719  0.00  0.00     0.115 C 
BRANCH  66  67
ATOM     67  C   UNK d   0     -23.701   1.555   7.184  0.00  0.00     0.139 C 
ATOM     68  O   UNK d   0     -23.202   2.723   6.983  0.00  0.00    -0.650 OA
BRANCH  67  69
ATOM     69  O   UNK d   0     -22.840   0.684   7.851  0.00  0.00    -0.776 OA
ATOM     70  H   UNK d   0     -23.061   0.507   8.842  0.00  0.00     0.167 HD
ENDBRANCH  67  69
ENDBRANCH  66  67
ENDBRANCH  65  66
ENDBRANCH  14  65
ENDBRANCH   6   7
ENDBRANCH   5   6
ENDBRANCH   2   5
TORSDOF 28
ENDMDL
MODEL 8
REMARK VINA RESULT:      -7.2     19.591     23.110
REMARK  28 active torsions:
REMARK  status: ('A' for Active; 'I' for Inactive)
REMARK    1  A    between atoms: C_2  and  O_3 
REMARK    2  A    between atoms: C_2  and  C_4 
REMARK    3  A    between atoms: C_4  and  C_5 
REMARK    4  A    between atoms: C_5  and  C_6 
REMARK    5  A    between atoms: C_7  and  C_8 
REMARK    6  A    between atoms: C_8  and  C_9 
REMARK    7  A    between atoms: C_9  and  O_11 
REMARK    8  A    between atoms: C_28  and  C_29 
REMARK    9  A    between atoms: C_29  and  C_30 
REMARK   10  A    between atoms: C_30  and  O_32 
REMARK   11  A    between atoms: C_33  and  C_34 
REMARK   12  A    between atoms: C_34  and  C_35 
REMARK   13  A    between atoms: C_35  and  C_36 
REMARK   14  A    between atoms: C_36  and  O_38 
REMARK   15  A    between atoms: C_39  and  C_40 
REMARK   16  A    between atoms: C_40  and  C_41 
REMARK   17  A    between atoms: C_41  and  C_42 
REMARK   18  A    between atoms: C_42  and  O_44 
REMARK   19  A    between atoms: C_45  and  C_46 
REMARK   20  A    between atoms: C_46  and  C_47 
REMARK   21  A    between atoms: C_47  and  O_49 
REMARK   22  A    between atoms: C_50  and  C_51 
REMARK   23  A    between atoms: C_51  and  C_52 
REMARK   24  A    between atoms: C_52  and  O_54 
REMARK   25  A    between atoms: C_55  and  C_56 
REMARK   26  A    between atoms: C_56  and  C_57 
REMARK   27  A    between atoms: C_57  and  C_58 
REMARK   28  A    between atoms: C_58  and  O_60 
ROOT
ATOM      1  O   UNK d   0      -8.430  -0.005  22.150  0.00  0.00    -0.650 OA
ATOM      2  C   UNK d   0      -9.125   0.821  21.518  0.00  0.00     0.139 C 
ENDROOT
BRANCH   2   3
ATOM      3  O   UNK d   0     -10.445   0.991  21.858  0.00  0.00    -0.776 OA
ATOM      4  H   UNK d   0     -10.933   0.304  22.438  0.00  0.00     0.167 HD
ENDBRANCH   2   3
BRANCH   2   5
ATOM      5  C   UNK d   0      -8.523   1.610  20.406  0.00  0.00     0.115 C 
BRANCH   5   6
ATOM      6  C   UNK d   0      -8.369   0.747  19.183  0.00  0.00     0.052 C 
BRANCH   6   7
ATOM      7  C   UNK d   0      -9.621   0.705  18.340  0.00  0.00    -0.020 A 
ATOM      8  C   UNK d   0      -9.969   1.528  17.385  0.00  0.00    -0.011 A 
ATOM      9  C   UNK d   0     -11.257   1.094  16.870  0.00  0.00     0.067 A 
ATOM     10  C   UNK d   0     -12.139   1.515  15.862  0.00  0.00     0.062 C 
ATOM     11  N   UNK d   0     -11.621   0.001  17.573  0.00  0.00    -0.248 NA
ATOM     12  C   UNK d   0     -13.212   0.799  15.322  0.00  0.00     0.041 A 
ATOM     13  N   UNK d   0     -14.158   0.041  15.910  0.00  0.00    -0.355 N 
ATOM     14  C   UNK d   0     -13.375   0.767  13.925  0.00  0.00    -0.022 A 
ATOM     15  C   UNK d   0     -14.911  -0.477  14.922  0.00  0.00     0.042 A 
ATOM     16  H   UNK d   0     -14.302  -0.109  17.003  0.00  0.00     0.166 HD
ATOM     17  C   UNK d   0     -16.029  -1.333  14.979  0.00  0.00     0.062 C 
ATOM     18  C   UNK d   0     -14.451  -0.045  13.663  0.00  0.00    -0.013 A 
ATOM     19  C   UNK d   0     -16.214  -2.462  15.735  0.00  0.00     0.067 A 
ATOM     20  N   UNK d   0     -15.317  -2.698  16.697  0.00  0.00    -0.248 NA
ATOM     21  C   UNK d   0     -17.175  -3.551  15.769  0.00  0.00    -0.011 A 
ATOM     22  C   UNK d   0     -15.622  -3.864  17.356  0.00  0.00     0.066 A 
ATOM     23  C   UNK d   0     -14.790  -4.212  18.410  0.00  0.00     0.062 C 
ATOM     24  C   UNK d   0     -16.821  -4.370  16.717  0.00  0.00    -0.020 A 
ATOM     25  C   UNK d   0     -13.724  -3.472  18.945  0.00  0.00     0.041 A 
ATOM     26  N   UNK d   0     -12.775  -2.731  18.360  0.00  0.00    -0.355 N 
ATOM     27  C   UNK d   0     -13.564  -3.437  20.347  0.00  0.00    -0.022 A 
ATOM     28  C   UNK d   0     -12.017  -2.221  19.343  0.00  0.00     0.042 A 
ATOM     29  H   UNK d   0     -12.626  -2.590  17.261  0.00  0.00     0.166 HD
ATOM     30  C   UNK d   0     -10.897  -1.376  19.300  0.00  0.00     0.062 C 
ATOM     31  C   UNK d   0     -12.487  -2.647  20.608  0.00  0.00    -0.013 A 
ATOM     32  C   UNK d   0     -10.680  -0.285  18.473  0.00  0.00     0.066 A 
BRANCH   8  33
ATOM     33  C   UNK d   0      -9.210   2.698  16.905  0.00  0.00     0.151 C 
BRANCH  33  34
ATOM     34  C   UNK d   0      -9.522   3.928  17.656  0.00  0.00     0.143 C 
ATOM     35  O   UNK d   0     -10.664   4.407  17.646  0.00  0.00    -0.650 OA
BRANCH  34  36
ATOM     36  O   UNK d   0      -8.528   4.550  18.375  0.00  0.00    -0.776 OA
ATOM     37  H   UNK d   0      -8.589   4.648  19.397  0.00  0.00     0.167 HD
ENDBRANCH  34  36
ENDBRANCH  33  34
ENDBRANCH   8  33
BRANCH  31  38
ATOM     38  C   UNK d   0     -11.942  -2.305  21.975  0.00  0.00     0.151 C 
BRANCH  38  39
ATOM     39  C   UNK d   0     -10.882  -3.196  22.396  0.00  0.00     0.143 C 
ATOM     40  O   UNK d   0     -11.110  -4.288  22.946  0.00  0.00    -0.650 OA
BRANCH  39  41
ATOM     41  O   UNK d   0      -9.553  -2.830  22.184  0.00  0.00    -0.776 OA
ATOM     42  H   UNK d   0      -9.228  -2.817  21.213  0.00  0.00     0.167 HD
ENDBRANCH  39  41
ENDBRANCH  38  39
ENDBRANCH  31  38
BRANCH  27  43
ATOM     43  C   UNK d   0     -14.378  -4.113  21.422  0.00  0.00     0.052 C 
BRANCH  43  44
ATOM     44  C   UNK d   0     -15.558  -3.310  21.863  0.00  0.00     0.115 C 
BRANCH  44  45
ATOM     45  C   UNK d   0     -16.760  -4.148  21.614  0.00  0.00     0.139 C 
ATOM     46  O   UNK d   0     -17.490  -3.859  20.635  0.00  0.00    -0.650 OA
BRANCH  45  47
ATOM     47  O   UNK d   0     -17.097  -5.224  22.406  0.00  0.00    -0.776 OA
ATOM     48  H   UNK d   0     -17.976  -5.268  22.946  0.00  0.00     0.167 HD
ENDBRANCH  45  47
ENDBRANCH  44  45
ENDBRANCH  43  44
ENDBRANCH  27  43
BRANCH  24  49
ATOM     49  C   UNK d   0     -17.538  -5.591  17.123  0.00  0.00     0.052 C 
BRANCH  49  50
ATOM     50  C   UNK d   0     -16.647  -6.798  16.972  0.00  0.00     0.115 C 
BRANCH  50  51
ATOM     51  C   UNK d   0     -16.615  -7.441  15.665  0.00  0.00     0.139 C 
ATOM     52  O   UNK d   0     -15.548  -7.668  15.049  0.00  0.00    -0.650 OA
BRANCH  51  53
ATOM     53  O   UNK d   0     -17.802  -7.825  15.060  0.00  0.00    -0.776 OA
ATOM     54  H   UNK d   0     -18.044  -7.406  14.179  0.00  0.00     0.167 HD
ENDBRANCH  51  53
ENDBRANCH  50  51
ENDBRANCH  49  50
ENDBRANCH  24  49
BRANCH  21  55
ATOM     55  C   UNK d   0     -18.349  -3.657  14.854  0.00  0.00     0.151 C 
BRANCH  55  56
ATOM     56  C   UNK d   0     -18.154  -4.689  13.824  0.00  0.00     0.143 C 
ATOM     57  O   UNK d   0     -19.036  -5.516  13.521  0.00  0.00    -0.650 OA
BRANCH  56  58
ATOM     58  O   UNK d   0     -16.924  -4.727  13.168  0.00  0.00    -0.776 OA
ATOM     59  H   UNK d   0     -16.977  -4.927  12.153  0.00  0.00     0.167 HD
ENDBRANCH  56  58
ENDBRANCH  55  56
ENDBRANCH  21  55
BRANCH  18  60
ATOM     60  C   UNK d   0     -14.975  -0.367  12.286  0.00  0.00     0.151 C 
BRANCH  60  61
ATOM     61  C   UNK d   0     -15.880   0.737  11.930  0.00  0.00     0.143 C 
ATOM     62  O   UNK d   0     -16.916   1.064  12.511  0.00  0.00    -0.650 OA
BRANCH  61  63
ATOM     63  O   UNK d   0     -15.496   1.489  10.794  0.00  0.00    -0.776 OA
ATOM     64  H   UNK d   0     -15.408   2.488  10.839  0.00  0.00     0.167 HD
ENDBRANCH  61  63
ENDBRANCH  60  61
ENDBRANCH  18  60
BRANCH  14  65
ATOM     65  C   UNK d   0     -12.660   1.515  12.837  0.00  0.00     0.052 C 
BRANCH  65  66
ATOM     66  C   UNK d   0     -11.497   0.769  12.285  0.00  0.00     0.115 C 
BRANCH  66  67
ATOM     67  C   UNK d   0     -11.238   0.799  10.873  0.00  0.00     0.139 C 
ATOM     68  O   UNK d   0     -10.240   0.128  10.418  0.00  0.00    -0.650 OA
BRANCH  67  69
ATOM     69  O   UNK d   0     -11.950   1.484   9.889  0.00  0.00    -0.776 OA
ATOM     70  H   UNK d   0     -11.670   1.290   8.917  0.00  0.00     0.167 HD
ENDBRANCH  67  69
ENDBRANCH  66  67
ENDBRANCH  65  66
ENDBRANCH  14  65
ENDBRANCH   6   7
ENDBRANCH   5   6
ENDBRANCH   2   5
TORSDOF 28
ENDMDL
MODEL 9
REMARK VINA RESULT:      -7.2      6.247     11.689
REMARK  28 active torsions:
REMARK  status: ('A' for Active; 'I' for Inactive)
REMARK    1  A    between atoms: C_2  and  O_3 
REMARK    2  A    between atoms: C_2  and  C_4 
REMARK    3  A    between atoms: C_4  and  C_5 
REMARK    4  A    between atoms: C_5  and  C_6 
REMARK    5  A    between atoms: C_7  and  C_8 
REMARK    6  A    between atoms: C_8  and  C_9 
REMARK    7  A    between atoms: C_9  and  O_11 
REMARK    8  A    between atoms: C_28  and  C_29 
REMARK    9  A    between atoms: C_29  and  C_30 
REMARK   10  A    between atoms: C_30  and  O_32 
REMARK   11  A    between atoms: C_33  and  C_34 
REMARK   12  A    between atoms: C_34  and  C_35 
REMARK   13  A    between atoms: C_35  and  C_36 
REMARK   14  A    between atoms: C_36  and  O_38 
REMARK   15  A    between atoms: C_39  and  C_40 
REMARK   16  A    between atoms: C_40  and  C_41 
REMARK   17  A    between atoms: C_41  and  C_42 
REMARK   18  A    between atoms: C_42  and  O_44 
REMARK   19  A    between atoms: C_45  and  C_46 
REMARK   20  A    between atoms: C_46  and  C_47 
REMARK   21  A    between atoms: C_47  and  O_49 
REMARK   22  A    between atoms: C_50  and  C_51 
REMARK   23  A    between atoms: C_51  and  C_52 
REMARK   24  A    between atoms: C_52  and  O_54 
REMARK   25  A    between atoms: C_55  and  C_56 
REMARK   26  A    between atoms: C_56  and  C_57 
REMARK   27  A    between atoms: C_57  and  C_58 
REMARK   28  A    between atoms: C_58  and  O_60 
ROOT
ATOM      1  O   UNK d   0     -39.470   3.045  -3.299  0.00  0.00    -0.650 OA
ATOM      2  C   UNK d   0     -38.822   2.061  -3.718  0.00  0.00     0.139 C 
ENDROOT
BRANCH   2   3
ATOM      3  O   UNK d   0     -39.463   1.099  -4.461  0.00  0.00    -0.776 OA
ATOM      4  H   UNK d   0     -38.968   0.266  -4.785  0.00  0.00     0.167 HD
ENDBRANCH   2   3
BRANCH   2   5
ATOM      5  C   UNK d   0     -37.368   1.936  -3.411  0.00  0.00     0.115 C 
BRANCH   5   6
ATOM      6  C   UNK d   0     -36.832   3.247  -2.904  0.00  0.00     0.052 C 
BRANCH   6   7
ATOM      7  C   UNK d   0     -36.121   3.111  -1.579  0.00  0.00    -0.020 A 
ATOM      8  C   UNK d   0     -36.650   3.137  -0.383  0.00  0.00    -0.011 A 
ATOM      9  C   UNK d   0     -35.576   2.976   0.583  0.00  0.00     0.067 A 
ATOM     10  C   UNK d   0     -35.474   2.899   1.981  0.00  0.00     0.062 C 
ATOM     11  N   UNK d   0     -34.425   2.865  -0.113  0.00  0.00    -0.248 NA
ATOM     12  C   UNK d   0     -34.375   2.461   2.727  0.00  0.00     0.041 A 
ATOM     13  N   UNK d   0     -33.057   2.701   2.589  0.00  0.00    -0.355 N 
ATOM     14  C   UNK d   0     -34.588   1.568   3.793  0.00  0.00    -0.022 A 
ATOM     15  C   UNK d   0     -32.428   1.978   3.535  0.00  0.00     0.042 A 
ATOM     16  H   UNK d   0     -32.582   3.384   1.850  0.00  0.00     0.166 HD
ATOM     17  C   UNK d   0     -31.056   1.863   3.835  0.00  0.00     0.062 C 
ATOM     18  C   UNK d   0     -33.355   1.254   4.309  0.00  0.00    -0.013 A 
ATOM     19  C   UNK d   0     -29.997   1.698   2.979  0.00  0.00     0.067 A 
ATOM     20  N   UNK d   0     -30.241   1.860   1.676  0.00  0.00    -0.248 NA
ATOM     21  C   UNK d   0     -28.590   1.358   3.111  0.00  0.00    -0.011 A 
ATOM     22  C   UNK d   0     -29.097   1.650   0.947  0.00  0.00     0.066 A 
ATOM     23  C   UNK d   0     -29.200   1.824  -0.425  0.00  0.00     0.062 C 
ATOM     24  C   UNK d   0     -28.070   1.328   1.918  0.00  0.00    -0.020 A 
ATOM     25  C   UNK d   0     -30.310   2.277  -1.154  0.00  0.00     0.041 A 
ATOM     26  N   UNK d   0     -31.618   2.026  -1.027  0.00  0.00    -0.355 N 
ATOM     27  C   UNK d   0     -30.095   3.176  -2.221  0.00  0.00    -0.022 A 
ATOM     28  C   UNK d   0     -32.247   2.740  -1.974  0.00  0.00     0.042 A 
ATOM     29  H   UNK d   0     -32.093   1.332  -0.291  0.00  0.00     0.166 HD
ATOM     30  C   UNK d   0     -33.609   2.857  -2.290  0.00  0.00     0.062 C 
ATOM     31  C   UNK d   0     -31.315   3.475  -2.745  0.00  0.00    -0.013 A 
ATOM     32  C   UNK d   0     -34.685   2.937  -1.420  0.00  0.00     0.066 A 
BRANCH   8  33
ATOM     33  C   UNK d   0     -38.077   3.305  -0.050  0.00  0.00     0.151 C 
BRANCH  33  34
ATOM     34  C   UNK d   0     -38.444   4.711   0.197  0.00  0.00     0.143 C 
ATOM     35  O   UNK d   0     -38.541   5.149   1.352  0.00  0.00    -0.650 OA
BRANCH  34  36
ATOM     36  O   UNK d   0     -38.682   5.545  -0.871  0.00  0.00    -0.776 OA
ATOM     37  H   UNK d   0     -39.564   6.069  -0.952  0.00  0.00     0.167 HD
ENDBRANCH  34  36
ENDBRANCH  33  34
ENDBRANCH   8  33
BRANCH  31  38
ATOM     38  C   UNK d   0     -31.585   4.412  -3.900  0.00  0.00     0.151 C 
BRANCH  38  39
ATOM     39  C   UNK d   0     -31.608   5.803  -3.500  0.00  0.00     0.143 C 
ATOM     40  O   UNK d   0     -30.815   6.642  -3.963  0.00  0.00    -0.650 OA
BRANCH  39  41
ATOM     41  O   UNK d   0     -32.548   6.232  -2.564  0.00  0.00    -0.776 OA
ATOM     42  H   UNK d   0     -33.162   7.003  -2.846  0.00  0.00     0.167 HD
ENDBRANCH  39  41
ENDBRANCH  38  39
ENDBRANCH  31  38
BRANCH  27  43
ATOM     43  C   UNK d   0     -28.802   3.747  -2.749  0.00  0.00     0.052 C 
BRANCH  43  44
ATOM     44  C   UNK d   0     -28.429   3.218  -4.096  0.00  0.00     0.115 C 
BRANCH  44  45
ATOM     45  C   UNK d   0     -27.490   2.090  -3.864  0.00  0.00     0.139 C 
ATOM     46  O   UNK d   0     -26.278   2.359  -3.671  0.00  0.00    -0.650 OA
BRANCH  45  47
ATOM     47  O   UNK d   0     -27.893   0.772  -3.847  0.00  0.00    -0.776 OA
ATOM     48  H   UNK d   0     -27.777   0.140  -4.655  0.00  0.00     0.167 HD
ENDBRANCH  45  47
ENDBRANCH  44  45
ENDBRANCH  43  44
ENDBRANCH  27  43
BRANCH  24  49
ATOM     49  C   UNK d   0     -26.658   1.062   1.593  0.00  0.00     0.052 C 
BRANCH  49  50
ATOM     50  C   UNK d   0     -25.820   2.287   1.853  0.00  0.00     0.115 C 
BRANCH  50  51
ATOM     51  C   UNK d   0     -24.678   2.135   2.744  0.00  0.00     0.139 C 
ATOM     52  O   UNK d   0     -24.797   1.790   3.943  0.00  0.00    -0.650 OA
BRANCH  51  53
ATOM     53  O   UNK d   0     -23.399   2.380   2.267  0.00  0.00    -0.776 OA
ATOM     54  H   UNK d   0     -23.113   3.335   2.141  0.00  0.00     0.167 HD
ENDBRANCH  51  53
ENDBRANCH  50  51
ENDBRANCH  49  50
ENDBRANCH  24  49
BRANCH  21  55
ATOM     55  C   UNK d   0     -27.912   1.104   4.417  0.00  0.00     0.151 C 
BRANCH  55  56
ATOM     56  C   UNK d   0     -27.642  -0.326   4.629  0.00  0.00     0.143 C 
ATOM     57  O   UNK d   0     -28.548  -1.176   4.730  0.00  0.00    -0.650 OA
BRANCH  56  58
ATOM     58  O   UNK d   0     -26.310  -0.729   4.717  0.00  0.00    -0.776 OA
ATOM     59  H   UNK d   0     -25.627  -0.074   4.295  0.00  0.00     0.167 HD
ENDBRANCH  56  58
ENDBRANCH  55  56
ENDBRANCH  21  55
BRANCH  18  60
ATOM     60  C   UNK d   0     -33.116   0.316   5.466  0.00  0.00     0.151 C 
BRANCH  60  61
ATOM     61  C   UNK d   0     -32.728  -0.971   4.869  0.00  0.00     0.143 C 
ATOM     62  O   UNK d   0     -33.435  -1.720   4.195  0.00  0.00    -0.650 OA
BRANCH  61  63
ATOM     63  O   UNK d   0     -31.390  -1.367   5.110  0.00  0.00    -0.776 OA
ATOM     64  H   UNK d   0     -31.001  -1.344   6.036  0.00  0.00     0.167 HD
ENDBRANCH  61  63
ENDBRANCH  60  61
ENDBRANCH  18  60
BRANCH  14  65
ATOM     65  C   UNK d   0     -35.861   1.072   4.417  0.00  0.00     0.052 C 
BRANCH  65  66
ATOM     66  C   UNK d   0     -36.446   2.034   5.390  0.00  0.00     0.115 C 
BRANCH  66  67
ATOM     67  C   UNK d   0     -36.288   1.805   6.798  0.00  0.00     0.139 C 
ATOM     68  O   UNK d   0     -35.357   2.435   7.422  0.00  0.00    -0.650 OA
BRANCH  67  69
ATOM     69  O   UNK d   0     -37.038   0.958   7.614  0.00  0.00    -0.776 OA
ATOM     70  H   UNK d   0     -36.812   0.989   8.619  0.00  0.00     0.167 HD
ENDBRANCH  67  69
ENDBRANCH  66  67
ENDBRANCH  65  66
ENDBRANCH  14  65
ENDBRANCH   6   7
ENDBRANCH   5   6
ENDBRANCH   2   5
TORSDOF 28
ENDMDL
MODEL 10
REMARK VINA RESULT:      -7.2     22.005     25.341
REMARK  28 active torsions:
REMARK  status: ('A' for Active; 'I' for Inactive)
REMARK    1  A    between atoms: C_2  and  O_3 
REMARK    2  A    between atoms: C_2  and  C_4 
REMARK    3  A    between atoms: C_4  and  C_5 
REMARK    4  A    between atoms: C_5  and  C_6 
REMARK    5  A    between atoms: C_7  and  C_8 
REMARK    6  A    between atoms: C_8  and  C_9 
REMARK    7  A    between atoms: C_9  and  O_11 
REMARK    8  A    between atoms: C_28  and  C_29 
REMARK    9  A    between atoms: C_29  and  C_30 
REMARK   10  A    between atoms: C_30  and  O_32 
REMARK   11  A    between atoms: C_33  and  C_34 
REMARK   12  A    between atoms: C_34  and  C_35 
REMARK   13  A    between atoms: C_35  and  C_36 
REMARK   14  A    between atoms: C_36  and  O_38 
REMARK   15  A    between atoms: C_39  and  C_40 
REMARK   16  A    between atoms: C_40  and  C_41 
REMARK   17  A    between atoms: C_41  and  C_42 
REMARK   18  A    between atoms: C_42  and  O_44 
REMARK   19  A    between atoms: C_45  and  C_46 
REMARK   20  A    between atoms: C_46  and  C_47 
REMARK   21  A    between atoms: C_47  and  O_49 
REMARK   22  A    between atoms: C_50  and  C_51 
REMARK   23  A    between atoms: C_51  and  C_52 
REMARK   24  A    between atoms: C_52  and  O_54 
REMARK   25  A    between atoms: C_55  and  C_56 
REMARK   26  A    between atoms: C_56  and  C_57 
REMARK   27  A    between atoms: C_57  and  C_58 
REMARK   28  A    between atoms: C_58  and  O_60 
ROOT
ATOM      1  O   UNK d   0     -10.697  -2.753  20.661  0.00  0.00    -0.650 OA
ATOM      2  C   UNK d   0      -9.581  -2.187  20.653  0.00  0.00     0.139 C 
ENDROOT
BRANCH   2   3
ATOM      3  O   UNK d   0      -8.462  -2.898  21.010  0.00  0.00    -0.776 OA
ATOM      4  H   UNK d   0      -7.839  -2.566  21.749  0.00  0.00     0.167 HD
ENDBRANCH   2   3
BRANCH   2   5
ATOM      5  C   UNK d   0      -9.473  -0.753  20.260  0.00  0.00     0.115 C 
BRANCH   5   6
ATOM      6  C   UNK d   0     -10.817  -0.231  19.831  0.00  0.00     0.052 C 
BRANCH   6   7
ATOM      7  C   UNK d   0     -10.808   0.312  18.422  0.00  0.00    -0.020 A 
ATOM      8  C   UNK d   0     -10.976  -0.355  17.309  0.00  0.00    -0.011 A 
ATOM      9  C   UNK d   0     -10.876   0.587  16.206  0.00  0.00     0.067 A 
ATOM     10  C   UNK d   0     -10.980   0.524  14.808  0.00  0.00     0.062 C 
ATOM     11  N   UNK d   0     -10.639   1.804  16.739  0.00  0.00    -0.248 NA
ATOM     12  C   UNK d   0     -11.130   1.595  13.920  0.00  0.00     0.041 A 
ATOM     13  N   UNK d   0     -10.533   2.801  13.877  0.00  0.00    -0.355 N 
ATOM     14  C   UNK d   0     -12.091   1.501  12.896  0.00  0.00    -0.022 A 
ATOM     15  C   UNK d   0     -11.094   3.477  12.857  0.00  0.00     0.042 A 
ATOM     16  H   UNK d   0      -9.716   3.160  14.542  0.00  0.00     0.166 HD
ATOM     17  C   UNK d   0     -10.841   4.776  12.373  0.00  0.00     0.062 C 
ATOM     18  C   UNK d   0     -12.076   2.694  12.219  0.00  0.00    -0.013 A 
ATOM     19  C   UNK d   0     -10.674   5.941  13.077  0.00  0.00     0.067 A 
ATOM     20  N   UNK d   0     -10.532   5.833  14.401  0.00  0.00    -0.248 NA
ATOM     21  C   UNK d   0     -10.620   7.357  12.756  0.00  0.00    -0.011 A 
ATOM     22  C   UNK d   0     -10.390   7.075  14.968  0.00  0.00     0.066 A 
ATOM     23  C   UNK d   0     -10.195   7.108  16.341  0.00  0.00     0.062 C 
ATOM     24  C   UNK d   0     -10.458   8.016  13.867  0.00  0.00    -0.020 A 
ATOM     25  C   UNK d   0     -10.034   6.020  17.213  0.00  0.00     0.041 A 
ATOM     26  N   UNK d   0     -10.639   4.827  17.265  0.00  0.00    -0.355 N 
ATOM     27  C   UNK d   0      -9.067   6.113  18.237  0.00  0.00    -0.022 A 
ATOM     28  C   UNK d   0     -10.086   4.154  18.287  0.00  0.00     0.042 A 
ATOM     29  H   UNK d   0     -11.466   4.472  16.603  0.00  0.00     0.166 HD
ATOM     30  C   UNK d   0     -10.334   2.865  18.785  0.00  0.00     0.062 C 
ATOM     31  C   UNK d   0      -9.093   4.937  18.921  0.00  0.00    -0.013 A 
ATOM     32  C   UNK d   0     -10.587   1.706  18.069  0.00  0.00     0.066 A 
BRANCH   8  33
ATOM     33  C   UNK d   0     -11.220  -1.803  17.173  0.00  0.00     0.151 C 
BRANCH  33  34
ATOM     34  C   UNK d   0     -12.550  -2.207  17.665  0.00  0.00     0.143 C 
ATOM     35  O   UNK d   0     -13.573  -1.617  17.289  0.00  0.00    -0.650 OA
BRANCH  34  36
ATOM     36  O   UNK d   0     -12.652  -3.251  18.554  0.00  0.00    -0.776 OA
ATOM     37  H   UNK d   0     -13.417  -3.936  18.488  0.00  0.00     0.167 HD
ENDBRANCH  34  36
ENDBRANCH  33  34
ENDBRANCH   8  33
BRANCH  31  38
ATOM     38  C   UNK d   0      -8.219   4.571  20.098  0.00  0.00     0.151 C 
BRANCH  38  39
ATOM     39  C   UNK d   0      -6.906   4.109  19.701  0.00  0.00     0.143 C 
ATOM     40  O   UNK d   0      -5.871   4.451  20.299  0.00  0.00    -0.650 OA
BRANCH  39  41
ATOM     41  O   UNK d   0      -6.783   3.248  18.610  0.00  0.00    -0.776 OA
ATOM     42  H   UNK d   0      -6.321   2.350  18.781  0.00  0.00     0.167 HD
ENDBRANCH  39  41
ENDBRANCH  38  39
ENDBRANCH  31  38
BRANCH  27  43
ATOM     43  C   UNK d   0      -8.143   7.255  18.582  0.00  0.00     0.052 C 
BRANCH  43  44
ATOM     44  C   UNK d   0      -6.825   7.180  17.882  0.00  0.00     0.115 C 
BRANCH  44  45
ATOM     45  C   UNK d   0      -6.841   8.232  16.832  0.00  0.00     0.139 C 
ATOM     46  O   UNK d   0      -7.204   9.389  17.159  0.00  0.00    -0.650 OA
BRANCH  45  47
ATOM     47  O   UNK d   0      -6.473   7.990  15.526  0.00  0.00    -0.776 OA
ATOM     48  H   UNK d   0      -6.896   7.241  14.954  0.00  0.00     0.167 HD
ENDBRANCH  45  47
ENDBRANCH  44  45
ENDBRANCH  43  44
ENDBRANCH  27  43
BRANCH  24  49
ATOM     49  C   UNK d   0     -10.313   9.476  13.998  0.00  0.00     0.052 C 
BRANCH  49  50
ATOM     50  C   UNK d   0      -8.857   9.863  13.976  0.00  0.00     0.115 C 
BRANCH  50  51
ATOM     51  C   UNK d   0      -8.535  11.258  14.244  0.00  0.00     0.139 C 
ATOM     52  O   UNK d   0      -9.059  12.206  13.613  0.00  0.00    -0.650 OA
BRANCH  51  53
ATOM     53  O   UNK d   0      -7.613  11.572  15.231  0.00  0.00    -0.776 OA
ATOM     54  H   UNK d   0      -6.780  12.066  14.963  0.00  0.00     0.167 HD
ENDBRANCH  51  53
ENDBRANCH  50  51
ENDBRANCH  49  50
ENDBRANCH  24  49
BRANCH  21  55
ATOM     55  C   UNK d   0     -10.732   7.904  11.371  0.00  0.00     0.151 C 
BRANCH  55  56
ATOM     56  C   UNK d   0     -12.127   7.951  10.908  0.00  0.00     0.143 C 
ATOM     57  O   UNK d   0     -12.672   7.002  10.311  0.00  0.00    -0.650 OA
BRANCH  56  58
ATOM     58  O   UNK d   0     -12.855   9.114  11.155  0.00  0.00    -0.776 OA
ATOM     59  H   UNK d   0     -13.730   9.206  10.610  0.00  0.00     0.167 HD
ENDBRANCH  56  58
ENDBRANCH  55  56
ENDBRANCH  21  55
BRANCH  18  60
ATOM     60  C   UNK d   0     -12.959   3.031  11.043  0.00  0.00     0.151 C 
BRANCH  60  61
ATOM     61  C   UNK d   0     -12.080   3.031   9.864  0.00  0.00     0.143 C 
ATOM     62  O   UNK d   0     -12.051   3.865   8.959  0.00  0.00    -0.650 OA
BRANCH  61  63
ATOM     63  O   UNK d   0     -11.178   1.943   9.786  0.00  0.00    -0.776 OA
ATOM     64  H   UNK d   0     -10.925   1.541   8.900  0.00  0.00     0.167 HD
ENDBRANCH  61  63
ENDBRANCH  60  61
ENDBRANCH  18  60
BRANCH  14  65
ATOM     65  C   UNK d   0     -12.942   0.345  12.454  0.00  0.00     0.052 C 
BRANCH  65  66
ATOM     66  C   UNK d   0     -14.322   0.394  13.006  0.00  0.00     0.115 C 
BRANCH  66  67
ATOM     67  C   UNK d   0     -15.446   0.420  12.112  0.00  0.00     0.139 C 
ATOM     68  O   UNK d   0     -16.073   1.531  11.948  0.00  0.00    -0.650 OA
BRANCH  67  69
ATOM     69  O   UNK d   0     -15.971  -0.637  11.370  0.00  0.00    -0.776 OA
ATOM     70  H   UNK d   0     -16.705  -1.190  11.836  0.00  0.00     0.167 HD
ENDBRANCH  67  69
ENDBRANCH  66  67
ENDBRANCH  65  66
ENDBRANCH  14  65
ENDBRANCH   6   7
ENDBRANCH   5   6
ENDBRANCH   2   5
TORSDOF 28
ENDMDL
MODEL 11
REMARK VINA RESULT:      -7.2      6.363     12.001
REMARK  28 active torsions:
REMARK  status: ('A' for Active; 'I' for Inactive)
REMARK    1  A    between atoms: C_2  and  O_3 
REMARK    2  A    between atoms: C_2  and  C_4 
REMARK    3  A    between atoms: C_4  and  C_5 
REMARK    4  A    between atoms: C_5  and  C_6 
REMARK    5  A    between atoms: C_7  and  C_8 
REMARK    6  A    between atoms: C_8  and  C_9 
REMARK    7  A    between atoms: C_9  and  O_11 
REMARK    8  A    between atoms: C_28  and  C_29 
REMARK    9  A    between atoms: C_29  and  C_30 
REMARK   10  A    between atoms: C_30  and  O_32 
REMARK   11  A    between atoms: C_33  and  C_34 
REMARK   12  A    between atoms: C_34  and  C_35 
REMARK   13  A    between atoms: C_35  and  C_36 
REMARK   14  A    between atoms: C_36  and  O_38 
REMARK   15  A    between atoms: C_39  and  C_40 
REMARK   16  A    between atoms: C_40  and  C_41 
REMARK   17  A    between atoms: C_41  and  C_42 
REMARK   18  A    between atoms: C_42  and  O_44 
REMARK   19  A    between atoms: C_45  and  C_46 
REMARK   20  A    between atoms: C_46  and  C_47 
REMARK   21  A    between atoms: C_47  and  O_49 
REMARK   22  A    between atoms: C_50  and  C_51 
REMARK   23  A    between atoms: C_51  and  C_52 
REMARK   24  A    between atoms: C_52  and  O_54 
REMARK   25  A    between atoms: C_55  and  C_56 
REMARK   26  A    between atoms: C_56  and  C_57 
REMARK   27  A    between atoms: C_57  and  C_58 
REMARK   28  A    between atoms: C_58  and  O_60 
ROOT
ATOM      1  O   UNK d   0     -39.826   2.839  -3.598  0.00  0.00    -0.650 OA
ATOM      2  C   UNK d   0     -38.844   2.386  -2.968  0.00  0.00     0.139 C 
ENDROOT
BRANCH   2   3
ATOM      3  O   UNK d   0     -37.735   1.965  -3.662  0.00  0.00    -0.776 OA
ATOM      4  H   UNK d   0     -36.793   2.206  -3.348  0.00  0.00     0.167 HD
ENDBRANCH   2   3
BRANCH   2   5
ATOM      5  C   UNK d   0     -38.882   2.305  -1.481  0.00  0.00     0.115 C 
BRANCH   5   6
ATOM      6  C   UNK d   0     -38.373   3.587  -0.879  0.00  0.00     0.052 C 
BRANCH   6   7
ATOM      7  C   UNK d   0     -37.153   3.379  -0.014  0.00  0.00    -0.020 A 
ATOM      8  C   UNK d   0     -37.100   3.329   1.292  0.00  0.00    -0.011 A 
ATOM      9  C   UNK d   0     -35.713   3.122   1.674  0.00  0.00     0.067 A 
ATOM     10  C   UNK d   0     -35.007   2.962   2.876  0.00  0.00     0.062 C 
ATOM     11  N   UNK d   0     -34.989   3.063   0.536  0.00  0.00    -0.248 NA
ATOM     12  C   UNK d   0     -33.699   2.491   3.034  0.00  0.00     0.041 A 
ATOM     13  N   UNK d   0     -32.573   2.752   2.343  0.00  0.00    -0.355 N 
ATOM     14  C   UNK d   0     -33.436   1.534   4.032  0.00  0.00    -0.022 A 
ATOM     15  C   UNK d   0     -31.605   1.980   2.871  0.00  0.00     0.042 A 
ATOM     16  H   UNK d   0     -32.460   3.482   1.512  0.00  0.00     0.166 HD
ATOM     17  C   UNK d   0     -30.243   1.860   2.528  0.00  0.00     0.062 C 
ATOM     18  C   UNK d   0     -32.108   1.202   3.932  0.00  0.00    -0.013 A 
ATOM     19  C   UNK d   0     -29.673   1.757   1.285  0.00  0.00     0.067 A 
ATOM     20  N   UNK d   0     -30.464   1.994   0.235  0.00  0.00    -0.248 NA
ATOM     21  C   UNK d   0     -28.358   1.424   0.763  0.00  0.00    -0.011 A 
ATOM     22  C   UNK d   0     -29.762   1.839  -0.935  0.00  0.00     0.066 A 
ATOM     23  C   UNK d   0     -30.456   2.093  -2.109  0.00  0.00     0.062 C 
ATOM     24  C   UNK d   0     -28.418   1.469  -0.537  0.00  0.00    -0.020 A 
ATOM     25  C   UNK d   0     -31.766   2.578  -2.246  0.00  0.00     0.041 A 
ATOM     26  N   UNK d   0     -32.888   2.308  -1.568  0.00  0.00    -0.355 N 
ATOM     27  C   UNK d   0     -32.028   3.542  -3.244  0.00  0.00    -0.022 A 
ATOM     28  C   UNK d   0     -33.857   3.070  -2.099  0.00  0.00     0.042 A 
ATOM     29  H   UNK d   0     -33.002   1.566  -0.740  0.00  0.00     0.166 HD
ATOM     30  C   UNK d   0     -35.217   3.192  -1.773  0.00  0.00     0.062 C 
ATOM     31  C   UNK d   0     -33.348   3.859  -3.157  0.00  0.00    -0.013 A 
ATOM     32  C   UNK d   0     -35.797   3.211  -0.515  0.00  0.00     0.066 A 
BRANCH   8  33
ATOM     33  C   UNK d   0     -38.231   3.463   2.230  0.00  0.00     0.151 C 
BRANCH  33  34
ATOM     34  C   UNK d   0     -38.280   4.784   2.880  0.00  0.00     0.143 C 
ATOM     35  O   UNK d   0     -38.277   5.825   2.208  0.00  0.00    -0.650 OA
BRANCH  34  36
ATOM     36  O   UNK d   0     -38.328   4.860   4.253  0.00  0.00    -0.776 OA
ATOM     37  H   UNK d   0     -38.548   4.035   4.826  0.00  0.00     0.167 HD
ENDBRANCH  34  36
ENDBRANCH  33  34
ENDBRANCH   8  33
BRANCH  31  38
ATOM     38  C   UNK d   0     -34.083   4.860  -4.018  0.00  0.00     0.151 C 
BRANCH  38  39
ATOM     39  C   UNK d   0     -33.975   6.215  -3.520  0.00  0.00     0.143 C 
ATOM     40  O   UNK d   0     -34.627   6.618  -2.541  0.00  0.00    -0.650 OA
BRANCH  39  41
ATOM     41  O   UNK d   0     -33.111   7.111  -4.150  0.00  0.00    -0.776 OA
ATOM     42  H   UNK d   0     -32.811   6.872  -5.100  0.00  0.00     0.167 HD
ENDBRANCH  39  41
ENDBRANCH  38  39
ENDBRANCH  31  38
BRANCH  27  43
ATOM     43  C   UNK d   0     -31.090   4.155  -4.254  0.00  0.00     0.052 C 
BRANCH  43  44
ATOM     44  C   UNK d   0     -31.527   3.949  -5.668  0.00  0.00     0.115 C 
BRANCH  44  45
ATOM     45  C   UNK d   0     -30.317   3.550  -6.432  0.00  0.00     0.139 C 
ATOM     46  O   UNK d   0     -29.224   4.091  -6.134  0.00  0.00    -0.650 OA
BRANCH  45  47
ATOM     47  O   UNK d   0     -30.347   2.614  -7.444  0.00  0.00    -0.776 OA
ATOM     48  H   UNK d   0     -31.217   2.337  -7.925  0.00  0.00     0.167 HD
ENDBRANCH  45  47
ENDBRANCH  44  45
ENDBRANCH  43  44
ENDBRANCH  27  43
BRANCH  24  49
ATOM     49  C   UNK d   0     -27.299   1.237  -1.466  0.00  0.00     0.052 C 
BRANCH  49  50
ATOM     50  C   UNK d   0     -26.952   2.508  -2.197  0.00  0.00     0.115 C 
BRANCH  50  51
ATOM     51  C   UNK d   0     -26.854   2.435  -3.649  0.00  0.00     0.139 C 
ATOM     52  O   UNK d   0     -25.790   2.674  -4.268  0.00  0.00    -0.650 OA
BRANCH  51  53
ATOM     53  O   UNK d   0     -27.971   2.092  -4.395  0.00  0.00    -0.776 OA
ATOM     54  H   UNK d   0     -27.834   1.568  -5.242  0.00  0.00     0.167 HD
ENDBRANCH  51  53
ENDBRANCH  50  51
ENDBRANCH  49  50
ENDBRANCH  24  49
BRANCH  21  55
ATOM     55  C   UNK d   0     -27.178   1.099   1.618  0.00  0.00     0.151 C 
BRANCH  55  56
ATOM     56  C   UNK d   0     -27.298  -0.227   2.244  0.00  0.00     0.143 C 
ATOM     57  O   UNK d   0     -26.934  -1.276   1.678  0.00  0.00    -0.650 OA
BRANCH  56  58
ATOM     58  O   UNK d   0     -27.846  -0.293   3.524  0.00  0.00    -0.776 OA
ATOM     59  H   UNK d   0     -27.284   0.167   4.263  0.00  0.00     0.167 HD
ENDBRANCH  56  58
ENDBRANCH  55  56
ENDBRANCH  21  55
BRANCH  18  60
ATOM     60  C   UNK d   0     -31.399   0.199   4.808  0.00  0.00     0.151 C 
BRANCH  60  61
ATOM     61  C   UNK d   0     -30.908   0.954   5.971  0.00  0.00     0.143 C 
ATOM     62  O   UNK d   0     -29.991   1.776   5.988  0.00  0.00    -0.650 OA
BRANCH  61  63
ATOM     63  O   UNK d   0     -31.580   0.690   7.189  0.00  0.00    -0.776 OA
ATOM     64  H   UNK d   0     -31.143   0.879   8.073  0.00  0.00     0.167 HD
ENDBRANCH  61  63
ENDBRANCH  60  61
ENDBRANCH  18  60
BRANCH  14  65
ATOM     65  C   UNK d   0     -34.312   0.989   5.123  0.00  0.00     0.052 C 
BRANCH  65  66
ATOM     66  C   UNK d   0     -34.794  -0.391   4.848  0.00  0.00     0.115 C 
BRANCH  66  67
ATOM     67  C   UNK d   0     -34.382  -1.472   5.698  0.00  0.00     0.139 C 
ATOM     68  O   UNK d   0     -33.744  -1.193   6.779  0.00  0.00    -0.650 OA
BRANCH  67  69
ATOM     69  O   UNK d   0     -34.586  -2.837   5.502  0.00  0.00    -0.776 OA
ATOM     70  H   UNK d   0     -34.334  -3.199   4.571  0.00  0.00     0.167 HD
ENDBRANCH  67  69
ENDBRANCH  66  67
ENDBRANCH  65  66
ENDBRANCH  14  65
ENDBRANCH   6   7
ENDBRANCH   5   6
ENDBRANCH   2   5
TORSDOF 28
ENDMDL
MODEL 12
REMARK VINA RESULT:      -7.1      1.892      8.079
REMARK  28 active torsions:
REMARK  status: ('A' for Active; 'I' for Inactive)
REMARK    1  A    between atoms: C_2  and  O_3 
REMARK    2  A    between atoms: C_2  and  C_4 
REMARK    3  A    between atoms: C_4  and  C_5 
REMARK    4  A    between atoms: C_5  and  C_6 
REMARK    5  A    between atoms: C_7  and  C_8 
REMARK    6  A    between atoms: C_8  and  C_9 
REMARK    7  A    between atoms: C_9  and  O_11 
REMARK    8  A    between atoms: C_28  and  C_29 
REMARK    9  A    between atoms: C_29  and  C_30 
REMARK   10  A    between atoms: C_30  and  O_32 
REMARK   11  A    between atoms: C_33  and  C_34 
REMARK   12  A    between atoms: C_34  and  C_35 
REMARK   13  A    between atoms: C_35  and  C_36 
REMARK   14  A    between atoms: C_36  and  O_38 
REMARK   15  A    between atoms: C_39  and  C_40 
REMARK   16  A    between atoms: C_40  and  C_41 
REMARK   17  A    between atoms: C_41  and  C_42 
REMARK   18  A    between atoms: C_42  and  O_44 
REMARK   19  A    between atoms: C_45  and  C_46 
REMARK   20  A    between atoms: C_46  and  C_47 
REMARK   21  A    between atoms: C_47  and  O_49 
REMARK   22  A    between atoms: C_50  and  C_51 
REMARK   23  A    between atoms: C_51  and  C_52 
REMARK   24  A    between atoms: C_52  and  O_54 
REMARK   25  A    between atoms: C_55  and  C_56 
REMARK   26  A    between atoms: C_56  and  C_57 
REMARK   27  A    between atoms: C_57  and  C_58 
REMARK   28  A    between atoms: C_58  and  O_60 
ROOT
ATOM      1  O   UNK d   0     -36.814   4.114   4.854  0.00  0.00    -0.650 OA
ATOM      2  C   UNK d   0     -37.152   3.277   5.720  0.00  0.00     0.139 C 
ENDROOT
BRANCH   2   3
ATOM      3  O   UNK d   0     -37.379   1.974   5.345  0.00  0.00    -0.776 OA
ATOM      4  H   UNK d   0     -38.221   1.713   4.829  0.00  0.00     0.167 HD
ENDBRANCH   2   3
BRANCH   2   5
ATOM      5  C   UNK d   0     -37.308   3.693   7.142  0.00  0.00     0.115 C 
BRANCH   5   6
ATOM      6  C   UNK d   0     -35.962   3.771   7.810  0.00  0.00     0.052 C 
BRANCH   6   7
ATOM      7  C   UNK d   0     -35.519   2.445   8.380  0.00  0.00    -0.020 A 
ATOM      8  C   UNK d   0     -35.824   1.936   9.546  0.00  0.00    -0.011 A 
ATOM      9  C   UNK d   0     -35.160   0.648   9.657  0.00  0.00     0.067 A 
ATOM     10  C   UNK d   0     -35.095  -0.379  10.612  0.00  0.00     0.062 C 
ATOM     11  N   UNK d   0     -34.466   0.456   8.516  0.00  0.00    -0.248 NA
ATOM     12  C   UNK d   0     -34.620  -1.681  10.424  0.00  0.00     0.041 A 
ATOM     13  N   UNK d   0     -33.537  -2.145   9.771  0.00  0.00    -0.355 N 
ATOM     14  C   UNK d   0     -35.372  -2.759  10.927  0.00  0.00    -0.022 A 
ATOM     15  C   UNK d   0     -33.587  -3.488   9.839  0.00  0.00     0.042 A 
ATOM     16  H   UNK d   0     -32.743  -1.533   9.288  0.00  0.00     0.166 HD
ATOM     17  C   UNK d   0     -32.707  -4.462   9.327  0.00  0.00     0.062 C 
ATOM     18  C   UNK d   0     -34.723  -3.911  10.556  0.00  0.00    -0.013 A 
ATOM     19  C   UNK d   0     -32.121  -4.529   8.089  0.00  0.00     0.067 A 
ATOM     20  N   UNK d   0     -32.221  -3.446   7.313  0.00  0.00    -0.248 NA
ATOM     21  C   UNK d   0     -31.384  -5.529   7.334  0.00  0.00    -0.011 A 
ATOM     22  C   UNK d   0     -31.603  -3.666   6.106  0.00  0.00     0.066 A 
ATOM     23  C   UNK d   0     -31.599  -2.604   5.214  0.00  0.00     0.062 C 
ATOM     24  C   UNK d   0     -31.087  -5.019   6.174  0.00  0.00    -0.020 A 
ATOM     25  C   UNK d   0     -32.070  -1.300   5.427  0.00  0.00     0.041 A 
ATOM     26  N   UNK d   0     -33.154  -0.840   6.063  0.00  0.00    -0.355 N 
ATOM     27  C   UNK d   0     -31.312  -0.218   4.926  0.00  0.00    -0.022 A 
ATOM     28  C   UNK d   0     -33.111   0.500   5.989  0.00  0.00     0.042 A 
ATOM     29  H   UNK d   0     -33.956  -1.455   6.539  0.00  0.00     0.166 HD
ATOM     30  C   UNK d   0     -33.984   1.480   6.486  0.00  0.00     0.062 C 
ATOM     31  C   UNK d   0     -31.963   0.924   5.277  0.00  0.00    -0.013 A 
ATOM     32  C   UNK d   0     -34.641   1.501   7.706  0.00  0.00     0.066 A 
BRANCH   8  33
ATOM     33  C   UNK d   0     -36.682   2.544  10.580  0.00  0.00     0.151 C 
BRANCH  33  34
ATOM     34  C   UNK d   0     -36.247   2.214  11.949  0.00  0.00     0.143 C 
ATOM     35  O   UNK d   0     -36.925   1.469  12.671  0.00  0.00    -0.650 OA
BRANCH  34  36
ATOM     36  O   UNK d   0     -35.072   2.744  12.430  0.00  0.00    -0.776 OA
ATOM     37  H   UNK d   0     -34.973   3.015  13.418  0.00  0.00     0.167 HD
ENDBRANCH  34  36
ENDBRANCH  33  34
ENDBRANCH   8  33
BRANCH  31  38
ATOM     38  C   UNK d   0     -31.518   2.334   4.970  0.00  0.00     0.151 C 
BRANCH  38  39
ATOM     39  C   UNK d   0     -32.121   2.863   3.765  0.00  0.00     0.143 C 
ATOM     40  O   UNK d   0     -31.836   2.432   2.633  0.00  0.00    -0.650 OA
BRANCH  39  41
ATOM     41  O   UNK d   0     -33.057   3.892   3.861  0.00  0.00    -0.776 OA
ATOM     42  H   UNK d   0     -32.690   4.839   4.002  0.00  0.00     0.167 HD
ENDBRANCH  39  41
ENDBRANCH  38  39
ENDBRANCH  31  38
BRANCH  27  43
ATOM     43  C   UNK d   0     -30.024  -0.233   4.142  0.00  0.00     0.052 C 
BRANCH  43  44
ATOM     44  C   UNK d   0     -28.832   0.151   4.957  0.00  0.00     0.115 C 
BRANCH  44  45
ATOM     45  C   UNK d   0     -27.966  -1.054   5.037  0.00  0.00     0.139 C 
ATOM     46  O   UNK d   0     -26.850  -1.020   4.462  0.00  0.00    -0.650 OA
BRANCH  45  47
ATOM     47  O   UNK d   0     -28.334  -2.194   5.717  0.00  0.00    -0.776 OA
ATOM     48  H   UNK d   0     -27.711  -2.672   6.388  0.00  0.00     0.167 HD
ENDBRANCH  45  47
ENDBRANCH  44  45
ENDBRANCH  43  44
ENDBRANCH  27  43
BRANCH  24  49
ATOM     49  C   UNK d   0     -30.310  -5.677   5.109  0.00  0.00     0.052 C 
BRANCH  49  50
ATOM     50  C   UNK d   0     -31.223  -6.139   4.003  0.00  0.00     0.115 C 
BRANCH  50  51
ATOM     51  C   UNK d   0     -30.989  -7.471   3.460  0.00  0.00     0.139 C 
ATOM     52  O   UNK d   0     -31.066  -7.725   2.235  0.00  0.00    -0.650 OA
BRANCH  51  53
ATOM     53  O   UNK d   0     -30.670  -8.514   4.316  0.00  0.00    -0.776 OA
ATOM     54  H   UNK d   0     -31.074  -9.416   4.137  0.00  0.00     0.167 HD
ENDBRANCH  51  53
ENDBRANCH  50  51
ENDBRANCH  49  50
ENDBRANCH  24  49
BRANCH  21  55
ATOM     55  C   UNK d   0     -31.048  -6.888   7.854  0.00  0.00     0.151 C 
BRANCH  55  56
ATOM     56  C   UNK d   0     -32.172  -7.826   7.711  0.00  0.00     0.143 C 
ATOM     57  O   UNK d   0     -32.746  -8.347   8.688  0.00  0.00    -0.650 OA
BRANCH  56  58
ATOM     58  O   UNK d   0     -32.601  -8.133   6.420  0.00  0.00    -0.776 OA
ATOM     59  H   UNK d   0     -33.243  -8.944   6.355  0.00  0.00     0.167 HD
ENDBRANCH  56  58
ENDBRANCH  55  56
ENDBRANCH  21  55
BRANCH  18  60
ATOM     60  C   UNK d   0     -35.190  -5.308  10.881  0.00  0.00     0.151 C 
BRANCH  60  61
ATOM     61  C   UNK d   0     -34.603  -5.637  12.189  0.00  0.00     0.143 C 
ATOM     62  O   UNK d   0     -33.406  -5.744  12.459  0.00  0.00    -0.650 OA
BRANCH  61  63
ATOM     63  O   UNK d   0     -35.536  -5.846  13.233  0.00  0.00    -0.776 OA
ATOM     64  H   UNK d   0     -35.693  -5.146  13.936  0.00  0.00     0.167 HD
ENDBRANCH  61  63
ENDBRANCH  60  61
ENDBRANCH  18  60
BRANCH  14  65
ATOM     65  C   UNK d   0     -36.590  -2.779  11.806  0.00  0.00     0.052 C 
BRANCH  65  66
ATOM     66  C   UNK d   0     -36.366  -2.130  13.125  0.00  0.00     0.115 C 
BRANCH  66  67
ATOM     67  C   UNK d   0     -35.099  -2.276  13.785  0.00  0.00     0.139 C 
ATOM     68  O   UNK d   0     -34.368  -1.231  13.947  0.00  0.00    -0.650 OA
BRANCH  67  69
ATOM     69  O   UNK d   0     -34.531  -3.444  14.293  0.00  0.00    -0.776 OA
ATOM     70  H   UNK d   0     -34.431  -4.221  13.624  0.00  0.00     0.167 HD
ENDBRANCH  67  69
ENDBRANCH  66  67
ENDBRANCH  65  66
ENDBRANCH  14  65
ENDBRANCH   6   7
ENDBRANCH   5   6
ENDBRANCH   2   5
TORSDOF 28
ENDMDL
MODEL 13
REMARK VINA RESULT:      -7.1     14.339     18.760
REMARK  28 active torsions:
REMARK  status: ('A' for Active; 'I' for Inactive)
REMARK    1  A    between atoms: C_2  and  O_3 
REMARK    2  A    between atoms: C_2  and  C_4 
REMARK    3  A    between atoms: C_4  and  C_5 
REMARK    4  A    between atoms: C_5  and  C_6 
REMARK    5  A    between atoms: C_7  and  C_8 
REMARK    6  A    between atoms: C_8  and  C_9 
REMARK    7  A    between atoms: C_9  and  O_11 
REMARK    8  A    between atoms: C_28  and  C_29 
REMARK    9  A    between atoms: C_29  and  C_30 
REMARK   10  A    between atoms: C_30  and  O_32 
REMARK   11  A    between atoms: C_33  and  C_34 
REMARK   12  A    between atoms: C_34  and  C_35 
REMARK   13  A    between atoms: C_35  and  C_36 
REMARK   14  A    between atoms: C_36  and  O_38 
REMARK   15  A    between atoms: C_39  and  C_40 
REMARK   16  A    between atoms: C_40  and  C_41 
REMARK   17  A    between atoms: C_41  and  C_42 
REMARK   18  A    between atoms: C_42  and  O_44 
REMARK   19  A    between atoms: C_45  and  C_46 
REMARK   20  A    between atoms: C_46  and  C_47 
REMARK   21  A    between atoms: C_47  and  O_49 
REMARK   22  A    between atoms: C_50  and  C_51 
REMARK   23  A    between atoms: C_51  and  C_52 
REMARK   24  A    between atoms: C_52  and  O_54 
REMARK   25  A    between atoms: C_55  and  C_56 
REMARK   26  A    between atoms: C_56  and  C_57 
REMARK   27  A    between atoms: C_57  and  C_58 
REMARK   28  A    between atoms: C_58  and  O_60 
ROOT
ATOM      1  O   UNK d   0     -12.835   6.234  10.813  0.00  0.00    -0.650 OA
ATOM      2  C   UNK d   0     -13.423   6.088   9.718  0.00  0.00     0.139 C 
ENDROOT
BRANCH   2   3
ATOM      3  O   UNK d   0     -12.854   5.297   8.749  0.00  0.00    -0.776 OA
ATOM      4  H   UNK d   0     -13.427   4.839   8.038  0.00  0.00     0.167 HD
ENDBRANCH   2   3
BRANCH   2   5
ATOM      5  C   UNK d   0     -14.727   6.766   9.472  0.00  0.00     0.115 C 
BRANCH   5   6
ATOM      6  C   UNK d   0     -15.661   5.841   8.740  0.00  0.00     0.052 C 
BRANCH   6   7
ATOM      7  C   UNK d   0     -16.588   5.096   9.671  0.00  0.00    -0.020 A 
ATOM      8  C   UNK d   0     -17.817   5.408   9.993  0.00  0.00    -0.011 A 
ATOM      9  C   UNK d   0     -18.303   4.403  10.923  0.00  0.00     0.067 A 
ATOM     10  C   UNK d   0     -19.503   4.151  11.607  0.00  0.00     0.062 C 
ATOM     11  N   UNK d   0     -17.302   3.519  11.116  0.00  0.00    -0.248 NA
ATOM     12  C   UNK d   0     -19.879   2.968  12.251  0.00  0.00     0.041 A 
ATOM     13  N   UNK d   0     -19.185   2.134  13.049  0.00  0.00    -0.355 N 
ATOM     14  C   UNK d   0     -21.173   2.460  12.040  0.00  0.00    -0.022 A 
ATOM     15  C   UNK d   0     -20.003   1.106  13.343  0.00  0.00     0.042 A 
ATOM     16  H   UNK d   0     -18.144   2.279  13.413  0.00  0.00     0.166 HD
ATOM     17  C   UNK d   0     -19.785  -0.037  14.138  0.00  0.00     0.062 C 
ATOM     18  C   UNK d   0     -21.259   1.275  12.728  0.00  0.00    -0.013 A 
ATOM     19  C   UNK d   0     -18.697  -0.872  14.167  0.00  0.00     0.067 A 
ATOM     20  N   UNK d   0     -17.605  -0.466  13.513  0.00  0.00    -0.248 NA
ATOM     21  C   UNK d   0     -18.392  -2.171  14.743  0.00  0.00    -0.011 A 
ATOM     22  C   UNK d   0     -16.610  -1.406  13.618  0.00  0.00     0.066 A 
ATOM     23  C   UNK d   0     -15.401  -1.094  13.014  0.00  0.00     0.062 C 
ATOM     24  C   UNK d   0     -17.171  -2.480  14.415  0.00  0.00    -0.020 A 
ATOM     25  C   UNK d   0     -15.039   0.107  12.383  0.00  0.00     0.041 A 
ATOM     26  N   UNK d   0     -15.724   0.928  11.577  0.00  0.00    -0.355 N 
ATOM     27  C   UNK d   0     -13.741   0.618  12.598  0.00  0.00    -0.022 A 
ATOM     28  C   UNK d   0     -14.907   1.949  11.275  0.00  0.00     0.042 A 
ATOM     29  H   UNK d   0     -16.767   0.775  11.204  0.00  0.00     0.166 HD
ATOM     30  C   UNK d   0     -15.108   3.087  10.479  0.00  0.00     0.062 C 
ATOM     31  C   UNK d   0     -13.649   1.784  11.902  0.00  0.00    -0.013 A 
ATOM     32  C   UNK d   0     -16.242   3.879  10.390  0.00  0.00     0.066 A 
BRANCH   8  33
ATOM     33  C   UNK d   0     -18.589   6.570   9.515  0.00  0.00     0.151 C 
BRANCH  33  34
ATOM     34  C   UNK d   0     -19.240   6.328   8.215  0.00  0.00     0.143 C 
ATOM     35  O   UNK d   0     -19.002   7.053   7.239  0.00  0.00    -0.650 OA
BRANCH  34  36
ATOM     36  O   UNK d   0     -20.124   5.281   8.087  0.00  0.00    -0.776 OA
ATOM     37  H   UNK d   0     -21.140   5.441   8.060  0.00  0.00     0.167 HD
ENDBRANCH  34  36
ENDBRANCH  33  34
ENDBRANCH   8  33
BRANCH  31  38
ATOM     38  C   UNK d   0     -12.445   2.695  11.844  0.00  0.00     0.151 C 
BRANCH  38  39
ATOM     39  C   UNK d   0     -11.661   2.513  10.641  0.00  0.00     0.143 C 
ATOM     40  O   UNK d   0     -11.024   3.443  10.115  0.00  0.00    -0.650 OA
BRANCH  39  41
ATOM     41  O   UNK d   0     -11.608   1.256  10.040  0.00  0.00    -0.776 OA
ATOM     42  H   UNK d   0     -11.773   0.447  10.646  0.00  0.00     0.167 HD
ENDBRANCH  39  41
ENDBRANCH  38  39
ENDBRANCH  31  38
BRANCH  27  43
ATOM     43  C   UNK d   0     -12.612   0.050  13.421  0.00  0.00     0.052 C 
BRANCH  43  44
ATOM     44  C   UNK d   0     -12.571   0.584  14.816  0.00  0.00     0.115 C 
BRANCH  44  45
ATOM     45  C   UNK d   0     -11.162   0.974  15.080  0.00  0.00     0.139 C 
ATOM     46  O   UNK d   0     -10.368   0.089  15.485  0.00  0.00    -0.650 OA
BRANCH  45  47
ATOM     47  O   UNK d   0     -10.694   2.257  14.894  0.00  0.00    -0.776 OA
ATOM     48  H   UNK d   0     -10.131   2.757  15.602  0.00  0.00     0.167 HD
ENDBRANCH  45  47
ENDBRANCH  44  45
ENDBRANCH  43  44
ENDBRANCH  27  43
BRANCH  24  49
ATOM     49  C   UNK d   0     -16.443  -3.694  14.820  0.00  0.00     0.052 C 
BRANCH  49  50
ATOM     50  C   UNK d   0     -16.648  -4.791  13.807  0.00  0.00     0.115 C 
BRANCH  50  51
ATOM     51  C   UNK d   0     -16.886  -6.134  14.319  0.00  0.00     0.139 C 
ATOM     52  O   UNK d   0     -16.026  -6.771  14.971  0.00  0.00    -0.650 OA
BRANCH  51  53
ATOM     53  O   UNK d   0     -18.105  -6.751  14.086  0.00  0.00    -0.776 OA
ATOM     54  H   UNK d   0     -18.898  -6.458  14.629  0.00  0.00     0.167 HD
ENDBRANCH  51  53
ENDBRANCH  50  51
ENDBRANCH  49  50
ENDBRANCH  24  49
BRANCH  21  55
ATOM     55  C   UNK d   0     -19.352  -2.966  15.565  0.00  0.00     0.151 C 
BRANCH  55  56
ATOM     56  C   UNK d   0     -20.127  -3.911  14.747  0.00  0.00     0.143 C 
ATOM     57  O   UNK d   0     -20.418  -5.060  15.135  0.00  0.00    -0.650 OA
BRANCH  56  58
ATOM     58  O   UNK d   0     -20.546  -3.487  13.487  0.00  0.00    -0.776 OA
ATOM     59  H   UNK d   0     -21.180  -2.668  13.491  0.00  0.00     0.167 HD
ENDBRANCH  56  58
ENDBRANCH  55  56
ENDBRANCH  21  55
BRANCH  18  60
ATOM     60  C   UNK d   0     -22.477   0.386  12.771  0.00  0.00     0.151 C 
BRANCH  60  61
ATOM     61  C   UNK d   0     -22.349  -0.529  11.627  0.00  0.00     0.143 C 
ATOM     62  O   UNK d   0     -21.313  -0.844  11.040  0.00  0.00    -0.650 OA
BRANCH  61  63
ATOM     63  O   UNK d   0     -23.563  -1.098  11.171  0.00  0.00    -0.776 OA
ATOM     64  H   UNK d   0     -23.718  -2.089  11.211  0.00  0.00     0.167 HD
ENDBRANCH  61  63
ENDBRANCH  60  61
ENDBRANCH  18  60
BRANCH  14  65
ATOM     65  C   UNK d   0     -22.355   3.052  11.326  0.00  0.00     0.052 C 
BRANCH  65  66
ATOM     66  C   UNK d   0     -22.343   2.787   9.862  0.00  0.00     0.115 C 
BRANCH  66  67
ATOM     67  C   UNK d   0     -23.221   1.793   9.311  0.00  0.00     0.139 C 
ATOM     68  O   UNK d   0     -22.787   1.054   8.353  0.00  0.00    -0.650 OA
BRANCH  67  69
ATOM     69  O   UNK d   0     -24.532   1.509   9.690  0.00  0.00    -0.776 OA
ATOM     70  H   UNK d   0     -24.952   2.158  10.371  0.00  0.00     0.167 HD
ENDBRANCH  67  69
ENDBRANCH  66  67
ENDBRANCH  65  66
ENDBRANCH  14  65
ENDBRANCH   6   7
ENDBRANCH   5   6
ENDBRANCH   2   5
TORSDOF 28
ENDMDL
MODEL 14
REMARK VINA RESULT:      -7.1     20.260     23.703
REMARK  28 active torsions:
REMARK  status: ('A' for Active; 'I' for Inactive)
REMARK    1  A    between atoms: C_2  and  O_3 
REMARK    2  A    between atoms: C_2  and  C_4 
REMARK    3  A    between atoms: C_4  and  C_5 
REMARK    4  A    between atoms: C_5  and  C_6 
REMARK    5  A    between atoms: C_7  and  C_8 
REMARK    6  A    between atoms: C_8  and  C_9 
REMARK    7  A    between atoms: C_9  and  O_11 
REMARK    8  A    between atoms: C_28  and  C_29 
REMARK    9  A    between atoms: C_29  and  C_30 
REMARK   10  A    between atoms: C_30  and  O_32 
REMARK   11  A    between atoms: C_33  and  C_34 
REMARK   12  A    between atoms: C_34  and  C_35 
REMARK   13  A    between atoms: C_35  and  C_36 
REMARK   14  A    between atoms: C_36  and  O_38 
REMARK   15  A    between atoms: C_39  and  C_40 
REMARK   16  A    between atoms: C_40  and  C_41 
REMARK   17  A    between atoms: C_41  and  C_42 
REMARK   18  A    between atoms: C_42  and  O_44 
REMARK   19  A    between atoms: C_45  and  C_46 
REMARK   20  A    between atoms: C_46  and  C_47 
REMARK   21  A    between atoms: C_47  and  O_49 
REMARK   22  A    between atoms: C_50  and  C_51 
REMARK   23  A    between atoms: C_51  and  C_52 
REMARK   24  A    between atoms: C_52  and  O_54 
REMARK   25  A    between atoms: C_55  and  C_56 
REMARK   26  A    between atoms: C_56  and  C_57 
REMARK   27  A    between atoms: C_57  and  C_58 
REMARK   28  A    between atoms: C_58  and  O_60 
ROOT
ATOM      1  O   UNK d   0      -8.315   6.392  18.108  0.00  0.00    -0.650 OA
ATOM      2  C   UNK d   0      -8.219   5.158  18.290  0.00  0.00     0.139 C 
ENDROOT
BRANCH   2   3
ATOM      3  O   UNK d   0      -7.036   4.636  18.758  0.00  0.00    -0.776 OA
ATOM      4  H   UNK d   0      -7.027   3.824  19.378  0.00  0.00     0.167 HD
ENDBRANCH   2   3
BRANCH   2   5
ATOM      5  C   UNK d   0      -9.377   4.266  18.002  0.00  0.00     0.115 C 
BRANCH   5   6
ATOM      6  C   UNK d   0      -8.939   3.107  17.149  0.00  0.00     0.052 C 
BRANCH   6   7
ATOM      7  C   UNK d   0      -9.570   1.802  17.572  0.00  0.00    -0.020 A 
ATOM      8  C   UNK d   0      -9.181   1.001  18.531  0.00  0.00    -0.011 A 
ATOM      9  C   UNK d   0     -10.090  -0.132  18.560  0.00  0.00     0.067 A 
ATOM     10  C   UNK d   0     -10.236  -1.293  19.335  0.00  0.00     0.062 C 
ATOM     11  N   UNK d   0     -10.999   0.057  17.580  0.00  0.00    -0.248 NA
ATOM     12  C   UNK d   0     -11.350  -2.139  19.393  0.00  0.00     0.041 A 
ATOM     13  N   UNK d   0     -12.148  -2.620  18.421  0.00  0.00    -0.355 N 
ATOM     14  C   UNK d   0     -11.817  -2.564  20.650  0.00  0.00    -0.022 A 
ATOM     15  C   UNK d   0     -13.114  -3.334  19.030  0.00  0.00     0.042 A 
ATOM     16  H   UNK d   0     -12.020  -2.475  17.326  0.00  0.00     0.166 HD
ATOM     17  C   UNK d   0     -14.201  -4.049  18.488  0.00  0.00     0.062 C 
ATOM     18  C   UNK d   0     -12.940  -3.322  20.427  0.00  0.00    -0.013 A 
ATOM     19  C   UNK d   0     -15.076  -3.670  17.502  0.00  0.00     0.067 A 
ATOM     20  N   UNK d   0     -14.769  -2.570  16.810  0.00  0.00    -0.248 NA
ATOM     21  C   UNK d   0     -16.339  -4.166  16.980  0.00  0.00    -0.011 A 
ATOM     22  C   UNK d   0     -15.740  -2.309  15.874  0.00  0.00     0.066 A 
ATOM     23  C   UNK d   0     -15.527  -1.210  15.056  0.00  0.00     0.062 C 
ATOM     24  C   UNK d   0     -16.724  -3.362  16.030  0.00  0.00    -0.020 A 
ATOM     25  C   UNK d   0     -14.396  -0.381  15.005  0.00  0.00     0.041 A 
ATOM     26  N   UNK d   0     -13.611   0.110  15.972  0.00  0.00    -0.355 N 
ATOM     27  C   UNK d   0     -13.925   0.042  13.743  0.00  0.00    -0.022 A 
ATOM     28  C   UNK d   0     -12.652   0.830  15.368  0.00  0.00     0.042 A 
ATOM     29  H   UNK d   0     -13.747  -0.028  17.073  0.00  0.00     0.166 HD
ATOM     30  C   UNK d   0     -11.571   1.553  15.895  0.00  0.00     0.062 C 
ATOM     31  C   UNK d   0     -12.822   0.808  13.963  0.00  0.00    -0.013 A 
ATOM     32  C   UNK d   0     -10.741   1.204  16.949  0.00  0.00     0.066 A 
BRANCH   8  33
ATOM     33  C   UNK d   0      -8.028   1.192  19.430  0.00  0.00     0.151 C 
BRANCH  33  34
ATOM     34  C   UNK d   0      -8.427   1.561  20.800  0.00  0.00     0.143 C 
ATOM     35  O   UNK d   0      -8.842   2.700  21.056  0.00  0.00    -0.650 OA
BRANCH  34  36
ATOM     36  O   UNK d   0      -8.334   0.627  21.805  0.00  0.00    -0.776 OA
ATOM     37  H   UNK d   0      -7.904   0.858  22.711  0.00  0.00     0.167 HD
ENDBRANCH  34  36
ENDBRANCH  33  34
ENDBRANCH   8  33
BRANCH  31  38
ATOM     38  C   UNK d   0     -11.970   1.470  12.905  0.00  0.00     0.151 C 
BRANCH  38  39
ATOM     39  C   UNK d   0     -10.984   0.575  12.337  0.00  0.00     0.143 C 
ATOM     40  O   UNK d   0     -10.279  -0.170  13.040  0.00  0.00    -0.650 OA
BRANCH  39  41
ATOM     41  O   UNK d   0     -10.810   0.535  10.954  0.00  0.00    -0.776 OA
ATOM     42  H   UNK d   0     -10.568   1.418  10.494  0.00  0.00     0.167 HD
ENDBRANCH  39  41
ENDBRANCH  38  39
ENDBRANCH  31  38
BRANCH  27  43
ATOM     43  C   UNK d   0     -14.475  -0.247  12.369  0.00  0.00     0.052 C 
BRANCH  43  44
ATOM     44  C   UNK d   0     -15.780   0.431  12.100  0.00  0.00     0.115 C 
BRANCH  44  45
ATOM     45  C   UNK d   0     -15.458   1.723  11.440  0.00  0.00     0.139 C 
ATOM     46  O   UNK d   0     -15.304   2.737  12.166  0.00  0.00    -0.650 OA
BRANCH  45  47
ATOM     47  O   UNK d   0     -15.318   1.850  10.075  0.00  0.00    -0.776 OA
ATOM     48  H   UNK d   0     -14.452   1.595   9.574  0.00  0.00     0.167 HD
ENDBRANCH  45  47
ENDBRANCH  44  45
ENDBRANCH  43  44
ENDBRANCH  27  43
BRANCH  24  49
ATOM     49  C   UNK d   0     -17.933  -3.512  15.203  0.00  0.00     0.052 C 
BRANCH  49  50
ATOM     50  C   UNK d   0     -19.150  -3.053  15.966  0.00  0.00     0.115 C 
BRANCH  50  51
ATOM     51  C   UNK d   0     -20.357  -3.860  15.840  0.00  0.00     0.139 C 
ATOM     52  O   UNK d   0     -21.496  -3.422  16.127  0.00  0.00    -0.650 OA
BRANCH  51  53
ATOM     53  O   UNK d   0     -20.264  -5.167  15.389  0.00  0.00    -0.776 OA
ATOM     54  H   UNK d   0     -20.576  -5.372  14.456  0.00  0.00     0.167 HD
ENDBRANCH  51  53
ENDBRANCH  50  51
ENDBRANCH  49  50
ENDBRANCH  24  49
BRANCH  21  55
ATOM     55  C   UNK d   0     -17.026  -5.392  17.481  0.00  0.00     0.151 C 
BRANCH  55  56
ATOM     56  C   UNK d   0     -16.930  -6.507  16.526  0.00  0.00     0.143 C 
ATOM     57  O   UNK d   0     -15.841  -6.993  16.163  0.00  0.00    -0.650 OA
BRANCH  56  58
ATOM     58  O   UNK d   0     -18.118  -7.030  16.017  0.00  0.00    -0.776 OA
ATOM     59  H   UNK d   0     -18.871  -6.335  15.867  0.00  0.00     0.167 HD
ENDBRANCH  56  58
ENDBRANCH  55  56
ENDBRANCH  21  55
BRANCH  18  60
ATOM     60  C   UNK d   0     -13.770  -3.974  21.505  0.00  0.00     0.151 C 
BRANCH  60  61
ATOM     61  C   UNK d   0     -14.733  -2.954  21.946  0.00  0.00     0.143 C 
ATOM     62  O   UNK d   0     -15.630  -2.441  21.275  0.00  0.00    -0.650 OA
BRANCH  61  63
ATOM     63  O   UNK d   0     -14.593  -2.533  23.290  0.00  0.00    -0.776 OA
ATOM     64  H   UNK d   0     -15.383  -2.202  23.815  0.00  0.00     0.167 HD
ENDBRANCH  61  63
ENDBRANCH  60  61
ENDBRANCH  18  60
BRANCH  14  65
ATOM     65  C   UNK d   0     -11.232  -2.393  22.023  0.00  0.00     0.052 C 
BRANCH  65  66
ATOM     66  C   UNK d   0     -10.132  -3.353  22.310  0.00  0.00     0.115 C 
BRANCH  66  67
ATOM     67  C   UNK d   0      -8.769  -2.899  22.292  0.00  0.00     0.139 C 
ATOM     68  O   UNK d   0      -7.994  -3.324  21.359  0.00  0.00    -0.650 OA
BRANCH  67  69
ATOM     69  O   UNK d   0      -8.148  -2.027  23.186  0.00  0.00    -0.776 OA
ATOM     70  H   UNK d   0      -8.181  -2.304  24.178  0.00  0.00     0.167 HD
ENDBRANCH  67  69
ENDBRANCH  66  67
ENDBRANCH  65  66
ENDBRANCH  14  65
ENDBRANCH   6   7
ENDBRANCH   5   6
ENDBRANCH   2   5
TORSDOF 28
ENDMDL
MODEL 15
REMARK VINA RESULT:      -7.0     19.708     22.712
REMARK  28 active torsions:
REMARK  status: ('A' for Active; 'I' for Inactive)
REMARK    1  A    between atoms: C_2  and  O_3 
REMARK    2  A    between atoms: C_2  and  C_4 
REMARK    3  A    between atoms: C_4  and  C_5 
REMARK    4  A    between atoms: C_5  and  C_6 
REMARK    5  A    between atoms: C_7  and  C_8 
REMARK    6  A    between atoms: C_8  and  C_9 
REMARK    7  A    between atoms: C_9  and  O_11 
REMARK    8  A    between atoms: C_28  and  C_29 
REMARK    9  A    between atoms: C_29  and  C_30 
REMARK   10  A    between atoms: C_30  and  O_32 
REMARK   11  A    between atoms: C_33  and  C_34 
REMARK   12  A    between atoms: C_34  and  C_35 
REMARK   13  A    between atoms: C_35  and  C_36 
REMARK   14  A    between atoms: C_36  and  O_38 
REMARK   15  A    between atoms: C_39  and  C_40 
REMARK   16  A    between atoms: C_40  and  C_41 
REMARK   17  A    between atoms: C_41  and  C_42 
REMARK   18  A    between atoms: C_42  and  O_44 
REMARK   19  A    between atoms: C_45  and  C_46 
REMARK   20  A    between atoms: C_46  and  C_47 
REMARK   21  A    between atoms: C_47  and  O_49 
REMARK   22  A    between atoms: C_50  and  C_51 
REMARK   23  A    between atoms: C_51  and  C_52 
REMARK   24  A    between atoms: C_52  and  O_54 
REMARK   25  A    between atoms: C_55  and  C_56 
REMARK   26  A    between atoms: C_56  and  C_57 
REMARK   27  A    between atoms: C_57  and  C_58 
REMARK   28  A    between atoms: C_58  and  O_60 
ROOT
ATOM      1  O   UNK d   0     -11.962  -4.006  17.740  0.00  0.00    -0.650 OA
ATOM      2  C   UNK d   0     -11.053  -3.203  18.042  0.00  0.00     0.139 C 
ENDROOT
BRANCH   2   3
ATOM      3  O   UNK d   0     -10.046  -2.953  17.140  0.00  0.00    -0.776 OA
ATOM      4  H   UNK d   0      -9.805  -3.634  16.417  0.00  0.00     0.167 HD
ENDBRANCH   2   3
BRANCH   2   5
ATOM      5  C   UNK d   0     -11.064  -2.525  19.370  0.00  0.00     0.115 C 
BRANCH   5   6
ATOM      6  C   UNK d   0     -12.248  -1.603  19.471  0.00  0.00     0.052 C 
BRANCH   6   7
ATOM      7  C   UNK d   0     -12.043  -0.310  18.717  0.00  0.00    -0.020 A 
ATOM      8  C   UNK d   0     -11.414   0.762  19.128  0.00  0.00    -0.011 A 
ATOM      9  C   UNK d   0     -11.483   1.752  18.065  0.00  0.00     0.067 A 
ATOM     10  C   UNK d   0     -11.008   3.057  17.866  0.00  0.00     0.062 C 
ATOM     11  N   UNK d   0     -12.177   1.200  17.048  0.00  0.00    -0.248 NA
ATOM     12  C   UNK d   0     -10.936   3.757  16.657  0.00  0.00     0.041 A 
ATOM     13  N   UNK d   0     -11.812   3.861  15.639  0.00  0.00    -0.355 N 
ATOM     14  C   UNK d   0      -9.756   4.458  16.345  0.00  0.00    -0.022 A 
ATOM     15  C   UNK d   0     -11.215   4.603  14.687  0.00  0.00     0.042 A 
ATOM     16  H   UNK d   0     -12.838   3.435  15.603  0.00  0.00     0.166 HD
ATOM     17  C   UNK d   0     -11.684   5.016  13.424  0.00  0.00     0.062 C 
ATOM     18  C   UNK d   0      -9.925   4.995  15.093  0.00  0.00    -0.013 A 
ATOM     19  C   UNK d   0     -12.343   4.286  12.468  0.00  0.00     0.067 A 
ATOM     20  N   UNK d   0     -12.787   3.079  12.828  0.00  0.00    -0.248 NA
ATOM     21  C   UNK d   0     -12.702   4.475  11.072  0.00  0.00    -0.011 A 
ATOM     22  C   UNK d   0     -13.409   2.464  11.768  0.00  0.00     0.066 A 
ATOM     23  C   UNK d   0     -13.953   1.213  12.015  0.00  0.00     0.062 C 
ATOM     24  C   UNK d   0     -13.322   3.404  10.668  0.00  0.00    -0.020 A 
ATOM     25  C   UNK d   0     -14.027   0.533  13.240  0.00  0.00     0.041 A 
ATOM     26  N   UNK d   0     -13.150   0.417  14.245  0.00  0.00    -0.355 N 
ATOM     27  C   UNK d   0     -15.212  -0.167  13.554  0.00  0.00    -0.022 A 
ATOM     28  C   UNK d   0     -13.739  -0.330  15.193  0.00  0.00     0.042 A 
ATOM     29  H   UNK d   0     -12.115   0.837  14.276  0.00  0.00     0.166 HD
ATOM     30  C   UNK d   0     -13.281  -0.756  16.449  0.00  0.00     0.062 C 
ATOM     31  C   UNK d   0     -15.039  -0.715  14.788  0.00  0.00    -0.013 A 
ATOM     32  C   UNK d   0     -12.541  -0.040  17.377  0.00  0.00     0.066 A 
BRANCH   8  33
ATOM     33  C   UNK d   0     -10.753   0.955  20.431  0.00  0.00     0.151 C 
BRANCH  33  34
ATOM     34  C   UNK d   0      -9.293   0.758  20.365  0.00  0.00     0.143 C 
ATOM     35  O   UNK d   0      -8.548   1.227  21.237  0.00  0.00    -0.650 OA
BRANCH  34  36
ATOM     36  O   UNK d   0      -8.755   0.044  19.320  0.00  0.00    -0.776 OA
ATOM     37  H   UNK d   0      -8.895  -0.972  19.239  0.00  0.00     0.167 HD
ENDBRANCH  34  36
ENDBRANCH  33  34
ENDBRANCH   8  33
BRANCH  31  38
ATOM     38  C   UNK d   0     -16.051  -1.544  15.545  0.00  0.00     0.151 C 
BRANCH  38  39
ATOM     39  C   UNK d   0     -15.949  -2.958  15.253  0.00  0.00     0.143 C 
ATOM     40  O   UNK d   0     -15.555  -3.784  16.095  0.00  0.00    -0.650 OA
BRANCH  39  41
ATOM     41  O   UNK d   0     -16.303  -3.425  13.988  0.00  0.00    -0.776 OA
ATOM     42  H   UNK d   0     -17.304  -3.456  13.771  0.00  0.00     0.167 HD
ENDBRANCH  39  41
ENDBRANCH  38  39
ENDBRANCH  31  38
BRANCH  27  43
ATOM     43  C   UNK d   0     -16.472  -0.330  12.741  0.00  0.00     0.052 C 
BRANCH  43  44
ATOM     44  C   UNK d   0     -17.604   0.514  13.230  0.00  0.00     0.115 C 
BRANCH  44  45
ATOM     45  C   UNK d   0     -18.810  -0.355  13.236  0.00  0.00     0.139 C 
ATOM     46  O   UNK d   0     -18.647  -1.594  13.119  0.00  0.00    -0.650 OA
BRANCH  45  47
ATOM     47  O   UNK d   0     -20.088   0.142  13.371  0.00  0.00    -0.776 OA
ATOM     48  H   UNK d   0     -20.741   0.233  12.576  0.00  0.00     0.167 HD
ENDBRANCH  45  47
ENDBRANCH  44  45
ENDBRANCH  43  44
ENDBRANCH  27  43
BRANCH  24  49
ATOM     49  C   UNK d   0     -13.894   3.185   9.328  0.00  0.00     0.052 C 
BRANCH  49  50
ATOM     50  C   UNK d   0     -15.390   3.023   9.416  0.00  0.00     0.115 C 
BRANCH  50  51
ATOM     51  C   UNK d   0     -16.177   3.483   8.280  0.00  0.00     0.139 C 
ATOM     52  O   UNK d   0     -17.428   3.421   8.256  0.00  0.00    -0.650 OA
BRANCH  51  53
ATOM     53  O   UNK d   0     -15.536   4.011   7.170  0.00  0.00    -0.776 OA
ATOM     54  H   UNK d   0     -16.001   3.956   6.281  0.00  0.00     0.167 HD
ENDBRANCH  51  53
ENDBRANCH  50  51
ENDBRANCH  49  50
ENDBRANCH  24  49
BRANCH  21  55
ATOM     55  C   UNK d   0     -12.392   5.708  10.290  0.00  0.00     0.151 C 
BRANCH  55  56
ATOM     56  C   UNK d   0     -13.509   6.666  10.305  0.00  0.00     0.143 C 
ATOM     57  O   UNK d   0     -14.385   6.694   9.419  0.00  0.00    -0.650 OA
BRANCH  56  58
ATOM     58  O   UNK d   0     -13.572   7.572  11.362  0.00  0.00    -0.776 OA
ATOM     59  H   UNK d   0     -14.435   8.145  11.394  0.00  0.00     0.167 HD
ENDBRANCH  56  58
ENDBRANCH  55  56
ENDBRANCH  21  55
BRANCH  18  60
ATOM     60  C   UNK d   0      -8.897   5.823  14.362  0.00  0.00     0.151 C 
BRANCH  60  61
ATOM     61  C   UNK d   0      -9.220   7.226  14.663  0.00  0.00     0.143 C 
ATOM     62  O   UNK d   0      -8.941   7.847  15.689  0.00  0.00    -0.650 OA
BRANCH  61  63
ATOM     63  O   UNK d   0      -9.926   7.913  13.647  0.00  0.00    -0.776 OA
ATOM     64  H   UNK d   0     -10.390   8.784  13.837  0.00  0.00     0.167 HD
ENDBRANCH  61  63
ENDBRANCH  60  61
ENDBRANCH  18  60
BRANCH  14  65
ATOM     65  C   UNK d   0      -8.534   4.737  17.172  0.00  0.00     0.052 C 
BRANCH  65  66
ATOM     66  C   UNK d   0      -7.569   3.605  17.185  0.00  0.00     0.115 C 
BRANCH  66  67
ATOM     67  C   UNK d   0      -7.162   3.031  18.436  0.00  0.00     0.139 C 
ATOM     68  O   UNK d   0      -6.554   1.898  18.423  0.00  0.00    -0.650 OA
BRANCH  67  69
ATOM     69  O   UNK d   0      -7.344   3.555  19.716  0.00  0.00    -0.776 OA
ATOM     70  H   UNK d   0      -7.830   4.463  19.763  0.00  0.00     0.167 HD
ENDBRANCH  67  69
ENDBRANCH  66  67
ENDBRANCH  65  66
ENDBRANCH  14  65
ENDBRANCH   6   7
ENDBRANCH   5   6
ENDBRANCH   2   5
TORSDOF 28
ENDMDL
MODEL 16
REMARK VINA RESULT:      -7.0     19.486     22.592
REMARK  28 active torsions:
REMARK  status: ('A' for Active; 'I' for Inactive)
REMARK    1  A    between atoms: C_2  and  O_3 
REMARK    2  A    between atoms: C_2  and  C_4 
REMARK    3  A    between atoms: C_4  and  C_5 
REMARK    4  A    between atoms: C_5  and  C_6 
REMARK    5  A    between atoms: C_7  and  C_8 
REMARK    6  A    between atoms: C_8  and  C_9 
REMARK    7  A    between atoms: C_9  and  O_11 
REMARK    8  A    between atoms: C_28  and  C_29 
REMARK    9  A    between atoms: C_29  and  C_30 
REMARK   10  A    between atoms: C_30  and  O_32 
REMARK   11  A    between atoms: C_33  and  C_34 
REMARK   12  A    between atoms: C_34  and  C_35 
REMARK   13  A    between atoms: C_35  and  C_36 
REMARK   14  A    between atoms: C_36  and  O_38 
REMARK   15  A    between atoms: C_39  and  C_40 
REMARK   16  A    between atoms: C_40  and  C_41 
REMARK   17  A    between atoms: C_41  and  C_42 
REMARK   18  A    between atoms: C_42  and  O_44 
REMARK   19  A    between atoms: C_45  and  C_46 
REMARK   20  A    between atoms: C_46  and  C_47 
REMARK   21  A    between atoms: C_47  and  O_49 
REMARK   22  A    between atoms: C_50  and  C_51 
REMARK   23  A    between atoms: C_51  and  C_52 
REMARK   24  A    between atoms: C_52  and  O_54 
REMARK   25  A    between atoms: C_55  and  C_56 
REMARK   26  A    between atoms: C_56  and  C_57 
REMARK   27  A    between atoms: C_57  and  C_58 
REMARK   28  A    between atoms: C_58  and  O_60 
ROOT
ATOM      1  O   UNK d   0      -6.967   3.434  18.291  0.00  0.00    -0.650 OA
ATOM      2  C   UNK d   0      -6.943   2.185  18.361  0.00  0.00     0.139 C 
ENDROOT
BRANCH   2   3
ATOM      3  O   UNK d   0      -5.794   1.556  18.777  0.00  0.00    -0.776 OA
ATOM      4  H   UNK d   0      -4.886   1.795  18.373  0.00  0.00     0.167 HD
ENDBRANCH   2   3
BRANCH   2   5
ATOM      5  C   UNK d   0      -8.150   1.391  17.995  0.00  0.00     0.115 C 
BRANCH   5   6
ATOM      6  C   UNK d   0      -9.110   1.345  19.152  0.00  0.00     0.052 C 
BRANCH   6   7
ATOM      7  C   UNK d   0     -10.067   0.180  19.067  0.00  0.00    -0.020 A 
ATOM      8  C   UNK d   0     -10.139  -0.854  19.866  0.00  0.00    -0.011 A 
ATOM      9  C   UNK d   0     -11.206  -1.715  19.384  0.00  0.00     0.067 A 
ATOM     10  C   UNK d   0     -11.789  -2.926  19.787  0.00  0.00     0.062 C 
ATOM     11  N   UNK d   0     -11.725  -1.132  18.284  0.00  0.00    -0.248 NA
ATOM     12  C   UNK d   0     -13.003  -3.469  19.350  0.00  0.00     0.041 A 
ATOM     13  N   UNK d   0     -13.545  -3.553  18.121  0.00  0.00    -0.355 N 
ATOM     14  C   UNK d   0     -13.897  -3.990  20.303  0.00  0.00    -0.022 A 
ATOM     15  C   UNK d   0     -14.763  -4.107  18.269  0.00  0.00     0.042 A 
ATOM     16  H   UNK d   0     -13.068  -3.245  17.164  0.00  0.00     0.166 HD
ATOM     17  C   UNK d   0     -15.747  -4.421  17.311  0.00  0.00     0.062 C 
ATOM     18  C   UNK d   0     -15.020  -4.394  19.624  0.00  0.00    -0.013 A 
ATOM     19  C   UNK d   0     -16.199  -3.665  16.259  0.00  0.00     0.067 A 
ATOM     20  N   UNK d   0     -15.502  -2.566  15.961  0.00  0.00    -0.248 NA
ATOM     21  C   UNK d   0     -17.313  -3.731  15.329  0.00  0.00    -0.011 A 
ATOM     22  C   UNK d   0     -16.080  -1.908  14.903  0.00  0.00     0.066 A 
ATOM     23  C   UNK d   0     -15.432  -0.763  14.461  0.00  0.00     0.062 C 
ATOM     24  C   UNK d   0     -17.240  -2.697  14.540  0.00  0.00    -0.020 A 
ATOM     25  C   UNK d   0     -14.207  -0.242  14.905  0.00  0.00     0.041 A 
ATOM     26  N   UNK d   0     -13.675  -0.145  16.129  0.00  0.00    -0.355 N 
ATOM     27  C   UNK d   0     -13.308   0.277  13.948  0.00  0.00    -0.022 A 
ATOM     28  C   UNK d   0     -12.463   0.415  15.984  0.00  0.00     0.042 A 
ATOM     29  H   UNK d   0     -14.160  -0.445  17.090  0.00  0.00     0.166 HD
ATOM     30  C   UNK d   0     -11.479   0.742  16.930  0.00  0.00     0.062 C 
ATOM     31  C   UNK d   0     -12.202   0.694  14.622  0.00  0.00    -0.013 A 
ATOM     32  C   UNK d   0     -11.084   0.012  18.040  0.00  0.00     0.066 A 
BRANCH   8  33
ATOM     33  C   UNK d   0      -9.296  -1.120  21.046  0.00  0.00     0.151 C 
BRANCH  33  34
ATOM     34  C   UNK d   0      -9.423  -0.082  22.085  0.00  0.00     0.143 C 
ATOM     35  O   UNK d   0      -8.418   0.436  22.593  0.00  0.00    -0.650 OA
BRANCH  34  36
ATOM     36  O   UNK d   0     -10.675   0.315  22.494  0.00  0.00    -0.776 OA
ATOM     37  H   UNK d   0     -10.841   0.657  23.450  0.00  0.00     0.167 HD
ENDBRANCH  34  36
ENDBRANCH  33  34
ENDBRANCH   8  33
BRANCH  31  38
ATOM     38  C   UNK d   0     -10.965   1.309  14.010  0.00  0.00     0.151 C 
BRANCH  38  39
ATOM     39  C   UNK d   0     -11.103   2.730  13.772  0.00  0.00     0.143 C 
ATOM     40  O   UNK d   0     -11.521   3.514  14.643  0.00  0.00    -0.650 OA
BRANCH  39  41
ATOM     41  O   UNK d   0     -10.758   3.254  12.527  0.00  0.00    -0.776 OA
ATOM     42  H   UNK d   0      -9.980   2.803  12.036  0.00  0.00     0.167 HD
ENDBRANCH  39  41
ENDBRANCH  38  39
ENDBRANCH  31  38
BRANCH  27  43
ATOM     43  C   UNK d   0     -13.461   0.389  12.451  0.00  0.00     0.052 C 
BRANCH  43  44
ATOM     44  C   UNK d   0     -14.092   1.672  12.016  0.00  0.00     0.115 C 
BRANCH  44  45
ATOM     45  C   UNK d   0     -15.352   1.309  11.316  0.00  0.00     0.139 C 
ATOM     46  O   UNK d   0     -15.943   2.202  10.661  0.00  0.00    -0.650 OA
BRANCH  45  47
ATOM     47  O   UNK d   0     -15.889   0.040  11.353  0.00  0.00    -0.776 OA
ATOM     48  H   UNK d   0     -16.871  -0.160  11.105  0.00  0.00     0.167 HD
ENDBRANCH  45  47
ENDBRANCH  44  45
ENDBRANCH  43  44
ENDBRANCH  27  43
BRANCH  24  49
ATOM     49  C   UNK d   0     -18.150  -2.391  13.423  0.00  0.00     0.052 C 
BRANCH  49  50
ATOM     50  C   UNK d   0     -19.061  -1.247  13.787  0.00  0.00     0.115 C 
BRANCH  50  51
ATOM     51  C   UNK d   0     -19.186  -0.163  12.821  0.00  0.00     0.139 C 
ATOM     52  O   UNK d   0     -18.403   0.815  12.798  0.00  0.00    -0.650 OA
BRANCH  51  53
ATOM     53  O   UNK d   0     -20.207  -0.194  11.883  0.00  0.00    -0.776 OA
ATOM     54  H   UNK d   0     -21.153  -0.263  12.213  0.00  0.00     0.167 HD
ENDBRANCH  51  53
ENDBRANCH  50  51
ENDBRANCH  49  50
ENDBRANCH  24  49
BRANCH  21  55
ATOM     55  C   UNK d   0     -18.332  -4.821  15.321  0.00  0.00     0.151 C 
BRANCH  55  56
ATOM     56  C   UNK d   0     -19.503  -4.488  16.148  0.00  0.00     0.143 C 
ATOM     57  O   UNK d   0     -20.664  -4.465  15.695  0.00  0.00    -0.650 OA
BRANCH  56  58
ATOM     58  O   UNK d   0     -19.284  -4.189  17.492  0.00  0.00    -0.776 OA
ATOM     59  H   UNK d   0     -18.294  -4.020  17.746  0.00  0.00     0.167 HD
ENDBRANCH  56  58
ENDBRANCH  55  56
ENDBRANCH  21  55
BRANCH  18  60
ATOM     60  C   UNK d   0     -16.241  -5.009  20.261  0.00  0.00     0.151 C 
BRANCH  60  61
ATOM     61  C   UNK d   0     -17.143  -3.889  20.570  0.00  0.00     0.143 C 
ATOM     62  O   UNK d   0     -17.610  -3.072  19.775  0.00  0.00    -0.650 OA
BRANCH  61  63
ATOM     63  O   UNK d   0     -17.496  -3.758  21.934  0.00  0.00    -0.776 OA
ATOM     64  H   UNK d   0     -17.650  -4.567  22.510  0.00  0.00     0.167 HD
ENDBRANCH  61  63
ENDBRANCH  60  61
ENDBRANCH  18  60
BRANCH  14  65
ATOM     65  C   UNK d   0     -13.733  -4.223  21.778  0.00  0.00     0.052 C 
BRANCH  65  66
ATOM     66  C   UNK d   0     -14.122  -3.045  22.600  0.00  0.00     0.115 C 
BRANCH  66  67
ATOM     67  C   UNK d   0     -13.166  -2.001  22.844  0.00  0.00     0.139 C 
ATOM     68  O   UNK d   0     -13.347  -0.860  22.280  0.00  0.00    -0.650 OA
BRANCH  67  69
ATOM     69  O   UNK d   0     -12.024  -2.060  23.642  0.00  0.00    -0.776 OA
ATOM     70  H   UNK d   0     -12.020  -2.794  24.365  0.00  0.00     0.167 HD
ENDBRANCH  67  69
ENDBRANCH  66  67
ENDBRANCH  65  66
ENDBRANCH  14  65
ENDBRANCH   6   7
ENDBRANCH   5   6
ENDBRANCH   2   5
TORSDOF 28
ENDMDL
MODEL 17
REMARK VINA RESULT:      -7.0     20.626     24.021
REMARK  28 active torsions:
REMARK  status: ('A' for Active; 'I' for Inactive)
REMARK    1  A    between atoms: C_2  and  O_3 
REMARK    2  A    between atoms: C_2  and  C_4 
REMARK    3  A    between atoms: C_4  and  C_5 
REMARK    4  A    between atoms: C_5  and  C_6 
REMARK    5  A    between atoms: C_7  and  C_8 
REMARK    6  A    between atoms: C_8  and  C_9 
REMARK    7  A    between atoms: C_9  and  O_11 
REMARK    8  A    between atoms: C_28  and  C_29 
REMARK    9  A    between atoms: C_29  and  C_30 
REMARK   10  A    between atoms: C_30  and  O_32 
REMARK   11  A    between atoms: C_33  and  C_34 
REMARK   12  A    between atoms: C_34  and  C_35 
REMARK   13  A    between atoms: C_35  and  C_36 
REMARK   14  A    between atoms: C_36  and  O_38 
REMARK   15  A    between atoms: C_39  and  C_40 
REMARK   16  A    between atoms: C_40  and  C_41 
REMARK   17  A    between atoms: C_41  and  C_42 
REMARK   18  A    between atoms: C_42  and  O_44 
REMARK   19  A    between atoms: C_45  and  C_46 
REMARK   20  A    between atoms: C_46  and  C_47 
REMARK   21  A    between atoms: C_47  and  O_49 
REMARK   22  A    between atoms: C_50  and  C_51 
REMARK   23  A    between atoms: C_51  and  C_52 
REMARK   24  A    between atoms: C_52  and  O_54 
REMARK   25  A    between atoms: C_55  and  C_56 
REMARK   26  A    between atoms: C_56  and  C_57 
REMARK   27  A    between atoms: C_57  and  C_58 
REMARK   28  A    between atoms: C_58  and  O_60 
ROOT
ATOM      1  O   UNK d   0      -8.390   0.428  18.938  0.00  0.00    -0.650 OA
ATOM      2  C   UNK d   0      -9.244  -0.119  19.670  0.00  0.00     0.139 C 
ENDROOT
BRANCH   2   3
ATOM      3  O   UNK d   0      -9.133  -1.461  19.946  0.00  0.00    -0.776 OA
ATOM      4  H   UNK d   0      -9.671  -2.154  19.421  0.00  0.00     0.167 HD
ENDBRANCH   2   3
BRANCH   2   5
ATOM      5  C   UNK d   0     -10.368   0.679  20.234  0.00  0.00     0.115 C 
BRANCH   5   6
ATOM      6  C   UNK d   0     -11.674   0.226  19.641  0.00  0.00     0.052 C 
BRANCH   6   7
ATOM      7  C   UNK d   0     -11.792   0.557  18.172  0.00  0.00    -0.020 A 
ATOM      8  C   UNK d   0     -12.107  -0.252  17.194  0.00  0.00    -0.011 A 
ATOM      9  C   UNK d   0     -12.085   0.513  15.958  0.00  0.00     0.067 A 
ATOM     10  C   UNK d   0     -12.340   0.254  14.603  0.00  0.00     0.062 C 
ATOM     11  N   UNK d   0     -11.740   1.778  16.277  0.00  0.00    -0.248 NA
ATOM     12  C   UNK d   0     -12.538   1.193  13.584  0.00  0.00     0.041 A 
ATOM     13  N   UNK d   0     -11.897   2.343  13.301  0.00  0.00    -0.355 N 
ATOM     14  C   UNK d   0     -13.605   1.008  12.686  0.00  0.00    -0.022 A 
ATOM     15  C   UNK d   0     -12.534   2.896  12.252  0.00  0.00     0.042 A 
ATOM     16  H   UNK d   0     -10.999   2.745  13.820  0.00  0.00     0.166 HD
ATOM     17  C   UNK d   0     -12.279   4.094  11.556  0.00  0.00     0.062 C 
ATOM     18  C   UNK d   0     -13.611   2.088  11.839  0.00  0.00    -0.013 A 
ATOM     19  C   UNK d   0     -11.987   5.337  12.058  0.00  0.00     0.067 A 
ATOM     20  N   UNK d   0     -11.709   5.413  13.362  0.00  0.00    -0.248 NA
ATOM     21  C   UNK d   0     -11.907   6.687  11.524  0.00  0.00    -0.011 A 
ATOM     22  C   UNK d   0     -11.454   6.714  13.720  0.00  0.00     0.066 A 
ATOM     23  C   UNK d   0     -11.112   6.933  15.046  0.00  0.00     0.062 C 
ATOM     24  C   UNK d   0     -11.598   7.488  12.502  0.00  0.00    -0.020 A 
ATOM     25  C   UNK d   0     -10.906   5.975  16.051  0.00  0.00     0.041 A 
ATOM     26  N   UNK d   0     -11.552   4.840  16.341  0.00  0.00    -0.355 N 
ATOM     27  C   UNK d   0      -9.831   6.159  16.948  0.00  0.00    -0.022 A 
ATOM     28  C   UNK d   0     -10.924   4.291  17.392  0.00  0.00     0.042 A 
ATOM     29  H   UNK d   0     -12.460   4.442  15.825  0.00  0.00     0.166 HD
ATOM     30  C   UNK d   0     -11.173   3.104  18.100  0.00  0.00     0.062 C 
ATOM     31  C   UNK d   0      -9.835   5.098  17.800  0.00  0.00    -0.013 A 
ATOM     32  C   UNK d   0     -11.550   1.871  17.594  0.00  0.00     0.066 A 
BRANCH   8  33
ATOM     33  C   UNK d   0     -12.427  -1.688  17.301  0.00  0.00     0.151 C 
BRANCH  33  34
ATOM     34  C   UNK d   0     -11.232  -2.523  17.525  0.00  0.00     0.143 C 
ATOM     35  O   UNK d   0     -11.124  -3.219  18.544  0.00  0.00    -0.650 OA
BRANCH  34  36
ATOM     36  O   UNK d   0     -10.225  -2.526  16.587  0.00  0.00    -0.776 OA
ATOM     37  H   UNK d   0      -9.534  -3.287  16.548  0.00  0.00     0.167 HD
ENDBRANCH  34  36
ENDBRANCH  33  34
ENDBRANCH   8  33
BRANCH  31  38
ATOM     38  C   UNK d   0      -8.857   4.855  18.926  0.00  0.00     0.151 C 
BRANCH  38  39
ATOM     39  C   UNK d   0      -7.729   4.043  18.524  0.00  0.00     0.143 C 
ATOM     40  O   UNK d   0      -7.132   4.219  17.448  0.00  0.00    -0.650 OA
BRANCH  39  41
ATOM     41  O   UNK d   0      -7.284   3.023  19.365  0.00  0.00    -0.776 OA
ATOM     42  H   UNK d   0      -6.557   2.403  18.994  0.00  0.00     0.167 HD
ENDBRANCH  39  41
ENDBRANCH  38  39
ENDBRANCH  31  38
BRANCH  27  43
ATOM     43  C   UNK d   0      -8.828   7.283  17.024  0.00  0.00     0.052 C 
BRANCH  43  44
ATOM     44  C   UNK d   0      -7.899   7.325  15.855  0.00  0.00     0.115 C 
BRANCH  44  45
ATOM     45  C   UNK d   0      -7.767   8.754  15.469  0.00  0.00     0.139 C 
ATOM     46  O   UNK d   0      -8.456   9.172  14.505  0.00  0.00    -0.650 OA
BRANCH  45  47
ATOM     47  O   UNK d   0      -6.931   9.631  16.124  0.00  0.00    -0.776 OA
ATOM     48  H   UNK d   0      -7.260  10.274  16.862  0.00  0.00     0.167 HD
ENDBRANCH  45  47
ENDBRANCH  44  45
ENDBRANCH  43  44
ENDBRANCH  27  43
BRANCH  24  49
ATOM     49  C   UNK d   0     -11.377   8.941  12.398  0.00  0.00     0.052 C 
BRANCH  49  50
ATOM     50  C   UNK d   0     -12.631   9.690  12.771  0.00  0.00     0.115 C 
BRANCH  50  51
ATOM     51  C   UNK d   0     -12.991  10.836  11.947  0.00  0.00     0.139 C 
ATOM     52  O   UNK d   0     -12.188  11.764  11.691  0.00  0.00    -0.650 OA
BRANCH  51  53
ATOM     53  O   UNK d   0     -14.269  10.926  11.417  0.00  0.00    -0.776 OA
ATOM     54  H   UNK d   0     -14.861  11.676  11.727  0.00  0.00     0.167 HD
ENDBRANCH  51  53
ENDBRANCH  50  51
ENDBRANCH  49  50
ENDBRANCH  24  49
BRANCH  21  55
ATOM     55  C   UNK d   0     -12.142   7.033  10.091  0.00  0.00     0.151 C 
BRANCH  55  56
ATOM     56  C   UNK d   0     -13.518   7.496   9.854  0.00  0.00     0.143 C 
ATOM     57  O   UNK d   0     -14.516   6.777  10.060  0.00  0.00    -0.650 OA
BRANCH  56  58
ATOM     58  O   UNK d   0     -13.694   8.794   9.380  0.00  0.00    -0.776 OA
ATOM     59  H   UNK d   0     -14.047   9.471  10.081  0.00  0.00     0.167 HD
ENDBRANCH  56  58
ENDBRANCH  55  56
ENDBRANCH  21  55
BRANCH  18  60
ATOM     60  C   UNK d   0     -14.600   2.303  10.720  0.00  0.00     0.151 C 
BRANCH  60  61
ATOM     61  C   UNK d   0     -15.699   3.091  11.298  0.00  0.00     0.143 C 
ATOM     62  O   UNK d   0     -15.678   4.284  11.601  0.00  0.00    -0.650 OA
BRANCH  61  63
ATOM     63  O   UNK d   0     -16.901   2.376  11.519  0.00  0.00    -0.776 OA
ATOM     64  H   UNK d   0     -17.435   2.009  10.751  0.00  0.00     0.167 HD
ENDBRANCH  61  63
ENDBRANCH  60  61
ENDBRANCH  18  60
BRANCH  14  65
ATOM     65  C   UNK d   0     -14.548  -0.148  12.508  0.00  0.00     0.052 C 
BRANCH  65  66
ATOM     66  C   UNK d   0     -15.706  -0.103  13.442  0.00  0.00     0.115 C 
BRANCH  66  67
ATOM     67  C   UNK d   0     -16.929  -0.768  13.091  0.00  0.00     0.139 C 
ATOM     68  O   UNK d   0     -17.909  -0.060  12.653  0.00  0.00    -0.650 OA
BRANCH  67  69
ATOM     69  O   UNK d   0     -17.210  -2.132  13.164  0.00  0.00    -0.776 OA
ATOM     70  H   UNK d   0     -17.148  -2.650  12.276  0.00  0.00     0.167 HD
ENDBRANCH  67  69
ENDBRANCH  66  67
ENDBRANCH  65  66
ENDBRANCH  14  65
ENDBRANCH   6   7
ENDBRANCH   5   6
ENDBRANCH   2   5
TORSDOF 28
ENDMDL
MODEL 18
REMARK VINA RESULT:      -7.0     19.930     24.588
REMARK  28 active torsions:
REMARK  status: ('A' for Active; 'I' for Inactive)
REMARK    1  A    between atoms: C_2  and  O_3 
REMARK    2  A    between atoms: C_2  and  C_4 
REMARK    3  A    between atoms: C_4  and  C_5 
REMARK    4  A    between atoms: C_5  and  C_6 
REMARK    5  A    between atoms: C_7  and  C_8 
REMARK    6  A    between atoms: C_8  and  C_9 
REMARK    7  A    between atoms: C_9  and  O_11 
REMARK    8  A    between atoms: C_28  and  C_29 
REMARK    9  A    between atoms: C_29  and  C_30 
REMARK   10  A    between atoms: C_30  and  O_32 
REMARK   11  A    between atoms: C_33  and  C_34 
REMARK   12  A    between atoms: C_34  and  C_35 
REMARK   13  A    between atoms: C_35  and  C_36 
REMARK   14  A    between atoms: C_36  and  O_38 
REMARK   15  A    between atoms: C_39  and  C_40 
REMARK   16  A    between atoms: C_40  and  C_41 
REMARK   17  A    between atoms: C_41  and  C_42 
REMARK   18  A    between atoms: C_42  and  O_44 
REMARK   19  A    between atoms: C_45  and  C_46 
REMARK   20  A    between atoms: C_46  and  C_47 
REMARK   21  A    between atoms: C_47  and  O_49 
REMARK   22  A    between atoms: C_50  and  C_51 
REMARK   23  A    between atoms: C_51  and  C_52 
REMARK   24  A    between atoms: C_52  and  O_54 
REMARK   25  A    between atoms: C_55  and  C_56 
REMARK   26  A    between atoms: C_56  and  C_57 
REMARK   27  A    between atoms: C_57  and  C_58 
REMARK   28  A    between atoms: C_58  and  O_60 
ROOT
ATOM      1  O   UNK d   0     -18.299   9.621   8.594  0.00  0.00    -0.650 OA
ATOM      2  C   UNK d   0     -17.729   8.509   8.532  0.00  0.00     0.139 C 
ENDROOT
BRANCH   2   3
ATOM      3  O   UNK d   0     -18.287   7.506   7.777  0.00  0.00    -0.776 OA
ATOM      4  H   UNK d   0     -19.136   7.668   7.231  0.00  0.00     0.167 HD
ENDBRANCH   2   3
BRANCH   2   5
ATOM      5  C   UNK d   0     -16.457   8.278   9.274  0.00  0.00     0.115 C 
BRANCH   5   6
ATOM      6  C   UNK d   0     -15.797   7.015   8.790  0.00  0.00     0.052 C 
BRANCH   6   7
ATOM      7  C   UNK d   0     -15.328   6.134   9.923  0.00  0.00    -0.020 A 
ATOM      8  C   UNK d   0     -15.850   5.003  10.324  0.00  0.00    -0.011 A 
ATOM      9  C   UNK d   0     -15.064   4.525  11.450  0.00  0.00     0.067 A 
ATOM     10  C   UNK d   0     -15.081   3.402  12.292  0.00  0.00     0.062 C 
ATOM     11  N   UNK d   0     -14.088   5.430  11.670  0.00  0.00    -0.248 NA
ATOM     12  C   UNK d   0     -14.065   2.974  13.153  0.00  0.00     0.041 A 
ATOM     13  N   UNK d   0     -13.267   3.660  13.993  0.00  0.00    -0.355 N 
ATOM     14  C   UNK d   0     -13.716   1.611  13.169  0.00  0.00    -0.022 A 
ATOM     15  C   UNK d   0     -12.415   2.769  14.534  0.00  0.00     0.042 A 
ATOM     16  H   UNK d   0     -13.317   4.749  14.213  0.00  0.00     0.166 HD
ATOM     17  C   UNK d   0     -11.378   2.950  15.471  0.00  0.00     0.062 C 
ATOM     18  C   UNK d   0     -12.665   1.474  14.042  0.00  0.00    -0.013 A 
ATOM     19  C   UNK d   0     -10.414   3.925  15.514  0.00  0.00     0.067 A 
ATOM     20  N   UNK d   0     -10.568   4.964  14.688  0.00  0.00    -0.248 NA
ATOM     21  C   UNK d   0      -9.182   4.144  16.252  0.00  0.00    -0.011 A 
ATOM     22  C   UNK d   0      -9.525   5.845  14.832  0.00  0.00     0.066 A 
ATOM     23  C   UNK d   0      -9.577   6.994  14.057  0.00  0.00     0.062 C 
ATOM     24  C   UNK d   0      -8.664   5.267  15.845  0.00  0.00    -0.020 A 
ATOM     25  C   UNK d   0     -10.613   7.412  13.207  0.00  0.00     0.041 A 
ATOM     26  N   UNK d   0     -11.397   6.732  12.362  0.00  0.00    -0.355 N 
ATOM     27  C   UNK d   0     -10.966   8.779  13.195  0.00  0.00    -0.022 A 
ATOM     28  C   UNK d   0     -12.242   7.620  11.813  0.00  0.00     0.042 A 
ATOM     29  H   UNK d   0     -11.338   5.640  12.134  0.00  0.00     0.166 HD
ATOM     30  C   UNK d   0     -13.271   7.455  10.873  0.00  0.00     0.062 C 
ATOM     31  C   UNK d   0     -11.996   8.919  12.317  0.00  0.00    -0.013 A 
ATOM     32  C   UNK d   0     -14.191   6.422  10.785  0.00  0.00     0.066 A 
BRANCH   8  33
ATOM     33  C   UNK d   0     -17.026   4.321   9.755  0.00  0.00     0.151 C 
BRANCH  33  34
ATOM     34  C   UNK d   0     -16.694   3.493   8.581  0.00  0.00     0.143 C 
ATOM     35  O   UNK d   0     -15.880   2.562   8.668  0.00  0.00    -0.650 OA
BRANCH  34  36
ATOM     36  O   UNK d   0     -17.295   3.762   7.373  0.00  0.00    -0.776 OA
ATOM     37  H   UNK d   0     -17.959   3.100   6.948  0.00  0.00     0.167 HD
ENDBRANCH  34  36
ENDBRANCH  33  34
ENDBRANCH   8  33
BRANCH  31  38
ATOM     38  C   UNK d   0     -12.715  10.206  11.984  0.00  0.00     0.151 C 
BRANCH  38  39
ATOM     39  C   UNK d   0     -13.824  10.477  12.874  0.00  0.00     0.143 C 
ATOM     40  O   UNK d   0     -14.954   9.989  12.697  0.00  0.00    -0.650 OA
BRANCH  39  41
ATOM     41  O   UNK d   0     -13.632  11.313  13.974  0.00  0.00    -0.776 OA
ATOM     42  H   UNK d   0     -14.375  11.991  14.173  0.00  0.00     0.167 HD
ENDBRANCH  39  41
ENDBRANCH  38  39
ENDBRANCH  31  38
BRANCH  27  43
ATOM     43  C   UNK d   0     -10.372   9.929  13.970  0.00  0.00     0.052 C 
BRANCH  43  44
ATOM     44  C   UNK d   0      -8.889  10.037  13.822  0.00  0.00     0.115 C 
BRANCH  44  45
ATOM     45  C   UNK d   0      -8.526  11.431  14.186  0.00  0.00     0.139 C 
ATOM     46  O   UNK d   0      -8.982  12.365  13.479  0.00  0.00    -0.650 OA
BRANCH  45  47
ATOM     47  O   UNK d   0      -7.722  11.738  15.262  0.00  0.00    -0.776 OA
ATOM     48  H   UNK d   0      -7.785  11.245  16.167  0.00  0.00     0.167 HD
ENDBRANCH  45  47
ENDBRANCH  44  45
ENDBRANCH  43  44
ENDBRANCH  27  43
BRANCH  24  49
ATOM     49  C   UNK d   0      -7.431   5.891  16.356  0.00  0.00     0.052 C 
BRANCH  49  50
ATOM     50  C   UNK d   0      -7.752   7.178  17.072  0.00  0.00     0.115 C 
BRANCH  50  51
ATOM     51  C   UNK d   0      -7.054   8.377  16.629  0.00  0.00     0.139 C 
ATOM     52  O   UNK d   0      -7.074   9.450  17.278  0.00  0.00    -0.650 OA
BRANCH  51  53
ATOM     53  O   UNK d   0      -6.334   8.354  15.445  0.00  0.00    -0.776 OA
ATOM     54  H   UNK d   0      -6.712   8.838  14.649  0.00  0.00     0.167 HD
ENDBRANCH  51  53
ENDBRANCH  50  51
ENDBRANCH  49  50
ENDBRANCH  24  49
BRANCH  21  55
ATOM     55  C   UNK d   0      -8.652   3.211  17.290  0.00  0.00     0.151 C 
BRANCH  55  56
ATOM     56  C   UNK d   0      -9.062   3.605  18.646  0.00  0.00     0.143 C 
ATOM     57  O   UNK d   0     -10.253   3.620  19.014  0.00  0.00    -0.650 OA
BRANCH  56  58
ATOM     58  O   UNK d   0      -8.063   3.974  19.545  0.00  0.00    -0.776 OA
ATOM     59  H   UNK d   0      -8.403   4.291  20.470  0.00  0.00     0.167 HD
ENDBRANCH  56  58
ENDBRANCH  55  56
ENDBRANCH  21  55
BRANCH  18  60
ATOM     60  C   UNK d   0     -11.968   0.174  14.358  0.00  0.00     0.151 C 
BRANCH  60  61
ATOM     61  C   UNK d   0     -10.737   0.170  13.554  0.00  0.00     0.143 C 
ATOM     62  O   UNK d   0     -10.651   0.228  12.327  0.00  0.00    -0.650 OA
BRANCH  61  63
ATOM     63  O   UNK d   0      -9.533   0.091  14.295  0.00  0.00    -0.776 OA
ATOM     64  H   UNK d   0      -9.533  -0.212  15.253  0.00  0.00     0.167 HD
ENDBRANCH  61  63
ENDBRANCH  60  61
ENDBRANCH  18  60
BRANCH  14  65
ATOM     65  C   UNK d   0     -14.357   0.426  12.503  0.00  0.00     0.052 C 
BRANCH  65  66
ATOM     66  C   UNK d   0     -15.453  -0.172  13.311  0.00  0.00     0.115 C 
BRANCH  66  67
ATOM     67  C   UNK d   0     -16.773  -0.273  12.756  0.00  0.00     0.139 C 
ATOM     68  O   UNK d   0     -17.436   0.809  12.548  0.00  0.00    -0.650 OA
BRANCH  67  69
ATOM     69  O   UNK d   0     -17.461  -1.432  12.397  0.00  0.00    -0.776 OA
ATOM     70  H   UNK d   0     -17.579  -1.589  11.386  0.00  0.00     0.167 HD
ENDBRANCH  67  69
ENDBRANCH  66  67
ENDBRANCH  65  66
ENDBRANCH  14  65
ENDBRANCH   6   7
ENDBRANCH   5   6
ENDBRANCH   2   5
TORSDOF 28
ENDMDL
MODEL 19
REMARK VINA RESULT:      -7.0     14.096     19.058
REMARK  28 active torsions:
REMARK  status: ('A' for Active; 'I' for Inactive)
REMARK    1  A    between atoms: C_2  and  O_3 
REMARK    2  A    between atoms: C_2  and  C_4 
REMARK    3  A    between atoms: C_4  and  C_5 
REMARK    4  A    between atoms: C_5  and  C_6 
REMARK    5  A    between atoms: C_7  and  C_8 
REMARK    6  A    between atoms: C_8  and  C_9 
REMARK    7  A    between atoms: C_9  and  O_11 
REMARK    8  A    between atoms: C_28  and  C_29 
REMARK    9  A    between atoms: C_29  and  C_30 
REMARK   10  A    between atoms: C_30  and  O_32 
REMARK   11  A    between atoms: C_33  and  C_34 
REMARK   12  A    between atoms: C_34  and  C_35 
REMARK   13  A    between atoms: C_35  and  C_36 
REMARK   14  A    between atoms: C_36  and  O_38 
REMARK   15  A    between atoms: C_39  and  C_40 
REMARK   16  A    between atoms: C_40  and  C_41 
REMARK   17  A    between atoms: C_41  and  C_42 
REMARK   18  A    between atoms: C_42  and  O_44 
REMARK   19  A    between atoms: C_45  and  C_46 
REMARK   20  A    between atoms: C_46  and  C_47 
REMARK   21  A    between atoms: C_47  and  O_49 
REMARK   22  A    between atoms: C_50  and  C_51 
REMARK   23  A    between atoms: C_51  and  C_52 
REMARK   24  A    between atoms: C_52  and  O_54 
REMARK   25  A    between atoms: C_55  and  C_56 
REMARK   26  A    between atoms: C_56  and  C_57 
REMARK   27  A    between atoms: C_57  and  C_58 
REMARK   28  A    between atoms: C_58  and  O_60 
ROOT
ATOM      1  O   UNK d   0     -21.030   4.786   8.540  0.00  0.00    -0.650 OA
ATOM      2  C   UNK d   0     -20.618   5.965   8.614  0.00  0.00     0.139 C 
ENDROOT
BRANCH   2   3
ATOM      3  O   UNK d   0     -21.527   6.992   8.707  0.00  0.00    -0.776 OA
ATOM      4  H   UNK d   0     -21.220   7.956   8.849  0.00  0.00     0.167 HD
ENDBRANCH   2   3
BRANCH   2   5
ATOM      5  C   UNK d   0     -19.155   6.249   8.600  0.00  0.00     0.115 C 
BRANCH   5   6
ATOM      6  C   UNK d   0     -18.630   6.332  10.008  0.00  0.00     0.052 C 
BRANCH   6   7
ATOM      7  C   UNK d   0     -17.844   5.107  10.408  0.00  0.00    -0.020 A 
ATOM      8  C   UNK d   0     -16.602   4.822  10.110  0.00  0.00    -0.011 A 
ATOM      9  C   UNK d   0     -16.284   3.536  10.707  0.00  0.00     0.067 A 
ATOM     10  C   UNK d   0     -15.156   2.704  10.779  0.00  0.00     0.062 C 
ATOM     11  N   UNK d   0     -17.393   3.106  11.346  0.00  0.00    -0.248 NA
ATOM     12  C   UNK d   0     -14.956   1.621  11.642  0.00  0.00     0.041 A 
ATOM     13  N   UNK d   0     -15.781   0.628  12.024  0.00  0.00    -0.355 N 
ATOM     14  C   UNK d   0     -13.723   1.502  12.310  0.00  0.00    -0.022 A 
ATOM     15  C   UNK d   0     -15.107  -0.113  12.924  0.00  0.00     0.042 A 
ATOM     16  H   UNK d   0     -16.812   0.443  11.651  0.00  0.00     0.166 HD
ATOM     17  C   UNK d   0     -15.498  -1.265  13.635  0.00  0.00     0.062 C 
ATOM     18  C   UNK d   0     -13.813   0.404  13.129  0.00  0.00    -0.013 A 
ATOM     19  C   UNK d   0     -16.679  -1.518  14.285  0.00  0.00     0.067 A 
ATOM     20  N   UNK d   0     -17.682  -0.663  14.070  0.00  0.00    -0.248 NA
ATOM     21  C   UNK d   0     -17.164  -2.522  15.216  0.00  0.00    -0.011 A 
ATOM     22  C   UNK d   0     -18.788  -1.035  14.795  0.00  0.00     0.066 A 
ATOM     23  C   UNK d   0     -19.921  -0.251  14.636  0.00  0.00     0.062 C 
ATOM     24  C   UNK d   0     -18.398  -2.232  15.514  0.00  0.00    -0.020 A 
ATOM     25  C   UNK d   0     -20.106   0.825  13.754  0.00  0.00     0.041 A 
ATOM     26  N   UNK d   0     -19.291   1.821  13.385  0.00  0.00    -0.355 N 
ATOM     27  C   UNK d   0     -21.342   0.941  13.080  0.00  0.00    -0.022 A 
ATOM     28  C   UNK d   0     -19.964   2.566  12.495  0.00  0.00     0.042 A 
ATOM     29  H   UNK d   0     -18.259   2.011  13.769  0.00  0.00     0.166 HD
ATOM     30  C   UNK d   0     -19.591   3.720  11.787  0.00  0.00     0.062 C 
ATOM     31  C   UNK d   0     -21.260   2.040  12.281  0.00  0.00    -0.013 A 
ATOM     32  C   UNK d   0     -18.367   4.006  11.204  0.00  0.00     0.066 A 
BRANCH   8  33
ATOM     33  C   UNK d   0     -15.675   5.642   9.308  0.00  0.00     0.151 C 
BRANCH  33  34
ATOM     34  C   UNK d   0     -15.013   4.873   8.238  0.00  0.00     0.143 C 
ATOM     35  O   UNK d   0     -13.782   4.732   8.224  0.00  0.00    -0.650 OA
BRANCH  34  36
ATOM     36  O   UNK d   0     -15.775   4.308   7.242  0.00  0.00    -0.776 OA
ATOM     37  H   UNK d   0     -15.693   3.310   7.008  0.00  0.00     0.167 HD
ENDBRANCH  34  36
ENDBRANCH  33  34
ENDBRANCH   8  33
BRANCH  31  38
ATOM     38  C   UNK d   0     -22.341   2.553  11.359  0.00  0.00     0.151 C 
BRANCH  38  39
ATOM     39  C   UNK d   0     -22.271   1.974  10.034  0.00  0.00     0.143 C 
ATOM     40  O   UNK d   0     -21.581   0.971   9.782  0.00  0.00    -0.650 OA
BRANCH  39  41
ATOM     41  O   UNK d   0     -23.000   2.551   8.994  0.00  0.00    -0.776 OA
ATOM     42  H   UNK d   0     -23.807   2.023   8.648  0.00  0.00     0.167 HD
ENDBRANCH  39  41
ENDBRANCH  38  39
ENDBRANCH  31  38
BRANCH  27  43
ATOM     43  C   UNK d   0     -22.568   0.067  13.169  0.00  0.00     0.052 C 
BRANCH  43  44
ATOM     44  C   UNK d   0     -23.529   0.504  14.226  0.00  0.00     0.115 C 
BRANCH  44  45
ATOM     45  C   UNK d   0     -24.862   0.597  13.575  0.00  0.00     0.139 C 
ATOM     46  O   UNK d   0     -25.867   0.771  14.307  0.00  0.00    -0.650 OA
BRANCH  45  47
ATOM     47  O   UNK d   0     -25.035   0.506  12.211  0.00  0.00    -0.776 OA
ATOM     48  H   UNK d   0     -25.201  -0.391  11.726  0.00  0.00     0.167 HD
ENDBRANCH  45  47
ENDBRANCH  44  45
ENDBRANCH  43  44
ENDBRANCH  27  43
BRANCH  24  49
ATOM     49  C   UNK d   0     -19.284  -3.009  16.397  0.00  0.00     0.052 C 
BRANCH  49  50
ATOM     50  C   UNK d   0     -20.429  -3.592  15.608  0.00  0.00     0.115 C 
BRANCH  50  51
ATOM     51  C   UNK d   0     -20.133  -4.731  14.750  0.00  0.00     0.139 C 
ATOM     52  O   UNK d   0     -20.122  -5.912  15.172  0.00  0.00    -0.650 OA
BRANCH  51  53
ATOM     53  O   UNK d   0     -19.846  -4.524  13.410  0.00  0.00    -0.776 OA
ATOM     54  H   UNK d   0     -20.318  -5.093  12.729  0.00  0.00     0.167 HD
ENDBRANCH  51  53
ENDBRANCH  50  51
ENDBRANCH  49  50
ENDBRANCH  24  49
BRANCH  21  55
ATOM     55  C   UNK d   0     -16.346  -3.670  15.708  0.00  0.00     0.151 C 
BRANCH  55  56
ATOM     56  C   UNK d   0     -16.505  -4.863  14.863  0.00  0.00     0.143 C 
ATOM     57  O   UNK d   0     -16.362  -6.023  15.298  0.00  0.00    -0.650 OA
BRANCH  56  58
ATOM     58  O   UNK d   0     -16.829  -4.669  13.521  0.00  0.00    -0.776 OA
ATOM     59  H   UNK d   0     -17.003  -3.684  13.252  0.00  0.00     0.167 HD
ENDBRANCH  56  58
ENDBRANCH  55  56
ENDBRANCH  21  55
BRANCH  18  60
ATOM     60  C   UNK d   0     -12.714  -0.088  14.038  0.00  0.00     0.151 C 
BRANCH  60  61
ATOM     61  C   UNK d   0     -13.036   0.430  15.377  0.00  0.00     0.143 C 
ATOM     62  O   UNK d   0     -13.074   1.610  15.727  0.00  0.00    -0.650 OA
BRANCH  61  63
ATOM     63  O   UNK d   0     -13.330  -0.556  16.350  0.00  0.00    -0.776 OA
ATOM     64  H   UNK d   0     -12.890  -0.541  17.252  0.00  0.00     0.167 HD
ENDBRANCH  61  63
ENDBRANCH  60  61
ENDBRANCH  18  60
BRANCH  14  65
ATOM     65  C   UNK d   0     -12.448   2.281  12.161  0.00  0.00     0.052 C 
BRANCH  65  66
ATOM     66  C   UNK d   0     -11.580   1.772  11.065  0.00  0.00     0.115 C 
BRANCH  66  67
ATOM     67  C   UNK d   0     -11.524   2.477   9.816  0.00  0.00     0.139 C 
ATOM     68  O   UNK d   0     -10.719   3.474   9.709  0.00  0.00    -0.650 OA
BRANCH  67  69
ATOM     69  O   UNK d   0     -12.253   2.217   8.656  0.00  0.00    -0.776 OA
ATOM     70  H   UNK d   0     -12.010   2.791   7.836  0.00  0.00     0.167 HD
ENDBRANCH  67  69
ENDBRANCH  66  67
ENDBRANCH  65  66
ENDBRANCH  14  65
ENDBRANCH   6   7
ENDBRANCH   5   6
ENDBRANCH   2   5
TORSDOF 28
ENDMDL
MODEL 20
REMARK VINA RESULT:      -6.9     21.154     24.348
REMARK  28 active torsions:
REMARK  status: ('A' for Active; 'I' for Inactive)
REMARK    1  A    between atoms: C_2  and  O_3 
REMARK    2  A    between atoms: C_2  and  C_4 
REMARK    3  A    between atoms: C_4  and  C_5 
REMARK    4  A    between atoms: C_5  and  C_6 
REMARK    5  A    between atoms: C_7  and  C_8 
REMARK    6  A    between atoms: C_8  and  C_9 
REMARK    7  A    between atoms: C_9  and  O_11 
REMARK    8  A    between atoms: C_28  and  C_29 
REMARK    9  A    between atoms: C_29  and  C_30 
REMARK   10  A    between atoms: C_30  and  O_32 
REMARK   11  A    between atoms: C_33  and  C_34 
REMARK   12  A    between atoms: C_34  and  C_35 
REMARK   13  A    between atoms: C_35  and  C_36 
REMARK   14  A    between atoms: C_36  and  O_38 
REMARK   15  A    between atoms: C_39  and  C_40 
REMARK   16  A    between atoms: C_40  and  C_41 
REMARK   17  A    between atoms: C_41  and  C_42 
REMARK   18  A    between atoms: C_42  and  O_44 
REMARK   19  A    between atoms: C_45  and  C_46 
REMARK   20  A    between atoms: C_46  and  C_47 
REMARK   21  A    between atoms: C_47  and  O_49 
REMARK   22  A    between atoms: C_50  and  C_51 
REMARK   23  A    between atoms: C_51  and  C_52 
REMARK   24  A    between atoms: C_52  and  O_54 
REMARK   25  A    between atoms: C_55  and  C_56 
REMARK   26  A    between atoms: C_56  and  C_57 
REMARK   27  A    between atoms: C_57  and  C_58 
REMARK   28  A    between atoms: C_58  and  O_60 
ROOT
ATOM      1  O   UNK d   0      -9.220  -1.821  22.250  0.00  0.00    -0.650 OA
ATOM      2  C   UNK d   0      -9.171  -1.783  21.001  0.00  0.00     0.139 C 
ENDROOT
BRANCH   2   3
ATOM      3  O   UNK d   0      -9.009  -2.952  20.297  0.00  0.00    -0.776 OA
ATOM      4  H   UNK d   0      -8.265  -3.612  20.535  0.00  0.00     0.167 HD
ENDBRANCH   2   3
BRANCH   2   5
ATOM      5  C   UNK d   0      -9.288  -0.480  20.286  0.00  0.00     0.115 C 
BRANCH   5   6
ATOM      6  C   UNK d   0     -10.736  -0.125  20.090  0.00  0.00     0.052 C 
BRANCH   6   7
ATOM      7  C   UNK d   0     -11.090   0.091  18.638  0.00  0.00    -0.020 A 
ATOM      8  C   UNK d   0     -11.748  -0.718  17.848  0.00  0.00    -0.011 A 
ATOM      9  C   UNK d   0     -11.838  -0.089  16.541  0.00  0.00     0.067 A 
ATOM     10  C   UNK d   0     -12.412  -0.408  15.300  0.00  0.00     0.062 C 
ATOM     11  N   UNK d   0     -11.202   1.099  16.624  0.00  0.00    -0.248 NA
ATOM     12  C   UNK d   0     -12.635   0.456  14.223  0.00  0.00     0.041 A 
ATOM     13  N   UNK d   0     -11.861   1.415  13.680  0.00  0.00    -0.355 N 
ATOM     14  C   UNK d   0     -13.880   0.421  13.569  0.00  0.00    -0.022 A 
ATOM     15  C   UNK d   0     -12.586   1.994  12.704  0.00  0.00     0.042 A 
ATOM     16  H   UNK d   0     -10.816   1.664  13.968  0.00  0.00     0.166 HD
ATOM     17  C   UNK d   0     -12.258   3.044  11.824  0.00  0.00     0.062 C 
ATOM     18  C   UNK d   0     -13.858   1.397  12.605  0.00  0.00    -0.013 A 
ATOM     19  C   UNK d   0     -11.640   4.238  12.098  0.00  0.00     0.067 A 
ATOM     20  N   UNK d   0     -11.088   4.370  13.307  0.00  0.00    -0.248 NA
ATOM     21  C   UNK d   0     -11.418   5.486  11.388  0.00  0.00    -0.011 A 
ATOM     22  C   UNK d   0     -10.524   5.615  13.440  0.00  0.00     0.066 A 
ATOM     23  C   UNK d   0      -9.880   5.874  14.641  0.00  0.00     0.062 C 
ATOM     24  C   UNK d   0     -10.768   6.289  12.180  0.00  0.00    -0.020 A 
ATOM     25  C   UNK d   0      -9.655   4.988  15.706  0.00  0.00     0.041 A 
ATOM     26  N   UNK d   0     -10.430   4.046  16.255  0.00  0.00    -0.355 N 
ATOM     27  C   UNK d   0      -8.403   5.021  16.358  0.00  0.00    -0.022 A 
ATOM     28  C   UNK d   0      -9.713   3.472  17.234  0.00  0.00     0.042 A 
ATOM     29  H   UNK d   0     -11.484   3.803  15.971  0.00  0.00     0.166 HD
ATOM     30  C   UNK d   0     -10.030   2.433  18.123  0.00  0.00     0.062 C 
ATOM     31  C   UNK d   0      -8.431   4.065  17.327  0.00  0.00    -0.013 A 
ATOM     32  C   UNK d   0     -10.730   1.267  17.860  0.00  0.00     0.066 A 
BRANCH   8  33
ATOM     33  C   UNK d   0     -12.304  -2.039  18.197  0.00  0.00     0.151 C 
BRANCH  33  34
ATOM     34  C   UNK d   0     -11.438  -3.153  17.771  0.00  0.00     0.143 C 
ATOM     35  O   UNK d   0     -11.885  -4.305  17.672  0.00  0.00    -0.650 OA
BRANCH  34  36
ATOM     36  O   UNK d   0     -10.116  -2.908  17.481  0.00  0.00    -0.776 OA
ATOM     37  H   UNK d   0      -9.646  -3.375  16.693  0.00  0.00     0.167 HD
ENDBRANCH  34  36
ENDBRANCH  33  34
ENDBRANCH   8  33
BRANCH  31  38
ATOM     38  C   UNK d   0      -7.306   3.724  18.275  0.00  0.00     0.151 C 
BRANCH  38  39
ATOM     39  C   UNK d   0      -7.303   4.548  19.464  0.00  0.00     0.143 C 
ATOM     40  O   UNK d   0      -8.340   5.063  19.919  0.00  0.00    -0.650 OA
BRANCH  39  41
ATOM     41  O   UNK d   0      -6.103   4.781  20.135  0.00  0.00    -0.776 OA
ATOM     42  H   UNK d   0      -5.730   5.735  20.096  0.00  0.00     0.167 HD
ENDBRANCH  39  41
ENDBRANCH  38  39
ENDBRANCH  31  38
BRANCH  27  43
ATOM     43  C   UNK d   0      -7.212   5.910  16.102  0.00  0.00     0.052 C 
BRANCH  43  44
ATOM     44  C   UNK d   0      -7.119   7.062  17.049  0.00  0.00     0.115 C 
BRANCH  44  45
ATOM     45  C   UNK d   0      -7.188   8.296  16.225  0.00  0.00     0.139 C 
ATOM     46  O   UNK d   0      -6.926   9.393  16.778  0.00  0.00    -0.650 OA
BRANCH  45  47
ATOM     47  O   UNK d   0      -7.521   8.284  14.887  0.00  0.00    -0.776 OA
ATOM     48  H   UNK d   0      -6.886   8.628  14.149  0.00  0.00     0.167 HD
ENDBRANCH  45  47
ENDBRANCH  44  45
ENDBRANCH  43  44
ENDBRANCH  27  43
BRANCH  24  49
ATOM     49  C   UNK d   0     -10.303   7.647  11.850  0.00  0.00     0.052 C 
BRANCH  49  50
ATOM     50  C   UNK d   0     -11.086   8.674  12.628  0.00  0.00     0.115 C 
BRANCH  50  51
ATOM     51  C   UNK d   0     -10.420   9.296  13.764  0.00  0.00     0.139 C 
ATOM     52  O   UNK d   0     -10.733   9.045  14.952  0.00  0.00    -0.650 OA
BRANCH  51  53
ATOM     53  O   UNK d   0      -9.398  10.207  13.546  0.00  0.00    -0.776 OA
ATOM     54  H   UNK d   0      -8.989  10.663  14.343  0.00  0.00     0.167 HD
ENDBRANCH  51  53
ENDBRANCH  50  51
ENDBRANCH  49  50
ENDBRANCH  24  49
BRANCH  21  55
ATOM     55  C   UNK d   0     -11.874   5.745   9.990  0.00  0.00     0.151 C 
BRANCH  55  56
ATOM     56  C   UNK d   0     -13.280   6.174   9.940  0.00  0.00     0.143 C 
ATOM     57  O   UNK d   0     -13.733   7.087  10.658  0.00  0.00    -0.650 OA
BRANCH  56  58
ATOM     58  O   UNK d   0     -14.127   5.522   9.046  0.00  0.00    -0.776 OA
ATOM     59  H   UNK d   0     -13.745   5.404   8.090  0.00  0.00     0.167 HD
ENDBRANCH  56  58
ENDBRANCH  55  56
ENDBRANCH  21  55
BRANCH  18  60
ATOM     60  C   UNK d   0     -14.997   1.715  11.669  0.00  0.00     0.151 C 
BRANCH  60  61
ATOM     61  C   UNK d   0     -15.909   2.587  12.424  0.00  0.00     0.143 C 
ATOM     62  O   UNK d   0     -15.599   3.504  13.185  0.00  0.00    -0.650 OA
BRANCH  61  63
ATOM     63  O   UNK d   0     -17.288   2.324  12.237  0.00  0.00    -0.776 OA
ATOM     64  H   UNK d   0     -17.939   2.409  12.997  0.00  0.00     0.167 HD
ENDBRANCH  61  63
ENDBRANCH  60  61
ENDBRANCH  18  60
BRANCH  14  65
ATOM     65  C   UNK d   0     -15.041  -0.522  13.719  0.00  0.00     0.052 C 
BRANCH  65  66
ATOM     66  C   UNK d   0     -15.981  -0.119  14.800  0.00  0.00     0.115 C 
BRANCH  66  67
ATOM     67  C   UNK d   0     -17.393  -0.307  14.621  0.00  0.00     0.139 C 
ATOM     68  O   UNK d   0     -18.149   0.731  14.571  0.00  0.00    -0.650 OA
BRANCH  67  69
ATOM     69  O   UNK d   0     -18.083  -1.512  14.490  0.00  0.00    -0.776 OA
ATOM     70  H   UNK d   0     -17.909  -2.035  13.620  0.00  0.00     0.167 HD
ENDBRANCH  67  69
ENDBRANCH  66  67
ENDBRANCH  65  66
ENDBRANCH  14  65
ENDBRANCH   6   7
ENDBRANCH   5   6
ENDBRANCH   2   5
TORSDOF 28
ENDMDL
