MODEL 1
REMARK VINA RESULT:     -10.4      0.000      0.000
REMARK  16 active torsions:
REMARK  status: ('A' for Active; 'I' for Inactive)
REMARK    1  A    between atoms: C_6  and  C_7 
REMARK    2  A    between atoms: C_7  and  C_8 
REMARK    3  A    between atoms: C_8  and  C_9 
REMARK    4  A    between atoms: C_9  and  O_11 
REMARK    5  A    between atoms: C_16  and  C_17 
REMARK    6  A    between atoms: C_17  and  C_18 
REMARK    7  A    between atoms: C_18  and  C_19 
REMARK    8  A    between atoms: C_19  and  O_21 
REMARK    9  A    between atoms: C_28  and  C_29 
REMARK   10  A    between atoms: C_29  and  C_30 
REMARK   11  A    between atoms: C_30  and  C_31 
REMARK   12  A    between atoms: C_31  and  O_33 
REMARK   13  A    between atoms: C_42  and  C_43 
REMARK   14  A    between atoms: C_43  and  C_44 
REMARK   15  A    between atoms: C_44  and  C_45 
REMARK   16  A    between atoms: C_45  and  O_47 
ROOT
HETATM    1  C   UNK     0       3.619  12.817  42.748  0.00  0.00     0.051 C 
HETATM    2  C   UNK     0       3.542  11.669  41.763  0.00  0.00    -0.031 A 
HETATM    3  C   UNK     0       4.357  10.554  41.646  0.00  0.00     0.021 A 
HETATM    4  N   UNK     0       3.934   9.805  40.600  0.00  0.00    -0.361 N 
HETATM    5  C   UNK     0       2.861  10.414  40.053  0.00  0.00     0.022 A 
HETATM    6  C   UNK     0       2.591  11.585  40.755  0.00  0.00    -0.027 A 
HETATM    7  C   UNK     0       1.970   9.956  38.941  0.00  0.00     0.115 C 
HETATM    8  C   UNK     0       1.568   8.492  38.949  0.00  0.00     0.021 A 
HETATM    9  N   UNK     0       1.311   7.701  40.003  0.00  0.00    -0.361 N 
HETATM   10  C   UNK     0       1.084   6.452  39.544  0.00  0.00     0.022 A 
HETATM   11  C   UNK     0       1.188   6.440  38.156  0.00  0.00    -0.027 A 
HETATM   12  C   UNK     0       1.493   7.722  37.775  0.00  0.00    -0.031 A 
HETATM   13  C   UNK     0       1.696   8.185  36.350  0.00  0.00     0.051 C 
HETATM   14  C   UNK     0       0.814   5.215  40.395  0.00  0.00     0.115 C 
HETATM   15  C   UNK     0       1.947   4.861  41.345  0.00  0.00     0.021 A 
HETATM   16  N   UNK     0       2.477   5.629  42.315  0.00  0.00    -0.361 N 
HETATM   17  C   UNK     0       3.500   4.983  42.877  0.00  0.00     0.022 A 
HETATM   18  C   UNK     0       3.638   3.729  42.250  0.00  0.00    -0.027 A 
HETATM   19  C   UNK     0       2.659   3.664  41.293  0.00  0.00    -0.031 A 
HETATM   20  C   UNK     0       2.428   2.457  40.402  0.00  0.00     0.051 C 
HETATM   21  C   UNK     0       4.462   5.435  43.952  0.00  0.00     0.115 C 
HETATM   22  C   UNK     0       4.837   6.898  43.983  0.00  0.00     0.022 A 
HETATM   23  N   UNK     0       5.094   7.711  42.950  0.00  0.00    -0.361 N 
HETATM   24  C   UNK     0       5.240   8.964  43.423  0.00  0.00     0.021 A 
HETATM   25  C   UNK     0       5.084   8.957  44.796  0.00  0.00    -0.031 A 
HETATM   26  C   UNK     0       5.197  10.108  45.775  0.00  0.00     0.051 C 
HETATM   27  C   UNK     0       4.825   7.646  45.178  0.00  0.00    -0.027 A 
HETATM   28  C   UNK     0       5.451  10.240  42.627  0.00  0.00     0.115 C 
HETATM   29  H   UNK     0       4.420   8.873  40.230  0.00  0.00     0.165 HD
HETATM   30  H   UNK     0       1.241   8.032  41.068  0.00  0.00     0.165 HD
HETATM   31  H   UNK     0       2.091   6.630  42.642  0.00  0.00     0.165 HD
HETATM   32  H   UNK     0       5.218   7.399  41.880  0.00  0.00     0.165 HD
ENDROOT
BRANCH   6  33
HETATM   33  C   UNK     0       1.512  12.616  40.541  0.00  0.00     0.051 C 
BRANCH  33  34
HETATM   34  C   UNK     0       0.151  12.039  40.848  0.00  0.00     0.114 C 
BRANCH  34  35
HETATM   35  C   UNK     0       0.101  11.771  42.314  0.00  0.00     0.139 C 
HETATM   36  O   UNK     0      -0.106  10.597  42.740  0.00  0.00    -0.650 OA
BRANCH  35  37
HETATM   37  O   UNK     0       0.277  12.768  43.265  0.00  0.00    -0.776 OA
HETATM   38  H   UNK     0      -0.229  12.771  44.137  0.00  0.00     0.167 HD
ENDBRANCH  35  37
ENDBRANCH  34  35
ENDBRANCH  33  34
ENDBRANCH   6  33
BRANCH  27  39
HETATM   39  C   UNK     0       4.669   7.230  46.598  0.00  0.00     0.051 C 
BRANCH  39  40
HETATM   40  C   UNK     0       5.877   7.004  47.392  0.00  0.00     0.114 C 
BRANCH  40  41
HETATM   41  C   UNK     0       5.909   6.072  48.497  0.00  0.00     0.139 C 
HETATM   42  O   UNK     0       4.893   5.648  49.063  0.00  0.00    -0.650 OA
BRANCH  41  43
HETATM   43  O   UNK     0       7.168   5.608  48.973  0.00  0.00    -0.776 OA
HETATM   44  H   UNK     0       7.455   4.714  48.595  0.00  0.00     0.167 HD
ENDBRANCH  41  43
ENDBRANCH  40  41
ENDBRANCH  39  40
ENDBRANCH  27  39
BRANCH  11  45
HETATM   45  C   UNK     0       1.010   5.284  37.209  0.00  0.00     0.051 C 
BRANCH  45  46
HETATM   46  C   UNK     0       0.329   4.108  37.808  0.00  0.00     0.114 C 
BRANCH  46  47
HETATM   47  C   UNK     0       0.916   2.890  37.180  0.00  0.00     0.139 C 
HETATM   48  O   UNK     0       1.688   3.032  36.221  0.00  0.00    -0.650 OA
BRANCH  47  49
HETATM   49  O   UNK     0       0.609   1.639  37.651  0.00  0.00    -0.776 OA
HETATM   50  H   UNK     0       0.994   0.787  37.227  0.00  0.00     0.167 HD
ENDBRANCH  47  49
ENDBRANCH  46  47
ENDBRANCH  45  46
ENDBRANCH  11  45
BRANCH  18  51
HETATM   51  C   UNK     0       4.636   2.643  42.560  0.00  0.00     0.051 C 
BRANCH  51  52
HETATM   52  C   UNK     0       3.905   1.629  43.428  0.00  0.00     0.114 C 
BRANCH  52  53
HETATM   53  C   UNK     0       4.271   1.759  44.852  0.00  0.00     0.139 C 
HETATM   54  O   UNK     0       5.210   2.499  45.187  0.00  0.00    -0.650 OA
BRANCH  53  55
HETATM   55  O   UNK     0       3.570   1.055  45.801  0.00  0.00    -0.776 OA
HETATM   56  H   UNK     0       2.757   0.509  45.640  0.00  0.00     0.167 HD
ENDBRANCH  53  55
ENDBRANCH  52  53
ENDBRANCH  51  52
ENDBRANCH  18  51
TORSDOF 16
ENDMDL
MODEL 2
REMARK VINA RESULT:      -9.5      2.891      7.485
REMARK  16 active torsions:
REMARK  status: ('A' for Active; 'I' for Inactive)
REMARK    1  A    between atoms: C_6  and  C_7 
REMARK    2  A    between atoms: C_7  and  C_8 
REMARK    3  A    between atoms: C_8  and  C_9 
REMARK    4  A    between atoms: C_9  and  O_11 
REMARK    5  A    between atoms: C_16  and  C_17 
REMARK    6  A    between atoms: C_17  and  C_18 
REMARK    7  A    between atoms: C_18  and  C_19 
REMARK    8  A    between atoms: C_19  and  O_21 
REMARK    9  A    between atoms: C_28  and  C_29 
REMARK   10  A    between atoms: C_29  and  C_30 
REMARK   11  A    between atoms: C_30  and  C_31 
REMARK   12  A    between atoms: C_31  and  O_33 
REMARK   13  A    between atoms: C_42  and  C_43 
REMARK   14  A    between atoms: C_43  and  C_44 
REMARK   15  A    between atoms: C_44  and  C_45 
REMARK   16  A    between atoms: C_45  and  O_47 
ROOT
HETATM    1  C   UNK     0       4.750  12.289  45.804  0.00  0.00     0.051 C 
HETATM    2  C   UNK     0       4.445  10.812  45.948  0.00  0.00    -0.031 A 
HETATM    3  C   UNK     0       3.239  10.145  45.805  0.00  0.00     0.021 A 
HETATM    4  N   UNK     0       3.431   8.828  46.057  0.00  0.00    -0.361 N 
HETATM    5  C   UNK     0       4.734   8.641  46.349  0.00  0.00     0.022 A 
HETATM    6  C   UNK     0       5.398   9.862  46.292  0.00  0.00    -0.027 A 
HETATM    7  C   UNK     0       5.478   7.368  46.608  0.00  0.00     0.115 C 
HETATM    8  C   UNK     0       5.155   6.193  45.703  0.00  0.00     0.021 A 
HETATM    9  N   UNK     0       4.849   6.203  44.396  0.00  0.00    -0.361 N 
HETATM   10  C   UNK     0       4.546   4.941  44.026  0.00  0.00     0.022 A 
HETATM   11  C   UNK     0       4.670   4.092  45.123  0.00  0.00    -0.027 A 
HETATM   12  C   UNK     0       5.053   4.874  46.182  0.00  0.00    -0.031 A 
HETATM   13  C   UNK     0       5.314   4.377  47.586  0.00  0.00     0.051 C 
HETATM   14  C   UNK     0       4.079   4.494  42.644  0.00  0.00     0.115 C 
HETATM   15  C   UNK     0       2.776   5.137  42.197  0.00  0.00     0.021 A 
HETATM   16  N   UNK     0       2.513   6.449  42.056  0.00  0.00    -0.361 N 
HETATM   17  C   UNK     0       1.232   6.606  41.714  0.00  0.00     0.022 A 
HETATM   18  C   UNK     0       0.634   5.334  41.617  0.00  0.00    -0.027 A 
HETATM   19  C   UNK     0       1.612   4.422  41.921  0.00  0.00    -0.031 A 
HETATM   20  C   UNK     0       1.400   2.919  41.901  0.00  0.00     0.051 C 
HETATM   21  C   UNK     0       0.429   7.870  41.508  0.00  0.00     0.115 C 
HETATM   22  C   UNK     0       0.770   9.062  42.372  0.00  0.00     0.022 A 
HETATM   23  N   UNK     0       1.082   9.080  43.674  0.00  0.00    -0.361 N 
HETATM   24  C   UNK     0       1.456  10.334  44.002  0.00  0.00     0.021 A 
HETATM   25  C   UNK     0       1.372  11.144  42.886  0.00  0.00    -0.031 A 
HETATM   26  C   UNK     0       1.647  12.628  42.764  0.00  0.00     0.051 C 
HETATM   27  C   UNK     0       0.935  10.353  41.830  0.00  0.00    -0.027 A 
HETATM   28  C   UNK     0       1.984  10.826  45.338  0.00  0.00     0.115 C 
HETATM   29  H   UNK     0       2.636   8.047  46.065  0.00  0.00     0.165 HD
HETATM   30  H   UNK     0       4.895   7.092  43.720  0.00  0.00     0.165 HD
HETATM   31  H   UNK     0       3.258   7.281  42.154  0.00  0.00     0.165 HD
HETATM   32  H   UNK     0       1.000   8.217  44.385  0.00  0.00     0.165 HD
ENDROOT
BRANCH   6  33
HETATM   33  C   UNK     0       6.848  10.190  46.540  0.00  0.00     0.051 C 
BRANCH  33  34
HETATM   34  C   UNK     0       7.294   9.665  47.884  0.00  0.00     0.114 C 
BRANCH  34  35
HETATM   35  C   UNK     0       8.567   8.919  47.673  0.00  0.00     0.139 C 
HETATM   36  O   UNK     0       9.574   9.505  47.177  0.00  0.00    -0.650 OA
BRANCH  35  37
HETATM   37  O   UNK     0       8.713   7.577  48.002  0.00  0.00    -0.776 OA
HETATM   38  H   UNK     0       8.401   7.206  48.885  0.00  0.00     0.167 HD
ENDBRANCH  35  37
ENDBRANCH  34  35
ENDBRANCH  33  34
ENDBRANCH   6  33
BRANCH  27  39
HETATM   39  C   UNK     0       0.655  10.895  40.473  0.00  0.00     0.051 C 
BRANCH  39  40
HETATM   40  C   UNK     0       1.627  10.639  39.410  0.00  0.00     0.114 C 
BRANCH  40  41
HETATM   41  C   UNK     0       3.008  10.315  39.690  0.00  0.00     0.139 C 
HETATM   42  O   UNK     0       3.924  11.148  39.665  0.00  0.00    -0.650 OA
BRANCH  41  43
HETATM   43  O   UNK     0       3.350   8.971  40.013  0.00  0.00    -0.776 OA
HETATM   44  H   UNK     0       2.600   8.304  39.879  0.00  0.00     0.167 HD
ENDBRANCH  41  43
ENDBRANCH  40  41
ENDBRANCH  39  40
ENDBRANCH  27  39
BRANCH  11  45
HETATM   45  C   UNK     0       4.444   2.606  45.193  0.00  0.00     0.051 C 
BRANCH  45  46
HETATM   46  C   UNK     0       5.247   1.920  46.238  0.00  0.00     0.114 C 
BRANCH  46  47
HETATM   47  C   UNK     0       4.632   0.579  46.458  0.00  0.00     0.139 C 
HETATM   48  O   UNK     0       5.374  -0.411  46.510  0.00  0.00    -0.650 OA
BRANCH  47  49
HETATM   49  O   UNK     0       3.274   0.444  46.599  0.00  0.00    -0.776 OA
HETATM   50  H   UNK     0       2.836   0.251  47.507  0.00  0.00     0.167 HD
ENDBRANCH  47  49
ENDBRANCH  46  47
ENDBRANCH  45  46
ENDBRANCH  11  45
BRANCH  18  51
HETATM   51  C   UNK     0      -0.785   5.004  41.236  0.00  0.00     0.051 C 
BRANCH  51  52
HETATM   52  C   UNK     0      -1.664   5.549  42.352  0.00  0.00     0.114 C 
BRANCH  52  53
HETATM   53  C   UNK     0      -2.101   4.486  43.276  0.00  0.00     0.139 C 
HETATM   54  O   UNK     0      -1.260   3.774  43.848  0.00  0.00    -0.650 OA
BRANCH  53  55
HETATM   55  O   UNK     0      -3.442   4.286  43.497  0.00  0.00    -0.776 OA
HETATM   56  H   UNK     0      -3.943   4.533  44.318  0.00  0.00     0.167 HD
ENDBRANCH  53  55
ENDBRANCH  52  53
ENDBRANCH  51  52
ENDBRANCH  18  51
TORSDOF 16
ENDMDL
MODEL 3
REMARK VINA RESULT:      -9.3      1.641      2.108
REMARK  16 active torsions:
REMARK  status: ('A' for Active; 'I' for Inactive)
REMARK    1  A    between atoms: C_6  and  C_7 
REMARK    2  A    between atoms: C_7  and  C_8 
REMARK    3  A    between atoms: C_8  and  C_9 
REMARK    4  A    between atoms: C_9  and  O_11 
REMARK    5  A    between atoms: C_16  and  C_17 
REMARK    6  A    between atoms: C_17  and  C_18 
REMARK    7  A    between atoms: C_18  and  C_19 
REMARK    8  A    between atoms: C_19  and  O_21 
REMARK    9  A    between atoms: C_28  and  C_29 
REMARK   10  A    between atoms: C_29  and  C_30 
REMARK   11  A    between atoms: C_30  and  C_31 
REMARK   12  A    between atoms: C_31  and  O_33 
REMARK   13  A    between atoms: C_42  and  C_43 
REMARK   14  A    between atoms: C_43  and  C_44 
REMARK   15  A    between atoms: C_44  and  C_45 
REMARK   16  A    between atoms: C_45  and  O_47 
ROOT
HETATM    1  C   UNK     0       4.188  12.191  44.188  0.00  0.00     0.051 C 
HETATM    2  C   UNK     0       4.010  11.333  42.952  0.00  0.00    -0.031 A 
HETATM    3  C   UNK     0       4.696  10.191  42.568  0.00  0.00     0.021 A 
HETATM    4  N   UNK     0       4.222   9.773  41.371  0.00  0.00    -0.361 N 
HETATM    5  C   UNK     0       3.242  10.618  40.988  0.00  0.00     0.022 A 
HETATM    6  C   UNK     0       3.086  11.607  41.953  0.00  0.00    -0.027 A 
HETATM    7  C   UNK     0       2.338  10.551  39.797  0.00  0.00     0.115 C 
HETATM    8  C   UNK     0       1.772   9.185  39.448  0.00  0.00     0.021 A 
HETATM    9  N   UNK     0       1.396   8.199  40.277  0.00  0.00    -0.361 N 
HETATM   10  C   UNK     0       1.041   7.134  39.527  0.00  0.00     0.022 A 
HETATM   11  C   UNK     0       1.184   7.446  38.178  0.00  0.00    -0.027 A 
HETATM   12  C   UNK     0       1.644   8.737  38.121  0.00  0.00    -0.031 A 
HETATM   13  C   UNK     0       1.940   9.503  36.852  0.00  0.00     0.051 C 
HETATM   14  C   UNK     0       0.607   5.768  40.051  0.00  0.00     0.115 C 
HETATM   15  C   UNK     0       1.664   5.064  40.886  0.00  0.00     0.021 A 
HETATM   16  N   UNK     0       2.249   5.508  42.015  0.00  0.00    -0.361 N 
HETATM   17  C   UNK     0       3.175   4.629  42.404  0.00  0.00     0.022 A 
HETATM   18  C   UNK     0       3.188   3.556  41.490  0.00  0.00    -0.027 A 
HETATM   19  C   UNK     0       2.236   3.840  40.545  0.00  0.00    -0.031 A 
HETATM   20  C   UNK     0       1.896   2.920  39.387  0.00  0.00     0.051 C 
HETATM   21  C   UNK     0       4.150   4.691  43.557  0.00  0.00     0.115 C 
HETATM   22  C   UNK     0       4.688   6.049  43.944  0.00  0.00     0.022 A 
HETATM   23  N   UNK     0       5.066   7.051  43.140  0.00  0.00    -0.361 N 
HETATM   24  C   UNK     0       5.340   8.127  43.906  0.00  0.00     0.021 A 
HETATM   25  C   UNK     0       5.143   7.806  45.235  0.00  0.00    -0.031 A 
HETATM   26  C   UNK     0       5.358   8.664  46.464  0.00  0.00     0.051 C 
HETATM   27  C   UNK     0       4.726   6.481  45.285  0.00  0.00    -0.027 A 
HETATM   28  C   UNK     0       5.718   9.524  43.444  0.00  0.00     0.115 C 
HETATM   29  H   UNK     0       4.609   8.907  40.785  0.00  0.00     0.165 HD
HETATM   30  H   UNK     0       1.331   8.269  41.390  0.00  0.00     0.165 HD
HETATM   31  H   UNK     0       1.969   6.437  42.576  0.00  0.00     0.165 HD
HETATM   32  H   UNK     0       5.185   6.995  42.027  0.00  0.00     0.165 HD
ENDROOT
BRANCH   6  33
HETATM   33  C   UNK     0       2.139  12.780  41.996  0.00  0.00     0.051 C 
BRANCH  33  34
HETATM   34  C   UNK     0       0.881  12.424  42.754  0.00  0.00     0.114 C 
BRANCH  34  35
HETATM   35  C   UNK     0      -0.048  11.763  41.793  0.00  0.00     0.139 C 
HETATM   36  O   UNK     0      -0.538  12.418  40.828  0.00  0.00    -0.650 OA
BRANCH  35  37
HETATM   37  O   UNK     0      -0.412  10.427  41.902  0.00  0.00    -0.776 OA
HETATM   38  H   UNK     0       0.263   9.701  42.080  0.00  0.00     0.167 HD
ENDBRANCH  35  37
ENDBRANCH  34  35
ENDBRANCH  33  34
ENDBRANCH   6  33
BRANCH  27  39
HETATM   39  C   UNK     0       4.482   5.756  46.561  0.00  0.00     0.051 C 
BRANCH  39  40
HETATM   40  C   UNK     0       5.605   5.064  47.193  0.00  0.00     0.114 C 
BRANCH  40  41
HETATM   41  C   UNK     0       5.450   3.792  47.860  0.00  0.00     0.139 C 
HETATM   42  O   UNK     0       6.189   2.819  47.658  0.00  0.00    -0.650 OA
BRANCH  41  43
HETATM   43  O   UNK     0       4.396   3.631  48.805  0.00  0.00    -0.776 OA
HETATM   44  H   UNK     0       4.005   2.697  48.841  0.00  0.00     0.167 HD
ENDBRANCH  41  43
ENDBRANCH  40  41
ENDBRANCH  39  40
ENDBRANCH  27  39
BRANCH  11  45
HETATM   45  C   UNK     0       0.904   6.583  36.977  0.00  0.00     0.051 C 
BRANCH  45  46
HETATM   46  C   UNK     0       2.002   6.559  35.978  0.00  0.00     0.114 C 
BRANCH  46  47
HETATM   47  C   UNK     0       1.671   5.500  34.982  0.00  0.00     0.139 C 
HETATM   48  O   UNK     0       2.069   5.636  33.817  0.00  0.00    -0.650 OA
BRANCH  47  49
HETATM   49  O   UNK     0       0.940   4.397  35.347  0.00  0.00    -0.776 OA
HETATM   50  H   UNK     0      -0.013   4.474  35.721  0.00  0.00     0.167 HD
ENDBRANCH  47  49
ENDBRANCH  46  47
ENDBRANCH  45  46
ENDBRANCH  11  45
BRANCH  18  51
HETATM   51  C   UNK     0       4.046   2.318  41.527  0.00  0.00     0.051 C 
BRANCH  51  52
HETATM   52  C   UNK     0       3.250   1.272  42.294  0.00  0.00     0.114 C 
BRANCH  52  53
HETATM   53  C   UNK     0       3.219  -0.023  41.585  0.00  0.00     0.139 C 
HETATM   54  O   UNK     0       2.333  -0.251  40.746  0.00  0.00    -0.650 OA
BRANCH  53  55
HETATM   55  O   UNK     0       4.172  -0.972  41.863  0.00  0.00    -0.776 OA
HETATM   56  H   UNK     0       5.009  -0.827  42.376  0.00  0.00     0.167 HD
ENDBRANCH  53  55
ENDBRANCH  52  53
ENDBRANCH  51  52
ENDBRANCH  18  51
TORSDOF 16
ENDMDL
MODEL 4
REMARK VINA RESULT:      -9.1      5.204      9.523
REMARK  16 active torsions:
REMARK  status: ('A' for Active; 'I' for Inactive)
REMARK    1  A    between atoms: C_6  and  C_7 
REMARK    2  A    between atoms: C_7  and  C_8 
REMARK    3  A    between atoms: C_8  and  C_9 
REMARK    4  A    between atoms: C_9  and  O_11 
REMARK    5  A    between atoms: C_16  and  C_17 
REMARK    6  A    between atoms: C_17  and  C_18 
REMARK    7  A    between atoms: C_18  and  C_19 
REMARK    8  A    between atoms: C_19  and  O_21 
REMARK    9  A    between atoms: C_28  and  C_29 
REMARK   10  A    between atoms: C_29  and  C_30 
REMARK   11  A    between atoms: C_30  and  C_31 
REMARK   12  A    between atoms: C_31  and  O_33 
REMARK   13  A    between atoms: C_42  and  C_43 
REMARK   14  A    between atoms: C_43  and  C_44 
REMARK   15  A    between atoms: C_44  and  C_45 
REMARK   16  A    between atoms: C_45  and  O_47 
ROOT
HETATM    1  C   UNK     0      -0.310   1.735  41.972  0.00  0.00     0.051 C 
HETATM    2  C   UNK     0       0.406   2.765  41.121  0.00  0.00    -0.031 A 
HETATM    3  C   UNK     0       1.647   2.690  40.509  0.00  0.00     0.021 A 
HETATM    4  N   UNK     0       1.897   3.860  39.875  0.00  0.00    -0.361 N 
HETATM    5  C   UNK     0       0.839   4.676  40.063  0.00  0.00     0.022 A 
HETATM    6  C   UNK     0      -0.111   4.023  40.841  0.00  0.00    -0.027 A 
HETATM    7  C   UNK     0       0.574   6.037  39.499  0.00  0.00     0.115 C 
HETATM    8  C   UNK     0       0.914   6.245  38.034  0.00  0.00     0.021 A 
HETATM    9  N   UNK     0       0.802   5.375  37.018  0.00  0.00    -0.361 N 
HETATM   10  C   UNK     0       1.306   5.958  35.909  0.00  0.00     0.022 A 
HETATM   11  C   UNK     0       1.746   7.242  36.218  0.00  0.00    -0.027 A 
HETATM   12  C   UNK     0       1.501   7.429  37.555  0.00  0.00    -0.031 A 
HETATM   13  C   UNK     0       1.814   8.688  38.332  0.00  0.00     0.051 C 
HETATM   14  C   UNK     0       1.441   5.313  34.533  0.00  0.00     0.115 C 
HETATM   15  C   UNK     0       2.331   4.081  34.516  0.00  0.00     0.021 A 
HETATM   16  N   UNK     0       2.180   2.948  35.228  0.00  0.00    -0.361 N 
HETATM   17  C   UNK     0       3.210   2.135  34.983  0.00  0.00     0.022 A 
HETATM   18  C   UNK     0       4.069   2.764  34.059  0.00  0.00    -0.027 A 
HETATM   19  C   UNK     0       3.506   3.981  33.774  0.00  0.00    -0.031 A 
HETATM   20  C   UNK     0       4.095   4.972  32.787  0.00  0.00     0.051 C 
HETATM   21  C   UNK     0       3.548   0.787  35.579  0.00  0.00     0.115 C 
HETATM   22  C   UNK     0       3.176   0.551  37.024  0.00  0.00     0.022 A 
HETATM   23  N   UNK     0       3.272   1.399  38.056  0.00  0.00    -0.361 N 
HETATM   24  C   UNK     0       2.694   0.827  39.130  0.00  0.00     0.021 A 
HETATM   25  C   UNK     0       2.222  -0.425  38.785  0.00  0.00    -0.031 A 
HETATM   26  C   UNK     0       1.538  -1.459  39.655  0.00  0.00     0.051 C 
HETATM   27  C   UNK     0       2.519  -0.624  37.442  0.00  0.00    -0.027 A 
HETATM   28  C   UNK     0       2.477   1.437  40.504  0.00  0.00     0.115 C 
HETATM   29  H   UNK     0       2.837   4.116  39.332  0.00  0.00     0.165 HD
HETATM   30  H   UNK     0       0.322   4.368  37.068  0.00  0.00     0.165 HD
HETATM   31  H   UNK     0       1.304   2.696  35.881  0.00  0.00     0.165 HD
HETATM   32  H   UNK     0       3.789   2.394  38.046  0.00  0.00     0.165 HD
ENDROOT
BRANCH   6  33
HETATM   33  C   UNK     0      -1.454   4.499  41.334  0.00  0.00     0.051 C 
BRANCH  33  34
HETATM   34  C   UNK     0      -1.312   5.245  42.639  0.00  0.00     0.114 C 
BRANCH  34  35
HETATM   35  C   UNK     0      -2.107   4.508  43.664  0.00  0.00     0.139 C 
HETATM   36  O   UNK     0      -1.530   3.735  44.483  0.00  0.00    -0.650 OA
BRANCH  35  37
HETATM   37  O   UNK     0      -3.486   4.631  43.772  0.00  0.00    -0.776 OA
HETATM   38  H   UNK     0      -4.117   4.081  43.211  0.00  0.00     0.167 HD
ENDBRANCH  35  37
ENDBRANCH  34  35
ENDBRANCH  33  34
ENDBRANCH   6  33
BRANCH  27  39
HETATM   39  C   UNK     0       2.226  -1.897  36.727  0.00  0.00     0.051 C 
BRANCH  39  40
HETATM   40  C   UNK     0       0.933  -2.034  36.057  0.00  0.00     0.114 C 
BRANCH  40  41
HETATM   41  C   UNK     0      -0.318  -2.003  36.782  0.00  0.00     0.139 C 
HETATM   42  O   UNK     0      -0.948  -3.021  37.100  0.00  0.00    -0.650 OA
BRANCH  41  43
HETATM   43  O   UNK     0      -0.868  -0.745  37.156  0.00  0.00    -0.776 OA
HETATM   44  H   UNK     0      -1.784  -0.555  36.766  0.00  0.00     0.167 HD
ENDBRANCH  41  43
ENDBRANCH  40  41
ENDBRANCH  39  40
ENDBRANCH  27  39
BRANCH  11  45
HETATM   45  C   UNK     0       2.370   8.268  35.310  0.00  0.00     0.051 C 
BRANCH  45  46
HETATM   46  C   UNK     0       2.039   8.086  33.873  0.00  0.00     0.114 C 
BRANCH  46  47
HETATM   47  C   UNK     0       2.943   8.981  33.096  0.00  0.00     0.139 C 
HETATM   48  O   UNK     0       3.830   8.467  32.400  0.00  0.00    -0.650 OA
BRANCH  47  49
HETATM   49  O   UNK     0       2.799  10.345  33.149  0.00  0.00    -0.776 OA
HETATM   50  H   UNK     0       2.465  10.825  33.993  0.00  0.00     0.167 HD
ENDBRANCH  47  49
ENDBRANCH  46  47
ENDBRANCH  45  46
ENDBRANCH  11  45
BRANCH  18  51
HETATM   51  C   UNK     0       5.344   2.225  33.465  0.00  0.00     0.051 C 
BRANCH  51  52
HETATM   52  C   UNK     0       4.937   1.079  32.551  0.00  0.00     0.114 C 
BRANCH  52  53
HETATM   53  C   UNK     0       5.762   1.033  31.328  0.00  0.00     0.139 C 
HETATM   54  O   UNK     0       5.908   2.054  30.637  0.00  0.00    -0.650 OA
BRANCH  53  55
HETATM   55  O   UNK     0       6.362  -0.146  30.957  0.00  0.00    -0.776 OA
HETATM   56  H   UNK     0       7.287  -0.246  30.608  0.00  0.00     0.167 HD
ENDBRANCH  53  55
ENDBRANCH  52  53
ENDBRANCH  51  52
ENDBRANCH  18  51
TORSDOF 16
ENDMDL
MODEL 5
REMARK VINA RESULT:      -9.1     30.235     33.836
REMARK  16 active torsions:
REMARK  status: ('A' for Active; 'I' for Inactive)
REMARK    1  A    between atoms: C_6  and  C_7 
REMARK    2  A    between atoms: C_7  and  C_8 
REMARK    3  A    between atoms: C_8  and  C_9 
REMARK    4  A    between atoms: C_9  and  O_11 
REMARK    5  A    between atoms: C_16  and  C_17 
REMARK    6  A    between atoms: C_17  and  C_18 
REMARK    7  A    between atoms: C_18  and  C_19 
REMARK    8  A    between atoms: C_19  and  O_21 
REMARK    9  A    between atoms: C_28  and  C_29 
REMARK   10  A    between atoms: C_29  and  C_30 
REMARK   11  A    between atoms: C_30  and  C_31 
REMARK   12  A    between atoms: C_31  and  O_33 
REMARK   13  A    between atoms: C_42  and  C_43 
REMARK   14  A    between atoms: C_43  and  C_44 
REMARK   15  A    between atoms: C_44  and  C_45 
REMARK   16  A    between atoms: C_45  and  O_47 
ROOT
HETATM    1  C   UNK     0      35.778  -7.237  44.183  0.00  0.00     0.051 C 
HETATM    2  C   UNK     0      35.915  -5.752  44.454  0.00  0.00    -0.031 A 
HETATM    3  C   UNK     0      36.035  -4.702  43.557  0.00  0.00     0.021 A 
HETATM    4  N   UNK     0      36.164  -3.545  44.248  0.00  0.00    -0.361 N 
HETATM    5  C   UNK     0      36.121  -3.833  45.565  0.00  0.00     0.022 A 
HETATM    6  C   UNK     0      35.968  -5.206  45.730  0.00  0.00    -0.027 A 
HETATM    7  C   UNK     0      36.126  -2.909  46.743  0.00  0.00     0.115 C 
HETATM    8  C   UNK     0      35.266  -1.662  46.635  0.00  0.00     0.021 A 
HETATM    9  N   UNK     0      34.075  -1.517  46.033  0.00  0.00    -0.361 N 
HETATM   10  C   UNK     0      33.725  -0.216  46.105  0.00  0.00     0.022 A 
HETATM   11  C   UNK     0      34.713   0.496  46.779  0.00  0.00    -0.027 A 
HETATM   12  C   UNK     0      35.687  -0.410  47.116  0.00  0.00    -0.031 A 
HETATM   13  C   UNK     0      36.958  -0.087  47.868  0.00  0.00     0.051 C 
HETATM   14  C   UNK     0      32.476   0.417  45.497  0.00  0.00     0.115 C 
HETATM   15  C   UNK     0      32.393   0.284  43.985  0.00  0.00     0.021 A 
HETATM   16  N   UNK     0      32.388  -0.849  43.258  0.00  0.00    -0.361 N 
HETATM   17  C   UNK     0      32.375  -0.537  41.960  0.00  0.00     0.022 A 
HETATM   18  C   UNK     0      32.361   0.866  41.835  0.00  0.00    -0.027 A 
HETATM   19  C   UNK     0      32.371   1.369  43.110  0.00  0.00    -0.031 A 
HETATM   20  C   UNK     0      32.325   2.851  43.433  0.00  0.00     0.051 C 
HETATM   21  C   UNK     0      32.436  -1.435  40.745  0.00  0.00     0.115 C 
HETATM   22  C   UNK     0      33.252  -2.701  40.853  0.00  0.00     0.022 A 
HETATM   23  N   UNK     0      34.439  -2.876  41.449  0.00  0.00    -0.361 N 
HETATM   24  C   UNK     0      34.731  -4.192  41.434  0.00  0.00     0.021 A 
HETATM   25  C   UNK     0      33.713  -4.881  40.804  0.00  0.00    -0.031 A 
HETATM   26  C   UNK     0      33.604  -6.362  40.510  0.00  0.00     0.051 C 
HETATM   27  C   UNK     0      32.755  -3.948  40.423  0.00  0.00    -0.027 A 
HETATM   28  C   UNK     0      35.923  -4.886  42.070  0.00  0.00     0.115 C 
HETATM   29  H   UNK     0      36.325  -2.536  43.801  0.00  0.00     0.165 HD
HETATM   30  H   UNK     0      33.455  -2.341  45.601  0.00  0.00     0.165 HD
HETATM   31  H   UNK     0      32.345  -1.891  43.669  0.00  0.00     0.165 HD
HETATM   32  H   UNK     0      35.103  -2.065  41.848  0.00  0.00     0.165 HD
ENDROOT
BRANCH   6  33
HETATM   33  C   UNK     0      35.873  -6.027  46.990  0.00  0.00     0.051 C 
BRANCH  33  34
HETATM   34  C   UNK     0      34.503  -5.898  47.611  0.00  0.00     0.114 C 
BRANCH  34  35
HETATM   35  C   UNK     0      33.798  -7.197  47.412  0.00  0.00     0.139 C 
HETATM   36  O   UNK     0      32.686  -7.233  46.810  0.00  0.00    -0.650 OA
BRANCH  35  37
HETATM   37  O   UNK     0      34.314  -8.406  47.863  0.00  0.00    -0.776 OA
HETATM   38  H   UNK     0      35.228  -8.475  48.279  0.00  0.00     0.167 HD
ENDBRANCH  35  37
ENDBRANCH  34  35
ENDBRANCH  33  34
ENDBRANCH   6  33
BRANCH  27  39
HETATM   39  C   UNK     0      31.536  -4.308  39.649  0.00  0.00     0.051 C 
BRANCH  39  40
HETATM   40  C   UNK     0      31.460  -3.905  38.245  0.00  0.00     0.114 C 
BRANCH  40  41
HETATM   41  C   UNK     0      31.871  -4.779  37.170  0.00  0.00     0.139 C 
HETATM   42  O   UNK     0      32.921  -5.437  37.186  0.00  0.00    -0.650 OA
BRANCH  41  43
HETATM   43  O   UNK     0      31.037  -4.903  36.023  0.00  0.00    -0.776 OA
HETATM   44  H   UNK     0      30.202  -4.331  36.048  0.00  0.00     0.167 HD
ENDBRANCH  41  43
ENDBRANCH  40  41
ENDBRANCH  39  40
ENDBRANCH  27  39
BRANCH  11  45
HETATM   45  C   UNK     0      34.759   1.964  47.106  0.00  0.00     0.051 C 
BRANCH  45  46
HETATM   46  C   UNK     0      35.841   2.341  48.051  0.00  0.00     0.114 C 
BRANCH  46  47
HETATM   47  C   UNK     0      36.261   3.731  47.710  0.00  0.00     0.139 C 
HETATM   48  O   UNK     0      36.031   4.156  46.569  0.00  0.00    -0.650 OA
BRANCH  47  49
HETATM   49  O   UNK     0      36.890   4.522  48.637  0.00  0.00    -0.776 OA
HETATM   50  H   UNK     0      37.783   4.254  49.067  0.00  0.00     0.167 HD
ENDBRANCH  47  49
ENDBRANCH  46  47
ENDBRANCH  45  46
ENDBRANCH  11  45
BRANCH  18  51
HETATM   51  C   UNK     0      32.319   1.683  40.570  0.00  0.00     0.051 C 
BRANCH  51  52
HETATM   52  C   UNK     0      33.767   1.912  40.162  0.00  0.00     0.114 C 
BRANCH  52  53
HETATM   53  C   UNK     0      34.002   1.561  38.748  0.00  0.00     0.139 C 
HETATM   54  O   UNK     0      33.152   0.912  38.119  0.00  0.00    -0.650 OA
BRANCH  53  55
HETATM   55  O   UNK     0      35.167   1.955  38.135  0.00  0.00    -0.776 OA
HETATM   56  H   UNK     0      35.276   2.170  37.172  0.00  0.00     0.167 HD
ENDBRANCH  53  55
ENDBRANCH  52  53
ENDBRANCH  51  52
ENDBRANCH  18  51
TORSDOF 16
ENDMDL
MODEL 6
REMARK VINA RESULT:      -9.0      6.810     12.165
REMARK  16 active torsions:
REMARK  status: ('A' for Active; 'I' for Inactive)
REMARK    1  A    between atoms: C_6  and  C_7 
REMARK    2  A    between atoms: C_7  and  C_8 
REMARK    3  A    between atoms: C_8  and  C_9 
REMARK    4  A    between atoms: C_9  and  O_11 
REMARK    5  A    between atoms: C_16  and  C_17 
REMARK    6  A    between atoms: C_17  and  C_18 
REMARK    7  A    between atoms: C_18  and  C_19 
REMARK    8  A    between atoms: C_19  and  O_21 
REMARK    9  A    between atoms: C_28  and  C_29 
REMARK   10  A    between atoms: C_29  and  C_30 
REMARK   11  A    between atoms: C_30  and  C_31 
REMARK   12  A    between atoms: C_31  and  O_33 
REMARK   13  A    between atoms: C_42  and  C_43 
REMARK   14  A    between atoms: C_43  and  C_44 
REMARK   15  A    between atoms: C_44  and  C_45 
REMARK   16  A    between atoms: C_45  and  O_47 
ROOT
HETATM    1  C   UNK     0       3.112   1.071  37.233  0.00  0.00     0.051 C 
HETATM    2  C   UNK     0       3.412   1.426  35.791  0.00  0.00    -0.031 A 
HETATM    3  C   UNK     0       2.637   2.124  34.877  0.00  0.00     0.021 A 
HETATM    4  N   UNK     0       3.292   2.178  33.693  0.00  0.00    -0.361 N 
HETATM    5  C   UNK     0       4.471   1.538  33.834  0.00  0.00     0.022 A 
HETATM    6  C   UNK     0       4.577   1.053  35.134  0.00  0.00    -0.027 A 
HETATM    7  C   UNK     0       5.598   1.394  32.861  0.00  0.00     0.115 C 
HETATM    8  C   UNK     0       5.971   2.630  32.061  0.00  0.00     0.021 A 
HETATM    9  N   UNK     0       5.957   3.914  32.452  0.00  0.00    -0.361 N 
HETATM   10  C   UNK     0       6.275   4.680  31.387  0.00  0.00     0.022 A 
HETATM   11  C   UNK     0       6.508   3.866  30.282  0.00  0.00    -0.027 A 
HETATM   12  C   UNK     0       6.318   2.574  30.700  0.00  0.00    -0.031 A 
HETATM   13  C   UNK     0       6.469   1.344  29.833  0.00  0.00     0.051 C 
HETATM   14  C   UNK     0       6.318   6.205  31.354  0.00  0.00     0.115 C 
HETATM   15  C   UNK     0       4.986   6.866  31.668  0.00  0.00     0.021 A 
HETATM   16  N   UNK     0       4.247   6.735  32.785  0.00  0.00    -0.361 N 
HETATM   17  C   UNK     0       3.111   7.422  32.643  0.00  0.00     0.022 A 
HETATM   18  C   UNK     0       3.114   8.037  31.375  0.00  0.00    -0.027 A 
HETATM   19  C   UNK     0       4.295   7.683  30.775  0.00  0.00    -0.031 A 
HETATM   20  C   UNK     0       4.720   8.164  29.400  0.00  0.00     0.051 C 
HETATM   21  C   UNK     0       1.923   7.538  33.571  0.00  0.00     0.115 C 
HETATM   22  C   UNK     0       1.568   6.330  34.405  0.00  0.00     0.022 A 
HETATM   23  N   UNK     0       1.577   5.040  34.043  0.00  0.00    -0.361 N 
HETATM   24  C   UNK     0       1.334   4.292  35.138  0.00  0.00     0.021 A 
HETATM   25  C   UNK     0       1.155   5.120  36.230  0.00  0.00    -0.031 A 
HETATM   26  C   UNK     0       0.822   4.753  37.661  0.00  0.00     0.051 C 
HETATM   27  C   UNK     0       1.300   6.429  35.785  0.00  0.00    -0.027 A 
HETATM   28  C   UNK     0       1.335   2.777  35.247  0.00  0.00     0.115 C 
HETATM   29  H   UNK     0       2.899   2.634  32.755  0.00  0.00     0.165 HD
HETATM   30  H   UNK     0       5.773   4.280  33.492  0.00  0.00     0.165 HD
HETATM   31  H   UNK     0       4.554   6.186  33.713  0.00  0.00     0.165 HD
HETATM   32  H   UNK     0       1.711   4.648  33.002  0.00  0.00     0.165 HD
ENDROOT
BRANCH   6  33
HETATM   33  C   UNK     0       5.686   0.270  35.789  0.00  0.00     0.051 C 
BRANCH  33  34
HETATM   34  C   UNK     0       6.977   1.054  35.773  0.00  0.00     0.114 C 
BRANCH  34  35
HETATM   35  C   UNK     0       8.097   0.071  35.725  0.00  0.00     0.139 C 
HETATM   36  O   UNK     0       9.097   0.280  34.979  0.00  0.00    -0.650 OA
BRANCH  35  37
HETATM   37  O   UNK     0       8.102  -1.096  36.480  0.00  0.00    -0.776 OA
HETATM   38  H   UNK     0       7.310  -1.378  37.034  0.00  0.00     0.167 HD
ENDBRANCH  35  37
ENDBRANCH  34  35
ENDBRANCH  33  34
ENDBRANCH   6  33
BRANCH  27  39
HETATM   39  C   UNK     0       1.105   7.611  36.668  0.00  0.00     0.051 C 
BRANCH  39  40
HETATM   40  C   UNK     0       2.263   8.138  37.389  0.00  0.00     0.114 C 
BRANCH  40  41
HETATM   41  C   UNK     0       2.132   8.875  38.626  0.00  0.00     0.139 C 
HETATM   42  O   UNK     0       1.585   9.983  38.706  0.00  0.00    -0.650 OA
BRANCH  41  43
HETATM   43  O   UNK     0       2.653   8.312  39.825  0.00  0.00    -0.776 OA
HETATM   44  H   UNK     0       2.183   8.615  40.669  0.00  0.00     0.167 HD
ENDBRANCH  41  43
ENDBRANCH  40  41
ENDBRANCH  39  40
ENDBRANCH  27  39
BRANCH  11  45
HETATM   45  C   UNK     0       6.897   4.266  28.883  0.00  0.00     0.051 C 
BRANCH  45  46
HETATM   46  C   UNK     0       8.329   4.627  28.732  0.00  0.00     0.114 C 
BRANCH  46  47
HETATM   47  C   UNK     0       8.961   3.580  27.879  0.00  0.00     0.139 C 
HETATM   48  O   UNK     0       9.458   2.588  28.429  0.00  0.00    -0.650 OA
BRANCH  47  49
HETATM   49  O   UNK     0       8.994   3.713  26.514  0.00  0.00    -0.776 OA
HETATM   50  H   UNK     0       9.415   2.999  25.907  0.00  0.00     0.167 HD
ENDBRANCH  47  49
ENDBRANCH  46  47
ENDBRANCH  45  46
ENDBRANCH  11  45
BRANCH  18  51
HETATM   51  C   UNK     0       2.060   8.932  30.778  0.00  0.00     0.051 C 
BRANCH  51  52
HETATM   52  C   UNK     0       2.341  10.332  31.304  0.00  0.00     0.114 C 
BRANCH  52  53
HETATM   53  C   UNK     0       1.238  11.265  31.000  0.00  0.00     0.139 C 
HETATM   54  O   UNK     0       1.064  12.272  31.704  0.00  0.00    -0.650 OA
BRANCH  53  55
HETATM   55  O   UNK     0       0.407  11.010  29.936  0.00  0.00    -0.776 OA
HETATM   56  H   UNK     0       0.345  11.545  29.102  0.00  0.00     0.167 HD
ENDBRANCH  53  55
ENDBRANCH  52  53
ENDBRANCH  51  52
ENDBRANCH  18  51
TORSDOF 16
ENDMDL
MODEL 7
REMARK VINA RESULT:      -8.8      4.932      8.319
REMARK  16 active torsions:
REMARK  status: ('A' for Active; 'I' for Inactive)
REMARK    1  A    between atoms: C_6  and  C_7 
REMARK    2  A    between atoms: C_7  and  C_8 
REMARK    3  A    between atoms: C_8  and  C_9 
REMARK    4  A    between atoms: C_9  and  O_11 
REMARK    5  A    between atoms: C_16  and  C_17 
REMARK    6  A    between atoms: C_17  and  C_18 
REMARK    7  A    between atoms: C_18  and  C_19 
REMARK    8  A    between atoms: C_19  and  O_21 
REMARK    9  A    between atoms: C_28  and  C_29 
REMARK   10  A    between atoms: C_29  and  C_30 
REMARK   11  A    between atoms: C_30  and  C_31 
REMARK   12  A    between atoms: C_31  and  O_33 
REMARK   13  A    between atoms: C_42  and  C_43 
REMARK   14  A    between atoms: C_43  and  C_44 
REMARK   15  A    between atoms: C_44  and  C_45 
REMARK   16  A    between atoms: C_45  and  O_47 
ROOT
HETATM    1  C   UNK     0      -0.412   3.359  42.622  0.00  0.00     0.051 C 
HETATM    2  C   UNK     0       0.377   4.039  41.522  0.00  0.00    -0.031 A 
HETATM    3  C   UNK     0       1.570   3.657  40.930  0.00  0.00     0.021 A 
HETATM    4  N   UNK     0       1.923   4.586  40.010  0.00  0.00    -0.361 N 
HETATM    5  C   UNK     0       0.977   5.547  39.997  0.00  0.00     0.022 A 
HETATM    6  C   UNK     0      -0.004   5.238  40.933  0.00  0.00    -0.027 A 
HETATM    7  C   UNK     0       0.844   6.740  39.103  0.00  0.00     0.115 C 
HETATM    8  C   UNK     0       1.135   6.523  37.628  0.00  0.00     0.021 A 
HETATM    9  N   UNK     0       0.875   5.443  36.875  0.00  0.00    -0.361 N 
HETATM   10  C   UNK     0       1.389   5.656  35.645  0.00  0.00     0.022 A 
HETATM   11  C   UNK     0       1.989   6.912  35.603  0.00  0.00    -0.027 A 
HETATM   12  C   UNK     0       1.832   7.463  36.849  0.00  0.00    -0.031 A 
HETATM   13  C   UNK     0       2.325   8.830  37.268  0.00  0.00     0.051 C 
HETATM   14  C   UNK     0       1.383   4.668  34.482  0.00  0.00     0.115 C 
HETATM   15  C   UNK     0       2.123   3.372  34.771  0.00  0.00     0.021 A 
HETATM   16  N   UNK     0       1.876   2.487  35.755  0.00  0.00    -0.361 N 
HETATM   17  C   UNK     0       2.792   1.517  35.713  0.00  0.00     0.022 A 
HETATM   18  C   UNK     0       3.673   1.778  34.644  0.00  0.00    -0.027 A 
HETATM   19  C   UNK     0       3.242   2.941  34.062  0.00  0.00    -0.031 A 
HETATM   20  C   UNK     0       3.894   3.566  32.841  0.00  0.00     0.051 C 
HETATM   21  C   UNK     0       3.000   0.336  36.633  0.00  0.00     0.115 C 
HETATM   22  C   UNK     0       2.673   0.525  38.096  0.00  0.00     0.022 A 
HETATM   23  N   UNK     0       2.917   1.591  38.870  0.00  0.00    -0.361 N 
HETATM   24  C   UNK     0       2.328   1.389  40.066  0.00  0.00     0.021 A 
HETATM   25  C   UNK     0       1.698   0.159  40.065  0.00  0.00    -0.031 A 
HETATM   26  C   UNK     0       0.941  -0.525  41.185  0.00  0.00     0.051 C 
HETATM   27  C   UNK     0       1.906  -0.413  38.815  0.00  0.00    -0.027 A 
HETATM   28  C   UNK     0       2.249   2.352  41.237  0.00  0.00     0.115 C 
HETATM   29  H   UNK     0       2.859   4.576  39.404  0.00  0.00     0.165 HD
HETATM   30  H   UNK     0       0.285   4.550  37.194  0.00  0.00     0.165 HD
HETATM   31  H   UNK     0       1.010   2.522  36.466  0.00  0.00     0.165 HD
HETATM   32  H   UNK     0       3.544   2.478  38.593  0.00  0.00     0.165 HD
ENDROOT
BRANCH   6  33
HETATM   33  C   UNK     0      -1.258   5.987  41.307  0.00  0.00     0.051 C 
BRANCH  33  34
HETATM   34  C   UNK     0      -1.063   6.745  42.599  0.00  0.00     0.114 C 
BRANCH  34  35
HETATM   35  C   UNK     0      -0.556   8.103  42.247  0.00  0.00     0.139 C 
HETATM   36  O   UNK     0       0.689   8.315  42.161  0.00  0.00    -0.650 OA
BRANCH  35  37
HETATM   37  O   UNK     0      -1.401   9.177  42.000  0.00  0.00    -0.776 OA
HETATM   38  H   UNK     0      -1.878   9.291  41.120  0.00  0.00     0.167 HD
ENDBRANCH  35  37
ENDBRANCH  34  35
ENDBRANCH  33  34
ENDBRANCH   6  33
BRANCH  27  39
HETATM   39  C   UNK     0       1.434  -1.779  38.461  0.00  0.00     0.051 C 
BRANCH  39  40
HETATM   40  C   UNK     0       0.132  -1.916  37.808  0.00  0.00     0.114 C 
BRANCH  40  41
HETATM   41  C   UNK     0      -1.059  -2.296  38.536  0.00  0.00     0.139 C 
HETATM   42  O   UNK     0      -2.134  -1.687  38.452  0.00  0.00    -0.650 OA
BRANCH  41  43
HETATM   43  O   UNK     0      -1.010  -3.427  39.399  0.00  0.00    -0.776 OA
HETATM   44  H   UNK     0      -0.779  -3.210  40.361  0.00  0.00     0.167 HD
ENDBRANCH  41  43
ENDBRANCH  40  41
ENDBRANCH  39  40
ENDBRANCH  27  39
BRANCH  11  45
HETATM   45  C   UNK     0       2.683   7.585  34.449  0.00  0.00     0.051 C 
BRANCH  45  46
HETATM   46  C   UNK     0       2.035   7.354  33.133  0.00  0.00     0.114 C 
BRANCH  46  47
HETATM   47  C   UNK     0       3.117   7.047  32.155  0.00  0.00     0.139 C 
HETATM   48  O   UNK     0       4.280   7.366  32.439  0.00  0.00    -0.650 OA
BRANCH  47  49
HETATM   49  O   UNK     0       2.834   6.425  30.966  0.00  0.00    -0.776 OA
HETATM   50  H   UNK     0       2.348   6.907  30.200  0.00  0.00     0.167 HD
ENDBRANCH  47  49
ENDBRANCH  46  47
ENDBRANCH  45  46
ENDBRANCH  11  45
BRANCH  18  51
HETATM   51  C   UNK     0       4.848   0.951  34.189  0.00  0.00     0.051 C 
BRANCH  51  52
HETATM   52  C   UNK     0       6.076   1.556  34.852  0.00  0.00     0.114 C 
BRANCH  52  53
HETATM   53  C   UNK     0       6.741   0.598  35.756  0.00  0.00     0.139 C 
HETATM   54  O   UNK     0       7.832   0.886  36.274  0.00  0.00    -0.650 OA
BRANCH  53  55
HETATM   55  O   UNK     0       6.148  -0.613  36.018  0.00  0.00    -0.776 OA
HETATM   56  H   UNK     0       6.009  -1.014  36.916  0.00  0.00     0.167 HD
ENDBRANCH  53  55
ENDBRANCH  52  53
ENDBRANCH  51  52
ENDBRANCH  18  51
TORSDOF 16
ENDMDL
MODEL 8
REMARK VINA RESULT:      -8.5      2.325      7.944
REMARK  16 active torsions:
REMARK  status: ('A' for Active; 'I' for Inactive)
REMARK    1  A    between atoms: C_6  and  C_7 
REMARK    2  A    between atoms: C_7  and  C_8 
REMARK    3  A    between atoms: C_8  and  C_9 
REMARK    4  A    between atoms: C_9  and  O_11 
REMARK    5  A    between atoms: C_16  and  C_17 
REMARK    6  A    between atoms: C_17  and  C_18 
REMARK    7  A    between atoms: C_18  and  C_19 
REMARK    8  A    between atoms: C_19  and  O_21 
REMARK    9  A    between atoms: C_28  and  C_29 
REMARK   10  A    between atoms: C_29  and  C_30 
REMARK   11  A    between atoms: C_30  and  C_31 
REMARK   12  A    between atoms: C_31  and  O_33 
REMARK   13  A    between atoms: C_42  and  C_43 
REMARK   14  A    between atoms: C_43  and  C_44 
REMARK   15  A    between atoms: C_44  and  C_45 
REMARK   16  A    between atoms: C_45  and  O_47 
ROOT
HETATM    1  C   UNK     0       6.079  10.778  46.519  0.00  0.00     0.051 C 
HETATM    2  C   UNK     0       5.487   9.384  46.587  0.00  0.00    -0.031 A 
HETATM    3  C   UNK     0       4.211   8.953  46.261  0.00  0.00     0.021 A 
HETATM    4  N   UNK     0       4.117   7.625  46.510  0.00  0.00    -0.361 N 
HETATM    5  C   UNK     0       5.308   7.199  46.980  0.00  0.00     0.022 A 
HETATM    6  C   UNK     0       6.187   8.275  47.044  0.00  0.00    -0.027 A 
HETATM    7  C   UNK     0       5.757   5.812  47.316  0.00  0.00     0.115 C 
HETATM    8  C   UNK     0       5.355   4.712  46.349  0.00  0.00     0.021 A 
HETATM    9  N   UNK     0       5.247   4.772  45.013  0.00  0.00    -0.361 N 
HETATM   10  C   UNK     0       4.770   3.586  44.577  0.00  0.00     0.022 A 
HETATM   11  C   UNK     0       4.575   2.736  45.662  0.00  0.00    -0.027 A 
HETATM   12  C   UNK     0       4.942   3.439  46.781  0.00  0.00    -0.031 A 
HETATM   13  C   UNK     0       4.901   2.910  48.197  0.00  0.00     0.051 C 
HETATM   14  C   UNK     0       4.431   3.226  43.133  0.00  0.00     0.115 C 
HETATM   15  C   UNK     0       3.348   4.098  42.520  0.00  0.00     0.021 A 
HETATM   16  N   UNK     0       3.357   5.436  42.370  0.00  0.00    -0.361 N 
HETATM   17  C   UNK     0       2.190   5.827  41.853  0.00  0.00     0.022 A 
HETATM   18  C   UNK     0       1.386   4.689  41.646  0.00  0.00    -0.027 A 
HETATM   19  C   UNK     0       2.123   3.612  42.067  0.00  0.00    -0.031 A 
HETATM   20  C   UNK     0       1.641   2.175  41.985  0.00  0.00     0.051 C 
HETATM   21  C   UNK     0       1.674   7.218  41.562  0.00  0.00     0.115 C 
HETATM   22  C   UNK     0       2.102   8.330  42.490  0.00  0.00     0.022 A 
HETATM   23  N   UNK     0       2.222   8.297  43.824  0.00  0.00    -0.361 N 
HETATM   24  C   UNK     0       2.771   9.461  44.228  0.00  0.00     0.021 A 
HETATM   25  C   UNK     0       3.000  10.266  43.128  0.00  0.00    -0.031 A 
HETATM   26  C   UNK     0       3.561  11.672  43.077  0.00  0.00     0.051 C 
HETATM   27  C   UNK     0       2.580   9.564  42.005  0.00  0.00    -0.027 A 
HETATM   28  C   UNK     0       3.185   9.854  45.635  0.00  0.00     0.115 C 
HETATM   29  H   UNK     0       3.198   7.006  46.389  0.00  0.00     0.165 HD
HETATM   30  H   UNK     0       5.553   5.632  44.369  0.00  0.00     0.165 HD
HETATM   31  H   UNK     0       4.222   6.114  42.590  0.00  0.00     0.165 HD
HETATM   32  H   UNK     0       1.881   7.469  44.497  0.00  0.00     0.165 HD
ENDROOT
BRANCH   6  33
HETATM   33  C   UNK     0       7.623   8.328  47.502  0.00  0.00     0.051 C 
BRANCH  33  34
HETATM   34  C   UNK     0       7.700   8.510  48.999  0.00  0.00     0.114 C 
BRANCH  34  35
HETATM   35  C   UNK     0       9.086   8.955  49.324  0.00  0.00     0.139 C 
HETATM   36  O   UNK     0       9.473  10.117  49.004  0.00  0.00    -0.650 OA
BRANCH  35  37
HETATM   37  O   UNK     0      10.000   8.140  49.979  0.00  0.00    -0.776 OA
HETATM   38  H   UNK     0      10.847   8.505  50.385  0.00  0.00     0.167 HD
ENDBRANCH  35  37
ENDBRANCH  34  35
ENDBRANCH  33  34
ENDBRANCH   6  33
BRANCH  27  39
HETATM   39  C   UNK     0       2.603  10.140  40.633  0.00  0.00     0.051 C 
BRANCH  39  40
HETATM   40  C   UNK     0       1.361  10.687  40.088  0.00  0.00     0.114 C 
BRANCH  40  41
HETATM   41  C   UNK     0       0.357  11.303  40.926  0.00  0.00     0.139 C 
HETATM   42  O   UNK     0       0.333  12.514  41.186  0.00  0.00    -0.650 OA
BRANCH  41  43
HETATM   43  O   UNK     0      -0.666  10.490  41.492  0.00  0.00    -0.776 OA
HETATM   44  H   UNK     0      -0.514   9.493  41.387  0.00  0.00     0.167 HD
ENDBRANCH  41  43
ENDBRANCH  40  41
ENDBRANCH  39  40
ENDBRANCH  27  39
BRANCH  11  45
HETATM   45  C   UNK     0       4.070   1.318  45.668  0.00  0.00     0.051 C 
BRANCH  45  46
HETATM   46  C   UNK     0       4.978   0.354  46.341  0.00  0.00     0.114 C 
BRANCH  46  47
HETATM   47  C   UNK     0       4.500  -1.016  45.998  0.00  0.00     0.139 C 
HETATM   48  O   UNK     0       5.200  -1.718  45.255  0.00  0.00    -0.650 OA
BRANCH  47  49
HETATM   49  O   UNK     0       3.311  -1.490  46.492  0.00  0.00    -0.776 OA
HETATM   50  H   UNK     0       2.935  -1.182  47.397  0.00  0.00     0.167 HD
ENDBRANCH  47  49
ENDBRANCH  46  47
ENDBRANCH  45  46
ENDBRANCH  11  45
BRANCH  18  51
HETATM   51  C   UNK     0      -0.001   4.628  41.060  0.00  0.00     0.051 C 
BRANCH  51  52
HETATM   52  C   UNK     0       0.174   4.649  39.549  0.00  0.00     0.114 C 
BRANCH  52  53
HETATM   53  C   UNK     0      -0.336   3.415  38.920  0.00  0.00     0.139 C 
HETATM   54  O   UNK     0      -0.339   3.303  37.683  0.00  0.00    -0.650 OA
BRANCH  53  55
HETATM   55  O   UNK     0      -0.808   2.395  39.709  0.00  0.00    -0.776 OA
HETATM   56  H   UNK     0      -0.648   2.288  40.683  0.00  0.00     0.167 HD
ENDBRANCH  53  55
ENDBRANCH  52  53
ENDBRANCH  51  52
ENDBRANCH  18  51
TORSDOF 16
ENDMDL
MODEL 9
REMARK VINA RESULT:      -8.4      8.948     12.300
REMARK  16 active torsions:
REMARK  status: ('A' for Active; 'I' for Inactive)
REMARK    1  A    between atoms: C_6  and  C_7 
REMARK    2  A    between atoms: C_7  and  C_8 
REMARK    3  A    between atoms: C_8  and  C_9 
REMARK    4  A    between atoms: C_9  and  O_11 
REMARK    5  A    between atoms: C_16  and  C_17 
REMARK    6  A    between atoms: C_17  and  C_18 
REMARK    7  A    between atoms: C_18  and  C_19 
REMARK    8  A    between atoms: C_19  and  O_21 
REMARK    9  A    between atoms: C_28  and  C_29 
REMARK   10  A    between atoms: C_29  and  C_30 
REMARK   11  A    between atoms: C_30  and  C_31 
REMARK   12  A    between atoms: C_31  and  O_33 
REMARK   13  A    between atoms: C_42  and  C_43 
REMARK   14  A    between atoms: C_43  and  C_44 
REMARK   15  A    between atoms: C_44  and  C_45 
REMARK   16  A    between atoms: C_45  and  O_47 
ROOT
HETATM    1  C   UNK     0      10.348   3.369  28.549  0.00  0.00     0.051 C 
HETATM    2  C   UNK     0       8.949   3.892  28.803  0.00  0.00    -0.031 A 
HETATM    3  C   UNK     0       7.765   3.192  28.974  0.00  0.00     0.021 A 
HETATM    4  N   UNK     0       6.752   4.074  29.145  0.00  0.00    -0.361 N 
HETATM    5  C   UNK     0       7.265   5.320  29.096  0.00  0.00     0.022 A 
HETATM    6  C   UNK     0       8.637   5.243  28.880  0.00  0.00    -0.027 A 
HETATM    7  C   UNK     0       6.590   6.637  29.319  0.00  0.00     0.115 C 
HETATM    8  C   UNK     0       5.611   6.713  30.477  0.00  0.00     0.021 A 
HETATM    9  N   UNK     0       5.679   6.105  31.671  0.00  0.00    -0.361 N 
HETATM   10  C   UNK     0       4.546   6.385  32.350  0.00  0.00     0.022 A 
HETATM   11  C   UNK     0       3.730   7.203  31.575  0.00  0.00    -0.027 A 
HETATM   12  C   UNK     0       4.394   7.415  30.394  0.00  0.00    -0.031 A 
HETATM   13  C   UNK     0       3.887   8.254  29.243  0.00  0.00     0.051 C 
HETATM   14  C   UNK     0       4.165   5.850  33.728  0.00  0.00     0.115 C 
HETATM   15  C   UNK     0       4.050   4.336  33.791  0.00  0.00     0.021 A 
HETATM   16  N   UNK     0       5.002   3.427  33.507  0.00  0.00    -0.361 N 
HETATM   17  C   UNK     0       4.485   2.202  33.616  0.00  0.00     0.022 A 
HETATM   18  C   UNK     0       3.134   2.317  33.999  0.00  0.00    -0.027 A 
HETATM   19  C   UNK     0       2.875   3.658  34.106  0.00  0.00    -0.031 A 
HETATM   20  C   UNK     0       1.534   4.227  34.536  0.00  0.00     0.051 C 
HETATM   21  C   UNK     0       5.111   0.854  33.336  0.00  0.00     0.115 C 
HETATM   22  C   UNK     0       6.121   0.773  32.215  0.00  0.00     0.022 A 
HETATM   23  N   UNK     0       6.081   1.372  31.017  0.00  0.00    -0.361 N 
HETATM   24  C   UNK     0       7.252   1.143  30.390  0.00  0.00     0.021 A 
HETATM   25  C   UNK     0       8.062   0.371  31.200  0.00  0.00    -0.031 A 
HETATM   26  C   UNK     0       9.447  -0.175  30.919  0.00  0.00     0.051 C 
HETATM   27  C   UNK     0       7.360   0.121  32.373  0.00  0.00    -0.027 A 
HETATM   28  C   UNK     0       7.712   1.692  29.051  0.00  0.00     0.115 C 
HETATM   29  H   UNK     0       5.675   3.810  29.259  0.00  0.00     0.165 HD
HETATM   30  H   UNK     0       6.547   5.518  32.058  0.00  0.00     0.165 HD
HETATM   31  H   UNK     0       6.075   3.654  33.270  0.00  0.00     0.165 HD
HETATM   32  H   UNK     0       5.207   1.925  30.585  0.00  0.00     0.165 HD
ENDROOT
BRANCH   6  33
HETATM   33  C   UNK     0       9.660   6.342  28.742  0.00  0.00     0.051 C 
BRANCH  33  34
HETATM   34  C   UNK     0      10.363   6.588  30.056  0.00  0.00     0.114 C 
BRANCH  34  35
HETATM   35  C   UNK     0       9.517   7.528  30.846  0.00  0.00     0.139 C 
HETATM   36  O   UNK     0       8.849   7.107  31.835  0.00  0.00    -0.650 OA
BRANCH  35  37
HETATM   37  O   UNK     0       9.421   8.882  30.546  0.00  0.00    -0.776 OA
HETATM   38  H   UNK     0       8.587   9.284  30.149  0.00  0.00     0.167 HD
ENDBRANCH  35  37
ENDBRANCH  34  35
ENDBRANCH  33  34
ENDBRANCH   6  33
BRANCH  27  39
HETATM   39  C   UNK     0       7.886  -0.744  33.464  0.00  0.00     0.051 C 
BRANCH  39  40
HETATM   40  C   UNK     0       8.371  -0.103  34.685  0.00  0.00     0.114 C 
BRANCH  40  41
HETATM   41  C   UNK     0       7.587  -0.065  35.900  0.00  0.00     0.139 C 
HETATM   42  O   UNK     0       7.042   0.960  36.330  0.00  0.00    -0.650 OA
BRANCH  41  43
HETATM   43  O   UNK     0       7.422  -1.262  36.653  0.00  0.00    -0.776 OA
HETATM   44  H   UNK     0       6.478  -1.425  36.980  0.00  0.00     0.167 HD
ENDBRANCH  41  43
ENDBRANCH  40  41
ENDBRANCH  39  40
ENDBRANCH  27  39
BRANCH  11  45
HETATM   45  C   UNK     0       2.379   7.777  31.912  0.00  0.00     0.051 C 
BRANCH  45  46
HETATM   46  C   UNK     0       2.410   8.814  32.975  0.00  0.00     0.114 C 
BRANCH  46  47
HETATM   47  C   UNK     0       2.364  10.142  32.299  0.00  0.00     0.139 C 
HETATM   48  O   UNK     0       1.870  10.212  31.165  0.00  0.00    -0.650 OA
BRANCH  47  49
HETATM   49  O   UNK     0       2.858  11.262  32.917  0.00  0.00    -0.776 OA
HETATM   50  H   UNK     0       3.463  11.206  33.745  0.00  0.00     0.167 HD
ENDBRANCH  47  49
ENDBRANCH  46  47
ENDBRANCH  45  46
ENDBRANCH  11  45
BRANCH  18  51
HETATM   51  C   UNK     0       2.150   1.208  34.268  0.00  0.00     0.051 C 
BRANCH  51  52
HETATM   52  C   UNK     0       2.385   0.770  35.706  0.00  0.00     0.114 C 
BRANCH  52  53
HETATM   53  C   UNK     0       1.430  -0.274  36.126  0.00  0.00     0.139 C 
HETATM   54  O   UNK     0       1.450  -1.389  35.581  0.00  0.00    -0.650 OA
BRANCH  53  55
HETATM   55  O   UNK     0       0.520  -0.003  37.119  0.00  0.00    -0.776 OA
HETATM   56  H   UNK     0      -0.377   0.404  36.994  0.00  0.00     0.167 HD
ENDBRANCH  53  55
ENDBRANCH  52  53
ENDBRANCH  51  52
ENDBRANCH  18  51
TORSDOF 16
ENDMDL
MODEL 10
REMARK VINA RESULT:      -8.2      2.666      4.852
REMARK  16 active torsions:
REMARK  status: ('A' for Active; 'I' for Inactive)
REMARK    1  A    between atoms: C_6  and  C_7 
REMARK    2  A    between atoms: C_7  and  C_8 
REMARK    3  A    between atoms: C_8  and  C_9 
REMARK    4  A    between atoms: C_9  and  O_11 
REMARK    5  A    between atoms: C_16  and  C_17 
REMARK    6  A    between atoms: C_17  and  C_18 
REMARK    7  A    between atoms: C_18  and  C_19 
REMARK    8  A    between atoms: C_19  and  O_21 
REMARK    9  A    between atoms: C_28  and  C_29 
REMARK   10  A    between atoms: C_29  and  C_30 
REMARK   11  A    between atoms: C_30  and  C_31 
REMARK   12  A    between atoms: C_31  and  O_33 
REMARK   13  A    between atoms: C_42  and  C_43 
REMARK   14  A    between atoms: C_43  and  C_44 
REMARK   15  A    between atoms: C_44  and  C_45 
REMARK   16  A    between atoms: C_45  and  O_47 
ROOT
HETATM    1  C   UNK     0       4.266   7.957  47.191  0.00  0.00     0.051 C 
HETATM    2  C   UNK     0       3.991   8.057  45.704  0.00  0.00    -0.031 A 
HETATM    3  C   UNK     0       4.532   7.325  44.658  0.00  0.00     0.021 A 
HETATM    4  N   UNK     0       4.017   7.777  43.491  0.00  0.00    -0.361 N 
HETATM    5  C   UNK     0       3.154   8.776  43.770  0.00  0.00     0.022 A 
HETATM    6  C   UNK     0       3.115   8.978  45.145  0.00  0.00    -0.027 A 
HETATM    7  C   UNK     0       2.257   9.544  42.850  0.00  0.00     0.115 C 
HETATM    8  C   UNK     0       1.527   8.745  41.785  0.00  0.00     0.021 A 
HETATM    9  N   UNK     0       1.024   7.503  41.869  0.00  0.00    -0.361 N 
HETATM   10  C   UNK     0       0.545   7.162  40.655  0.00  0.00     0.022 A 
HETATM   11  C   UNK     0       0.735   8.216  39.766  0.00  0.00    -0.027 A 
HETATM   12  C   UNK     0       1.353   9.216  40.472  0.00  0.00    -0.031 A 
HETATM   13  C   UNK     0       1.753  10.563  39.911  0.00  0.00     0.051 C 
HETATM   14  C   UNK     0      -0.061   5.815  40.271  0.00  0.00     0.115 C 
HETATM   15  C   UNK     0       0.893   4.642  40.430  0.00  0.00     0.021 A 
HETATM   16  N   UNK     0       1.520   4.240  41.551  0.00  0.00    -0.361 N 
HETATM   17  C   UNK     0       2.326   3.217  41.260  0.00  0.00     0.022 A 
HETATM   18  C   UNK     0       2.212   2.932  39.885  0.00  0.00    -0.027 A 
HETATM   19  C   UNK     0       1.310   3.831  39.377  0.00  0.00    -0.031 A 
HETATM   20  C   UNK     0       0.866   3.852  37.926  0.00  0.00     0.051 C 
HETATM   21  C   UNK     0       3.293   2.460  42.142  0.00  0.00     0.115 C 
HETATM   22  C   UNK     0       3.994   3.233  43.234  0.00  0.00     0.022 A 
HETATM   23  N   UNK     0       4.501   4.472  43.179  0.00  0.00    -0.361 N 
HETATM   24  C   UNK     0       4.902   4.821  44.419  0.00  0.00     0.021 A 
HETATM   25  C   UNK     0       4.657   3.777  45.290  0.00  0.00    -0.031 A 
HETATM   26  C   UNK     0       4.968   3.677  46.769  0.00  0.00     0.051 C 
HETATM   27  C   UNK     0       4.076   2.750  44.555  0.00  0.00    -0.027 A 
HETATM   28  C   UNK     0       5.455   6.160  44.874  0.00  0.00     0.115 C 
HETATM   29  H   UNK     0       4.297   7.415  42.474  0.00  0.00     0.165 HD
HETATM   30  H   UNK     0       0.961   6.884  42.797  0.00  0.00     0.165 HD
HETATM   31  H   UNK     0       1.356   4.656  42.579  0.00  0.00     0.165 HD
HETATM   32  H   UNK     0       4.620   5.097  42.256  0.00  0.00     0.165 HD
ENDROOT
BRANCH   6  33
HETATM   33  C   UNK     0       2.322   9.970  45.958  0.00  0.00     0.051 C 
BRANCH  33  34
HETATM   34  C   UNK     0       3.185  11.142  46.362  0.00  0.00     0.114 C 
BRANCH  34  35
HETATM   35  C   UNK     0       2.546  12.375  45.819  0.00  0.00     0.139 C 
HETATM   36  O   UNK     0       2.075  12.384  44.644  0.00  0.00    -0.650 OA
BRANCH  35  37
HETATM   37  O   UNK     0       2.435  13.548  46.556  0.00  0.00    -0.776 OA
HETATM   38  H   UNK     0       2.625  13.579  47.544  0.00  0.00     0.167 HD
ENDBRANCH  35  37
ENDBRANCH  34  35
ENDBRANCH  33  34
ENDBRANCH   6  33
BRANCH  27  39
HETATM   39  C   UNK     0       3.734   1.426  45.143  0.00  0.00     0.051 C 
BRANCH  39  40
HETATM   40  C   UNK     0       4.797   0.657  45.789  0.00  0.00     0.114 C 
BRANCH  40  41
HETATM   41  C   UNK     0       4.645  -0.742  46.119  0.00  0.00     0.139 C 
HETATM   42  O   UNK     0       5.580  -1.555  46.098  0.00  0.00    -0.650 OA
BRANCH  41  43
HETATM   43  O   UNK     0       3.360  -1.229  46.490  0.00  0.00    -0.776 OA
HETATM   44  H   UNK     0       2.676  -1.218  45.743  0.00  0.00     0.167 HD
ENDBRANCH  41  43
ENDBRANCH  40  41
ENDBRANCH  39  40
ENDBRANCH  27  39
BRANCH  11  45
HETATM   45  C   UNK     0       0.357   8.301  38.311  0.00  0.00     0.051 C 
BRANCH  45  46
HETATM   46  C   UNK     0       1.467   7.982  37.377  0.00  0.00     0.114 C 
BRANCH  46  47
HETATM   47  C   UNK     0       1.566   9.111  36.407  0.00  0.00     0.139 C 
HETATM   48  O   UNK     0       0.876  10.121  36.602  0.00  0.00    -0.650 OA
BRANCH  47  49
HETATM   49  O   UNK     0       2.401   9.033  35.322  0.00  0.00    -0.776 OA
HETATM   50  H   UNK     0       2.503   8.171  34.773  0.00  0.00     0.167 HD
ENDBRANCH  47  49
ENDBRANCH  46  47
ENDBRANCH  45  46
ENDBRANCH  11  45
BRANCH  18  51
HETATM   51  C   UNK     0       2.907   1.849  39.102  0.00  0.00     0.051 C 
BRANCH  51  52
HETATM   52  C   UNK     0       1.949   0.668  39.065  0.00  0.00     0.114 C 
BRANCH  52  53
HETATM   53  C   UNK     0       2.212  -0.288  40.159  0.00  0.00     0.139 C 
HETATM   54  O   UNK     0       3.205  -1.031  40.109  0.00  0.00    -0.650 OA
BRANCH  53  55
HETATM   55  O   UNK     0       1.352  -0.351  41.228  0.00  0.00    -0.776 OA
HETATM   56  H   UNK     0       1.236   0.345  41.926  0.00  0.00     0.167 HD
ENDBRANCH  53  55
ENDBRANCH  52  53
ENDBRANCH  51  52
ENDBRANCH  18  51
TORSDOF 16
ENDMDL
MODEL 11
REMARK VINA RESULT:      -8.2     15.912     20.918
REMARK  16 active torsions:
REMARK  status: ('A' for Active; 'I' for Inactive)
REMARK    1  A    between atoms: C_6  and  C_7 
REMARK    2  A    between atoms: C_7  and  C_8 
REMARK    3  A    between atoms: C_8  and  C_9 
REMARK    4  A    between atoms: C_9  and  O_11 
REMARK    5  A    between atoms: C_16  and  C_17 
REMARK    6  A    between atoms: C_17  and  C_18 
REMARK    7  A    between atoms: C_18  and  C_19 
REMARK    8  A    between atoms: C_19  and  O_21 
REMARK    9  A    between atoms: C_28  and  C_29 
REMARK   10  A    between atoms: C_29  and  C_30 
REMARK   11  A    between atoms: C_30  and  C_31 
REMARK   12  A    between atoms: C_31  and  O_33 
REMARK   13  A    between atoms: C_42  and  C_43 
REMARK   14  A    between atoms: C_43  and  C_44 
REMARK   15  A    between atoms: C_44  and  C_45 
REMARK   16  A    between atoms: C_45  and  O_47 
ROOT
HETATM    1  C   UNK     0      11.786  -3.360  45.853  0.00  0.00     0.051 C 
HETATM    2  C   UNK     0      12.511  -4.629  46.251  0.00  0.00    -0.031 A 
HETATM    3  C   UNK     0      12.833  -5.737  45.483  0.00  0.00     0.021 A 
HETATM    4  N   UNK     0      13.457  -6.650  46.264  0.00  0.00    -0.361 N 
HETATM    5  C   UNK     0      13.547  -6.146  47.512  0.00  0.00     0.022 A 
HETATM    6  C   UNK     0      12.962  -4.884  47.540  0.00  0.00    -0.027 A 
HETATM    7  C   UNK     0      14.225  -6.711  48.721  0.00  0.00     0.115 C 
HETATM    8  C   UNK     0      15.589  -7.341  48.505  0.00  0.00     0.021 A 
HETATM    9  N   UNK     0      16.559  -6.966  47.656  0.00  0.00    -0.361 N 
HETATM   10  C   UNK     0      17.559  -7.869  47.736  0.00  0.00     0.022 A 
HETATM   11  C   UNK     0      17.228  -8.848  48.669  0.00  0.00    -0.027 A 
HETATM   12  C   UNK     0      15.989  -8.522  49.157  0.00  0.00    -0.031 A 
HETATM   13  C   UNK     0      15.227  -9.304  50.203  0.00  0.00     0.051 C 
HETATM   14  C   UNK     0      18.836  -7.875  46.902  0.00  0.00     0.115 C 
HETATM   15  C   UNK     0      18.595  -7.998  45.406  0.00  0.00     0.021 A 
HETATM   16  N   UNK     0      17.876  -7.174  44.620  0.00  0.00    -0.361 N 
HETATM   17  C   UNK     0      17.847  -7.666  43.380  0.00  0.00     0.022 A 
HETATM   18  C   UNK     0      18.592  -8.862  43.353  0.00  0.00    -0.027 A 
HETATM   19  C   UNK     0      19.056  -9.058  44.628  0.00  0.00    -0.031 A 
HETATM   20  C   UNK     0      19.940 -10.222  45.035  0.00  0.00     0.051 C 
HETATM   21  C   UNK     0      17.123  -7.164  42.151  0.00  0.00     0.115 C 
HETATM   22  C   UNK     0      15.784  -6.495  42.356  0.00  0.00     0.022 A 
HETATM   23  N   UNK     0      14.802  -6.844  43.197  0.00  0.00    -0.361 N 
HETATM   24  C   UNK     0      13.851  -5.889  43.157  0.00  0.00     0.021 A 
HETATM   25  C   UNK     0      14.226  -4.905  42.262  0.00  0.00    -0.031 A 
HETATM   26  C   UNK     0      13.474  -3.657  41.847  0.00  0.00     0.051 C 
HETATM   27  C   UNK     0      15.460  -5.271  41.736  0.00  0.00    -0.027 A 
HETATM   28  C   UNK     0      12.591  -5.796  44.001  0.00  0.00     0.115 C 
HETATM   29  H   UNK     0      13.793  -7.662  45.938  0.00  0.00     0.165 HD
HETATM   30  H   UNK     0      16.562  -6.036  47.036  0.00  0.00     0.165 HD
HETATM   31  H   UNK     0      17.418  -6.201  44.936  0.00  0.00     0.165 HD
HETATM   32  H   UNK     0      14.750  -7.791  43.794  0.00  0.00     0.165 HD
ENDROOT
BRANCH   6  33
HETATM   33  C   UNK     0      12.800  -3.915  48.684  0.00  0.00     0.051 C 
BRANCH  33  34
HETATM   34  C   UNK     0      11.404  -3.989  49.254  0.00  0.00     0.114 C 
BRANCH  34  35
HETATM   35  C   UNK     0      11.424  -4.991  50.358  0.00  0.00     0.139 C 
HETATM   36  O   UNK     0      10.985  -6.162  50.164  0.00  0.00    -0.650 OA
BRANCH  35  37
HETATM   37  O   UNK     0      11.917  -4.701  51.624  0.00  0.00    -0.776 OA
HETATM   38  H   UNK     0      11.976  -3.758  51.972  0.00  0.00     0.167 HD
ENDBRANCH  35  37
ENDBRANCH  34  35
ENDBRANCH  33  34
ENDBRANCH   6  33
BRANCH  27  39
HETATM   39  C   UNK     0      16.154  -4.488  40.679  0.00  0.00     0.051 C 
BRANCH  39  40
HETATM   40  C   UNK     0      17.339  -3.716  41.052  0.00  0.00     0.114 C 
BRANCH  40  41
HETATM   41  C   UNK     0      17.249  -2.463  41.768  0.00  0.00     0.139 C 
HETATM   42  O   UNK     0      17.338  -2.371  43.000  0.00  0.00    -0.650 OA
BRANCH  41  43
HETATM   43  O   UNK     0      17.046  -1.260  41.033  0.00  0.00    -0.776 OA
HETATM   44  H   UNK     0      16.291  -0.680  41.379  0.00  0.00     0.167 HD
ENDBRANCH  41  43
ENDBRANCH  40  41
ENDBRANCH  39  40
ENDBRANCH  27  39
BRANCH  11  45
HETATM   45  C   UNK     0      18.030 -10.047  49.100  0.00  0.00     0.051 C 
BRANCH  45  46
HETATM   46  C   UNK     0      18.822  -9.833  50.338  0.00  0.00     0.114 C 
BRANCH  46  47
HETATM   47  C   UNK     0      20.229  -9.567  49.921  0.00  0.00     0.139 C 
HETATM   48  O   UNK     0      20.674 -10.158  48.928  0.00  0.00    -0.650 OA
BRANCH  47  49
HETATM   49  O   UNK     0      21.015  -8.688  50.622  0.00  0.00    -0.776 OA
HETATM   50  H   UNK     0      21.200  -8.803  51.626  0.00  0.00     0.167 HD
ENDBRANCH  47  49
ENDBRANCH  46  47
ENDBRANCH  45  46
ENDBRANCH  11  45
BRANCH  18  51
HETATM   51  C   UNK     0      18.864  -9.758  42.173  0.00  0.00     0.051 C 
BRANCH  51  52
HETATM   52  C   UNK     0      20.065  -9.161  41.453  0.00  0.00     0.114 C 
BRANCH  52  53
HETATM   53  C   UNK     0      21.183 -10.120  41.362  0.00  0.00     0.139 C 
HETATM   54  O   UNK     0      22.077 -10.116  42.223  0.00  0.00    -0.650 OA
BRANCH  53  55
HETATM   55  O   UNK     0      21.230 -11.012  40.318  0.00  0.00    -0.776 OA
HETATM   56  H   UNK     0      21.572 -10.825  39.405  0.00  0.00     0.167 HD
ENDBRANCH  53  55
ENDBRANCH  52  53
ENDBRANCH  51  52
ENDBRANCH  18  51
TORSDOF 16
ENDMDL
MODEL 12
REMARK VINA RESULT:      -8.1      7.939     12.238
REMARK  16 active torsions:
REMARK  status: ('A' for Active; 'I' for Inactive)
REMARK    1  A    between atoms: C_6  and  C_7 
REMARK    2  A    between atoms: C_7  and  C_8 
REMARK    3  A    between atoms: C_8  and  C_9 
REMARK    4  A    between atoms: C_9  and  O_11 
REMARK    5  A    between atoms: C_16  and  C_17 
REMARK    6  A    between atoms: C_17  and  C_18 
REMARK    7  A    between atoms: C_18  and  C_19 
REMARK    8  A    between atoms: C_19  and  O_21 
REMARK    9  A    between atoms: C_28  and  C_29 
REMARK   10  A    between atoms: C_29  and  C_30 
REMARK   11  A    between atoms: C_30  and  C_31 
REMARK   12  A    between atoms: C_31  and  O_33 
REMARK   13  A    between atoms: C_42  and  C_43 
REMARK   14  A    between atoms: C_43  and  C_44 
REMARK   15  A    between atoms: C_44  and  C_45 
REMARK   16  A    between atoms: C_45  and  O_47 
ROOT
HETATM    1  C   UNK     0       9.678   2.552  29.262  0.00  0.00     0.051 C 
HETATM    2  C   UNK     0       8.373   3.322  29.245  0.00  0.00    -0.031 A 
HETATM    3  C   UNK     0       7.096   2.894  29.569  0.00  0.00     0.021 A 
HETATM    4  N   UNK     0       6.227   3.915  29.377  0.00  0.00    -0.361 N 
HETATM    5  C   UNK     0       6.924   4.986  28.945  0.00  0.00     0.022 A 
HETATM    6  C   UNK     0       8.270   4.649  28.849  0.00  0.00    -0.027 A 
HETATM    7  C   UNK     0       6.456   6.382  28.677  0.00  0.00     0.115 C 
HETATM    8  C   UNK     0       5.491   6.983  29.685  0.00  0.00     0.021 A 
HETATM    9  N   UNK     0       5.457   6.811  31.015  0.00  0.00    -0.361 N 
HETATM   10  C   UNK     0       4.375   7.460  31.494  0.00  0.00     0.022 A 
HETATM   11  C   UNK     0       3.698   8.075  30.445  0.00  0.00    -0.027 A 
HETATM   12  C   UNK     0       4.396   7.778  29.302  0.00  0.00    -0.031 A 
HETATM   13  C   UNK     0       4.031   8.242  27.910  0.00  0.00     0.051 C 
HETATM   14  C   UNK     0       3.907   7.483  32.947  0.00  0.00     0.115 C 
HETATM   15  C   UNK     0       3.563   6.111  33.504  0.00  0.00     0.021 A 
HETATM   16  N   UNK     0       4.367   5.036  33.595  0.00  0.00    -0.361 N 
HETATM   17  C   UNK     0       3.669   4.005  34.076  0.00  0.00     0.022 A 
HETATM   18  C   UNK     0       2.348   4.431  34.320  0.00  0.00    -0.027 A 
HETATM   19  C   UNK     0       2.295   5.753  33.959  0.00  0.00    -0.031 A 
HETATM   20  C   UNK     0       1.054   6.615  34.095  0.00  0.00     0.051 C 
HETATM   21  C   UNK     0       4.085   2.568  34.298  0.00  0.00     0.115 C 
HETATM   22  C   UNK     0       5.079   1.972  33.329  0.00  0.00     0.022 A 
HETATM   23  N   UNK     0       5.139   2.129  32.000  0.00  0.00    -0.361 N 
HETATM   24  C   UNK     0       6.267   1.540  31.555  0.00  0.00     0.021 A 
HETATM   25  C   UNK     0       6.944   0.980  32.621  0.00  0.00    -0.031 A 
HETATM   26  C   UNK     0       8.232   0.183  32.620  0.00  0.00     0.051 C 
HETATM   27  C   UNK     0       6.203   1.244  33.768  0.00  0.00    -0.027 A 
HETATM   28  C   UNK     0       6.814   1.533  30.138  0.00  0.00     0.115 C 
HETATM   29  H   UNK     0       5.121   3.860  29.510  0.00  0.00     0.165 HD
HETATM   30  H   UNK     0       6.223   6.273  31.626  0.00  0.00     0.165 HD
HETATM   31  H   UNK     0       5.463   5.015  33.360  0.00  0.00     0.165 HD
HETATM   32  H   UNK     0       4.363   2.621  31.358  0.00  0.00     0.165 HD
ENDROOT
BRANCH   6  33
HETATM   33  C   UNK     0       9.450   5.481  28.412  0.00  0.00     0.051 C 
BRANCH  33  34
HETATM   34  C   UNK     0      10.243   5.953  29.607  0.00  0.00     0.114 C 
BRANCH  34  35
HETATM   35  C   UNK     0       9.510   7.107  30.202  0.00  0.00     0.139 C 
HETATM   36  O   UNK     0       9.554   8.244  29.648  0.00  0.00    -0.650 OA
BRANCH  35  37
HETATM   37  O   UNK     0       8.756   6.997  31.364  0.00  0.00    -0.776 OA
HETATM   38  H   UNK     0       8.357   7.801  31.820  0.00  0.00     0.167 HD
ENDBRANCH  35  37
ENDBRANCH  34  35
ENDBRANCH  33  34
ENDBRANCH   6  33
BRANCH  27  39
HETATM   39  C   UNK     0       6.583   0.734  35.113  0.00  0.00     0.051 C 
BRANCH  39  40
HETATM   40  C   UNK     0       6.104  -0.589  35.515  0.00  0.00     0.114 C 
BRANCH  40  41
HETATM   41  C   UNK     0       6.975  -1.574  36.116  0.00  0.00     0.139 C 
HETATM   42  O   UNK     0       8.031  -1.289  36.698  0.00  0.00    -0.650 OA
BRANCH  41  43
HETATM   43  O   UNK     0       6.617  -2.950  36.043  0.00  0.00    -0.776 OA
HETATM   44  H   UNK     0       5.972  -3.253  36.763  0.00  0.00     0.167 HD
ENDBRANCH  41  43
ENDBRANCH  40  41
ENDBRANCH  39  40
ENDBRANCH  27  39
BRANCH  11  45
HETATM   45  C   UNK     0       2.449   8.913  30.492  0.00  0.00     0.051 C 
BRANCH  45  46
HETATM   46  C   UNK     0       2.701  10.374  30.569  0.00  0.00     0.114 C 
BRANCH  46  47
HETATM   47  C   UNK     0       1.389  11.037  30.818  0.00  0.00     0.139 C 
HETATM   48  O   UNK     0       1.247  11.696  31.857  0.00  0.00    -0.650 OA
BRANCH  47  49
HETATM   49  O   UNK     0       0.360  10.918  29.919  0.00  0.00    -0.776 OA
HETATM   50  H   UNK     0       0.274  10.109  29.292  0.00  0.00     0.167 HD
ENDBRANCH  47  49
ENDBRANCH  46  47
ENDBRANCH  45  46
ENDBRANCH  11  45
BRANCH  18  51
HETATM   51  C   UNK     0       1.205   3.629  34.886  0.00  0.00     0.051 C 
BRANCH  51  52
HETATM   52  C   UNK     0       1.534   3.396  36.353  0.00  0.00     0.114 C 
BRANCH  52  53
HETATM   53  C   UNK     0       0.680   4.206  37.243  0.00  0.00     0.139 C 
HETATM   54  O   UNK     0      -0.295   3.687  37.810  0.00  0.00    -0.650 OA
BRANCH  53  55
HETATM   55  O   UNK     0       0.967   5.535  37.436  0.00  0.00    -0.776 OA
HETATM   56  H   UNK     0       1.716   6.037  37.020  0.00  0.00     0.167 HD
ENDBRANCH  53  55
ENDBRANCH  52  53
ENDBRANCH  51  52
ENDBRANCH  18  51
TORSDOF 16
ENDMDL
MODEL 13
REMARK VINA RESULT:      -8.0      4.832     10.268
REMARK  16 active torsions:
REMARK  status: ('A' for Active; 'I' for Inactive)
REMARK    1  A    between atoms: C_6  and  C_7 
REMARK    2  A    between atoms: C_7  and  C_8 
REMARK    3  A    between atoms: C_8  and  C_9 
REMARK    4  A    between atoms: C_9  and  O_11 
REMARK    5  A    between atoms: C_16  and  C_17 
REMARK    6  A    between atoms: C_17  and  C_18 
REMARK    7  A    between atoms: C_18  and  C_19 
REMARK    8  A    between atoms: C_19  and  O_21 
REMARK    9  A    between atoms: C_28  and  C_29 
REMARK   10  A    between atoms: C_29  and  C_30 
REMARK   11  A    between atoms: C_30  and  C_31 
REMARK   12  A    between atoms: C_31  and  O_33 
REMARK   13  A    between atoms: C_42  and  C_43 
REMARK   14  A    between atoms: C_43  and  C_44 
REMARK   15  A    between atoms: C_44  and  C_45 
REMARK   16  A    between atoms: C_45  and  O_47 
ROOT
HETATM    1  C   UNK     0       1.790   4.915  40.563  0.00  0.00     0.051 C 
HETATM    2  C   UNK     0       1.988   3.877  41.649  0.00  0.00    -0.031 A 
HETATM    3  C   UNK     0       1.194   2.792  41.985  0.00  0.00     0.021 A 
HETATM    4  N   UNK     0       1.744   2.153  43.044  0.00  0.00    -0.361 N 
HETATM    5  C   UNK     0       2.877   2.802  43.385  0.00  0.00     0.022 A 
HETATM    6  C   UNK     0       3.059   3.887  42.534  0.00  0.00    -0.027 A 
HETATM    7  C   UNK     0       3.900   2.451  44.420  0.00  0.00     0.115 C 
HETATM    8  C   UNK     0       4.297   0.989  44.519  0.00  0.00     0.021 A 
HETATM    9  N   UNK     0       4.419   0.087  43.532  0.00  0.00    -0.361 N 
HETATM   10  C   UNK     0       4.701  -1.109  44.090  0.00  0.00     0.022 A 
HETATM   11  C   UNK     0       4.772  -0.973  45.473  0.00  0.00    -0.027 A 
HETATM   12  C   UNK     0       4.518   0.346  45.750  0.00  0.00    -0.031 A 
HETATM   13  C   UNK     0       4.495   0.961  47.132  0.00  0.00     0.051 C 
HETATM   14  C   UNK     0       4.862  -2.433  43.349  0.00  0.00     0.115 C 
HETATM   15  C   UNK     0       3.619  -2.870  42.591  0.00  0.00     0.021 A 
HETATM   16  N   UNK     0       2.973  -2.201  41.618  0.00  0.00    -0.361 N 
HETATM   17  C   UNK     0       1.886  -2.889  41.259  0.00  0.00     0.022 A 
HETATM   18  C   UNK     0       1.827  -4.068  42.029  0.00  0.00    -0.027 A 
HETATM   19  C   UNK     0       2.918  -4.044  42.858  0.00  0.00    -0.031 A 
HETATM   20  C   UNK     0       3.258  -5.153  43.837  0.00  0.00     0.051 C 
HETATM   21  C   UNK     0       0.798  -2.540  40.270  0.00  0.00     0.115 C 
HETATM   22  C   UNK     0       0.423  -1.083  40.130  0.00  0.00     0.022 A 
HETATM   23  N   UNK     0       0.298  -0.162  41.094  0.00  0.00    -0.361 N 
HETATM   24  C   UNK     0       0.094   1.036  40.511  0.00  0.00     0.021 A 
HETATM   25  C   UNK     0       0.078   0.881  39.138  0.00  0.00    -0.031 A 
HETATM   26  C   UNK     0      -0.156   1.923  38.064  0.00  0.00     0.051 C 
HETATM   27  C   UNK     0       0.286  -0.467  38.870  0.00  0.00    -0.027 A 
HETATM   28  C   UNK     0      -0.015   2.392  41.187  0.00  0.00     0.115 C 
HETATM   29  H   UNK     0       1.308   1.272  43.569  0.00  0.00     0.165 HD
HETATM   30  H   UNK     0       4.356   0.303  42.437  0.00  0.00     0.165 HD
HETATM   31  H   UNK     0       3.315  -1.247  41.140  0.00  0.00     0.165 HD
HETATM   32  H   UNK     0       0.309  -0.357  42.198  0.00  0.00     0.165 HD
ENDROOT
BRANCH   6  33
HETATM   33  C   UNK     0       4.156   4.920  42.501  0.00  0.00     0.051 C 
BRANCH  33  34
HETATM   34  C   UNK     0       3.670   6.235  43.064  0.00  0.00     0.114 C 
BRANCH  34  35
HETATM   35  C   UNK     0       4.465   6.514  44.295  0.00  0.00     0.139 C 
HETATM   36  O   UNK     0       4.304   5.806  45.332  0.00  0.00    -0.650 OA
BRANCH  35  37
HETATM   37  O   UNK     0       5.403   7.537  44.365  0.00  0.00    -0.776 OA
HETATM   38  H   UNK     0       5.144   8.506  44.274  0.00  0.00     0.167 HD
ENDBRANCH  35  37
ENDBRANCH  34  35
ENDBRANCH  33  34
ENDBRANCH   6  33
BRANCH  27  39
HETATM   39  C   UNK     0       0.263  -1.032  37.493  0.00  0.00     0.051 C 
BRANCH  39  40
HETATM   40  C   UNK     0       1.527  -1.466  36.900  0.00  0.00     0.114 C 
BRANCH  40  41
HETATM   41  C   UNK     0       2.807  -1.006  37.392  0.00  0.00     0.139 C 
HETATM   42  O   UNK     0       3.321   0.070  37.058  0.00  0.00    -0.650 OA
BRANCH  41  43
HETATM   43  O   UNK     0       3.528  -1.823  38.308  0.00  0.00    -0.776 OA
HETATM   44  H   UNK     0       2.957  -2.251  39.027  0.00  0.00     0.167 HD
ENDBRANCH  41  43
ENDBRANCH  40  41
ENDBRANCH  39  40
ENDBRANCH  27  39
BRANCH  11  45
HETATM   45  C   UNK     0       5.066  -2.024  46.509  0.00  0.00     0.051 C 
BRANCH  45  46
HETATM   46  C   UNK     0       3.928  -2.938  46.786  0.00  0.00     0.114 C 
BRANCH  46  47
HETATM   47  C   UNK     0       4.505  -4.236  47.238  0.00  0.00     0.139 C 
HETATM   48  O   UNK     0       5.664  -4.249  47.676  0.00  0.00    -0.650 OA
BRANCH  47  49
HETATM   49  O   UNK     0       3.770  -5.393  47.170  0.00  0.00    -0.776 OA
HETATM   50  H   UNK     0       4.069  -6.257  47.638  0.00  0.00     0.167 HD
ENDBRANCH  47  49
ENDBRANCH  46  47
ENDBRANCH  45  46
ENDBRANCH  11  45
BRANCH  18  51
HETATM   51  C   UNK     0       0.798  -5.166  41.963  0.00  0.00     0.051 C 
BRANCH  51  52
HETATM   52  C   UNK     0       1.199  -6.057  40.796  0.00  0.00     0.114 C 
BRANCH  52  53
HETATM   53  C   UNK     0       0.023  -6.584  40.077  0.00  0.00     0.139 C 
HETATM   54  O   UNK     0       0.072  -7.703  39.543  0.00  0.00    -0.650 OA
BRANCH  53  55
HETATM   55  O   UNK     0      -1.121  -5.828  40.000  0.00  0.00    -0.776 OA
HETATM   56  H   UNK     0      -1.385  -5.103  40.625  0.00  0.00     0.167 HD
ENDBRANCH  53  55
ENDBRANCH  52  53
ENDBRANCH  51  52
ENDBRANCH  18  51
TORSDOF 16
ENDMDL
MODEL 14
REMARK VINA RESULT:      -7.9     29.832     32.476
REMARK  16 active torsions:
REMARK  status: ('A' for Active; 'I' for Inactive)
REMARK    1  A    between atoms: C_6  and  C_7 
REMARK    2  A    between atoms: C_7  and  C_8 
REMARK    3  A    between atoms: C_8  and  C_9 
REMARK    4  A    between atoms: C_9  and  O_11 
REMARK    5  A    between atoms: C_16  and  C_17 
REMARK    6  A    between atoms: C_17  and  C_18 
REMARK    7  A    between atoms: C_18  and  C_19 
REMARK    8  A    between atoms: C_19  and  O_21 
REMARK    9  A    between atoms: C_28  and  C_29 
REMARK   10  A    between atoms: C_29  and  C_30 
REMARK   11  A    between atoms: C_30  and  C_31 
REMARK   12  A    between atoms: C_31  and  O_33 
REMARK   13  A    between atoms: C_42  and  C_43 
REMARK   14  A    between atoms: C_43  and  C_44 
REMARK   15  A    between atoms: C_44  and  C_45 
REMARK   16  A    between atoms: C_45  and  O_47 
ROOT
HETATM    1  C   UNK     0      21.593 -11.068  58.628  0.00  0.00     0.051 C 
HETATM    2  C   UNK     0      22.694 -10.137  59.095  0.00  0.00    -0.031 A 
HETATM    3  C   UNK     0      24.068 -10.267  58.967  0.00  0.00     0.021 A 
HETATM    4  N   UNK     0      24.668  -9.208  59.561  0.00  0.00    -0.361 N 
HETATM    5  C   UNK     0      23.706  -8.403  60.057  0.00  0.00     0.022 A 
HETATM    6  C   UNK     0      22.459  -8.955  59.785  0.00  0.00    -0.027 A 
HETATM    7  C   UNK     0      23.832  -7.066  60.719  0.00  0.00     0.115 C 
HETATM    8  C   UNK     0      24.816  -6.089  60.100  0.00  0.00     0.021 A 
HETATM    9  N   UNK     0      25.112  -5.909  58.803  0.00  0.00    -0.361 N 
HETATM   10  C   UNK     0      26.108  -5.001  58.723  0.00  0.00     0.022 A 
HETATM   11  C   UNK     0      26.457  -4.578  60.002  0.00  0.00    -0.027 A 
HETATM   12  C   UNK     0      25.646  -5.259  60.875  0.00  0.00    -0.031 A 
HETATM   13  C   UNK     0      25.666  -5.115  62.380  0.00  0.00     0.051 C 
HETATM   14  C   UNK     0      26.805  -4.538  57.447  0.00  0.00     0.115 C 
HETATM   15  C   UNK     0      27.508  -5.653  56.690  0.00  0.00     0.021 A 
HETATM   16  N   UNK     0      26.963  -6.780  56.194  0.00  0.00    -0.361 N 
HETATM   17  C   UNK     0      27.926  -7.535  55.661  0.00  0.00     0.022 A 
HETATM   18  C   UNK     0      29.156  -6.864  55.807  0.00  0.00    -0.027 A 
HETATM   19  C   UNK     0      28.881  -5.686  56.452  0.00  0.00    -0.031 A 
HETATM   20  C   UNK     0      29.928  -4.637  56.779  0.00  0.00     0.051 C 
HETATM   21  C   UNK     0      27.851  -8.914  55.045  0.00  0.00     0.115 C 
HETATM   22  C   UNK     0      26.846  -9.882  55.622  0.00  0.00     0.022 A 
HETATM   23  N   UNK     0      26.527 -10.080  56.908  0.00  0.00    -0.361 N 
HETATM   24  C   UNK     0      25.481 -10.928  56.960  0.00  0.00     0.021 A 
HETATM   25  C   UNK     0      25.124 -11.294  55.676  0.00  0.00    -0.031 A 
HETATM   26  C   UNK     0      24.042 -12.253  55.225  0.00  0.00     0.051 C 
HETATM   27  C   UNK     0      25.983 -10.638  54.803  0.00  0.00    -0.027 A 
HETATM   28  C   UNK     0      24.710 -11.380  58.188  0.00  0.00     0.115 C 
HETATM   29  H   UNK     0      25.768  -9.058  59.661  0.00  0.00     0.165 HD
HETATM   30  H   UNK     0      24.586  -6.384  57.939  0.00  0.00     0.165 HD
HETATM   31  H   UNK     0      25.870  -7.027  56.177  0.00  0.00     0.165 HD
HETATM   32  H   UNK     0      27.067  -9.655  57.794  0.00  0.00     0.165 HD
ENDROOT
BRANCH   6  33
HETATM   33  C   UNK     0      21.080  -8.453  60.129  0.00  0.00     0.051 C 
BRANCH  33  34
HETATM   34  C   UNK     0      20.672  -8.911  61.509  0.00  0.00     0.114 C 
BRANCH  34  35
HETATM   35  C   UNK     0      19.290  -9.462  61.406  0.00  0.00     0.139 C 
HETATM   36  O   UNK     0      18.651  -9.779  62.451  0.00  0.00    -0.650 OA
BRANCH  35  37
HETATM   37  O   UNK     0      18.646  -9.649  60.189  0.00  0.00    -0.776 OA
HETATM   38  H   UNK     0      17.793 -10.178  60.111  0.00  0.00     0.167 HD
ENDBRANCH  35  37
ENDBRANCH  34  35
ENDBRANCH  33  34
ENDBRANCH   6  33
BRANCH  27  39
HETATM   39  C   UNK     0      25.951 -10.840  53.329  0.00  0.00     0.051 C 
BRANCH  39  40
HETATM   40  C   UNK     0      25.416  -9.766  52.492  0.00  0.00     0.114 C 
BRANCH  40  41
HETATM   41  C   UNK     0      26.122  -9.269  51.333  0.00  0.00     0.139 C 
HETATM   42  O   UNK     0      27.357  -9.236  51.246  0.00  0.00    -0.650 OA
BRANCH  41  43
HETATM   43  O   UNK     0      25.373  -8.786  50.222  0.00  0.00    -0.776 OA
HETATM   44  H   UNK     0      25.173  -7.794  50.251  0.00  0.00     0.167 HD
ENDBRANCH  41  43
ENDBRANCH  40  41
ENDBRANCH  39  40
ENDBRANCH  27  39
BRANCH  11  45
HETATM   45  C   UNK     0      27.502  -3.575  60.411  0.00  0.00     0.051 C 
BRANCH  45  46
HETATM   46  C   UNK     0      26.967  -2.214  60.673  0.00  0.00     0.114 C 
BRANCH  46  47
HETATM   47  C   UNK     0      27.120  -1.429  59.414  0.00  0.00     0.139 C 
HETATM   48  O   UNK     0      26.354  -0.476  59.214  0.00  0.00    -0.650 OA
BRANCH  47  49
HETATM   49  O   UNK     0      28.088  -1.754  58.497  0.00  0.00    -0.776 OA
HETATM   50  H   UNK     0      27.867  -2.245  57.623  0.00  0.00     0.167 HD
ENDBRANCH  47  49
ENDBRANCH  46  47
ENDBRANCH  45  46
ENDBRANCH  11  45
BRANCH  18  51
HETATM   51  C   UNK     0      30.517  -7.310  55.339  0.00  0.00     0.051 C 
BRANCH  51  52
HETATM   52  C   UNK     0      31.122  -8.106  56.486  0.00  0.00     0.114 C 
BRANCH  52  53
HETATM   53  C   UNK     0      32.306  -7.436  57.056  0.00  0.00     0.139 C 
HETATM   54  O   UNK     0      33.391  -7.473  56.454  0.00  0.00    -0.650 OA
BRANCH  53  55
HETATM   55  O   UNK     0      32.202  -6.775  58.256  0.00  0.00    -0.776 OA
HETATM   56  H   UNK     0      32.257  -7.188  59.157  0.00  0.00     0.167 HD
ENDBRANCH  53  55
ENDBRANCH  52  53
ENDBRANCH  51  52
ENDBRANCH  18  51
TORSDOF 16
ENDMDL
MODEL 15
REMARK VINA RESULT:      -7.9      8.573     11.994
REMARK  16 active torsions:
REMARK  status: ('A' for Active; 'I' for Inactive)
REMARK    1  A    between atoms: C_6  and  C_7 
REMARK    2  A    between atoms: C_7  and  C_8 
REMARK    3  A    between atoms: C_8  and  C_9 
REMARK    4  A    between atoms: C_9  and  O_11 
REMARK    5  A    between atoms: C_16  and  C_17 
REMARK    6  A    between atoms: C_17  and  C_18 
REMARK    7  A    between atoms: C_18  and  C_19 
REMARK    8  A    between atoms: C_19  and  O_21 
REMARK    9  A    between atoms: C_28  and  C_29 
REMARK   10  A    between atoms: C_29  and  C_30 
REMARK   11  A    between atoms: C_30  and  C_31 
REMARK   12  A    between atoms: C_31  and  O_33 
REMARK   13  A    between atoms: C_42  and  C_43 
REMARK   14  A    between atoms: C_43  and  C_44 
REMARK   15  A    between atoms: C_44  and  C_45 
REMARK   16  A    between atoms: C_45  and  O_47 
ROOT
HETATM    1  C   UNK     0       2.047   7.661  31.907  0.00  0.00     0.051 C 
HETATM    2  C   UNK     0       3.435   7.130  31.611  0.00  0.00    -0.031 A 
HETATM    3  C   UNK     0       4.295   6.411  32.427  0.00  0.00     0.021 A 
HETATM    4  N   UNK     0       5.446   6.174  31.755  0.00  0.00    -0.361 N 
HETATM    5  C   UNK     0       5.335   6.718  30.525  0.00  0.00     0.022 A 
HETATM    6  C   UNK     0       4.091   7.326  30.402  0.00  0.00    -0.027 A 
HETATM    7  C   UNK     0       6.284   6.658  29.368  0.00  0.00     0.115 C 
HETATM    8  C   UNK     0       6.940   5.316  29.094  0.00  0.00     0.021 A 
HETATM    9  N   UNK     0       6.419   4.087  29.233  0.00  0.00    -0.361 N 
HETATM   10  C   UNK     0       7.389   3.188  28.965  0.00  0.00     0.022 A 
HETATM   11  C   UNK     0       8.565   3.856  28.634  0.00  0.00    -0.027 A 
HETATM   12  C   UNK     0       8.288   5.197  28.714  0.00  0.00    -0.031 A 
HETATM   13  C   UNK     0       9.272   6.310  28.432  0.00  0.00     0.051 C 
HETATM   14  C   UNK     0       7.263   1.670  29.060  0.00  0.00     0.115 C 
HETATM   15  C   UNK     0       6.924   1.167  30.454  0.00  0.00     0.021 A 
HETATM   16  N   UNK     0       5.849   1.480  31.201  0.00  0.00    -0.361 N 
HETATM   17  C   UNK     0       5.954   0.886  32.392  0.00  0.00     0.022 A 
HETATM   18  C   UNK     0       7.151   0.142  32.418  0.00  0.00    -0.027 A 
HETATM   19  C   UNK     0       7.748   0.325  31.198  0.00  0.00    -0.031 A 
HETATM   20  C   UNK     0       9.052  -0.335  30.789  0.00  0.00     0.051 C 
HETATM   21  C   UNK     0       5.056   0.974  33.605  0.00  0.00     0.115 C 
HETATM   22  C   UNK     0       4.363   2.290  33.865  0.00  0.00     0.022 A 
HETATM   23  N   UNK     0       4.855   3.529  33.731  0.00  0.00    -0.361 N 
HETATM   24  C   UNK     0       3.851   4.407  33.928  0.00  0.00     0.021 A 
HETATM   25  C   UNK     0       2.686   3.718  34.205  0.00  0.00    -0.031 A 
HETATM   26  C   UNK     0       1.312   4.262  34.533  0.00  0.00     0.051 C 
HETATM   27  C   UNK     0       2.988   2.361  34.171  0.00  0.00    -0.027 A 
HETATM   28  C   UNK     0       3.899   5.919  33.790  0.00  0.00     0.115 C 
HETATM   29  H   UNK     0       6.344   5.659  32.167  0.00  0.00     0.165 HD
HETATM   30  H   UNK     0       5.353   3.851  29.472  0.00  0.00     0.165 HD
HETATM   31  H   UNK     0       4.974   2.095  30.865  0.00  0.00     0.165 HD
HETATM   32  H   UNK     0       5.927   3.796  33.540  0.00  0.00     0.165 HD
ENDROOT
BRANCH   6  33
HETATM   33  C   UNK     0       3.486   8.073  29.240  0.00  0.00     0.051 C 
BRANCH  33  34
HETATM   34  C   UNK     0       3.946   9.511  29.231  0.00  0.00     0.114 C 
BRANCH  34  35
HETATM   35  C   UNK     0       2.769  10.359  29.575  0.00  0.00     0.139 C 
HETATM   36  O   UNK     0       2.742  10.999  30.667  0.00  0.00    -0.650 OA
BRANCH  35  37
HETATM   37  O   UNK     0       1.668  10.490  28.737  0.00  0.00    -0.776 OA
HETATM   38  H   UNK     0       0.808  10.913  29.046  0.00  0.00     0.167 HD
ENDBRANCH  35  37
ENDBRANCH  34  35
ENDBRANCH  33  34
ENDBRANCH   6  33
BRANCH  27  39
HETATM   39  C   UNK     0       1.995   1.301  34.492  0.00  0.00     0.051 C 
BRANCH  39  40
HETATM   40  C   UNK     0       2.105   0.613  35.778  0.00  0.00     0.114 C 
BRANCH  40  41
HETATM   41  C   UNK     0       2.137   1.328  37.034  0.00  0.00     0.139 C 
HETATM   42  O   UNK     0       1.333   2.221  37.333  0.00  0.00    -0.650 OA
BRANCH  41  43
HETATM   43  O   UNK     0       3.140   1.000  37.991  0.00  0.00    -0.776 OA
HETATM   44  H   UNK     0       4.085   1.015  37.628  0.00  0.00     0.167 HD
ENDBRANCH  41  43
ENDBRANCH  40  41
ENDBRANCH  39  40
ENDBRANCH  27  39
BRANCH  11  45
HETATM   45  C   UNK     0       9.901   3.278  28.254  0.00  0.00     0.051 C 
BRANCH  45  46
HETATM   46  C   UNK     0      10.749   2.897  29.413  0.00  0.00     0.114 C 
BRANCH  46  47
HETATM   47  C   UNK     0      12.009   3.688  29.317  0.00  0.00     0.139 C 
HETATM   48  O   UNK     0      12.212   4.358  28.295  0.00  0.00    -0.650 OA
BRANCH  47  49
HETATM   49  O   UNK     0      12.927   3.673  30.337  0.00  0.00    -0.776 OA
HETATM   50  H   UNK     0      13.822   3.177  30.257  0.00  0.00     0.167 HD
ENDBRANCH  47  49
ENDBRANCH  46  47
ENDBRANCH  45  46
ENDBRANCH  11  45
BRANCH  18  51
HETATM   51  C   UNK     0       7.685  -0.714  33.537  0.00  0.00     0.051 C 
BRANCH  51  52
HETATM   52  C   UNK     0       8.701   0.141  34.279  0.00  0.00     0.114 C 
BRANCH  52  53
HETATM   53  C   UNK     0       8.370   0.269  35.712  0.00  0.00     0.139 C 
HETATM   54  O   UNK     0       9.187   0.780  36.495  0.00  0.00    -0.650 OA
BRANCH  53  55
HETATM   55  O   UNK     0       7.157  -0.182  36.172  0.00  0.00    -0.776 OA
HETATM   56  H   UNK     0       6.958  -0.483  37.096  0.00  0.00     0.167 HD
ENDBRANCH  53  55
ENDBRANCH  52  53
ENDBRANCH  51  52
ENDBRANCH  18  51
TORSDOF 16
ENDMDL
MODEL 16
REMARK VINA RESULT:      -7.8      7.762     13.205
REMARK  16 active torsions:
REMARK  status: ('A' for Active; 'I' for Inactive)
REMARK    1  A    between atoms: C_6  and  C_7 
REMARK    2  A    between atoms: C_7  and  C_8 
REMARK    3  A    between atoms: C_8  and  C_9 
REMARK    4  A    between atoms: C_9  and  O_11 
REMARK    5  A    between atoms: C_16  and  C_17 
REMARK    6  A    between atoms: C_17  and  C_18 
REMARK    7  A    between atoms: C_18  and  C_19 
REMARK    8  A    between atoms: C_19  and  O_21 
REMARK    9  A    between atoms: C_28  and  C_29 
REMARK   10  A    between atoms: C_29  and  C_30 
REMARK   11  A    between atoms: C_30  and  C_31 
REMARK   12  A    between atoms: C_31  and  O_33 
REMARK   13  A    between atoms: C_42  and  C_43 
REMARK   14  A    between atoms: C_43  and  C_44 
REMARK   15  A    between atoms: C_44  and  C_45 
REMARK   16  A    between atoms: C_45  and  O_47 
ROOT
HETATM    1  C   UNK     0       3.183   2.073  34.302  0.00  0.00     0.051 C 
HETATM    2  C   UNK     0       3.351   3.575  34.197  0.00  0.00    -0.031 A 
HETATM    3  C   UNK     0       4.469   4.313  33.840  0.00  0.00     0.021 A 
HETATM    4  N   UNK     0       4.169   5.631  33.913  0.00  0.00    -0.361 N 
HETATM    5  C   UNK     0       2.883   5.750  34.300  0.00  0.00     0.022 A 
HETATM    6  C   UNK     0       2.341   4.483  34.490  0.00  0.00    -0.027 A 
HETATM    7  C   UNK     0       2.041   6.980  34.442  0.00  0.00     0.115 C 
HETATM    8  C   UNK     0       2.168   8.023  33.346  0.00  0.00     0.021 A 
HETATM    9  N   UNK     0       2.363   7.836  32.031  0.00  0.00    -0.361 N 
HETATM   10  C   UNK     0       2.508   9.046  31.452  0.00  0.00     0.022 A 
HETATM   11  C   UNK     0       2.393  10.041  32.418  0.00  0.00    -0.027 A 
HETATM   12  C   UNK     0       2.179   9.404  33.614  0.00  0.00    -0.031 A 
HETATM   13  C   UNK     0       1.989  10.089  34.948  0.00  0.00     0.051 C 
HETATM   14  C   UNK     0       2.811   9.311  29.980  0.00  0.00     0.115 C 
HETATM   15  C   UNK     0       4.129   8.720  29.507  0.00  0.00     0.021 A 
HETATM   16  N   UNK     0       4.508   7.428  29.536  0.00  0.00    -0.361 N 
HETATM   17  C   UNK     0       5.765   7.330  29.096  0.00  0.00     0.022 A 
HETATM   18  C   UNK     0       6.224   8.618  28.756  0.00  0.00    -0.027 A 
HETATM   19  C   UNK     0       5.190   9.479  29.017  0.00  0.00    -0.031 A 
HETATM   20  C   UNK     0       5.249  10.973  28.755  0.00  0.00     0.051 C 
HETATM   21  C   UNK     0       6.669   6.122  29.001  0.00  0.00     0.115 C 
HETATM   22  C   UNK     0       6.522   5.055  30.060  0.00  0.00     0.022 A 
HETATM   23  N   UNK     0       6.323   5.213  31.375  0.00  0.00    -0.361 N 
HETATM   24  C   UNK     0       6.105   3.999  31.919  0.00  0.00     0.021 A 
HETATM   25  C   UNK     0       6.175   3.035  30.932  0.00  0.00    -0.031 A 
HETATM   26  C   UNK     0       6.039   1.531  31.056  0.00  0.00     0.051 C 
HETATM   27  C   UNK     0       6.441   3.687  29.733  0.00  0.00    -0.027 A 
HETATM   28  C   UNK     0       5.742   3.677  33.358  0.00  0.00     0.115 C 
HETATM   29  H   UNK     0       4.881   6.470  33.729  0.00  0.00     0.165 HD
HETATM   30  H   UNK     0       2.350   6.852  31.501  0.00  0.00     0.165 HD
HETATM   31  H   UNK     0       3.860   6.561  29.827  0.00  0.00     0.165 HD
HETATM   32  H   UNK     0       6.379   6.180  31.940  0.00  0.00     0.165 HD
ENDROOT
BRANCH   6  33
HETATM   33  C   UNK     0       0.956   4.075  34.924  0.00  0.00     0.051 C 
BRANCH  33  34
HETATM   34  C   UNK     0       0.648   4.611  36.301  0.00  0.00     0.114 C 
BRANCH  34  35
HETATM   35  C   UNK     0       0.567   3.445  37.227  0.00  0.00     0.139 C 
HETATM   36  O   UNK     0      -0.398   3.341  38.039  0.00  0.00    -0.650 OA
BRANCH  35  37
HETATM   37  O   UNK     0       1.522   2.436  37.245  0.00  0.00    -0.776 OA
HETATM   38  H   UNK     0       2.193   2.348  37.991  0.00  0.00     0.167 HD
ENDBRANCH  35  37
ENDBRANCH  34  35
ENDBRANCH  33  34
ENDBRANCH   6  33
BRANCH  27  39
HETATM   39  C   UNK     0       6.658   2.966  28.449  0.00  0.00     0.051 C 
BRANCH  39  40
HETATM   40  C   UNK     0       8.033   2.759  27.993  0.00  0.00     0.114 C 
BRANCH  40  41
HETATM   41  C   UNK     0       8.973   1.942  28.727  0.00  0.00     0.139 C 
HETATM   42  O   UNK     0       9.635   2.357  29.687  0.00  0.00    -0.650 OA
BRANCH  41  43
HETATM   43  O   UNK     0       9.160   0.585  28.338  0.00  0.00    -0.776 OA
HETATM   44  H   UNK     0       8.873   0.378  27.389  0.00  0.00     0.167 HD
ENDBRANCH  41  43
ENDBRANCH  40  41
ENDBRANCH  39  40
ENDBRANCH  27  39
BRANCH  11  45
HETATM   45  C   UNK     0       2.475  11.534  32.247  0.00  0.00     0.051 C 
BRANCH  45  46
HETATM   46  C   UNK     0       1.157  12.199  32.085  0.00  0.00     0.114 C 
BRANCH  46  47
HETATM   47  C   UNK     0       0.955  12.430  30.626  0.00  0.00     0.139 C 
HETATM   48  O   UNK     0       0.276  11.615  29.986  0.00  0.00    -0.650 OA
BRANCH  47  49
HETATM   49  O   UNK     0       1.508  13.520  30.004  0.00  0.00    -0.776 OA
HETATM   50  H   UNK     0       2.146  13.426  29.204  0.00  0.00     0.167 HD
ENDBRANCH  47  49
ENDBRANCH  46  47
ENDBRANCH  45  46
ENDBRANCH  11  45
BRANCH  18  51
HETATM   51  C   UNK     0       7.567   9.004  28.193  0.00  0.00     0.051 C 
BRANCH  51  52
HETATM   52  C   UNK     0       8.337   9.652  29.334  0.00  0.00     0.114 C 
BRANCH  52  53
HETATM   53  C   UNK     0       9.176   8.676  30.055  0.00  0.00     0.139 C 
HETATM   54  O   UNK     0       9.727   7.753  29.435  0.00  0.00    -0.650 OA
BRANCH  53  55
HETATM   55  O   UNK     0       9.340   8.793  31.414  0.00  0.00    -0.776 OA
HETATM   56  H   UNK     0       9.509   9.636  31.911  0.00  0.00     0.167 HD
ENDBRANCH  53  55
ENDBRANCH  52  53
ENDBRANCH  51  52
ENDBRANCH  18  51
TORSDOF 16
ENDMDL
MODEL 17
REMARK VINA RESULT:      -7.7      8.709     13.349
REMARK  16 active torsions:
REMARK  status: ('A' for Active; 'I' for Inactive)
REMARK    1  A    between atoms: C_6  and  C_7 
REMARK    2  A    between atoms: C_7  and  C_8 
REMARK    3  A    between atoms: C_8  and  C_9 
REMARK    4  A    between atoms: C_9  and  O_11 
REMARK    5  A    between atoms: C_16  and  C_17 
REMARK    6  A    between atoms: C_17  and  C_18 
REMARK    7  A    between atoms: C_18  and  C_19 
REMARK    8  A    between atoms: C_19  and  O_21 
REMARK    9  A    between atoms: C_28  and  C_29 
REMARK   10  A    between atoms: C_29  and  C_30 
REMARK   11  A    between atoms: C_30  and  C_31 
REMARK   12  A    between atoms: C_31  and  O_33 
REMARK   13  A    between atoms: C_42  and  C_43 
REMARK   14  A    between atoms: C_43  and  C_44 
REMARK   15  A    between atoms: C_44  and  C_45 
REMARK   16  A    between atoms: C_45  and  O_47 
ROOT
HETATM    1  C   UNK     0       9.801   0.577  29.694  0.00  0.00     0.051 C 
HETATM    2  C   UNK     0       8.751   1.633  29.413  0.00  0.00    -0.031 A 
HETATM    3  C   UNK     0       7.387   1.604  29.656  0.00  0.00     0.021 A 
HETATM    4  N   UNK     0       6.836   2.759  29.213  0.00  0.00    -0.361 N 
HETATM    5  C   UNK     0       7.820   3.527  28.701  0.00  0.00     0.022 A 
HETATM    6  C   UNK     0       9.031   2.852  28.808  0.00  0.00    -0.027 A 
HETATM    7  C   UNK     0       7.758   4.925  28.171  0.00  0.00     0.115 C 
HETATM    8  C   UNK     0       6.921   5.917  28.959  0.00  0.00     0.021 A 
HETATM    9  N   UNK     0       6.754   5.999  30.288  0.00  0.00    -0.361 N 
HETATM   10  C   UNK     0       5.853   6.973  30.538  0.00  0.00     0.022 A 
HETATM   11  C   UNK     0       5.436   7.540  29.337  0.00  0.00    -0.027 A 
HETATM   12  C   UNK     0       6.106   6.880  28.339  0.00  0.00    -0.031 A 
HETATM   13  C   UNK     0       5.971   7.165  26.860  0.00  0.00     0.051 C 
HETATM   14  C   UNK     0       5.311   7.370  31.908  0.00  0.00     0.115 C 
HETATM   15  C   UNK     0       4.578   6.250  32.629  0.00  0.00     0.021 A 
HETATM   16  N   UNK     0       5.061   5.041  32.974  0.00  0.00    -0.361 N 
HETATM   17  C   UNK     0       4.083   4.320  33.527  0.00  0.00     0.022 A 
HETATM   18  C   UNK     0       2.910   5.100  33.553  0.00  0.00    -0.027 A 
HETATM   19  C   UNK     0       3.234   6.307  32.989  0.00  0.00    -0.031 A 
HETATM   20  C   UNK     0       2.260   7.463  32.852  0.00  0.00     0.051 C 
HETATM   21  C   UNK     0       4.087   2.889  34.013  0.00  0.00     0.115 C 
HETATM   22  C   UNK     0       4.949   1.900  33.265  0.00  0.00     0.022 A 
HETATM   23  N   UNK     0       5.138   1.798  31.943  0.00  0.00    -0.361 N 
HETATM   24  C   UNK     0       6.096   0.876  31.722  0.00  0.00     0.021 A 
HETATM   25  C   UNK     0       6.527   0.364  32.930  0.00  0.00    -0.031 A 
HETATM   26  C   UNK     0       7.554  -0.718  33.196  0.00  0.00     0.051 C 
HETATM   27  C   UNK     0       5.807   1.004  33.933  0.00  0.00    -0.027 A 
HETATM   28  C   UNK     0       6.717   0.480  30.393  0.00  0.00     0.115 C 
HETATM   29  H   UNK     0       5.749   3.007  29.228  0.00  0.00     0.165 HD
HETATM   30  H   UNK     0       7.307   5.404  31.056  0.00  0.00     0.165 HD
HETATM   31  H   UNK     0       6.125   4.706  32.868  0.00  0.00     0.165 HD
HETATM   32  H   UNK     0       4.565   2.346  31.150  0.00  0.00     0.165 HD
ENDROOT
BRANCH   6  33
HETATM   33  C   UNK     0      10.416   3.270  28.382  0.00  0.00     0.051 C 
BRANCH  33  34
HETATM   34  C   UNK     0      10.647   2.949  26.925  0.00  0.00     0.114 C 
BRANCH  34  35
HETATM   35  C   UNK     0      11.081   4.207  26.253  0.00  0.00     0.139 C 
HETATM   36  O   UNK     0      11.519   4.178  25.066  0.00  0.00    -0.650 OA
BRANCH  35  37
HETATM   37  O   UNK     0      11.027   5.447  26.879  0.00  0.00    -0.776 OA
HETATM   38  H   UNK     0      10.293   5.688  27.525  0.00  0.00     0.167 HD
ENDBRANCH  35  37
ENDBRANCH  34  35
ENDBRANCH  33  34
ENDBRANCH   6  33
BRANCH  27  39
HETATM   39  C   UNK     0       5.947   0.663  35.375  0.00  0.00     0.051 C 
BRANCH  39  40
HETATM   40  C   UNK     0       4.928  -0.188  35.988  0.00  0.00     0.114 C 
BRANCH  40  41
HETATM   41  C   UNK     0       3.633   0.320  36.382  0.00  0.00     0.139 C 
HETATM   42  O   UNK     0       3.438   0.956  37.427  0.00  0.00    -0.650 OA
BRANCH  41  43
HETATM   43  O   UNK     0       2.513   0.088  35.535  0.00  0.00    -0.776 OA
HETATM   44  H   UNK     0       1.910  -0.669  35.835  0.00  0.00     0.167 HD
ENDBRANCH  41  43
ENDBRANCH  40  41
ENDBRANCH  39  40
ENDBRANCH  27  39
BRANCH  11  45
HETATM   45  C   UNK     0       4.454   8.659  29.115  0.00  0.00     0.051 C 
BRANCH  45  46
HETATM   46  C   UNK     0       3.079   8.201  28.789  0.00  0.00     0.114 C 
BRANCH  46  47
HETATM   47  C   UNK     0       2.710   8.810  27.479  0.00  0.00     0.139 C 
HETATM   48  O   UNK     0       3.447   9.685  27.004  0.00  0.00    -0.650 OA
BRANCH  47  49
HETATM   49  O   UNK     0       1.579   8.412  26.813  0.00  0.00    -0.776 OA
HETATM   50  H   UNK     0       1.621   7.903  25.922  0.00  0.00     0.167 HD
ENDBRANCH  47  49
ENDBRANCH  46  47
ENDBRANCH  45  46
ENDBRANCH  11  45
BRANCH  18  51
HETATM   51  C   UNK     0       1.559   4.724  34.105  0.00  0.00     0.051 C 
BRANCH  51  52
HETATM   52  C   UNK     0       1.530   5.227  35.541  0.00  0.00     0.114 C 
BRANCH  52  53
HETATM   53  C   UNK     0       1.118   4.171  36.485  0.00  0.00     0.139 C 
HETATM   54  O   UNK     0       0.420   4.456  37.471  0.00  0.00    -0.650 OA
BRANCH  53  55
HETATM   55  O   UNK     0       1.513   2.873  36.268  0.00  0.00    -0.776 OA
HETATM   56  H   UNK     0       0.944   2.065  36.367  0.00  0.00     0.167 HD
ENDBRANCH  53  55
ENDBRANCH  52  53
ENDBRANCH  51  52
ENDBRANCH  18  51
TORSDOF 16
ENDMDL
MODEL 18
REMARK VINA RESULT:      -7.7     29.206     31.657
REMARK  16 active torsions:
REMARK  status: ('A' for Active; 'I' for Inactive)
REMARK    1  A    between atoms: C_6  and  C_7 
REMARK    2  A    between atoms: C_7  and  C_8 
REMARK    3  A    between atoms: C_8  and  C_9 
REMARK    4  A    between atoms: C_9  and  O_11 
REMARK    5  A    between atoms: C_16  and  C_17 
REMARK    6  A    between atoms: C_17  and  C_18 
REMARK    7  A    between atoms: C_18  and  C_19 
REMARK    8  A    between atoms: C_19  and  O_21 
REMARK    9  A    between atoms: C_28  and  C_29 
REMARK   10  A    between atoms: C_29  and  C_30 
REMARK   11  A    between atoms: C_30  and  C_31 
REMARK   12  A    between atoms: C_31  and  O_33 
REMARK   13  A    between atoms: C_42  and  C_43 
REMARK   14  A    between atoms: C_43  and  C_44 
REMARK   15  A    between atoms: C_44  and  C_45 
REMARK   16  A    between atoms: C_45  and  O_47 
ROOT
HETATM    1  C   UNK     0      27.778  -2.694  60.314  0.00  0.00     0.051 C 
HETATM    2  C   UNK     0      26.641  -3.641  59.988  0.00  0.00    -0.031 A 
HETATM    3  C   UNK     0      26.219  -4.119  58.757  0.00  0.00     0.021 A 
HETATM    4  N   UNK     0      25.142  -4.919  58.940  0.00  0.00    -0.361 N 
HETATM    5  C   UNK     0      24.873  -4.968  60.261  0.00  0.00     0.022 A 
HETATM    6  C   UNK     0      25.790  -4.178  60.946  0.00  0.00    -0.027 A 
HETATM    7  C   UNK     0      23.850  -5.778  60.994  0.00  0.00     0.115 C 
HETATM    8  C   UNK     0      23.680  -7.221  60.553  0.00  0.00     0.021 A 
HETATM    9  N   UNK     0      24.616  -8.079  60.120  0.00  0.00    -0.361 N 
HETATM   10  C   UNK     0      23.999  -9.222  59.750  0.00  0.00     0.022 A 
HETATM   11  C   UNK     0      22.629  -9.099  59.960  0.00  0.00    -0.027 A 
HETATM   12  C   UNK     0      22.421  -7.842  60.466  0.00  0.00    -0.031 A 
HETATM   13  C   UNK     0      21.076  -7.266  60.852  0.00  0.00     0.051 C 
HETATM   14  C   UNK     0      24.667 -10.449  59.136  0.00  0.00     0.115 C 
HETATM   15  C   UNK     0      25.361 -10.175  57.812  0.00  0.00     0.021 A 
HETATM   16  N   UNK     0      26.351  -9.296  57.570  0.00  0.00    -0.361 N 
HETATM   17  C   UNK     0      26.637  -9.306  56.266  0.00  0.00     0.022 A 
HETATM   18  C   UNK     0      25.799 -10.243  55.629  0.00  0.00    -0.027 A 
HETATM   19  C   UNK     0      25.005 -10.781  56.608  0.00  0.00    -0.031 A 
HETATM   20  C   UNK     0      23.975 -11.867  56.358  0.00  0.00     0.051 C 
HETATM   21  C   UNK     0      27.612  -8.460  55.478  0.00  0.00     0.115 C 
HETATM   22  C   UNK     0      27.824  -7.035  55.933  0.00  0.00     0.022 A 
HETATM   23  N   UNK     0      26.911  -6.159  56.373  0.00  0.00    -0.361 N 
HETATM   24  C   UNK     0      27.556  -5.058  56.809  0.00  0.00     0.021 A 
HETATM   25  C   UNK     0      28.917  -5.225  56.635  0.00  0.00    -0.031 A 
HETATM   26  C   UNK     0      30.042  -4.256  56.934  0.00  0.00     0.051 C 
HETATM   27  C   UNK     0      29.113  -6.482  56.076  0.00  0.00    -0.027 A 
HETATM   28  C   UNK     0      26.957  -3.834  57.479  0.00  0.00     0.115 C 
HETATM   29  H   UNK     0      24.555  -5.411  58.130  0.00  0.00     0.165 HD
HETATM   30  H   UNK     0      25.719  -7.900  60.120  0.00  0.00     0.165 HD
HETATM   31  H   UNK     0      26.894  -8.691  58.342  0.00  0.00     0.165 HD
HETATM   32  H   UNK     0      25.799  -6.293  56.341  0.00  0.00     0.165 HD
ENDROOT
BRANCH   6  33
HETATM   33  C   UNK     0      25.916  -3.896  62.422  0.00  0.00     0.051 C 
BRANCH  33  34
HETATM   34  C   UNK     0      25.609  -2.447  62.717  0.00  0.00     0.114 C 
BRANCH  34  35
HETATM   35  C   UNK     0      24.126  -2.291  62.698  0.00  0.00     0.139 C 
HETATM   36  O   UNK     0      23.384  -3.200  63.173  0.00  0.00    -0.650 OA
BRANCH  35  37
HETATM   37  O   UNK     0      23.497  -1.168  62.175  0.00  0.00    -0.776 OA
HETATM   38  H   UNK     0      23.342  -0.338  62.724  0.00  0.00     0.167 HD
ENDBRANCH  35  37
ENDBRANCH  34  35
ENDBRANCH  33  34
ENDBRANCH   6  33
BRANCH  27  39
HETATM   39  C   UNK     0      30.453  -6.992  55.677  0.00  0.00     0.051 C 
BRANCH  39  40
HETATM   40  C   UNK     0      31.246  -7.713  56.672  0.00  0.00     0.114 C 
BRANCH  40  41
HETATM   41  C   UNK     0      32.439  -7.148  57.263  0.00  0.00     0.139 C 
HETATM   42  O   UNK     0      32.425  -6.410  58.258  0.00  0.00    -0.650 OA
BRANCH  41  43
HETATM   43  O   UNK     0      33.704  -7.446  56.684  0.00  0.00    -0.776 OA
HETATM   44  H   UNK     0      33.735  -7.357  55.675  0.00  0.00     0.167 HD
ENDBRANCH  41  43
ENDBRANCH  40  41
ENDBRANCH  39  40
ENDBRANCH  27  39
BRANCH  11  45
HETATM   45  C   UNK     0      21.543 -10.110  59.705  0.00  0.00     0.051 C 
BRANCH  45  46
HETATM   46  C   UNK     0      21.005 -10.086  58.321  0.00  0.00     0.114 C 
BRANCH  46  47
HETATM   47  C   UNK     0      19.519 -10.021  58.425  0.00  0.00     0.139 C 
HETATM   48  O   UNK     0      18.843 -10.273  57.418  0.00  0.00    -0.650 OA
BRANCH  47  49
HETATM   49  O   UNK     0      18.912  -9.689  59.610  0.00  0.00    -0.776 OA
HETATM   50  H   UNK     0      18.105 -10.210  59.974  0.00  0.00     0.167 HD
ENDBRANCH  47  49
ENDBRANCH  46  47
ENDBRANCH  45  46
ENDBRANCH  11  45
BRANCH  18  51
HETATM   51  C   UNK     0      25.771 -10.619  54.171  0.00  0.00     0.051 C 
BRANCH  51  52
HETATM   52  C   UNK     0      24.775  -9.679  53.507  0.00  0.00     0.114 C 
BRANCH  52  53
HETATM   53  C   UNK     0      25.404  -8.878  52.439  0.00  0.00     0.139 C 
HETATM   54  O   UNK     0      24.730  -8.052  51.803  0.00  0.00    -0.650 OA
BRANCH  53  55
HETATM   55  O   UNK     0      26.736  -9.055  52.151  0.00  0.00    -0.776 OA
HETATM   56  H   UNK     0      27.428  -9.395  52.776  0.00  0.00     0.167 HD
ENDBRANCH  53  55
ENDBRANCH  52  53
ENDBRANCH  51  52
ENDBRANCH  18  51
TORSDOF 16
ENDMDL
MODEL 19
REMARK VINA RESULT:      -7.6     16.620     22.230
REMARK  16 active torsions:
REMARK  status: ('A' for Active; 'I' for Inactive)
REMARK    1  A    between atoms: C_6  and  C_7 
REMARK    2  A    between atoms: C_7  and  C_8 
REMARK    3  A    between atoms: C_8  and  C_9 
REMARK    4  A    between atoms: C_9  and  O_11 
REMARK    5  A    between atoms: C_16  and  C_17 
REMARK    6  A    between atoms: C_17  and  C_18 
REMARK    7  A    between atoms: C_18  and  C_19 
REMARK    8  A    between atoms: C_19  and  O_21 
REMARK    9  A    between atoms: C_28  and  C_29 
REMARK   10  A    between atoms: C_29  and  C_30 
REMARK   11  A    between atoms: C_30  and  C_31 
REMARK   12  A    between atoms: C_31  and  O_33 
REMARK   13  A    between atoms: C_42  and  C_43 
REMARK   14  A    between atoms: C_43  and  C_44 
REMARK   15  A    between atoms: C_44  and  C_45 
REMARK   16  A    between atoms: C_45  and  O_47 
ROOT
HETATM    1  C   UNK     0      14.700 -11.538  52.969  0.00  0.00     0.051 C 
HETATM    2  C   UNK     0      15.262 -11.367  51.572  0.00  0.00    -0.031 A 
HETATM    3  C   UNK     0      14.619 -10.978  50.407  0.00  0.00     0.021 A 
HETATM    4  N   UNK     0      15.509 -10.992  49.387  0.00  0.00    -0.361 N 
HETATM    5  C   UNK     0      16.707 -11.374  49.877  0.00  0.00     0.022 A 
HETATM    6  C   UNK     0      16.587 -11.619  51.241  0.00  0.00    -0.027 A 
HETATM    7  C   UNK     0      18.033 -11.460  49.190  0.00  0.00     0.115 C 
HETATM    8  C   UNK     0      18.392 -10.319  48.254  0.00  0.00     0.021 A 
HETATM    9  N   UNK     0      18.104  -9.014  48.378  0.00  0.00    -0.361 N 
HETATM   10  C   UNK     0      18.538  -8.382  47.267  0.00  0.00     0.022 A 
HETATM   11  C   UNK     0      19.131  -9.303  46.409  0.00  0.00    -0.027 A 
HETATM   12  C   UNK     0      19.042 -10.526  47.025  0.00  0.00    -0.031 A 
HETATM   13  C   UNK     0      19.563 -11.829  46.460  0.00  0.00     0.051 C 
HETATM   14  C   UNK     0      18.365  -6.900  46.948  0.00  0.00     0.115 C 
HETATM   15  C   UNK     0      16.914  -6.454  46.860  0.00  0.00     0.021 A 
HETATM   16  N   UNK     0      15.969  -6.540  47.816  0.00  0.00    -0.361 N 
HETATM   17  C   UNK     0      14.807  -6.106  47.323  0.00  0.00     0.022 A 
HETATM   18  C   UNK     0      15.006  -5.709  45.986  0.00  0.00    -0.027 A 
HETATM   19  C   UNK     0      16.330  -5.931  45.709  0.00  0.00    -0.031 A 
HETATM   20  C   UNK     0      16.980  -5.603  44.377  0.00  0.00     0.051 C 
HETATM   21  C   UNK     0      13.437  -6.064  47.960  0.00  0.00     0.115 C 
HETATM   22  C   UNK     0      13.083  -7.169  48.927  0.00  0.00     0.022 A 
HETATM   23  N   UNK     0      13.361  -8.476  48.831  0.00  0.00    -0.361 N 
HETATM   24  C   UNK     0      12.989  -9.073  49.982  0.00  0.00     0.021 A 
HETATM   25  C   UNK     0      12.450  -8.130  50.835  0.00  0.00    -0.031 A 
HETATM   26  C   UNK     0      11.860  -8.320  52.217  0.00  0.00     0.051 C 
HETATM   27  C   UNK     0      12.499  -6.903  50.182  0.00  0.00    -0.027 A 
HETATM   28  C   UNK     0      13.187 -10.525  50.381  0.00  0.00     0.115 C 
HETATM   29  H   UNK     0      15.276 -10.771  48.319  0.00  0.00     0.165 HD
HETATM   30  H   UNK     0      17.638  -8.528  49.270  0.00  0.00     0.165 HD
HETATM   31  H   UNK     0      16.136  -6.869  48.874  0.00  0.00     0.165 HD
HETATM   32  H   UNK     0      13.782  -8.997  47.933  0.00  0.00     0.165 HD
ENDROOT
BRANCH   6  33
HETATM   33  C   UNK     0      17.622 -12.070  52.240  0.00  0.00     0.051 C 
BRANCH  33  34
HETATM   34  C   UNK     0      18.283 -10.883  52.900  0.00  0.00     0.114 C 
BRANCH  34  35
HETATM   35  C   UNK     0      19.604 -10.684  52.239  0.00  0.00     0.139 C 
HETATM   36  O   UNK     0      20.488 -11.588  52.295  0.00  0.00    -0.650 OA
BRANCH  35  37
HETATM   37  O   UNK     0      19.926  -9.525  51.542  0.00  0.00    -0.776 OA
HETATM   38  H   UNK     0      20.093  -9.528  50.549  0.00  0.00     0.167 HD
ENDBRANCH  35  37
ENDBRANCH  34  35
ENDBRANCH  33  34
ENDBRANCH   6  33
BRANCH  27  39
HETATM   39  C   UNK     0      11.939  -5.653  50.763  0.00  0.00     0.051 C 
BRANCH  39  40
HETATM   40  C   UNK     0      10.717  -5.102  50.178  0.00  0.00     0.114 C 
BRANCH  40  41
HETATM   41  C   UNK     0      10.736  -3.981  49.265  0.00  0.00     0.139 C 
HETATM   42  O   UNK     0       9.993  -3.889  48.279  0.00  0.00    -0.650 OA
BRANCH  41  43
HETATM   43  O   UNK     0      11.654  -2.917  49.497  0.00  0.00    -0.776 OA
HETATM   44  H   UNK     0      12.255  -3.050  50.301  0.00  0.00     0.167 HD
ENDBRANCH  41  43
ENDBRANCH  40  41
ENDBRANCH  39  40
ENDBRANCH  27  39
BRANCH  11  45
HETATM   45  C   UNK     0      19.762  -9.066  45.063  0.00  0.00     0.051 C 
BRANCH  45  46
HETATM   46  C   UNK     0      18.786  -8.915  43.954  0.00  0.00     0.114 C 
BRANCH  46  47
HETATM   47  C   UNK     0      19.364  -9.600  42.762  0.00  0.00     0.139 C 
HETATM   48  O   UNK     0      19.698 -10.789  42.865  0.00  0.00    -0.650 OA
BRANCH  47  49
HETATM   49  O   UNK     0      19.524  -8.930  41.575  0.00  0.00    -0.776 OA
HETATM   50  H   UNK     0      19.596  -7.906  41.533  0.00  0.00     0.167 HD
ENDBRANCH  47  49
ENDBRANCH  46  47
ENDBRANCH  45  46
ENDBRANCH  11  45
BRANCH  18  51
HETATM   51  C   UNK     0      13.995  -5.129  45.031  0.00  0.00     0.051 C 
BRANCH  51  52
HETATM   52  C   UNK     0      14.172  -3.619  45.087  0.00  0.00     0.114 C 
BRANCH  52  53
HETATM   53  C   UNK     0      12.882  -2.920  45.238  0.00  0.00     0.139 C 
HETATM   54  O   UNK     0      12.412  -2.271  44.290  0.00  0.00    -0.650 OA
BRANCH  53  55
HETATM   55  O   UNK     0      12.207  -2.988  46.433  0.00  0.00    -0.776 OA
HETATM   56  H   UNK     0      11.234  -3.147  46.546  0.00  0.00     0.167 HD
ENDBRANCH  53  55
ENDBRANCH  52  53
ENDBRANCH  51  52
ENDBRANCH  18  51
TORSDOF 16
ENDMDL
MODEL 20
REMARK VINA RESULT:      -7.6     16.937     19.669
REMARK  16 active torsions:
REMARK  status: ('A' for Active; 'I' for Inactive)
REMARK    1  A    between atoms: C_6  and  C_7 
REMARK    2  A    between atoms: C_7  and  C_8 
REMARK    3  A    between atoms: C_8  and  C_9 
REMARK    4  A    between atoms: C_9  and  O_11 
REMARK    5  A    between atoms: C_16  and  C_17 
REMARK    6  A    between atoms: C_17  and  C_18 
REMARK    7  A    between atoms: C_18  and  C_19 
REMARK    8  A    between atoms: C_19  and  O_21 
REMARK    9  A    between atoms: C_28  and  C_29 
REMARK   10  A    between atoms: C_29  and  C_30 
REMARK   11  A    between atoms: C_30  and  C_31 
REMARK   12  A    between atoms: C_31  and  O_33 
REMARK   13  A    between atoms: C_42  and  C_43 
REMARK   14  A    between atoms: C_43  and  C_44 
REMARK   15  A    between atoms: C_44  and  C_45 
REMARK   16  A    between atoms: C_45  and  O_47 
ROOT
HETATM    1  C   UNK     0      18.057  21.569  36.393  0.00  0.00     0.051 C 
HETATM    2  C   UNK     0      16.900  20.703  35.937  0.00  0.00    -0.031 A 
HETATM    3  C   UNK     0      16.496  20.381  34.650  0.00  0.00     0.021 A 
HETATM    4  N   UNK     0      15.391  19.602  34.717  0.00  0.00    -0.361 N 
HETATM    5  C   UNK     0      15.086  19.413  36.018  0.00  0.00     0.022 A 
HETATM    6  C   UNK     0      16.009  20.090  36.808  0.00  0.00    -0.027 A 
HETATM    7  C   UNK     0      14.021  18.560  36.632  0.00  0.00     0.115 C 
HETATM    8  C   UNK     0      13.818  17.182  36.027  0.00  0.00     0.021 A 
HETATM    9  N   UNK     0      14.739  16.347  35.520  0.00  0.00    -0.361 N 
HETATM   10  C   UNK     0      14.097  15.275  35.010  0.00  0.00     0.022 A 
HETATM   11  C   UNK     0      12.726  15.418  35.202  0.00  0.00    -0.027 A 
HETATM   12  C   UNK     0      12.543  16.617  35.842  0.00  0.00    -0.031 A 
HETATM   13  C   UNK     0      11.208  17.190  36.261  0.00  0.00     0.051 C 
HETATM   14  C   UNK     0      14.743  14.103  34.277  0.00  0.00     0.115 C 
HETATM   15  C   UNK     0      15.479  14.501  33.007  0.00  0.00     0.021 A 
HETATM   16  N   UNK     0      16.501  15.368  32.888  0.00  0.00    -0.361 N 
HETATM   17  C   UNK     0      16.820  15.495  31.598  0.00  0.00     0.022 A 
HETATM   18  C   UNK     0      15.971  14.664  30.841  0.00  0.00    -0.027 A 
HETATM   19  C   UNK     0      15.136  14.046  31.736  0.00  0.00    -0.031 A 
HETATM   20  C   UNK     0      14.080  13.030  31.340  0.00  0.00     0.051 C 
HETATM   21  C   UNK     0      17.840  16.392  30.934  0.00  0.00     0.115 C 
HETATM   22  C   UNK     0      18.084  17.749  31.551  0.00  0.00     0.022 A 
HETATM   23  N   UNK     0      17.187  18.599  32.067  0.00  0.00    -0.361 N 
HETATM   24  C   UNK     0      17.854  19.622  32.639  0.00  0.00     0.021 A 
HETATM   25  C   UNK     0      19.213  19.431  32.478  0.00  0.00    -0.031 A 
HETATM   26  C   UNK     0      20.359  20.323  32.909  0.00  0.00     0.051 C 
HETATM   27  C   UNK     0      19.385  18.239  31.784  0.00  0.00    -0.027 A 
HETATM   28  C   UNK     0      17.275  20.782  33.430  0.00  0.00     0.115 C 
HETATM   29  H   UNK     0      14.810  19.223  33.844  0.00  0.00     0.165 HD
HETATM   30  H   UNK     0      15.846  16.489  35.566  0.00  0.00     0.165 HD
HETATM   31  H   UNK     0      17.042  15.865  33.736  0.00  0.00     0.165 HD
HETATM   32  H   UNK     0      16.072  18.507  31.995  0.00  0.00     0.165 HD
ENDROOT
BRANCH   6  33
HETATM   33  C   UNK     0      16.105  20.200  38.309  0.00  0.00     0.051 C 
BRANCH  33  34
HETATM   34  C   UNK     0      16.709  18.949  38.900  0.00  0.00     0.114 C 
BRANCH  34  35
HETATM   35  C   UNK     0      17.723  19.375  39.907  0.00  0.00     0.139 C 
HETATM   36  O   UNK     0      17.503  19.207  41.142  0.00  0.00    -0.650 OA
BRANCH  35  37
HETATM   37  O   UNK     0      18.932  19.960  39.552  0.00  0.00    -0.776 OA
HETATM   38  H   UNK     0      19.576  19.515  38.918  0.00  0.00     0.167 HD
ENDBRANCH  35  37
ENDBRANCH  34  35
ENDBRANCH  33  34
ENDBRANCH   6  33
BRANCH  27  39
HETATM   39  C   UNK     0      20.719  17.733  31.360  0.00  0.00     0.051 C 
BRANCH  39  40
HETATM   40  C   UNK     0      21.060  17.781  29.938  0.00  0.00     0.114 C 
BRANCH  40  41
HETATM   41  C   UNK     0      21.986  16.849  29.336  0.00  0.00     0.139 C 
HETATM   42  O   UNK     0      21.666  15.712  28.962  0.00  0.00    -0.650 OA
BRANCH  41  43
HETATM   43  O   UNK     0      23.343  17.241  29.157  0.00  0.00    -0.776 OA
HETATM   44  H   UNK     0      24.020  16.603  29.556  0.00  0.00     0.167 HD
ENDBRANCH  41  43
ENDBRANCH  40  41
ENDBRANCH  39  40
ENDBRANCH  27  39
BRANCH  11  45
HETATM   45  C   UNK     0      11.617  14.479  34.810  0.00  0.00     0.051 C 
BRANCH  45  46
HETATM   46  C   UNK     0      11.558  13.238  35.623  0.00  0.00     0.114 C 
BRANCH  46  47
HETATM   47  C   UNK     0      10.309  13.299  36.434  0.00  0.00     0.139 C 
HETATM   48  O   UNK     0       9.452  14.143  36.138  0.00  0.00    -0.650 OA
BRANCH  47  49
HETATM   49  O   UNK     0      10.112  12.442  37.487  0.00  0.00    -0.776 OA
HETATM   50  H   UNK     0      10.806  11.732  37.749  0.00  0.00     0.167 HD
ENDBRANCH  47  49
ENDBRANCH  46  47
ENDBRANCH  45  46
ENDBRANCH  11  45
BRANCH  18  51
HETATM   51  C   UNK     0      15.969  14.455  29.349  0.00  0.00     0.051 C 
BRANCH  51  52
HETATM   52  C   UNK     0      16.990  13.362  29.071  0.00  0.00     0.114 C 
BRANCH  52  53
HETATM   53  C   UNK     0      18.079  13.837  28.196  0.00  0.00     0.139 C 
HETATM   54  O   UNK     0      17.867  14.030  26.989  0.00  0.00    -0.650 OA
BRANCH  53  55
HETATM   55  O   UNK     0      19.327  14.060  28.726  0.00  0.00    -0.776 OA
HETATM   56  H   UNK     0      20.189  13.758  28.336  0.00  0.00     0.167 HD
ENDBRANCH  53  55
ENDBRANCH  52  53
ENDBRANCH  51  52
ENDBRANCH  18  51
TORSDOF 16
ENDMDL
