MODEL 1
REMARK VINA RESULT:      -9.4      0.000      0.000
REMARK  16 active torsions:
REMARK  status: ('A' for Active; 'I' for Inactive)
REMARK    1  A    between atoms: C_6  and  C_7 
REMARK    2  A    between atoms: C_7  and  C_8 
REMARK    3  A    between atoms: C_8  and  C_9 
REMARK    4  A    between atoms: C_9  and  O_11 
REMARK    5  A    between atoms: C_16  and  C_17 
REMARK    6  A    between atoms: C_17  and  C_18 
REMARK    7  A    between atoms: C_18  and  C_19 
REMARK    8  A    between atoms: C_19  and  O_21 
REMARK    9  A    between atoms: C_28  and  C_29 
REMARK   10  A    between atoms: C_29  and  C_30 
REMARK   11  A    between atoms: C_30  and  C_31 
REMARK   12  A    between atoms: C_31  and  O_33 
REMARK   13  A    between atoms: C_42  and  C_43 
REMARK   14  A    between atoms: C_43  and  C_44 
REMARK   15  A    between atoms: C_44  and  C_45 
REMARK   16  A    between atoms: C_45  and  O_47 
ROOT
HETATM    1  C   UNK     0     -23.334  -7.081   8.920  0.00  0.00     0.051 C 
HETATM    2  C   UNK     0     -24.168  -5.875   9.302  0.00  0.00    -0.031 A 
HETATM    3  C   UNK     0     -24.175  -4.601   8.755  0.00  0.00     0.021 A 
HETATM    4  N   UNK     0     -25.061  -3.834   9.434  0.00  0.00    -0.361 N 
HETATM    5  C   UNK     0     -25.626  -4.594  10.395  0.00  0.00     0.022 A 
HETATM    6  C   UNK     0     -25.088  -5.875  10.342  0.00  0.00    -0.027 A 
HETATM    7  C   UNK     0     -26.726  -4.256  11.352  0.00  0.00     0.115 C 
HETATM    8  C   UNK     0     -27.903  -3.479  10.790  0.00  0.00     0.021 A 
HETATM    9  N   UNK     0     -28.463  -3.573   9.574  0.00  0.00    -0.361 N 
HETATM   10  C   UNK     0     -29.422  -2.628   9.480  0.00  0.00     0.022 A 
HETATM   11  C   UNK     0     -29.489  -1.912  10.672  0.00  0.00    -0.027 A 
HETATM   12  C   UNK     0     -28.535  -2.443  11.502  0.00  0.00    -0.031 A 
HETATM   13  C   UNK     0     -28.248  -1.981  12.913  0.00  0.00     0.051 C 
HETATM   14  C   UNK     0     -30.274  -2.328   8.250  0.00  0.00     0.115 C 
HETATM   15  C   UNK     0     -29.470  -1.898   7.034  0.00  0.00     0.021 A 
HETATM   16  N   UNK     0     -28.495  -2.584   6.409  0.00  0.00    -0.361 N 
HETATM   17  C   UNK     0     -27.990  -1.834   5.428  0.00  0.00     0.022 A 
HETATM   18  C   UNK     0     -28.675  -0.603   5.405  0.00  0.00    -0.027 A 
HETATM   19  C   UNK     0     -29.601  -0.656   6.415  0.00  0.00    -0.031 A 
HETATM   20  C   UNK     0     -30.583   0.460   6.719  0.00  0.00     0.051 C 
HETATM   21  C   UNK     0     -26.840  -2.111   4.486  0.00  0.00     0.115 C 
HETATM   22  C   UNK     0     -25.681  -2.920   5.019  0.00  0.00     0.022 A 
HETATM   23  N   UNK     0     -25.106  -2.851   6.227  0.00  0.00    -0.361 N 
HETATM   24  C   UNK     0     -24.208  -3.851   6.326  0.00  0.00     0.021 A 
HETATM   25  C   UNK     0     -24.196  -4.575   5.150  0.00  0.00    -0.031 A 
HETATM   26  C   UNK     0     -23.332  -5.759   4.768  0.00  0.00     0.051 C 
HETATM   27  C   UNK     0     -25.131  -3.998   4.297  0.00  0.00    -0.027 A 
HETATM   28  C   UNK     0     -23.375  -4.235   7.537  0.00  0.00     0.115 C 
HETATM   29  H   UNK     0     -25.252  -2.751   9.255  0.00  0.00     0.165 HD
HETATM   30  H   UNK     0     -28.217  -4.338   8.797  0.00  0.00     0.165 HD
HETATM   31  H   UNK     0     -28.188  -3.639   6.634  0.00  0.00     0.165 HD
HETATM   32  H   UNK     0     -25.299  -2.068   7.005  0.00  0.00     0.165 HD
ENDROOT
BRANCH   6  33
HETATM   33  C   UNK     0     -25.376  -7.084  11.196  0.00  0.00     0.051 C 
BRANCH  33  34
HETATM   34  C   UNK     0     -26.677  -7.732  10.786  0.00  0.00     0.114 C 
BRANCH  34  35
HETATM   35  C   UNK     0     -26.359  -8.754   9.748  0.00  0.00     0.139 C 
HETATM   36  O   UNK     0     -26.804  -8.626   8.570  0.00  0.00    -0.650 OA
BRANCH  35  37
HETATM   37  O   UNK     0     -25.576  -9.871  10.012  0.00  0.00    -0.776 OA
HETATM   38  H   UNK     0     -25.545 -10.662   9.389  0.00  0.00     0.167 HD
ENDBRANCH  35  37
ENDBRANCH  34  35
ENDBRANCH  33  34
ENDBRANCH   6  33
BRANCH  27  39
HETATM   39  C   UNK     0     -25.352  -4.465   2.902  0.00  0.00     0.051 C 
BRANCH  39  40
HETATM   40  C   UNK     0     -24.688  -3.745   1.815  0.00  0.00     0.114 C 
BRANCH  40  41
HETATM   41  C   UNK     0     -23.528  -4.274   1.135  0.00  0.00     0.139 C 
HETATM   42  O   UNK     0     -22.369  -3.907   1.374  0.00  0.00    -0.650 OA
BRANCH  41  43
HETATM   43  O   UNK     0     -23.708  -5.271   0.135  0.00  0.00    -0.776 OA
HETATM   44  H   UNK     0     -24.596  -5.221  -0.351  0.00  0.00     0.167 HD
ENDBRANCH  41  43
ENDBRANCH  40  41
ENDBRANCH  39  40
ENDBRANCH  27  39
BRANCH  11  45
HETATM   45  C   UNK     0     -30.405  -0.775  11.037  0.00  0.00     0.051 C 
BRANCH  45  46
HETATM   46  C   UNK     0     -29.877   0.567  10.684  0.00  0.00     0.114 C 
BRANCH  46  47
HETATM   47  C   UNK     0     -31.021   1.370  10.165  0.00  0.00     0.139 C 
HETATM   48  O   UNK     0     -30.807   2.528   9.783  0.00  0.00    -0.650 OA
BRANCH  47  49
HETATM   49  O   UNK     0     -32.285   0.839  10.113  0.00  0.00    -0.776 OA
HETATM   50  H   UNK     0     -32.494  -0.108  10.453  0.00  0.00     0.167 HD
ENDBRANCH  47  49
ENDBRANCH  46  47
ENDBRANCH  45  46
ENDBRANCH  11  45
BRANCH  18  51
HETATM   51  C   UNK     0     -28.474   0.553   4.460  0.00  0.00     0.051 C 
BRANCH  51  52
HETATM   52  C   UNK     0     -27.645   1.581   5.214  0.00  0.00     0.114 C 
BRANCH  52  53
HETATM   53  C   UNK     0     -26.197   1.362   5.030  0.00  0.00     0.139 C 
HETATM   54  O   UNK     0     -25.659   1.644   3.947  0.00  0.00    -0.650 OA
BRANCH  53  55
HETATM   55  O   UNK     0     -25.452   0.843   6.060  0.00  0.00    -0.776 OA
HETATM   56  H   UNK     0     -25.121  -0.091   6.129  0.00  0.00     0.167 HD
ENDBRANCH  53  55
ENDBRANCH  52  53
ENDBRANCH  51  52
ENDBRANCH  18  51
TORSDOF 16
ENDMDL
MODEL 2
REMARK VINA RESULT:      -9.1      2.053      7.095
REMARK  16 active torsions:
REMARK  status: ('A' for Active; 'I' for Inactive)
REMARK    1  A    between atoms: C_6  and  C_7 
REMARK    2  A    between atoms: C_7  and  C_8 
REMARK    3  A    between atoms: C_8  and  C_9 
REMARK    4  A    between atoms: C_9  and  O_11 
REMARK    5  A    between atoms: C_16  and  C_17 
REMARK    6  A    between atoms: C_17  and  C_18 
REMARK    7  A    between atoms: C_18  and  C_19 
REMARK    8  A    between atoms: C_19  and  O_21 
REMARK    9  A    between atoms: C_28  and  C_29 
REMARK   10  A    between atoms: C_29  and  C_30 
REMARK   11  A    between atoms: C_30  and  C_31 
REMARK   12  A    between atoms: C_31  and  O_33 
REMARK   13  A    between atoms: C_42  and  C_43 
REMARK   14  A    between atoms: C_43  and  C_44 
REMARK   15  A    between atoms: C_44  and  C_45 
REMARK   16  A    between atoms: C_45  and  O_47 
ROOT
HETATM    1  C   UNK     0     -30.785  -0.465  10.428  0.00  0.00     0.051 C 
HETATM    2  C   UNK     0     -30.008  -1.740  10.168  0.00  0.00    -0.031 A 
HETATM    3  C   UNK     0     -29.845  -2.444   8.985  0.00  0.00     0.021 A 
HETATM    4  N   UNK     0     -29.094  -3.545   9.227  0.00  0.00    -0.361 N 
HETATM    5  C   UNK     0     -28.767  -3.552  10.536  0.00  0.00     0.022 A 
HETATM    6  C   UNK     0     -29.325  -2.438  11.155  0.00  0.00    -0.027 A 
HETATM    7  C   UNK     0     -27.879  -4.491  11.291  0.00  0.00     0.115 C 
HETATM    8  C   UNK     0     -26.584  -4.900  10.610  0.00  0.00     0.021 A 
HETATM    9  N   UNK     0     -25.788  -4.165   9.818  0.00  0.00    -0.361 N 
HETATM   10  C   UNK     0     -24.798  -4.963   9.363  0.00  0.00     0.022 A 
HETATM   11  C   UNK     0     -24.956  -6.244   9.884  0.00  0.00    -0.027 A 
HETATM   12  C   UNK     0     -26.079  -6.211  10.670  0.00  0.00    -0.031 A 
HETATM   13  C   UNK     0     -26.636  -7.383  11.447  0.00  0.00     0.051 C 
HETATM   14  C   UNK     0     -23.700  -4.565   8.381  0.00  0.00     0.115 C 
HETATM   15  C   UNK     0     -24.219  -4.120   7.023  0.00  0.00     0.021 A 
HETATM   16  N   UNK     0     -25.066  -3.108   6.759  0.00  0.00    -0.361 N 
HETATM   17  C   UNK     0     -25.331  -3.087   5.451  0.00  0.00     0.022 A 
HETATM   18  C   UNK     0     -24.614  -4.130   4.831  0.00  0.00    -0.027 A 
HETATM   19  C   UNK     0     -23.921  -4.769   5.826  0.00  0.00    -0.031 A 
HETATM   20  C   UNK     0     -22.985  -5.939   5.586  0.00  0.00     0.051 C 
HETATM   21  C   UNK     0     -26.269  -2.201   4.663  0.00  0.00     0.115 C 
HETATM   22  C   UNK     0     -27.540  -1.751   5.344  0.00  0.00     0.022 A 
HETATM   23  N   UNK     0     -28.350  -2.460   6.141  0.00  0.00    -0.361 N 
HETATM   24  C   UNK     0     -29.283  -1.627   6.644  0.00  0.00     0.021 A 
HETATM   25  C   UNK     0     -29.075  -0.353   6.151  0.00  0.00    -0.031 A 
HETATM   26  C   UNK     0     -29.881   0.906   6.393  0.00  0.00     0.051 C 
HETATM   27  C   UNK     0     -27.965  -0.408   5.316  0.00  0.00    -0.027 A 
HETATM   28  C   UNK     0     -30.362  -1.947   7.665  0.00  0.00     0.115 C 
HETATM   29  H   UNK     0     -28.832  -4.329   8.480  0.00  0.00     0.165 HD
HETATM   30  H   UNK     0     -25.893  -3.071   9.617  0.00  0.00     0.165 HD
HETATM   31  H   UNK     0     -25.449  -2.362   7.504  0.00  0.00     0.165 HD
HETATM   32  H   UNK     0     -28.297  -3.565   6.322  0.00  0.00     0.165 HD
ENDROOT
BRANCH   6  33
HETATM   33  C   UNK     0     -29.262  -1.995  12.595  0.00  0.00     0.051 C 
BRANCH  33  34
HETATM   34  C   UNK     0     -30.324  -2.687  13.415  0.00  0.00     0.114 C 
BRANCH  34  35
HETATM   35  C   UNK     0     -29.627  -3.562  14.401  0.00  0.00     0.139 C 
HETATM   36  O   UNK     0     -28.735  -3.083  15.160  0.00  0.00    -0.650 OA
BRANCH  35  37
HETATM   37  O   UNK     0     -29.913  -4.916  14.535  0.00  0.00    -0.776 OA
HETATM   38  H   UNK     0     -29.188  -5.609  14.625  0.00  0.00     0.167 HD
ENDBRANCH  35  37
ENDBRANCH  34  35
ENDBRANCH  33  34
ENDBRANCH   6  33
BRANCH  27  39
HETATM   39  C   UNK     0     -27.475   0.765   4.541  0.00  0.00     0.051 C 
BRANCH  39  40
HETATM   40  C   UNK     0     -27.430   0.664   3.083  0.00  0.00     0.114 C 
BRANCH  40  41
HETATM   41  C   UNK     0     -27.376   1.830   2.231  0.00  0.00     0.139 C 
HETATM   42  O   UNK     0     -27.875   1.873   1.098  0.00  0.00    -0.650 OA
BRANCH  41  43
HETATM   43  O   UNK     0     -26.716   3.000   2.702  0.00  0.00    -0.776 OA
HETATM   44  H   UNK     0     -26.008   3.364   2.076  0.00  0.00     0.167 HD
ENDBRANCH  41  43
ENDBRANCH  40  41
ENDBRANCH  39  40
ENDBRANCH  27  39
BRANCH  11  45
HETATM   45  C   UNK     0     -24.097  -7.461   9.667  0.00  0.00     0.051 C 
BRANCH  45  46
HETATM   46  C   UNK     0     -24.343  -8.153   8.376  0.00  0.00     0.114 C 
BRANCH  46  47
HETATM   47  C   UNK     0     -25.504  -9.067   8.579  0.00  0.00     0.139 C 
HETATM   48  O   UNK     0     -26.457  -8.998   7.790  0.00  0.00    -0.650 OA
BRANCH  47  49
HETATM   49  O   UNK     0     -25.519  -9.964   9.617  0.00  0.00    -0.776 OA
HETATM   50  H   UNK     0     -25.559  -9.662  10.598  0.00  0.00     0.167 HD
ENDBRANCH  47  49
ENDBRANCH  46  47
ENDBRANCH  45  46
ENDBRANCH  11  45
BRANCH  18  51
HETATM   51  C   UNK     0     -24.576  -4.486   3.367  0.00  0.00     0.051 C 
BRANCH  51  52
HETATM   52  C   UNK     0     -25.647  -5.545   3.158  0.00  0.00     0.114 C 
BRANCH  52  53
HETATM   53  C   UNK     0     -26.160  -5.542   1.774  0.00  0.00     0.139 C 
HETATM   54  O   UNK     0     -25.410  -5.235   0.834  0.00  0.00    -0.650 OA
BRANCH  53  55
HETATM   55  O   UNK     0     -27.471  -5.877   1.535  0.00  0.00    -0.776 OA
HETATM   56  H   UNK     0     -27.910  -6.731   1.785  0.00  0.00     0.167 HD
ENDBRANCH  53  55
ENDBRANCH  52  53
ENDBRANCH  51  52
ENDBRANCH  18  51
TORSDOF 16
ENDMDL
MODEL 3
REMARK VINA RESULT:      -9.1      6.585     11.697
REMARK  16 active torsions:
REMARK  status: ('A' for Active; 'I' for Inactive)
REMARK    1  A    between atoms: C_6  and  C_7 
REMARK    2  A    between atoms: C_7  and  C_8 
REMARK    3  A    between atoms: C_8  and  C_9 
REMARK    4  A    between atoms: C_9  and  O_11 
REMARK    5  A    between atoms: C_16  and  C_17 
REMARK    6  A    between atoms: C_17  and  C_18 
REMARK    7  A    between atoms: C_18  and  C_19 
REMARK    8  A    between atoms: C_19  and  O_21 
REMARK    9  A    between atoms: C_28  and  C_29 
REMARK   10  A    between atoms: C_29  and  C_30 
REMARK   11  A    between atoms: C_30  and  C_31 
REMARK   12  A    between atoms: C_31  and  O_33 
REMARK   13  A    between atoms: C_42  and  C_43 
REMARK   14  A    between atoms: C_43  and  C_44 
REMARK   15  A    between atoms: C_44  and  C_45 
REMARK   16  A    between atoms: C_45  and  O_47 
ROOT
HETATM    1  C   UNK     0     -19.006  -7.235   6.571  0.00  0.00     0.051 C 
HETATM    2  C   UNK     0     -19.557  -6.426   5.415  0.00  0.00    -0.031 A 
HETATM    3  C   UNK     0     -18.888  -5.623   4.504  0.00  0.00     0.021 A 
HETATM    4  N   UNK     0     -19.790  -5.067   3.661  0.00  0.00    -0.361 N 
HETATM    5  C   UNK     0     -21.017  -5.504   4.009  0.00  0.00     0.022 A 
HETATM    6  C   UNK     0     -20.909  -6.353   5.104  0.00  0.00    -0.027 A 
HETATM    7  C   UNK     0     -22.337  -5.263   3.344  0.00  0.00     0.115 C 
HETATM    8  C   UNK     0     -22.361  -5.340   1.828  0.00  0.00     0.021 A 
HETATM    9  N   UNK     0     -21.663  -6.155   1.021  0.00  0.00    -0.361 N 
HETATM   10  C   UNK     0     -21.930  -5.809  -0.256  0.00  0.00     0.022 A 
HETATM   11  C   UNK     0     -22.833  -4.750  -0.273  0.00  0.00    -0.027 A 
HETATM   12  C   UNK     0     -23.108  -4.450   1.037  0.00  0.00    -0.031 A 
HETATM   13  C   UNK     0     -24.049  -3.362   1.505  0.00  0.00     0.051 C 
HETATM   14  C   UNK     0     -21.308  -6.426  -1.506  0.00  0.00     0.115 C 
HETATM   15  C   UNK     0     -19.798  -6.269  -1.584  0.00  0.00     0.021 A 
HETATM   16  N   UNK     0     -18.881  -6.702  -0.699  0.00  0.00    -0.361 N 
HETATM   17  C   UNK     0     -17.669  -6.305  -1.093  0.00  0.00     0.022 A 
HETATM   18  C   UNK     0     -17.802  -5.587  -2.299  0.00  0.00    -0.027 A 
HETATM   19  C   UNK     0     -19.141  -5.573  -2.596  0.00  0.00    -0.031 A 
HETATM   20  C   UNK     0     -19.722  -4.930  -3.841  0.00  0.00     0.051 C 
HETATM   21  C   UNK     0     -16.326  -6.469  -0.420  0.00  0.00     0.115 C 
HETATM   22  C   UNK     0     -16.293  -6.438   1.090  0.00  0.00     0.022 A 
HETATM   23  N   UNK     0     -16.980  -5.641   1.919  0.00  0.00    -0.361 N 
HETATM   24  C   UNK     0     -16.759  -6.054   3.183  0.00  0.00     0.021 A 
HETATM   25  C   UNK     0     -15.900  -7.136   3.169  0.00  0.00    -0.031 A 
HETATM   26  C   UNK     0     -15.328  -7.915   4.335  0.00  0.00     0.051 C 
HETATM   27  C   UNK     0     -15.588  -7.401   1.840  0.00  0.00    -0.027 A 
HETATM   28  C   UNK     0     -17.390  -5.522   4.458  0.00  0.00     0.115 C 
HETATM   29  H   UNK     0     -19.556  -4.338   2.850  0.00  0.00     0.165 HD
HETATM   30  H   UNK     0     -21.018  -7.007   1.349  0.00  0.00     0.165 HD
HETATM   31  H   UNK     0     -19.086  -7.342   0.199  0.00  0.00     0.165 HD
HETATM   32  H   UNK     0     -17.595  -4.752   1.621  0.00  0.00     0.165 HD
ENDROOT
BRANCH   6  33
HETATM   33  C   UNK     0     -21.979  -7.091   5.870  0.00  0.00     0.051 C 
BRANCH  33  34
HETATM   34  C   UNK     0     -22.558  -6.216   6.956  0.00  0.00     0.114 C 
BRANCH  34  35
HETATM   35  C   UNK     0     -24.043  -6.316   6.865  0.00  0.00     0.139 C 
HETATM   36  O   UNK     0     -24.749  -6.300   7.916  0.00  0.00    -0.650 OA
BRANCH  35  37
HETATM   37  O   UNK     0     -24.714  -6.426   5.653  0.00  0.00    -0.776 OA
HETATM   38  H   UNK     0     -25.465  -7.083   5.515  0.00  0.00     0.167 HD
ENDBRANCH  35  37
ENDBRANCH  34  35
ENDBRANCH  33  34
ENDBRANCH   6  33
BRANCH  27  39
HETATM   39  C   UNK     0     -14.626  -8.459   1.429  0.00  0.00     0.051 C 
BRANCH  39  40
HETATM   40  C   UNK     0     -15.159  -9.748   0.988  0.00  0.00     0.114 C 
BRANCH  40  41
HETATM   41  C   UNK     0     -14.799 -10.991   1.632  0.00  0.00     0.139 C 
HETATM   42  O   UNK     0     -15.110 -12.105   1.190  0.00  0.00    -0.650 OA
BRANCH  41  43
HETATM   43  O   UNK     0     -14.046 -10.951   2.840  0.00  0.00    -0.776 OA
HETATM   44  H   UNK     0     -13.927 -10.023   3.229  0.00  0.00     0.167 HD
ENDBRANCH  41  43
ENDBRANCH  40  41
ENDBRANCH  39  40
ENDBRANCH  27  39
BRANCH  11  45
HETATM   45  C   UNK     0     -23.427  -4.037  -1.458  0.00  0.00     0.051 C 
BRANCH  45  46
HETATM   46  C   UNK     0     -24.901  -4.179  -1.575  0.00  0.00     0.114 C 
BRANCH  46  47
HETATM   47  C   UNK     0     -25.195  -5.635  -1.701  0.00  0.00     0.139 C 
HETATM   48  O   UNK     0     -25.969  -6.156  -0.885  0.00  0.00    -0.650 OA
BRANCH  47  49
HETATM   49  O   UNK     0     -24.622  -6.384  -2.698  0.00  0.00    -0.776 OA
HETATM   50  H   UNK     0     -25.172  -6.769  -3.475  0.00  0.00     0.167 HD
ENDBRANCH  47  49
ENDBRANCH  46  47
ENDBRANCH  45  46
ENDBRANCH  11  45
BRANCH  18  51
HETATM   51  C   UNK     0     -16.712  -4.967  -3.133  0.00  0.00     0.051 C 
BRANCH  51  52
HETATM   52  C   UNK     0     -15.944  -6.122  -3.758  0.00  0.00     0.114 C 
BRANCH  52  53
HETATM   53  C   UNK     0     -15.013  -5.661  -4.806  0.00  0.00     0.139 C 
HETATM   54  O   UNK     0     -13.796  -5.596  -4.571  0.00  0.00    -0.650 OA
BRANCH  53  55
HETATM   55  O   UNK     0     -15.502  -5.301  -6.038  0.00  0.00    -0.776 OA
HETATM   56  H   UNK     0     -15.571  -4.375  -6.392  0.00  0.00     0.167 HD
ENDBRANCH  53  55
ENDBRANCH  52  53
ENDBRANCH  51  52
ENDBRANCH  18  51
TORSDOF 16
ENDMDL
MODEL 4
REMARK VINA RESULT:      -9.1      2.446      7.354
REMARK  16 active torsions:
REMARK  status: ('A' for Active; 'I' for Inactive)
REMARK    1  A    between atoms: C_6  and  C_7 
REMARK    2  A    between atoms: C_7  and  C_8 
REMARK    3  A    between atoms: C_8  and  C_9 
REMARK    4  A    between atoms: C_9  and  O_11 
REMARK    5  A    between atoms: C_16  and  C_17 
REMARK    6  A    between atoms: C_17  and  C_18 
REMARK    7  A    between atoms: C_18  and  C_19 
REMARK    8  A    between atoms: C_19  and  O_21 
REMARK    9  A    between atoms: C_28  and  C_29 
REMARK   10  A    between atoms: C_29  and  C_30 
REMARK   11  A    between atoms: C_30  and  C_31 
REMARK   12  A    between atoms: C_31  and  O_33 
REMARK   13  A    between atoms: C_42  and  C_43 
REMARK   14  A    between atoms: C_43  and  C_44 
REMARK   15  A    between atoms: C_44  and  C_45 
REMARK   16  A    between atoms: C_45  and  O_47 
ROOT
HETATM    1  C   UNK     0     -25.605  -1.175   1.493  0.00  0.00     0.051 C 
HETATM    2  C   UNK     0     -26.231  -1.526   2.828  0.00  0.00    -0.031 A 
HETATM    3  C   UNK     0     -26.496  -2.771   3.375  0.00  0.00     0.021 A 
HETATM    4  N   UNK     0     -27.093  -2.606   4.580  0.00  0.00    -0.361 N 
HETATM    5  C   UNK     0     -27.206  -1.282   4.816  0.00  0.00     0.022 A 
HETATM    6  C   UNK     0     -26.679  -0.577   3.739  0.00  0.00    -0.027 A 
HETATM    7  C   UNK     0     -27.705  -0.572   6.035  0.00  0.00     0.115 C 
HETATM    8  C   UNK     0     -27.257  -1.124   7.377  0.00  0.00     0.021 A 
HETATM    9  N   UNK     0     -26.076  -1.673   7.703  0.00  0.00    -0.361 N 
HETATM   10  C   UNK     0     -26.155  -2.108   8.979  0.00  0.00     0.022 A 
HETATM   11  C   UNK     0     -27.417  -1.824   9.491  0.00  0.00    -0.027 A 
HETATM   12  C   UNK     0     -28.117  -1.204   8.487  0.00  0.00    -0.031 A 
HETATM   13  C   UNK     0     -29.541  -0.707   8.592  0.00  0.00     0.051 C 
HETATM   14  C   UNK     0     -25.066  -2.854   9.745  0.00  0.00     0.115 C 
HETATM   15  C   UNK     0     -24.672  -4.182   9.119  0.00  0.00     0.021 A 
HETATM   16  N   UNK     0     -24.193  -4.396   7.880  0.00  0.00    -0.361 N 
HETATM   17  C   UNK     0     -24.038  -5.708   7.690  0.00  0.00     0.022 A 
HETATM   18  C   UNK     0     -24.425  -6.381   8.866  0.00  0.00    -0.027 A 
HETATM   19  C   UNK     0     -24.820  -5.414   9.754  0.00  0.00    -0.031 A 
HETATM   20  C   UNK     0     -25.283  -5.706  11.169  0.00  0.00     0.051 C 
HETATM   21  C   UNK     0     -23.602  -6.467   6.457  0.00  0.00     0.115 C 
HETATM   22  C   UNK     0     -24.003  -5.905   5.114  0.00  0.00     0.022 A 
HETATM   23  N   UNK     0     -25.170  -5.349   4.761  0.00  0.00    -0.361 N 
HETATM   24  C   UNK     0     -25.043  -4.853   3.514  0.00  0.00     0.021 A 
HETATM   25  C   UNK     0     -23.767  -5.105   3.048  0.00  0.00    -0.031 A 
HETATM   26  C   UNK     0     -23.164  -4.779   1.697  0.00  0.00     0.051 C 
HETATM   27  C   UNK     0     -23.082  -5.777   4.054  0.00  0.00    -0.027 A 
HETATM   28  C   UNK     0     -26.064  -4.054   2.723  0.00  0.00     0.115 C 
HETATM   29  H   UNK     0     -27.466  -3.425   5.237  0.00  0.00     0.165 HD
HETATM   30  H   UNK     0     -25.169  -1.710   7.052  0.00  0.00     0.165 HD
HETATM   31  H   UNK     0     -23.913  -3.602   7.139  0.00  0.00     0.165 HD
HETATM   32  H   UNK     0     -26.108  -5.340   5.374  0.00  0.00     0.165 HD
ENDROOT
BRANCH   6  33
HETATM   33  C   UNK     0     -26.573   0.909   3.511  0.00  0.00     0.051 C 
BRANCH  33  34
HETATM   34  C   UNK     0     -27.858   1.456   2.935  0.00  0.00     0.114 C 
BRANCH  34  35
HETATM   35  C   UNK     0     -27.550   1.977   1.572  0.00  0.00     0.139 C 
HETATM   36  O   UNK     0     -26.943   3.078   1.433  0.00  0.00    -0.650 OA
BRANCH  35  37
HETATM   37  O   UNK     0     -27.904   1.297   0.413  0.00  0.00    -0.776 OA
HETATM   38  H   UNK     0     -28.525   0.504   0.426  0.00  0.00     0.167 HD
ENDBRANCH  35  37
ENDBRANCH  34  35
ENDBRANCH  33  34
ENDBRANCH   6  33
BRANCH  27  39
HETATM   39  C   UNK     0     -21.692  -6.281   3.891  0.00  0.00     0.051 C 
BRANCH  39  40
HETATM   40  C   UNK     0     -20.594  -5.471   4.419  0.00  0.00     0.114 C 
BRANCH  40  41
HETATM   41  C   UNK     0     -19.796  -4.610   3.575  0.00  0.00     0.139 C 
HETATM   42  O   UNK     0     -18.954  -5.032   2.770  0.00  0.00    -0.650 OA
BRANCH  41  43
HETATM   43  O   UNK     0     -19.974  -3.200   3.661  0.00  0.00    -0.776 OA
HETATM   44  H   UNK     0     -19.973  -2.722   2.768  0.00  0.00     0.167 HD
ENDBRANCH  41  43
ENDBRANCH  40  41
ENDBRANCH  39  40
ENDBRANCH  27  39
BRANCH  11  45
HETATM   45  C   UNK     0     -27.963  -2.111  10.864  0.00  0.00     0.051 C 
BRANCH  45  46
HETATM   46  C   UNK     0     -27.950  -3.550  11.232  0.00  0.00     0.114 C 
BRANCH  46  47
HETATM   47  C   UNK     0     -28.813  -4.266  10.249  0.00  0.00     0.139 C 
HETATM   48  O   UNK     0     -30.041  -4.127  10.328  0.00  0.00    -0.650 OA
BRANCH  47  49
HETATM   49  O   UNK     0     -28.260  -5.061   9.278  0.00  0.00    -0.776 OA
HETATM   50  H   UNK     0     -27.280  -4.965   8.987  0.00  0.00     0.167 HD
ENDBRANCH  47  49
ENDBRANCH  46  47
ENDBRANCH  45  46
ENDBRANCH  11  45
BRANCH  18  51
HETATM   51  C   UNK     0     -24.401  -7.863   9.136  0.00  0.00     0.051 C 
BRANCH  51  52
HETATM   52  C   UNK     0     -25.825  -8.252   9.504  0.00  0.00     0.114 C 
BRANCH  52  53
HETATM   53  C   UNK     0     -26.696  -8.342   8.315  0.00  0.00     0.139 C 
HETATM   54  O   UNK     0     -27.767  -7.716   8.281  0.00  0.00    -0.650 OA
BRANCH  53  55
HETATM   55  O   UNK     0     -26.315  -9.123   7.252  0.00  0.00    -0.776 OA
HETATM   56  H   UNK     0     -25.651  -8.879   6.555  0.00  0.00     0.167 HD
ENDBRANCH  53  55
ENDBRANCH  52  53
ENDBRANCH  51  52
ENDBRANCH  18  51
TORSDOF 16
ENDMDL
MODEL 5
REMARK VINA RESULT:      -8.9      6.959     10.754
REMARK  16 active torsions:
REMARK  status: ('A' for Active; 'I' for Inactive)
REMARK    1  A    between atoms: C_6  and  C_7 
REMARK    2  A    between atoms: C_7  and  C_8 
REMARK    3  A    between atoms: C_8  and  C_9 
REMARK    4  A    between atoms: C_9  and  O_11 
REMARK    5  A    between atoms: C_16  and  C_17 
REMARK    6  A    between atoms: C_17  and  C_18 
REMARK    7  A    between atoms: C_18  and  C_19 
REMARK    8  A    between atoms: C_19  and  O_21 
REMARK    9  A    between atoms: C_28  and  C_29 
REMARK   10  A    between atoms: C_29  and  C_30 
REMARK   11  A    between atoms: C_30  and  C_31 
REMARK   12  A    between atoms: C_31  and  O_33 
REMARK   13  A    between atoms: C_42  and  C_43 
REMARK   14  A    between atoms: C_43  and  C_44 
REMARK   15  A    between atoms: C_44  and  C_45 
REMARK   16  A    between atoms: C_45  and  O_47 
ROOT
HETATM    1  C   UNK     0     -15.144  -6.634   3.857  0.00  0.00     0.051 C 
HETATM    2  C   UNK     0     -16.501  -5.990   3.656  0.00  0.00    -0.031 A 
HETATM    3  C   UNK     0     -16.900  -5.054   2.716  0.00  0.00     0.021 A 
HETATM    4  N   UNK     0     -18.200  -4.738   2.931  0.00  0.00    -0.361 N 
HETATM    5  C   UNK     0     -18.639  -5.459   3.983  0.00  0.00     0.022 A 
HETATM    6  C   UNK     0     -17.602  -6.251   4.463  0.00  0.00    -0.027 A 
HETATM    7  C   UNK     0     -20.015  -5.551   4.565  0.00  0.00     0.115 C 
HETATM    8  C   UNK     0     -21.168  -5.640   3.581  0.00  0.00     0.021 A 
HETATM    9  N   UNK     0     -21.207  -6.264   2.393  0.00  0.00    -0.361 N 
HETATM   10  C   UNK     0     -22.401  -6.001   1.821  0.00  0.00     0.022 A 
HETATM   11  C   UNK     0     -23.155  -5.193   2.667  0.00  0.00    -0.027 A 
HETATM   12  C   UNK     0     -22.384  -4.962   3.778  0.00  0.00    -0.031 A 
HETATM   13  C   UNK     0     -22.800  -4.134   4.973  0.00  0.00     0.051 C 
HETATM   14  C   UNK     0     -22.856  -6.454   0.436  0.00  0.00     0.115 C 
HETATM   15  C   UNK     0     -21.988  -5.934  -0.698  0.00  0.00     0.021 A 
HETATM   16  N   UNK     0     -20.667  -6.126  -0.876  0.00  0.00    -0.361 N 
HETATM   17  C   UNK     0     -20.267  -5.447  -1.953  0.00  0.00     0.022 A 
HETATM   18  C   UNK     0     -21.382  -4.790  -2.510  0.00  0.00    -0.027 A 
HETATM   19  C   UNK     0     -22.453  -5.104  -1.716  0.00  0.00    -0.031 A 
HETATM   20  C   UNK     0     -23.870  -4.629  -1.982  0.00  0.00     0.051 C 
HETATM   21  C   UNK     0     -18.881  -5.275  -2.534  0.00  0.00     0.115 C 
HETATM   22  C   UNK     0     -17.721  -5.230  -1.568  0.00  0.00     0.022 A 
HETATM   23  N   UNK     0     -17.655  -4.620  -0.377  0.00  0.00    -0.361 N 
HETATM   24  C   UNK     0     -16.489  -4.959   0.208  0.00  0.00     0.021 A 
HETATM   25  C   UNK     0     -15.782  -5.800  -0.630  0.00  0.00    -0.031 A 
HETATM   26  C   UNK     0     -14.410  -6.410  -0.432  0.00  0.00     0.051 C 
HETATM   27  C   UNK     0     -16.550  -5.987  -1.774  0.00  0.00    -0.027 A 
HETATM   28  C   UNK     0     -16.006  -4.591   1.600  0.00  0.00     0.115 C 
HETATM   29  H   UNK     0     -18.785  -3.979   2.363  0.00  0.00     0.165 HD
HETATM   30  H   UNK     0     -20.413  -6.931   1.978  0.00  0.00     0.165 HD
HETATM   31  H   UNK     0     -20.012  -6.792  -0.256  0.00  0.00     0.165 HD
HETATM   32  H   UNK     0     -18.413  -3.909   0.043  0.00  0.00     0.165 HD
ENDROOT
BRANCH   6  33
HETATM   33  C   UNK     0     -17.576  -7.223   5.616  0.00  0.00     0.051 C 
BRANCH  33  34
HETATM   34  C   UNK     0     -17.198  -6.521   6.898  0.00  0.00     0.114 C 
BRANCH  34  35
HETATM   35  C   UNK     0     -17.919  -7.204   8.010  0.00  0.00     0.139 C 
HETATM   36  O   UNK     0     -17.627  -8.394   8.324  0.00  0.00    -0.650 OA
BRANCH  35  37
HETATM   37  O   UNK     0     -18.924  -6.584   8.744  0.00  0.00    -0.776 OA
HETATM   38  H   UNK     0     -18.960  -5.584   8.862  0.00  0.00     0.167 HD
ENDBRANCH  35  37
ENDBRANCH  34  35
ENDBRANCH  33  34
ENDBRANCH   6  33
BRANCH  27  39
HETATM   39  C   UNK     0     -16.083  -6.782  -2.942  0.00  0.00     0.051 C 
BRANCH  39  40
HETATM   40  C   UNK     0     -15.222  -6.127  -3.927  0.00  0.00     0.114 C 
BRANCH  40  41
HETATM   41  C   UNK     0     -15.607  -4.904  -4.595  0.00  0.00     0.139 C 
HETATM   42  O   UNK     0     -14.917  -3.876  -4.590  0.00  0.00    -0.650 OA
BRANCH  41  43
HETATM   43  O   UNK     0     -16.844  -4.861  -5.300  0.00  0.00    -0.776 OA
HETATM   44  H   UNK     0     -17.557  -5.480  -4.933  0.00  0.00     0.167 HD
ENDBRANCH  41  43
ENDBRANCH  40  41
ENDBRANCH  39  40
ENDBRANCH  27  39
BRANCH  11  45
HETATM   45  C   UNK     0     -24.545  -4.653   2.461  0.00  0.00     0.051 C 
BRANCH  45  46
HETATM   46  C   UNK     0     -24.631  -3.574   1.445  0.00  0.00     0.114 C 
BRANCH  46  47
HETATM   47  C   UNK     0     -26.076  -3.367   1.141  0.00  0.00     0.139 C 
HETATM   48  O   UNK     0     -26.901  -4.156   1.624  0.00  0.00    -0.650 OA
BRANCH  47  49
HETATM   49  O   UNK     0     -26.486  -2.328   0.344  0.00  0.00    -0.776 OA
HETATM   50  H   UNK     0     -25.855  -1.562   0.081  0.00  0.00     0.167 HD
ENDBRANCH  47  49
ENDBRANCH  46  47
ENDBRANCH  45  46
ENDBRANCH  11  45
BRANCH  18  51
HETATM   51  C   UNK     0     -21.427  -3.927  -3.745  0.00  0.00     0.051 C 
BRANCH  51  52
HETATM   52  C   UNK     0     -21.646  -4.872  -4.917  0.00  0.00     0.114 C 
BRANCH  52  53
HETATM   53  C   UNK     0     -20.819  -4.502  -6.082  0.00  0.00     0.139 C 
HETATM   54  O   UNK     0     -19.596  -4.714  -6.069  0.00  0.00    -0.650 OA
BRANCH  53  55
HETATM   55  O   UNK     0     -21.410  -3.920  -7.177  0.00  0.00    -0.776 OA
HETATM   56  H   UNK     0     -21.835  -4.400  -7.935  0.00  0.00     0.167 HD
ENDBRANCH  53  55
ENDBRANCH  52  53
ENDBRANCH  51  52
ENDBRANCH  18  51
TORSDOF 16
ENDMDL
MODEL 6
REMARK VINA RESULT:      -8.9      1.716      2.102
REMARK  16 active torsions:
REMARK  status: ('A' for Active; 'I' for Inactive)
REMARK    1  A    between atoms: C_6  and  C_7 
REMARK    2  A    between atoms: C_7  and  C_8 
REMARK    3  A    between atoms: C_8  and  C_9 
REMARK    4  A    between atoms: C_9  and  O_11 
REMARK    5  A    between atoms: C_16  and  C_17 
REMARK    6  A    between atoms: C_17  and  C_18 
REMARK    7  A    between atoms: C_18  and  C_19 
REMARK    8  A    between atoms: C_19  and  O_21 
REMARK    9  A    between atoms: C_28  and  C_29 
REMARK   10  A    between atoms: C_29  and  C_30 
REMARK   11  A    between atoms: C_30  and  C_31 
REMARK   12  A    between atoms: C_31  and  O_33 
REMARK   13  A    between atoms: C_42  and  C_43 
REMARK   14  A    between atoms: C_43  and  C_44 
REMARK   15  A    between atoms: C_44  and  C_45 
REMARK   16  A    between atoms: C_45  and  O_47 
ROOT
HETATM    1  C   UNK     0     -24.429  -8.028   6.857  0.00  0.00     0.051 C 
HETATM    2  C   UNK     0     -25.036  -6.865   7.616  0.00  0.00    -0.031 A 
HETATM    3  C   UNK     0     -24.784  -5.508   7.494  0.00  0.00     0.021 A 
HETATM    4  N   UNK     0     -25.536  -4.837   8.400  0.00  0.00    -0.361 N 
HETATM    5  C   UNK     0     -26.267  -5.737   9.089  0.00  0.00     0.022 A 
HETATM    6  C   UNK     0     -25.977  -7.016   8.627  0.00  0.00    -0.027 A 
HETATM    7  C   UNK     0     -27.318  -5.511  10.131  0.00  0.00     0.115 C 
HETATM    8  C   UNK     0     -28.309  -4.390   9.867  0.00  0.00     0.021 A 
HETATM    9  N   UNK     0     -28.831  -3.994   8.697  0.00  0.00    -0.361 N 
HETATM   10  C   UNK     0     -29.593  -2.903   8.925  0.00  0.00     0.022 A 
HETATM   11  C   UNK     0     -29.568  -2.594  10.282  0.00  0.00    -0.027 A 
HETATM   12  C   UNK     0     -28.761  -3.527  10.882  0.00  0.00    -0.031 A 
HETATM   13  C   UNK     0     -28.445  -3.589  12.359  0.00  0.00     0.051 C 
HETATM   14  C   UNK     0     -30.329  -2.081   7.871  0.00  0.00     0.115 C 
HETATM   15  C   UNK     0     -29.415  -1.454   6.831  0.00  0.00     0.021 A 
HETATM   16  N   UNK     0     -28.563  -2.084   6.000  0.00  0.00    -0.361 N 
HETATM   17  C   UNK     0     -27.891  -1.175   5.289  0.00  0.00     0.022 A 
HETATM   18  C   UNK     0     -28.333   0.108   5.669  0.00  0.00    -0.027 A 
HETATM   19  C   UNK     0     -29.288  -0.081   6.634  0.00  0.00    -0.031 A 
HETATM   20  C   UNK     0     -30.055   1.050   7.294  0.00  0.00     0.051 C 
HETATM   21  C   UNK     0     -26.780  -1.358   4.281  0.00  0.00     0.115 C 
HETATM   22  C   UNK     0     -25.813  -2.496   4.506  0.00  0.00     0.022 A 
HETATM   23  N   UNK     0     -25.280  -2.916   5.661  0.00  0.00    -0.361 N 
HETATM   24  C   UNK     0     -24.588  -4.048   5.422  0.00  0.00     0.021 A 
HETATM   25  C   UNK     0     -24.669  -4.360   4.078  0.00  0.00    -0.031 A 
HETATM   26  C   UNK     0     -24.029  -5.507   3.325  0.00  0.00     0.051 C 
HETATM   27  C   UNK     0     -25.448  -3.381   3.471  0.00  0.00    -0.027 A 
HETATM   28  C   UNK     0     -23.887  -4.940   6.432  0.00  0.00     0.115 C 
HETATM   29  H   UNK     0     -25.514  -3.736   8.572  0.00  0.00     0.165 HD
HETATM   30  H   UNK     0     -28.704  -4.512   7.714  0.00  0.00     0.165 HD
HETATM   31  H   UNK     0     -28.467  -3.194   5.877  0.00  0.00     0.165 HD
HETATM   32  H   UNK     0     -25.351  -2.392   6.650  0.00  0.00     0.165 HD
ENDROOT
BRANCH   6  33
HETATM   33  C   UNK     0     -26.517  -8.353   9.068  0.00  0.00     0.051 C 
BRANCH  33  34
HETATM   34  C   UNK     0     -25.542  -9.046   9.990  0.00  0.00     0.114 C 
BRANCH  34  35
HETATM   35  C   UNK     0     -25.910  -8.677  11.387  0.00  0.00     0.139 C 
HETATM   36  O   UNK     0     -27.101  -8.817  11.790  0.00  0.00    -0.650 OA
BRANCH  35  37
HETATM   37  O   UNK     0     -24.988  -8.176  12.297  0.00  0.00    -0.776 OA
HETATM   38  H   UNK     0     -24.404  -7.383  12.085  0.00  0.00     0.167 HD
ENDBRANCH  35  37
ENDBRANCH  34  35
ENDBRANCH  33  34
ENDBRANCH   6  33
BRANCH  27  39
HETATM   39  C   UNK     0     -25.702  -3.340   2.006  0.00  0.00     0.051 C 
BRANCH  39  40
HETATM   40  C   UNK     0     -26.867  -4.053   1.483  0.00  0.00     0.114 C 
BRANCH  40  41
HETATM   41  C   UNK     0     -26.772  -5.389   0.938  0.00  0.00     0.139 C 
HETATM   42  O   UNK     0     -26.254  -5.645  -0.158  0.00  0.00    -0.650 OA
BRANCH  41  43
HETATM   43  O   UNK     0     -27.299  -6.479   1.686  0.00  0.00    -0.776 OA
HETATM   44  H   UNK     0     -27.834  -7.143   1.140  0.00  0.00     0.167 HD
ENDBRANCH  41  43
ENDBRANCH  40  41
ENDBRANCH  39  40
ENDBRANCH  27  39
BRANCH  11  45
HETATM   45  C   UNK     0     -30.269  -1.476  11.006  0.00  0.00     0.051 C 
BRANCH  45  46
HETATM   46  C   UNK     0     -31.612  -1.838  11.525  0.00  0.00     0.114 C 
BRANCH  46  47
HETATM   47  C   UNK     0     -32.254  -0.580  12.005  0.00  0.00     0.139 C 
HETATM   48  O   UNK     0     -32.219  -0.321  13.216  0.00  0.00    -0.650 OA
BRANCH  47  49
HETATM   49  O   UNK     0     -32.871   0.273  11.125  0.00  0.00    -0.776 OA
HETATM   50  H   UNK     0     -33.707   0.811  11.383  0.00  0.00     0.167 HD
ENDBRANCH  47  49
ENDBRANCH  46  47
ENDBRANCH  45  46
ENDBRANCH  11  45
BRANCH  18  51
HETATM   51  C   UNK     0     -27.885   1.440   5.126  0.00  0.00     0.051 C 
BRANCH  51  52
HETATM   52  C   UNK     0     -27.734   1.259   3.623  0.00  0.00     0.114 C 
BRANCH  52  53
HETATM   53  C   UNK     0     -26.668   2.116   3.070  0.00  0.00     0.139 C 
HETATM   54  O   UNK     0     -25.477   1.803   3.224  0.00  0.00    -0.650 OA
BRANCH  53  55
HETATM   55  O   UNK     0     -27.002   3.261   2.388  0.00  0.00    -0.776 OA
HETATM   56  H   UNK     0     -27.912   3.651   2.311  0.00  0.00     0.167 HD
ENDBRANCH  53  55
ENDBRANCH  52  53
ENDBRANCH  51  52
ENDBRANCH  18  51
TORSDOF 16
ENDMDL
MODEL 7
REMARK VINA RESULT:      -8.7      2.775      7.930
REMARK  16 active torsions:
REMARK  status: ('A' for Active; 'I' for Inactive)
REMARK    1  A    between atoms: C_6  and  C_7 
REMARK    2  A    between atoms: C_7  and  C_8 
REMARK    3  A    between atoms: C_8  and  C_9 
REMARK    4  A    between atoms: C_9  and  O_11 
REMARK    5  A    between atoms: C_16  and  C_17 
REMARK    6  A    between atoms: C_17  and  C_18 
REMARK    7  A    between atoms: C_18  and  C_19 
REMARK    8  A    between atoms: C_19  and  O_21 
REMARK    9  A    between atoms: C_28  and  C_29 
REMARK   10  A    between atoms: C_29  and  C_30 
REMARK   11  A    between atoms: C_30  and  C_31 
REMARK   12  A    between atoms: C_31  and  O_33 
REMARK   13  A    between atoms: C_42  and  C_43 
REMARK   14  A    between atoms: C_43  and  C_44 
REMARK   15  A    between atoms: C_44  and  C_45 
REMARK   16  A    between atoms: C_45  and  O_47 
ROOT
HETATM    1  C   UNK     0     -25.232  -1.625  -0.505  0.00  0.00     0.051 C 
HETATM    2  C   UNK     0     -25.780  -1.842   0.891  0.00  0.00    -0.031 A 
HETATM    3  C   UNK     0     -25.862  -3.011   1.631  0.00  0.00     0.021 A 
HETATM    4  N   UNK     0     -26.454  -2.740   2.819  0.00  0.00    -0.361 N 
HETATM    5  C   UNK     0     -26.743  -1.422   2.854  0.00  0.00     0.022 A 
HETATM    6  C   UNK     0     -26.337  -0.831   1.663  0.00  0.00    -0.027 A 
HETATM    7  C   UNK     0     -27.313  -0.602   3.969  0.00  0.00     0.115 C 
HETATM    8  C   UNK     0     -26.770  -0.874   5.361  0.00  0.00     0.021 A 
HETATM    9  N   UNK     0     -25.520  -1.204   5.722  0.00  0.00    -0.361 N 
HETATM   10  C   UNK     0     -25.515  -1.441   7.050  0.00  0.00     0.022 A 
HETATM   11  C   UNK     0     -26.795  -1.249   7.562  0.00  0.00    -0.027 A 
HETATM   12  C   UNK     0     -27.591  -0.892   6.503  0.00  0.00    -0.031 A 
HETATM   13  C   UNK     0     -29.068  -0.578   6.586  0.00  0.00     0.051 C 
HETATM   14  C   UNK     0     -24.321  -1.907   7.879  0.00  0.00     0.115 C 
HETATM   15  C   UNK     0     -23.760  -3.253   7.448  0.00  0.00     0.021 A 
HETATM   16  N   UNK     0     -23.279  -3.592   6.238  0.00  0.00    -0.361 N 
HETATM   17  C   UNK     0     -22.949  -4.886   6.244  0.00  0.00     0.022 A 
HETATM   18  C   UNK     0     -23.220  -5.412   7.523  0.00  0.00    -0.027 A 
HETATM   19  C   UNK     0     -23.727  -4.379   8.268  0.00  0.00    -0.031 A 
HETATM   20  C   UNK     0     -24.120  -4.505   9.728  0.00  0.00     0.051 C 
HETATM   21  C   UNK     0     -22.435  -5.763   5.126  0.00  0.00     0.115 C 
HETATM   22  C   UNK     0     -22.933  -5.476   3.729  0.00  0.00     0.022 A 
HETATM   23  N   UNK     0     -24.171  -5.142   3.341  0.00  0.00    -0.361 N 
HETATM   24  C   UNK     0     -24.136  -4.835   2.029  0.00  0.00     0.021 A 
HETATM   25  C   UNK     0     -22.846  -4.985   1.558  0.00  0.00    -0.031 A 
HETATM   26  C   UNK     0     -22.317  -4.797   0.151  0.00  0.00     0.051 C 
HETATM   27  C   UNK     0     -22.058  -5.395   2.627  0.00  0.00    -0.027 A 
HETATM   28  C   UNK     0     -25.271  -4.311   1.166  0.00  0.00     0.115 C 
HETATM   29  H   UNK     0     -26.700  -3.488   3.607  0.00  0.00     0.165 HD
HETATM   30  H   UNK     0     -24.627  -1.221   5.049  0.00  0.00     0.165 HD
HETATM   31  H   UNK     0     -23.123  -2.894   5.374  0.00  0.00     0.165 HD
HETATM   32  H   UNK     0     -25.091  -5.161   3.982  0.00  0.00     0.165 HD
ENDROOT
BRANCH   6  33
HETATM   33  C   UNK     0     -26.439   0.603   1.207  0.00  0.00     0.051 C 
BRANCH  33  34
HETATM   34  C   UNK     0     -25.505   1.484   2.002  0.00  0.00     0.114 C 
BRANCH  34  35
HETATM   35  C   UNK     0     -26.196   2.789   2.214  0.00  0.00     0.139 C 
HETATM   36  O   UNK     0     -25.781   3.832   1.631  0.00  0.00    -0.650 OA
BRANCH  35  37
HETATM   37  O   UNK     0     -27.305   2.923   3.041  0.00  0.00    -0.776 OA
HETATM   38  H   UNK     0     -27.763   3.810   3.181  0.00  0.00     0.167 HD
ENDBRANCH  35  37
ENDBRANCH  34  35
ENDBRANCH  33  34
ENDBRANCH   6  33
BRANCH  27  39
HETATM   39  C   UNK     0     -20.614  -5.729   2.489  0.00  0.00     0.051 C 
BRANCH  39  40
HETATM   40  C   UNK     0     -20.251  -7.094   2.108  0.00  0.00     0.114 C 
BRANCH  40  41
HETATM   41  C   UNK     0     -19.309  -7.374   1.048  0.00  0.00     0.139 C 
HETATM   42  O   UNK     0     -19.275  -6.747  -0.019  0.00  0.00    -0.650 OA
BRANCH  41  43
HETATM   43  O   UNK     0     -18.362  -8.423   1.224  0.00  0.00    -0.776 OA
HETATM   44  H   UNK     0     -17.555  -8.170   1.781  0.00  0.00     0.167 HD
ENDBRANCH  41  43
ENDBRANCH  40  41
ENDBRANCH  39  40
ENDBRANCH  27  39
BRANCH  11  45
HETATM   45  C   UNK     0     -27.272  -1.388   8.983  0.00  0.00     0.051 C 
BRANCH  45  46
HETATM   46  C   UNK     0     -27.573  -2.786   9.387  0.00  0.00     0.114 C 
BRANCH  46  47
HETATM   47  C   UNK     0     -27.207  -2.917  10.826  0.00  0.00     0.139 C 
HETATM   48  O   UNK     0     -26.381  -2.126  11.302  0.00  0.00    -0.650 OA
BRANCH  47  49
HETATM   49  O   UNK     0     -27.771  -3.894  11.608  0.00  0.00    -0.776 OA
HETATM   50  H   UNK     0     -28.031  -4.812  11.230  0.00  0.00     0.167 HD
ENDBRANCH  47  49
ENDBRANCH  46  47
ENDBRANCH  45  46
ENDBRANCH  11  45
BRANCH  18  51
HETATM   51  C   UNK     0     -22.988  -6.817   8.015  0.00  0.00     0.051 C 
BRANCH  51  52
HETATM   52  C   UNK     0     -24.297  -7.564   7.802  0.00  0.00     0.114 C 
BRANCH  52  53
HETATM   53  C   UNK     0     -24.666  -8.372   8.980  0.00  0.00     0.139 C 
HETATM   54  O   UNK     0     -24.249  -8.057  10.105  0.00  0.00    -0.650 OA
BRANCH  53  55
HETATM   55  O   UNK     0     -25.470  -9.475   8.822  0.00  0.00    -0.776 OA
HETATM   56  H   UNK     0     -25.434 -10.307   9.363  0.00  0.00     0.167 HD
ENDBRANCH  53  55
ENDBRANCH  52  53
ENDBRANCH  51  52
ENDBRANCH  18  51
TORSDOF 16
ENDMDL
MODEL 8
REMARK VINA RESULT:      -8.5      2.109      6.987
REMARK  16 active torsions:
REMARK  status: ('A' for Active; 'I' for Inactive)
REMARK    1  A    between atoms: C_6  and  C_7 
REMARK    2  A    between atoms: C_7  and  C_8 
REMARK    3  A    between atoms: C_8  and  C_9 
REMARK    4  A    between atoms: C_9  and  O_11 
REMARK    5  A    between atoms: C_16  and  C_17 
REMARK    6  A    between atoms: C_17  and  C_18 
REMARK    7  A    between atoms: C_18  and  C_19 
REMARK    8  A    between atoms: C_19  and  O_21 
REMARK    9  A    between atoms: C_28  and  C_29 
REMARK   10  A    between atoms: C_29  and  C_30 
REMARK   11  A    between atoms: C_30  and  C_31 
REMARK   12  A    between atoms: C_31  and  O_33 
REMARK   13  A    between atoms: C_42  and  C_43 
REMARK   14  A    between atoms: C_43  and  C_44 
REMARK   15  A    between atoms: C_44  and  C_45 
REMARK   16  A    between atoms: C_45  and  O_47 
ROOT
HETATM    1  C   UNK     0     -29.598   0.892   9.130  0.00  0.00     0.051 C 
HETATM    2  C   UNK     0     -29.068  -0.527   9.118  0.00  0.00    -0.031 A 
HETATM    3  C   UNK     0     -29.090  -1.466   8.099  0.00  0.00     0.021 A 
HETATM    4  N   UNK     0     -28.528  -2.614   8.545  0.00  0.00    -0.361 N 
HETATM    5  C   UNK     0     -28.141  -2.425   9.824  0.00  0.00     0.022 A 
HETATM    6  C   UNK     0     -28.466  -1.130  10.215  0.00  0.00    -0.027 A 
HETATM    7  C   UNK     0     -27.391  -3.344  10.737  0.00  0.00     0.115 C 
HETATM    8  C   UNK     0     -26.223  -4.102  10.132  0.00  0.00     0.021 A 
HETATM    9  N   UNK     0     -25.354  -3.691   9.196  0.00  0.00    -0.361 N 
HETATM   10  C   UNK     0     -24.541  -4.727   8.895  0.00  0.00     0.022 A 
HETATM   11  C   UNK     0     -24.891  -5.832   9.665  0.00  0.00    -0.027 A 
HETATM   12  C   UNK     0     -25.950  -5.446  10.447  0.00  0.00    -0.031 A 
HETATM   13  C   UNK     0     -26.661  -6.324  11.452  0.00  0.00     0.051 C 
HETATM   14  C   UNK     0     -23.443  -4.732   7.836  0.00  0.00     0.115 C 
HETATM   15  C   UNK     0     -23.946  -4.474   6.425  0.00  0.00     0.021 A 
HETATM   16  N   UNK     0     -24.618  -3.397   5.977  0.00  0.00    -0.361 N 
HETATM   17  C   UNK     0     -24.941  -3.585   4.695  0.00  0.00     0.022 A 
HETATM   18  C   UNK     0     -24.448  -4.840   4.287  0.00  0.00    -0.027 A 
HETATM   19  C   UNK     0     -23.826  -5.386   5.379  0.00  0.00    -0.031 A 
HETATM   20  C   UNK     0     -23.120  -6.730   5.364  0.00  0.00     0.051 C 
HETATM   21  C   UNK     0     -25.751  -2.716   3.760  0.00  0.00     0.115 C 
HETATM   22  C   UNK     0     -26.889  -1.921   4.357  0.00  0.00     0.022 A 
HETATM   23  N   UNK     0     -27.767  -2.303   5.292  0.00  0.00    -0.361 N 
HETATM   24  C   UNK     0     -28.516  -1.234   5.633  0.00  0.00     0.021 A 
HETATM   25  C   UNK     0     -28.116  -0.140   4.890  0.00  0.00    -0.031 A 
HETATM   26  C   UNK     0     -28.679   1.267   4.887  0.00  0.00     0.051 C 
HETATM   27  C   UNK     0     -27.076  -0.554   4.066  0.00  0.00    -0.027 A 
HETATM   28  C   UNK     0     -29.579  -1.150   6.714  0.00  0.00     0.115 C 
HETATM   29  H   UNK     0     -28.445  -3.564   7.967  0.00  0.00     0.165 HD
HETATM   30  H   UNK     0     -25.279  -2.656   8.782  0.00  0.00     0.165 HD
HETATM   31  H   UNK     0     -24.827  -2.464   6.562  0.00  0.00     0.165 HD
HETATM   32  H   UNK     0     -27.897  -3.343   5.691  0.00  0.00     0.165 HD
ENDROOT
BRANCH   6  33
HETATM   33  C   UNK     0     -28.253  -0.434  11.535  0.00  0.00     0.051 C 
BRANCH  33  34
HETATM   34  C   UNK     0     -29.369  -0.761  12.499  0.00  0.00     0.114 C 
BRANCH  34  35
HETATM   35  C   UNK     0     -28.779  -1.562  13.609  0.00  0.00     0.139 C 
HETATM   36  O   UNK     0     -29.527  -2.075  14.492  0.00  0.00    -0.650 OA
BRANCH  35  37
HETATM   37  O   UNK     0     -27.412  -1.783  13.730  0.00  0.00    -0.776 OA
HETATM   38  H   UNK     0     -26.881  -1.435  14.512  0.00  0.00     0.167 HD
ENDBRANCH  35  37
ENDBRANCH  34  35
ENDBRANCH  33  34
ENDBRANCH   6  33
BRANCH  27  39
HETATM   39  C   UNK     0     -26.431   0.337   3.064  0.00  0.00     0.051 C 
BRANCH  39  40
HETATM   40  C   UNK     0     -26.956   0.342   1.699  0.00  0.00     0.114 C 
BRANCH  40  41
HETATM   41  C   UNK     0     -26.492  -0.585   0.692  0.00  0.00     0.139 C 
HETATM   42  O   UNK     0     -27.230  -1.090  -0.165  0.00  0.00    -0.650 OA
BRANCH  41  43
HETATM   43  O   UNK     0     -25.115  -0.947   0.668  0.00  0.00    -0.776 OA
HETATM   44  H   UNK     0     -24.699  -0.954  -0.255  0.00  0.00     0.167 HD
ENDBRANCH  41  43
ENDBRANCH  40  41
ENDBRANCH  39  40
ENDBRANCH  27  39
BRANCH  11  45
HETATM   45  C   UNK     0     -24.268  -7.202   9.684  0.00  0.00     0.051 C 
BRANCH  45  46
HETATM   46  C   UNK     0     -24.642  -8.054   8.526  0.00  0.00     0.114 C 
BRANCH  46  47
HETATM   47  C   UNK     0     -25.761  -8.935   8.969  0.00  0.00     0.139 C 
HETATM   48  O   UNK     0     -26.896  -8.722   8.520  0.00  0.00    -0.650 OA
BRANCH  47  49
HETATM   49  O   UNK     0     -25.540  -9.958   9.855  0.00  0.00    -0.776 OA
HETATM   50  H   UNK     0     -24.676 -10.026  10.406  0.00  0.00     0.167 HD
ENDBRANCH  47  49
ENDBRANCH  46  47
ENDBRANCH  45  46
ENDBRANCH  11  45
BRANCH  18  51
HETATM   51  C   UNK     0     -24.547  -5.475   2.924  0.00  0.00     0.051 C 
BRANCH  51  52
HETATM   52  C   UNK     0     -23.597  -4.699   2.023  0.00  0.00     0.114 C 
BRANCH  52  53
HETATM   53  C   UNK     0     -22.210  -5.189   2.135  0.00  0.00     0.139 C 
HETATM   54  O   UNK     0     -21.324  -4.447   2.589  0.00  0.00    -0.650 OA
BRANCH  53  55
HETATM   55  O   UNK     0     -21.905  -6.466   1.731  0.00  0.00    -0.776 OA
HETATM   56  H   UNK     0     -22.478  -7.054   1.173  0.00  0.00     0.167 HD
ENDBRANCH  53  55
ENDBRANCH  52  53
ENDBRANCH  51  52
ENDBRANCH  18  51
TORSDOF 16
ENDMDL
MODEL 9
REMARK VINA RESULT:      -8.4      2.247      8.525
REMARK  16 active torsions:
REMARK  status: ('A' for Active; 'I' for Inactive)
REMARK    1  A    between atoms: C_6  and  C_7 
REMARK    2  A    between atoms: C_7  and  C_8 
REMARK    3  A    between atoms: C_8  and  C_9 
REMARK    4  A    between atoms: C_9  and  O_11 
REMARK    5  A    between atoms: C_16  and  C_17 
REMARK    6  A    between atoms: C_17  and  C_18 
REMARK    7  A    between atoms: C_18  and  C_19 
REMARK    8  A    between atoms: C_19  and  O_21 
REMARK    9  A    between atoms: C_28  and  C_29 
REMARK   10  A    between atoms: C_29  and  C_30 
REMARK   11  A    between atoms: C_30  and  C_31 
REMARK   12  A    between atoms: C_31  and  O_33 
REMARK   13  A    between atoms: C_42  and  C_43 
REMARK   14  A    between atoms: C_43  and  C_44 
REMARK   15  A    between atoms: C_44  and  C_45 
REMARK   16  A    between atoms: C_45  and  O_47 
ROOT
HETATM    1  C   UNK     0     -26.478  -1.512   2.236  0.00  0.00     0.051 C 
HETATM    2  C   UNK     0     -25.878  -2.301   3.382  0.00  0.00    -0.031 A 
HETATM    3  C   UNK     0     -25.698  -1.931   4.706  0.00  0.00     0.021 A 
HETATM    4  N   UNK     0     -25.092  -2.945   5.369  0.00  0.00    -0.361 N 
HETATM    5  C   UNK     0     -24.890  -3.956   4.499  0.00  0.00     0.022 A 
HETATM    6  C   UNK     0     -25.368  -3.585   3.246  0.00  0.00    -0.027 A 
HETATM    7  C   UNK     0     -24.345  -5.328   4.744  0.00  0.00     0.115 C 
HETATM    8  C   UNK     0     -24.830  -6.041   5.994  0.00  0.00     0.021 A 
HETATM    9  N   UNK     0     -26.045  -5.999   6.562  0.00  0.00    -0.361 N 
HETATM   10  C   UNK     0     -25.997  -6.712   7.707  0.00  0.00     0.022 A 
HETATM   11  C   UNK     0     -24.718  -7.235   7.877  0.00  0.00    -0.027 A 
HETATM   12  C   UNK     0     -23.978  -6.816   6.800  0.00  0.00    -0.031 A 
HETATM   13  C   UNK     0     -22.523  -7.150   6.557  0.00  0.00     0.051 C 
HETATM   14  C   UNK     0     -27.134  -6.884   8.710  0.00  0.00     0.115 C 
HETATM   15  C   UNK     0     -27.616  -5.579   9.324  0.00  0.00     0.021 A 
HETATM   16  N   UNK     0     -28.108  -4.502   8.682  0.00  0.00    -0.361 N 
HETATM   17  C   UNK     0     -28.352  -3.536   9.571  0.00  0.00     0.022 A 
HETATM   18  C   UNK     0     -28.011  -4.009  10.853  0.00  0.00    -0.027 A 
HETATM   19  C   UNK     0     -27.553  -5.290  10.685  0.00  0.00    -0.031 A 
HETATM   20  C   UNK     0     -27.111  -6.185  11.828  0.00  0.00     0.051 C 
HETATM   21  C   UNK     0     -28.837  -2.120   9.358  0.00  0.00     0.115 C 
HETATM   22  C   UNK     0     -28.398  -1.414   8.097  0.00  0.00     0.022 A 
HETATM   23  N   UNK     0     -27.197  -1.441   7.506  0.00  0.00    -0.361 N 
HETATM   24  C   UNK     0     -27.289  -0.790   6.329  0.00  0.00     0.021 A 
HETATM   25  C   UNK     0     -28.579  -0.324   6.162  0.00  0.00    -0.031 A 
HETATM   26  C   UNK     0     -29.157   0.494   5.026  0.00  0.00     0.051 C 
HETATM   27  C   UNK     0     -29.308  -0.711   7.281  0.00  0.00    -0.027 A 
HETATM   28  C   UNK     0     -26.215  -0.636   5.265  0.00  0.00     0.115 C 
HETATM   29  H   UNK     0     -24.776  -2.924   6.437  0.00  0.00     0.165 HD
HETATM   30  H   UNK     0     -26.953  -5.509   6.132  0.00  0.00     0.165 HD
HETATM   31  H   UNK     0     -28.334  -4.439   7.586  0.00  0.00     0.165 HD
HETATM   32  H   UNK     0     -26.260  -1.883   7.935  0.00  0.00     0.165 HD
ENDROOT
BRANCH   6  33
HETATM   33  C   UNK     0     -25.373  -4.348   1.945  0.00  0.00     0.051 C 
BRANCH  33  34
HETATM   34  C   UNK     0     -24.205  -3.939   1.080  0.00  0.00     0.114 C 
BRANCH  34  35
HETATM   35  C   UNK     0     -23.049  -4.804   1.453  0.00  0.00     0.139 C 
HETATM   36  O   UNK     0     -23.100  -6.054   1.260  0.00  0.00    -0.650 OA
BRANCH  35  37
HETATM   37  O   UNK     0     -21.883  -4.296   2.015  0.00  0.00    -0.776 OA
HETATM   38  H   UNK     0     -21.894  -3.736   2.852  0.00  0.00     0.167 HD
ENDBRANCH  35  37
ENDBRANCH  34  35
ENDBRANCH  33  34
ENDBRANCH   6  33
BRANCH  27  39
HETATM   39  C   UNK     0     -30.729  -0.326   7.495  0.00  0.00     0.051 C 
BRANCH  39  40
HETATM   40  C   UNK     0     -31.012   0.909   8.225  0.00  0.00     0.114 C 
BRANCH  40  41
HETATM   41  C   UNK     0     -30.144   1.401   9.272  0.00  0.00     0.139 C 
HETATM   42  O   UNK     0     -30.234   1.049  10.456  0.00  0.00    -0.650 OA
BRANCH  41  43
HETATM   43  O   UNK     0     -29.127   2.341   8.942  0.00  0.00    -0.776 OA
HETATM   44  H   UNK     0     -28.548   2.623   9.723  0.00  0.00     0.167 HD
ENDBRANCH  41  43
ENDBRANCH  40  41
ENDBRANCH  39  40
ENDBRANCH  27  39
BRANCH  11  45
HETATM   45  C   UNK     0     -24.194  -8.097   8.993  0.00  0.00     0.051 C 
BRANCH  45  46
HETATM   46  C   UNK     0     -24.036  -7.383  10.287  0.00  0.00     0.114 C 
BRANCH  46  47
HETATM   47  C   UNK     0     -24.409  -8.340  11.367  0.00  0.00     0.139 C 
HETATM   48  O   UNK     0     -23.882  -8.210  12.481  0.00  0.00    -0.650 OA
BRANCH  47  49
HETATM   49  O   UNK     0     -25.314  -9.345  11.135  0.00  0.00    -0.776 OA
HETATM   50  H   UNK     0     -25.262  -9.944  10.302  0.00  0.00     0.167 HD
ENDBRANCH  47  49
ENDBRANCH  46  47
ENDBRANCH  45  46
ENDBRANCH  11  45
BRANCH  18  51
HETATM   51  C   UNK     0     -28.136  -3.287  12.170  0.00  0.00     0.051 C 
BRANCH  51  52
HETATM   52  C   UNK     0     -29.533  -3.589  12.691  0.00  0.00     0.114 C 
BRANCH  52  53
HETATM   53  C   UNK     0     -29.516  -3.989  14.111  0.00  0.00     0.139 C 
HETATM   54  O   UNK     0     -28.833  -3.350  14.929  0.00  0.00    -0.650 OA
BRANCH  53  55
HETATM   55  O   UNK     0     -30.254  -5.072  14.522  0.00  0.00    -0.776 OA
HETATM   56  H   UNK     0     -30.921  -5.079  15.257  0.00  0.00     0.167 HD
ENDBRANCH  53  55
ENDBRANCH  52  53
ENDBRANCH  51  52
ENDBRANCH  18  51
TORSDOF 16
ENDMDL
MODEL 10
REMARK VINA RESULT:      -8.3      7.405     11.207
REMARK  16 active torsions:
REMARK  status: ('A' for Active; 'I' for Inactive)
REMARK    1  A    between atoms: C_6  and  C_7 
REMARK    2  A    between atoms: C_7  and  C_8 
REMARK    3  A    between atoms: C_8  and  C_9 
REMARK    4  A    between atoms: C_9  and  O_11 
REMARK    5  A    between atoms: C_16  and  C_17 
REMARK    6  A    between atoms: C_17  and  C_18 
REMARK    7  A    between atoms: C_18  and  C_19 
REMARK    8  A    between atoms: C_19  and  O_21 
REMARK    9  A    between atoms: C_28  and  C_29 
REMARK   10  A    between atoms: C_29  and  C_30 
REMARK   11  A    between atoms: C_30  and  C_31 
REMARK   12  A    between atoms: C_31  and  O_33 
REMARK   13  A    between atoms: C_42  and  C_43 
REMARK   14  A    between atoms: C_43  and  C_44 
REMARK   15  A    between atoms: C_44  and  C_45 
REMARK   16  A    between atoms: C_45  and  O_47 
ROOT
HETATM    1  C   UNK     0     -14.714  -6.452   3.090  0.00  0.00     0.051 C 
HETATM    2  C   UNK     0     -16.103  -5.853   2.995  0.00  0.00    -0.031 A 
HETATM    3  C   UNK     0     -16.604  -4.932   2.089  0.00  0.00     0.021 A 
HETATM    4  N   UNK     0     -17.892  -4.659   2.404  0.00  0.00    -0.361 N 
HETATM    5  C   UNK     0     -18.226  -5.393   3.485  0.00  0.00     0.022 A 
HETATM    6  C   UNK     0     -17.129  -6.150   3.883  0.00  0.00    -0.027 A 
HETATM    7  C   UNK     0     -19.549  -5.530   4.171  0.00  0.00     0.115 C 
HETATM    8  C   UNK     0     -20.770  -5.658   3.278  0.00  0.00     0.021 A 
HETATM    9  N   UNK     0     -20.880  -6.284   2.096  0.00  0.00    -0.361 N 
HETATM   10  C   UNK     0     -22.122  -6.062   1.617  0.00  0.00     0.022 A 
HETATM   11  C   UNK     0     -22.836  -5.279   2.520  0.00  0.00    -0.027 A 
HETATM   12  C   UNK     0     -21.990  -5.021   3.569  0.00  0.00    -0.031 A 
HETATM   13  C   UNK     0     -22.340  -4.206   4.793  0.00  0.00     0.051 C 
HETATM   14  C   UNK     0     -22.667  -6.531   0.271  0.00  0.00     0.115 C 
HETATM   15  C   UNK     0     -21.906  -5.984  -0.926  0.00  0.00     0.021 A 
HETATM   16  N   UNK     0     -20.597  -6.131  -1.204  0.00  0.00    -0.361 N 
HETATM   17  C   UNK     0     -20.303  -5.441  -2.309  0.00  0.00     0.022 A 
HETATM   18  C   UNK     0     -21.479  -4.822  -2.777  0.00  0.00    -0.027 A 
HETATM   19  C   UNK     0     -22.476  -5.171  -1.903  0.00  0.00    -0.031 A 
HETATM   20  C   UNK     0     -23.923  -4.743  -2.060  0.00  0.00     0.051 C 
HETATM   21  C   UNK     0     -18.973  -5.224  -2.994  0.00  0.00     0.115 C 
HETATM   22  C   UNK     0     -17.744  -5.139  -2.120  0.00  0.00     0.022 A 
HETATM   23  N   UNK     0     -17.607  -4.526  -0.936  0.00  0.00    -0.361 N 
HETATM   24  C   UNK     0     -16.389  -4.826  -0.442  0.00  0.00     0.021 A 
HETATM   25  C   UNK     0     -15.721  -5.643  -1.334  0.00  0.00    -0.031 A 
HETATM   26  C   UNK     0     -14.318  -6.207  -1.243  0.00  0.00     0.051 C 
HETATM   27  C   UNK     0     -16.568  -5.857  -2.415  0.00  0.00    -0.027 A 
HETATM   28  C   UNK     0     -15.814  -4.440   0.909  0.00  0.00     0.115 C 
HETATM   29  H   UNK     0     -18.545  -3.920   1.884  0.00  0.00     0.165 HD
HETATM   30  H   UNK     0     -20.098  -6.925   1.620  0.00  0.00     0.165 HD
HETATM   31  H   UNK     0     -19.875  -6.774  -0.637  0.00  0.00     0.165 HD
HETATM   32  H   UNK     0     -18.354  -3.840  -0.458  0.00  0.00     0.165 HD
ENDROOT
BRANCH   6  33
HETATM   33  C   UNK     0     -16.982  -7.119   5.029  0.00  0.00     0.051 C 
BRANCH  33  34
HETATM   34  C   UNK     0     -16.964  -6.387   6.350  0.00  0.00     0.114 C 
BRANCH  34  35
HETATM   35  C   UNK     0     -15.856  -5.390   6.292  0.00  0.00     0.139 C 
HETATM   36  O   UNK     0     -16.109  -4.152   6.361  0.00  0.00    -0.650 OA
BRANCH  35  37
HETATM   37  O   UNK     0     -14.523  -5.759   6.166  0.00  0.00    -0.776 OA
HETATM   38  H   UNK     0     -13.802  -5.091   5.946  0.00  0.00     0.167 HD
ENDBRANCH  35  37
ENDBRANCH  34  35
ENDBRANCH  33  34
ENDBRANCH   6  33
BRANCH  27  39
HETATM   39  C   UNK     0     -16.165  -6.637  -3.618  0.00  0.00     0.051 C 
BRANCH  39  40
HETATM   40  C   UNK     0     -16.352  -8.087  -3.599  0.00  0.00     0.114 C 
BRANCH  40  41
HETATM   41  C   UNK     0     -17.486  -8.710  -2.954  0.00  0.00     0.139 C 
HETATM   42  O   UNK     0     -17.456  -9.155  -1.798  0.00  0.00    -0.650 OA
BRANCH  41  43
HETATM   43  O   UNK     0     -18.710  -8.828  -3.672  0.00  0.00    -0.776 OA
HETATM   44  H   UNK     0     -19.109  -9.759  -3.669  0.00  0.00     0.167 HD
ENDBRANCH  41  43
ENDBRANCH  40  41
ENDBRANCH  39  40
ENDBRANCH  27  39
BRANCH  11  45
HETATM   45  C   UNK     0     -24.254  -4.785   2.422  0.00  0.00     0.051 C 
BRANCH  45  46
HETATM   46  C   UNK     0     -25.277  -5.806   2.766  0.00  0.00     0.114 C 
BRANCH  46  47
HETATM   47  C   UNK     0     -26.302  -5.786   1.683  0.00  0.00     0.139 C 
HETATM   48  O   UNK     0     -27.274  -5.027   1.802  0.00  0.00    -0.650 OA
BRANCH  47  49
HETATM   49  O   UNK     0     -26.174  -6.591   0.580  0.00  0.00    -0.776 OA
HETATM   50  H   UNK     0     -26.519  -6.307  -0.345  0.00  0.00     0.167 HD
ENDBRANCH  47  49
ENDBRANCH  46  47
ENDBRANCH  45  46
ENDBRANCH  11  45
BRANCH  18  51
HETATM   51  C   UNK     0     -21.647  -3.962  -4.003  0.00  0.00     0.051 C 
BRANCH  51  52
HETATM   52  C   UNK     0     -21.972  -4.911  -5.148  0.00  0.00     0.114 C 
BRANCH  52  53
HETATM   53  C   UNK     0     -21.227  -4.568  -6.374  0.00  0.00     0.139 C 
HETATM   54  O   UNK     0     -20.000  -4.385  -6.326  0.00  0.00    -0.650 OA
BRANCH  53  55
HETATM   55  O   UNK     0     -21.899  -4.449  -7.567  0.00  0.00    -0.776 OA
HETATM   56  H   UNK     0     -22.774  -3.999  -7.702  0.00  0.00     0.167 HD
ENDBRANCH  53  55
ENDBRANCH  52  53
ENDBRANCH  51  52
ENDBRANCH  18  51
TORSDOF 16
ENDMDL
MODEL 11
REMARK VINA RESULT:      -8.3      7.086     12.693
REMARK  16 active torsions:
REMARK  status: ('A' for Active; 'I' for Inactive)
REMARK    1  A    between atoms: C_6  and  C_7 
REMARK    2  A    between atoms: C_7  and  C_8 
REMARK    3  A    between atoms: C_8  and  C_9 
REMARK    4  A    between atoms: C_9  and  O_11 
REMARK    5  A    between atoms: C_16  and  C_17 
REMARK    6  A    between atoms: C_17  and  C_18 
REMARK    7  A    between atoms: C_18  and  C_19 
REMARK    8  A    between atoms: C_19  and  O_21 
REMARK    9  A    between atoms: C_28  and  C_29 
REMARK   10  A    between atoms: C_29  and  C_30 
REMARK   11  A    between atoms: C_30  and  C_31 
REMARK   12  A    between atoms: C_31  and  O_33 
REMARK   13  A    between atoms: C_42  and  C_43 
REMARK   14  A    between atoms: C_43  and  C_44 
REMARK   15  A    between atoms: C_44  and  C_45 
REMARK   16  A    between atoms: C_45  and  O_47 
ROOT
HETATM    1  C   UNK     0     -19.529  -6.764   6.194  0.00  0.00     0.051 C 
HETATM    2  C   UNK     0     -19.797  -6.047   4.887  0.00  0.00    -0.031 A 
HETATM    3  C   UNK     0     -18.923  -5.344   4.073  0.00  0.00     0.021 A 
HETATM    4  N   UNK     0     -19.608  -4.843   3.018  0.00  0.00    -0.361 N 
HETATM    5  C   UNK     0     -20.898  -5.219   3.137  0.00  0.00     0.022 A 
HETATM    6  C   UNK     0     -21.052  -5.971   4.296  0.00  0.00    -0.027 A 
HETATM    7  C   UNK     0     -22.042  -5.008   2.195  0.00  0.00     0.115 C 
HETATM    8  C   UNK     0     -21.756  -5.217   0.718  0.00  0.00     0.021 A 
HETATM    9  N   UNK     0     -20.942  -6.115   0.143  0.00  0.00    -0.361 N 
HETATM   10  C   UNK     0     -20.927  -5.878  -1.186  0.00  0.00     0.022 A 
HETATM   11  C   UNK     0     -21.762  -4.803  -1.476  0.00  0.00    -0.027 A 
HETATM   12  C   UNK     0     -22.288  -4.382  -0.281  0.00  0.00    -0.031 A 
HETATM   13  C   UNK     0     -23.260  -3.236  -0.109  0.00  0.00     0.051 C 
HETATM   14  C   UNK     0     -20.087  -6.616  -2.224  0.00  0.00     0.115 C 
HETATM   15  C   UNK     0     -18.588  -6.502  -1.998  0.00  0.00     0.021 A 
HETATM   16  N   UNK     0     -17.891  -6.877  -0.909  0.00  0.00    -0.361 N 
HETATM   17  C   UNK     0     -16.608  -6.544  -1.074  0.00  0.00     0.022 A 
HETATM   18  C   UNK     0     -16.461  -5.932  -2.335  0.00  0.00    -0.027 A 
HETATM   19  C   UNK     0     -17.708  -5.914  -2.904  0.00  0.00    -0.031 A 
HETATM   20  C   UNK     0     -17.994  -5.369  -4.291  0.00  0.00     0.051 C 
HETATM   21  C   UNK     0     -15.440  -6.679  -0.124  0.00  0.00     0.115 C 
HETATM   22  C   UNK     0     -15.717  -6.517   1.352  0.00  0.00     0.022 A 
HETATM   23  N   UNK     0     -16.527  -5.634   1.952  0.00  0.00    -0.361 N 
HETATM   24  C   UNK     0     -16.587  -5.939   3.264  0.00  0.00     0.021 A 
HETATM   25  C   UNK     0     -15.789  -7.038   3.517  0.00  0.00    -0.031 A 
HETATM   26  C   UNK     0     -15.502  -7.724   4.836  0.00  0.00     0.051 C 
HETATM   27  C   UNK     0     -15.221  -7.426   2.308  0.00  0.00    -0.027 A 
HETATM   28  C   UNK     0     -17.444  -5.282   4.332  0.00  0.00     0.115 C 
HETATM   29  H   UNK     0     -19.183  -4.194   2.217  0.00  0.00     0.165 HD
HETATM   30  H   UNK     0     -20.414  -6.950   0.666  0.00  0.00     0.165 HD
HETATM   31  H   UNK     0     -18.302  -7.430  -0.025  0.00  0.00     0.165 HD
HETATM   32  H   UNK     0     -17.030  -4.761   1.461  0.00  0.00     0.165 HD
ENDROOT
BRANCH   6  33
HETATM   33  C   UNK     0     -22.286  -6.613   4.880  0.00  0.00     0.051 C 
BRANCH  33  34
HETATM   34  C   UNK     0     -22.782  -5.832   6.074  0.00  0.00     0.114 C 
BRANCH  34  35
HETATM   35  C   UNK     0     -23.320  -4.537   5.567  0.00  0.00     0.139 C 
HETATM   36  O   UNK     0     -24.357  -4.518   4.843  0.00  0.00    -0.650 OA
BRANCH  35  37
HETATM   37  O   UNK     0     -22.728  -3.314   5.859  0.00  0.00    -0.776 OA
HETATM   38  H   UNK     0     -23.179  -2.438   5.650  0.00  0.00     0.167 HD
ENDBRANCH  35  37
ENDBRANCH  34  35
ENDBRANCH  33  34
ENDBRANCH   6  33
BRANCH  27  39
HETATM   39  C   UNK     0     -14.239  -8.538   2.194  0.00  0.00     0.051 C 
BRANCH  39  40
HETATM   40  C   UNK     0     -14.609  -9.711   1.402  0.00  0.00     0.114 C 
BRANCH  40  41
HETATM   41  C   UNK     0     -14.811 -11.012   2.000  0.00  0.00     0.139 C 
HETATM   42  O   UNK     0     -15.906 -11.408   2.420  0.00  0.00    -0.650 OA
BRANCH  41  43
HETATM   43  O   UNK     0     -13.702 -11.897   2.120  0.00  0.00    -0.776 OA
HETATM   44  H   UNK     0     -13.169 -11.787   2.975  0.00  0.00     0.167 HD
ENDBRANCH  41  43
ENDBRANCH  40  41
ENDBRANCH  39  40
ENDBRANCH  27  39
BRANCH  11  45
HETATM   45  C   UNK     0     -22.070  -4.184  -2.813  0.00  0.00     0.051 C 
BRANCH  45  46
HETATM   46  C   UNK     0     -22.112  -5.155  -3.935  0.00  0.00     0.114 C 
BRANCH  46  47
HETATM   47  C   UNK     0     -21.478  -4.496  -5.113  0.00  0.00     0.139 C 
HETATM   48  O   UNK     0     -20.856  -3.440  -4.937  0.00  0.00    -0.650 OA
BRANCH  47  49
HETATM   49  O   UNK     0     -21.582  -5.046  -6.366  0.00  0.00    -0.776 OA
HETATM   50  H   UNK     0     -22.490  -5.268  -6.791  0.00  0.00     0.167 HD
ENDBRANCH  47  49
ENDBRANCH  46  47
ENDBRANCH  45  46
ENDBRANCH  11  45
BRANCH  18  51
HETATM   51  C   UNK     0     -15.198  -5.414  -2.971  0.00  0.00     0.051 C 
BRANCH  51  52
HETATM   52  C   UNK     0     -15.006  -3.999  -2.445  0.00  0.00     0.114 C 
BRANCH  52  53
HETATM   53  C   UNK     0     -14.072  -3.223  -3.284  0.00  0.00     0.139 C 
HETATM   54  O   UNK     0     -14.212  -3.205  -4.517  0.00  0.00    -0.650 OA
BRANCH  53  55
HETATM   55  O   UNK     0     -13.046  -2.526  -2.692  0.00  0.00    -0.776 OA
HETATM   56  H   UNK     0     -13.130  -1.908  -1.920  0.00  0.00     0.167 HD
ENDBRANCH  53  55
ENDBRANCH  52  53
ENDBRANCH  51  52
ENDBRANCH  18  51
TORSDOF 16
ENDMDL
MODEL 12
REMARK VINA RESULT:      -8.2      2.281      8.159
REMARK  16 active torsions:
REMARK  status: ('A' for Active; 'I' for Inactive)
REMARK    1  A    between atoms: C_6  and  C_7 
REMARK    2  A    between atoms: C_7  and  C_8 
REMARK    3  A    between atoms: C_8  and  C_9 
REMARK    4  A    between atoms: C_9  and  O_11 
REMARK    5  A    between atoms: C_16  and  C_17 
REMARK    6  A    between atoms: C_17  and  C_18 
REMARK    7  A    between atoms: C_18  and  C_19 
REMARK    8  A    between atoms: C_19  and  O_21 
REMARK    9  A    between atoms: C_28  and  C_29 
REMARK   10  A    between atoms: C_29  and  C_30 
REMARK   11  A    between atoms: C_30  and  C_31 
REMARK   12  A    between atoms: C_31  and  O_33 
REMARK   13  A    between atoms: C_42  and  C_43 
REMARK   14  A    between atoms: C_43  and  C_44 
REMARK   15  A    between atoms: C_44  and  C_45 
REMARK   16  A    between atoms: C_45  and  O_47 
ROOT
HETATM    1  C   UNK     0     -26.498  -1.430   1.983  0.00  0.00     0.051 C 
HETATM    2  C   UNK     0     -25.870  -2.207   3.122  0.00  0.00    -0.031 A 
HETATM    3  C   UNK     0     -25.679  -1.831   4.443  0.00  0.00     0.021 A 
HETATM    4  N   UNK     0     -25.048  -2.834   5.100  0.00  0.00    -0.361 N 
HETATM    5  C   UNK     0     -24.842  -3.843   4.229  0.00  0.00     0.022 A 
HETATM    6  C   UNK     0     -25.341  -3.483   2.982  0.00  0.00    -0.027 A 
HETATM    7  C   UNK     0     -24.271  -5.206   4.470  0.00  0.00     0.115 C 
HETATM    8  C   UNK     0     -24.728  -5.924   5.727  0.00  0.00     0.021 A 
HETATM    9  N   UNK     0     -25.936  -5.900   6.312  0.00  0.00    -0.361 N 
HETATM   10  C   UNK     0     -25.862  -6.609   7.458  0.00  0.00     0.022 A 
HETATM   11  C   UNK     0     -24.573  -7.112   7.611  0.00  0.00    -0.027 A 
HETATM   12  C   UNK     0     -23.854  -6.684   6.524  0.00  0.00    -0.031 A 
HETATM   13  C   UNK     0     -22.397  -6.995   6.263  0.00  0.00     0.051 C 
HETATM   14  C   UNK     0     -26.982  -6.796   8.477  0.00  0.00     0.115 C 
HETATM   15  C   UNK     0     -27.477  -5.498   9.093  0.00  0.00     0.021 A 
HETATM   16  N   UNK     0     -27.995  -4.431   8.456  0.00  0.00    -0.361 N 
HETATM   17  C   UNK     0     -28.242  -3.467   9.346  0.00  0.00     0.022 A 
HETATM   18  C   UNK     0     -27.876  -3.931  10.625  0.00  0.00    -0.027 A 
HETATM   19  C   UNK     0     -27.401  -5.205  10.453  0.00  0.00    -0.031 A 
HETATM   20  C   UNK     0     -26.929  -6.091  11.592  0.00  0.00     0.051 C 
HETATM   21  C   UNK     0     -28.752  -2.059   9.137  0.00  0.00     0.115 C 
HETATM   22  C   UNK     0     -28.341  -1.349   7.868  0.00  0.00     0.022 A 
HETATM   23  N   UNK     0     -27.147  -1.359   7.261  0.00  0.00    -0.361 N 
HETATM   24  C   UNK     0     -27.266  -0.712   6.084  0.00  0.00     0.021 A 
HETATM   25  C   UNK     0     -28.565  -0.267   5.934  0.00  0.00    -0.031 A 
HETATM   26  C   UNK     0     -29.171   0.540   4.804  0.00  0.00     0.051 C 
HETATM   27  C   UNK     0     -29.272  -0.662   7.063  0.00  0.00    -0.027 A 
HETATM   28  C   UNK     0     -26.209  -0.543   5.006  0.00  0.00     0.115 C 
HETATM   29  H   UNK     0     -24.718  -2.805   6.164  0.00  0.00     0.165 HD
HETATM   30  H   UNK     0     -26.857  -5.425   5.893  0.00  0.00     0.165 HD
HETATM   31  H   UNK     0     -28.236  -4.373   7.363  0.00  0.00     0.165 HD
HETATM   32  H   UNK     0     -26.198  -1.785   7.679  0.00  0.00     0.165 HD
ENDROOT
BRANCH   6  33
HETATM   33  C   UNK     0     -25.352  -4.249   1.683  0.00  0.00     0.051 C 
BRANCH  33  34
HETATM   34  C   UNK     0     -25.757  -5.686   1.913  0.00  0.00     0.114 C 
BRANCH  34  35
HETATM   35  C   UNK     0     -27.058  -5.900   1.216  0.00  0.00     0.139 C 
HETATM   36  O   UNK     0     -27.100  -6.552   0.132  0.00  0.00    -0.650 OA
BRANCH  35  37
HETATM   37  O   UNK     0     -28.261  -5.410   1.709  0.00  0.00    -0.776 OA
HETATM   38  H   UNK     0     -28.591  -5.634   2.634  0.00  0.00     0.167 HD
ENDBRANCH  35  37
ENDBRANCH  34  35
ENDBRANCH  33  34
ENDBRANCH   6  33
BRANCH  27  39
HETATM   39  C   UNK     0     -30.697  -0.300   7.295  0.00  0.00     0.051 C 
BRANCH  39  40
HETATM   40  C   UNK     0     -30.989   0.930   8.031  0.00  0.00     0.114 C 
BRANCH  40  41
HETATM   41  C   UNK     0     -30.150   1.399   9.111  0.00  0.00     0.139 C 
HETATM   42  O   UNK     0     -29.221   2.202   8.955  0.00  0.00    -0.650 OA
BRANCH  41  43
HETATM   43  O   UNK     0     -30.392   0.923  10.431  0.00  0.00    -0.776 OA
HETATM   44  H   UNK     0     -29.847   0.109  10.689  0.00  0.00     0.167 HD
ENDBRANCH  41  43
ENDBRANCH  40  41
ENDBRANCH  39  40
ENDBRANCH  27  39
BRANCH  11  45
HETATM   45  C   UNK     0     -24.020  -7.962   8.723  0.00  0.00     0.051 C 
BRANCH  45  46
HETATM   46  C   UNK     0     -23.595  -7.194   9.921  0.00  0.00     0.114 C 
BRANCH  46  47
HETATM   47  C   UNK     0     -24.005  -7.981  11.119  0.00  0.00     0.139 C 
HETATM   48  O   UNK     0     -23.694  -7.557  12.241  0.00  0.00    -0.650 OA
BRANCH  47  49
HETATM   49  O   UNK     0     -24.710  -9.150  10.984  0.00  0.00    -0.776 OA
HETATM   50  H   UNK     0     -24.656  -9.903  11.680  0.00  0.00     0.167 HD
ENDBRANCH  47  49
ENDBRANCH  46  47
ENDBRANCH  45  46
ENDBRANCH  11  45
BRANCH  18  51
HETATM   51  C   UNK     0     -27.995  -3.208  11.942  0.00  0.00     0.051 C 
BRANCH  51  52
HETATM   52  C   UNK     0     -27.012  -2.048  11.881  0.00  0.00     0.114 C 
BRANCH  52  53
HETATM   53  C   UNK     0     -25.624  -2.513  11.690  0.00  0.00     0.139 C 
HETATM   54  O   UNK     0     -25.026  -3.079  12.619  0.00  0.00    -0.650 OA
BRANCH  53  55
HETATM   55  O   UNK     0     -25.000  -2.313  10.483  0.00  0.00    -0.776 OA
HETATM   56  H   UNK     0     -25.442  -2.052   9.633  0.00  0.00     0.167 HD
ENDBRANCH  53  55
ENDBRANCH  52  53
ENDBRANCH  51  52
ENDBRANCH  18  51
TORSDOF 16
ENDMDL
MODEL 13
REMARK VINA RESULT:      -8.1      2.504      7.147
REMARK  16 active torsions:
REMARK  status: ('A' for Active; 'I' for Inactive)
REMARK    1  A    between atoms: C_6  and  C_7 
REMARK    2  A    between atoms: C_7  and  C_8 
REMARK    3  A    between atoms: C_8  and  C_9 
REMARK    4  A    between atoms: C_9  and  O_11 
REMARK    5  A    between atoms: C_16  and  C_17 
REMARK    6  A    between atoms: C_17  and  C_18 
REMARK    7  A    between atoms: C_18  and  C_19 
REMARK    8  A    between atoms: C_19  and  O_21 
REMARK    9  A    between atoms: C_28  and  C_29 
REMARK   10  A    between atoms: C_29  and  C_30 
REMARK   11  A    between atoms: C_30  and  C_31 
REMARK   12  A    between atoms: C_31  and  O_33 
REMARK   13  A    between atoms: C_42  and  C_43 
REMARK   14  A    between atoms: C_43  and  C_44 
REMARK   15  A    between atoms: C_44  and  C_45 
REMARK   16  A    between atoms: C_45  and  O_47 
ROOT
HETATM    1  C   UNK     0     -23.916  -7.929   8.670  0.00  0.00     0.051 C 
HETATM    2  C   UNK     0     -24.600  -7.184   7.542  0.00  0.00    -0.031 A 
HETATM    3  C   UNK     0     -25.907  -6.733   7.451  0.00  0.00     0.021 A 
HETATM    4  N   UNK     0     -26.089  -6.145   6.245  0.00  0.00    -0.361 N 
HETATM    5  C   UNK     0     -24.923  -6.204   5.568  0.00  0.00     0.022 A 
HETATM    6  C   UNK     0     -23.971  -6.850   6.350  0.00  0.00    -0.027 A 
HETATM    7  C   UNK     0     -24.564  -5.621   4.237  0.00  0.00     0.115 C 
HETATM    8  C   UNK     0     -25.056  -4.213   3.955  0.00  0.00     0.021 A 
HETATM    9  N   UNK     0     -25.180  -3.184   4.807  0.00  0.00    -0.361 N 
HETATM   10  C   UNK     0     -25.743  -2.153   4.142  0.00  0.00     0.022 A 
HETATM   11  C   UNK     0     -25.979  -2.525   2.821  0.00  0.00    -0.027 A 
HETATM   12  C   UNK     0     -25.548  -3.821   2.697  0.00  0.00    -0.031 A 
HETATM   13  C   UNK     0     -25.603  -4.642   1.428  0.00  0.00     0.051 C 
HETATM   14  C   UNK     0     -26.128  -0.800   4.734  0.00  0.00     0.115 C 
HETATM   15  C   UNK     0     -27.159  -0.887   5.848  0.00  0.00     0.021 A 
HETATM   16  N   UNK     0     -27.061  -1.565   7.007  0.00  0.00    -0.361 N 
HETATM   17  C   UNK     0     -28.206  -1.446   7.683  0.00  0.00     0.022 A 
HETATM   18  C   UNK     0     -29.089  -0.644   6.933  0.00  0.00    -0.027 A 
HETATM   19  C   UNK     0     -28.421  -0.300   5.787  0.00  0.00    -0.031 A 
HETATM   20  C   UNK     0     -29.002   0.597   4.709  0.00  0.00     0.051 C 
HETATM   21  C   UNK     0     -28.630  -2.070   8.993  0.00  0.00     0.115 C 
HETATM   22  C   UNK     0     -28.112  -3.454   9.307  0.00  0.00     0.022 A 
HETATM   23  N   UNK     0     -27.974  -4.496   8.477  0.00  0.00    -0.361 N 
HETATM   24  C   UNK     0     -27.341  -5.485   9.140  0.00  0.00     0.021 A 
HETATM   25  C   UNK     0     -27.074  -5.073  10.432  0.00  0.00    -0.031 A 
HETATM   26  C   UNK     0     -26.419  -5.841  11.561  0.00  0.00     0.051 C 
HETATM   27  C   UNK     0     -27.559  -3.776  10.562  0.00  0.00    -0.027 A 
HETATM   28  C   UNK     0     -26.880  -6.825   8.593  0.00  0.00     0.115 C 
HETATM   29  H   UNK     0     -27.050  -5.728   5.864  0.00  0.00     0.165 HD
HETATM   30  H   UNK     0     -24.826  -3.165   5.867  0.00  0.00     0.165 HD
HETATM   31  H   UNK     0     -26.148  -2.100   7.378  0.00  0.00     0.165 HD
HETATM   32  H   UNK     0     -28.361  -4.560   7.427  0.00  0.00     0.165 HD
ENDROOT
BRANCH   6  33
HETATM   33  C   UNK     0     -22.528  -7.172   6.052  0.00  0.00     0.051 C 
BRANCH  33  34
HETATM   34  C   UNK     0     -21.695  -5.913   6.015  0.00  0.00     0.114 C 
BRANCH  34  35
HETATM   35  C   UNK     0     -20.733  -6.047   4.885  0.00  0.00     0.139 C 
HETATM   36  O   UNK     0     -21.114  -6.523   3.776  0.00  0.00    -0.650 OA
BRANCH  35  37
HETATM   37  O   UNK     0     -19.401  -5.664   4.985  0.00  0.00    -0.776 OA
HETATM   38  H   UNK     0     -19.062  -5.102   5.750  0.00  0.00     0.167 HD
ENDBRANCH  35  37
ENDBRANCH  34  35
ENDBRANCH  33  34
ENDBRANCH   6  33
BRANCH  27  39
HETATM   39  C   UNK     0     -27.517  -3.021  11.844  0.00  0.00     0.051 C 
BRANCH  39  40
HETATM   40  C   UNK     0     -26.418  -2.079  12.058  0.00  0.00     0.114 C 
BRANCH  40  41
HETATM   41  C   UNK     0     -25.035  -2.498  12.067  0.00  0.00     0.139 C 
HETATM   42  O   UNK     0     -24.434  -2.849  13.091  0.00  0.00    -0.650 OA
BRANCH  41  43
HETATM   43  O   UNK     0     -24.310  -2.513  10.842  0.00  0.00    -0.776 OA
HETATM   44  H   UNK     0     -24.888  -2.578  10.013  0.00  0.00     0.167 HD
ENDBRANCH  41  43
ENDBRANCH  40  41
ENDBRANCH  39  40
ENDBRANCH  27  39
BRANCH  11  45
HETATM   45  C   UNK     0     -26.580  -1.711   1.707  0.00  0.00     0.051 C 
BRANCH  45  46
HETATM   46  C   UNK     0     -25.792  -0.507   1.343  0.00  0.00     0.114 C 
BRANCH  46  47
HETATM   47  C   UNK     0     -26.756   0.617   1.170  0.00  0.00     0.139 C 
HETATM   48  O   UNK     0     -26.759   1.529   2.008  0.00  0.00    -0.650 OA
BRANCH  47  49
HETATM   49  O   UNK     0     -27.624   0.641   0.107  0.00  0.00    -0.776 OA
HETATM   50  H   UNK     0     -27.713  -0.149  -0.542  0.00  0.00     0.167 HD
ENDBRANCH  47  49
ENDBRANCH  46  47
ENDBRANCH  45  46
ENDBRANCH  11  45
BRANCH  18  51
HETATM   51  C   UNK     0     -30.485  -0.213   7.299  0.00  0.00     0.051 C 
BRANCH  51  52
HETATM   52  C   UNK     0     -30.341   1.094   8.064  0.00  0.00     0.114 C 
BRANCH  52  53
HETATM   53  C   UNK     0     -31.332   1.207   9.151  0.00  0.00     0.139 C 
HETATM   54  O   UNK     0     -32.052   2.215   9.234  0.00  0.00    -0.650 OA
BRANCH  53  55
HETATM   55  O   UNK     0     -31.452   0.193  10.070  0.00  0.00    -0.776 OA
HETATM   56  H   UNK     0     -31.817  -0.714   9.896  0.00  0.00     0.167 HD
ENDBRANCH  53  55
ENDBRANCH  52  53
ENDBRANCH  51  52
ENDBRANCH  18  51
TORSDOF 16
ENDMDL
MODEL 14
REMARK VINA RESULT:      -8.1     31.825     35.602
REMARK  16 active torsions:
REMARK  status: ('A' for Active; 'I' for Inactive)
REMARK    1  A    between atoms: C_6  and  C_7 
REMARK    2  A    between atoms: C_7  and  C_8 
REMARK    3  A    between atoms: C_8  and  C_9 
REMARK    4  A    between atoms: C_9  and  O_11 
REMARK    5  A    between atoms: C_16  and  C_17 
REMARK    6  A    between atoms: C_17  and  C_18 
REMARK    7  A    between atoms: C_18  and  C_19 
REMARK    8  A    between atoms: C_19  and  O_21 
REMARK    9  A    between atoms: C_28  and  C_29 
REMARK   10  A    between atoms: C_29  and  C_30 
REMARK   11  A    between atoms: C_30  and  C_31 
REMARK   12  A    between atoms: C_31  and  O_33 
REMARK   13  A    between atoms: C_42  and  C_43 
REMARK   14  A    between atoms: C_43  and  C_44 
REMARK   15  A    between atoms: C_44  and  C_45 
REMARK   16  A    between atoms: C_45  and  O_47 
ROOT
HETATM    1  C   UNK     0       7.617   3.033   8.549  0.00  0.00     0.051 C 
HETATM    2  C   UNK     0       8.172   3.330   7.171  0.00  0.00    -0.031 A 
HETATM    3  C   UNK     0       8.179   2.534   6.036  0.00  0.00     0.021 A 
HETATM    4  N   UNK     0       8.811   3.196   5.037  0.00  0.00    -0.361 N 
HETATM    5  C   UNK     0       9.198   4.399   5.508  0.00  0.00     0.022 A 
HETATM    6  C   UNK     0       8.816   4.515   6.841  0.00  0.00    -0.027 A 
HETATM    7  C   UNK     0       9.847   5.540   4.788  0.00  0.00     0.115 C 
HETATM    8  C   UNK     0       9.309   5.867   3.406  0.00  0.00     0.021 A 
HETATM    9  N   UNK     0       8.044   5.798   2.963  0.00  0.00    -0.361 N 
HETATM   10  C   UNK     0       8.045   6.092   1.646  0.00  0.00     0.022 A 
HETATM   11  C   UNK     0       9.344   6.368   1.231  0.00  0.00    -0.027 A 
HETATM   12  C   UNK     0      10.146   6.228   2.335  0.00  0.00    -0.031 A 
HETATM   13  C   UNK     0      11.643   6.437   2.360  0.00  0.00     0.051 C 
HETATM   14  C   UNK     0       6.834   6.073   0.717  0.00  0.00     0.115 C 
HETATM   15  C   UNK     0       6.166   4.712   0.603  0.00  0.00     0.021 A 
HETATM   16  N   UNK     0       5.640   3.970   1.595  0.00  0.00    -0.361 N 
HETATM   17  C   UNK     0       5.214   2.808   1.095  0.00  0.00     0.022 A 
HETATM   18  C   UNK     0       5.467   2.796  -0.291  0.00  0.00    -0.027 A 
HETATM   19  C   UNK     0       6.062   3.995  -0.587  0.00  0.00    -0.031 A 
HETATM   20  C   UNK     0       6.471   4.412  -1.988  0.00  0.00     0.051 C 
HETATM   21  C   UNK     0       4.616   1.609   1.795  0.00  0.00     0.115 C 
HETATM   22  C   UNK     0       5.110   1.297   3.188  0.00  0.00     0.022 A 
HETATM   23  N   UNK     0       6.363   1.362   3.659  0.00  0.00    -0.361 N 
HETATM   24  C   UNK     0       6.328   1.141   4.988  0.00  0.00     0.021 A 
HETATM   25  C   UNK     0       5.022   0.919   5.382  0.00  0.00    -0.031 A 
HETATM   26  C   UNK     0       4.485   0.590   6.759  0.00  0.00     0.051 C 
HETATM   27  C   UNK     0       4.225   1.014   4.248  0.00  0.00    -0.027 A 
HETATM   28  C   UNK     0       7.484   1.204   5.972  0.00  0.00     0.115 C 
HETATM   29  H   UNK     0       9.013   2.793   4.018  0.00  0.00     0.165 HD
HETATM   30  H   UNK     0       7.142   5.590   3.588  0.00  0.00     0.165 HD
HETATM   31  H   UNK     0       5.522   4.291   2.663  0.00  0.00     0.165 HD
HETATM   32  H   UNK     0       7.290   1.521   3.048  0.00  0.00     0.165 HD
ENDROOT
BRANCH   6  33
HETATM   33  C   UNK     0       9.018   5.650   7.813  0.00  0.00     0.051 C 
BRANCH  33  34
HETATM   34  C   UNK     0      10.483   5.826   8.133  0.00  0.00     0.114 C 
BRANCH  34  35
HETATM   35  C   UNK     0      10.731   7.287   8.301  0.00  0.00     0.139 C 
HETATM   36  O   UNK     0      10.129   8.124   7.567  0.00  0.00    -0.650 OA
BRANCH  35  37
HETATM   37  O   UNK     0      11.610   7.794   9.250  0.00  0.00    -0.776 OA
HETATM   38  H   UNK     0      11.416   8.640   9.761  0.00  0.00     0.167 HD
ENDBRANCH  35  37
ENDBRANCH  34  35
ENDBRANCH  33  34
ENDBRANCH   6  33
BRANCH  27  39
HETATM   39  C   UNK     0       2.758   0.763   4.265  0.00  0.00     0.051 C 
BRANCH  39  40
HETATM   40  C   UNK     0       2.291  -0.623   4.251  0.00  0.00     0.114 C 
BRANCH  40  41
HETATM   41  C   UNK     0       0.887  -0.964   4.300  0.00  0.00     0.139 C 
HETATM   42  O   UNK     0       0.008  -0.331   3.699  0.00  0.00    -0.650 OA
BRANCH  41  43
HETATM   43  O   UNK     0       0.474  -2.084   5.076  0.00  0.00    -0.776 OA
HETATM   44  H   UNK     0       1.210  -2.501   5.634  0.00  0.00     0.167 HD
ENDBRANCH  41  43
ENDBRANCH  40  41
ENDBRANCH  39  40
ENDBRANCH  27  39
BRANCH  11  45
HETATM   45  C   UNK     0       9.834   6.751  -0.140  0.00  0.00     0.051 C 
BRANCH  45  46
HETATM   46  C   UNK     0       9.741   8.204  -0.432  0.00  0.00     0.114 C 
BRANCH  46  47
HETATM   47  C   UNK     0       8.566   8.399  -1.330  0.00  0.00     0.139 C 
HETATM   48  O   UNK     0       8.533   7.783  -2.404  0.00  0.00    -0.650 OA
BRANCH  47  49
HETATM   49  O   UNK     0       7.544   9.243  -0.977  0.00  0.00    -0.776 OA
HETATM   50  H   UNK     0       6.894   9.023  -0.212  0.00  0.00     0.167 HD
ENDBRANCH  47  49
ENDBRANCH  46  47
ENDBRANCH  45  46
ENDBRANCH  11  45
BRANCH  18  51
HETATM   51  C   UNK     0       5.139   1.711  -1.284  0.00  0.00     0.051 C 
BRANCH  51  52
HETATM   52  C   UNK     0       6.338   0.775  -1.302  0.00  0.00     0.114 C 
BRANCH  52  53
HETATM   53  C   UNK     0       7.017   0.777  -2.613  0.00  0.00     0.139 C 
HETATM   54  O   UNK     0       6.491   0.214  -3.586  0.00  0.00    -0.650 OA
BRANCH  53  55
HETATM   55  O   UNK     0       8.233   1.401  -2.747  0.00  0.00    -0.776 OA
HETATM   56  H   UNK     0       8.748   1.839  -2.020  0.00  0.00     0.167 HD
ENDBRANCH  53  55
ENDBRANCH  52  53
ENDBRANCH  51  52
ENDBRANCH  18  51
TORSDOF 16
ENDMDL
MODEL 15
REMARK VINA RESULT:      -7.9      2.689      7.628
REMARK  16 active torsions:
REMARK  status: ('A' for Active; 'I' for Inactive)
REMARK    1  A    between atoms: C_6  and  C_7 
REMARK    2  A    between atoms: C_7  and  C_8 
REMARK    3  A    between atoms: C_8  and  C_9 
REMARK    4  A    between atoms: C_9  and  O_11 
REMARK    5  A    between atoms: C_16  and  C_17 
REMARK    6  A    between atoms: C_17  and  C_18 
REMARK    7  A    between atoms: C_18  and  C_19 
REMARK    8  A    between atoms: C_19  and  O_21 
REMARK    9  A    between atoms: C_28  and  C_29 
REMARK   10  A    between atoms: C_29  and  C_30 
REMARK   11  A    between atoms: C_30  and  C_31 
REMARK   12  A    between atoms: C_31  and  O_33 
REMARK   13  A    between atoms: C_42  and  C_43 
REMARK   14  A    between atoms: C_43  and  C_44 
REMARK   15  A    between atoms: C_44  and  C_45 
REMARK   16  A    between atoms: C_45  and  O_47 
ROOT
HETATM    1  C   UNK     0     -20.630  -6.834   6.405  0.00  0.00     0.051 C 
HETATM    2  C   UNK     0     -21.988  -6.195   6.200  0.00  0.00    -0.031 A 
HETATM    3  C   UNK     0     -23.141  -6.318   6.960  0.00  0.00     0.021 A 
HETATM    4  N   UNK     0     -24.128  -5.591   6.384  0.00  0.00    -0.361 N 
HETATM    5  C   UNK     0     -23.627  -5.001   5.279  0.00  0.00     0.022 A 
HETATM    6  C   UNK     0     -22.291  -5.360   5.133  0.00  0.00    -0.027 A 
HETATM    7  C   UNK     0     -24.272  -4.026   4.344  0.00  0.00     0.115 C 
HETATM    8  C   UNK     0     -25.104  -2.924   4.977  0.00  0.00     0.021 A 
HETATM    9  N   UNK     0     -24.890  -2.272   6.130  0.00  0.00    -0.361 N 
HETATM   10  C   UNK     0     -25.933  -1.441   6.342  0.00  0.00     0.022 A 
HETATM   11  C   UNK     0     -26.839  -1.554   5.291  0.00  0.00    -0.027 A 
HETATM   12  C   UNK     0     -26.323  -2.487   4.428  0.00  0.00    -0.031 A 
HETATM   13  C   UNK     0     -26.968  -2.932   3.134  0.00  0.00     0.051 C 
HETATM   14  C   UNK     0     -26.142  -0.551   7.563  0.00  0.00     0.115 C 
HETATM   15  C   UNK     0     -26.245  -1.316   8.873  0.00  0.00     0.021 A 
HETATM   16  N   UNK     0     -25.333  -2.146   9.414  0.00  0.00    -0.361 N 
HETATM   17  C   UNK     0     -25.831  -2.674  10.534  0.00  0.00     0.022 A 
HETATM   18  C   UNK     0     -27.126  -2.157  10.738  0.00  0.00    -0.027 A 
HETATM   19  C   UNK     0     -27.373  -1.307   9.691  0.00  0.00    -0.031 A 
HETATM   20  C   UNK     0     -28.652  -0.504   9.540  0.00  0.00     0.051 C 
HETATM   21  C   UNK     0     -25.241  -3.707  11.466  0.00  0.00     0.115 C 
HETATM   22  C   UNK     0     -24.375  -4.784  10.856  0.00  0.00     0.022 A 
HETATM   23  N   UNK     0     -24.562  -5.448   9.708  0.00  0.00    -0.361 N 
HETATM   24  C   UNK     0     -23.475  -6.212   9.478  0.00  0.00     0.021 A 
HETATM   25  C   UNK     0     -22.570  -6.044  10.509  0.00  0.00    -0.031 A 
HETATM   26  C   UNK     0     -21.229  -6.715  10.720  0.00  0.00     0.051 C 
HETATM   27  C   UNK     0     -23.125  -5.135  11.404  0.00  0.00    -0.027 A 
HETATM   28  C   UNK     0     -23.182  -7.070   8.260  0.00  0.00     0.115 C 
HETATM   29  H   UNK     0     -25.183  -5.532   6.740  0.00  0.00     0.165 HD
HETATM   30  H   UNK     0     -23.980  -2.359   6.772  0.00  0.00     0.165 HD
HETATM   31  H   UNK     0     -24.298  -2.326   9.023  0.00  0.00     0.165 HD
HETATM   32  H   UNK     0     -25.483  -5.416   9.069  0.00  0.00     0.165 HD
ENDROOT
BRANCH   6  33
HETATM   33  C   UNK     0     -21.294  -4.976   4.069  0.00  0.00     0.051 C 
BRANCH  33  34
HETATM   34  C   UNK     0     -21.189  -6.058   3.020  0.00  0.00     0.114 C 
BRANCH  34  35
HETATM   35  C   UNK     0     -21.953  -5.597   1.825  0.00  0.00     0.139 C 
HETATM   36  O   UNK     0     -22.095  -4.360   1.598  0.00  0.00    -0.650 OA
BRANCH  35  37
HETATM   37  O   UNK     0     -22.531  -6.479   0.919  0.00  0.00    -0.776 OA
HETATM   38  H   UNK     0     -22.757  -6.205  -0.023  0.00  0.00     0.167 HD
ENDBRANCH  35  37
ENDBRANCH  34  35
ENDBRANCH  33  34
ENDBRANCH   6  33
BRANCH  27  39
HETATM   39  C   UNK     0     -22.469  -4.756  12.685  0.00  0.00     0.051 C 
BRANCH  39  40
HETATM   40  C   UNK     0     -22.743  -5.565  13.872  0.00  0.00     0.114 C 
BRANCH  40  41
HETATM   41  C   UNK     0     -21.705  -6.293  14.565  0.00  0.00     0.139 C 
HETATM   42  O   UNK     0     -20.496  -6.069  14.415  0.00  0.00    -0.650 OA
BRANCH  41  43
HETATM   43  O   UNK     0     -22.073  -7.327  15.472  0.00  0.00    -0.776 OA
HETATM   44  H   UNK     0     -22.184  -8.239  15.045  0.00  0.00     0.167 HD
ENDBRANCH  41  43
ENDBRANCH  40  41
ENDBRANCH  39  40
ENDBRANCH  27  39
BRANCH  11  45
HETATM   45  C   UNK     0     -28.139  -0.824   5.086  0.00  0.00     0.051 C 
BRANCH  45  46
HETATM   46  C   UNK     0     -28.069   0.269   4.083  0.00  0.00     0.114 C 
BRANCH  46  47
HETATM   47  C   UNK     0     -27.366   1.415   4.727  0.00  0.00     0.139 C 
HETATM   48  O   UNK     0     -26.207   1.673   4.376  0.00  0.00    -0.650 OA
BRANCH  47  49
HETATM   49  O   UNK     0     -27.989   2.169   5.690  0.00  0.00    -0.776 OA
HETATM   50  H   UNK     0     -28.959   2.489   5.590  0.00  0.00     0.167 HD
ENDBRANCH  47  49
ENDBRANCH  46  47
ENDBRANCH  45  46
ENDBRANCH  11  45
BRANCH  18  51
HETATM   51  C   UNK     0     -28.067  -2.441  11.879  0.00  0.00     0.051 C 
BRANCH  51  52
HETATM   52  C   UNK     0     -28.854  -3.682  11.483  0.00  0.00     0.114 C 
BRANCH  52  53
HETATM   53  C   UNK     0     -30.285  -3.383  11.278  0.00  0.00     0.139 C 
HETATM   54  O   UNK     0     -30.808  -2.419  11.858  0.00  0.00    -0.650 OA
BRANCH  53  55
HETATM   55  O   UNK     0     -31.032  -4.179  10.444  0.00  0.00    -0.776 OA
HETATM   56  H   UNK     0     -32.000  -4.075  10.250  0.00  0.00     0.167 HD
ENDBRANCH  53  55
ENDBRANCH  52  53
ENDBRANCH  51  52
ENDBRANCH  18  51
TORSDOF 16
ENDMDL
MODEL 16
REMARK VINA RESULT:      -7.9     26.744     30.791
REMARK  16 active torsions:
REMARK  status: ('A' for Active; 'I' for Inactive)
REMARK    1  A    between atoms: C_6  and  C_7 
REMARK    2  A    between atoms: C_7  and  C_8 
REMARK    3  A    between atoms: C_8  and  C_9 
REMARK    4  A    between atoms: C_9  and  O_11 
REMARK    5  A    between atoms: C_16  and  C_17 
REMARK    6  A    between atoms: C_17  and  C_18 
REMARK    7  A    between atoms: C_18  and  C_19 
REMARK    8  A    between atoms: C_19  and  O_21 
REMARK    9  A    between atoms: C_28  and  C_29 
REMARK   10  A    between atoms: C_29  and  C_30 
REMARK   11  A    between atoms: C_30  and  C_31 
REMARK   12  A    between atoms: C_31  and  O_33 
REMARK   13  A    between atoms: C_42  and  C_43 
REMARK   14  A    between atoms: C_43  and  C_44 
REMARK   15  A    between atoms: C_44  and  C_45 
REMARK   16  A    between atoms: C_45  and  O_47 
ROOT
HETATM    1  C   UNK     0      -8.892  19.604   2.380  0.00  0.00     0.051 C 
HETATM    2  C   UNK     0      -8.518  18.261   1.785  0.00  0.00    -0.031 A 
HETATM    3  C   UNK     0      -8.012  17.965   0.529  0.00  0.00     0.021 A 
HETATM    4  N   UNK     0      -7.855  16.624   0.421  0.00  0.00    -0.361 N 
HETATM    5  C   UNK     0      -8.242  16.060   1.584  0.00  0.00     0.022 A 
HETATM    6  C   UNK     0      -8.665  17.055   2.459  0.00  0.00    -0.027 A 
HETATM    7  C   UNK     0      -8.180  14.628   2.014  0.00  0.00     0.115 C 
HETATM    8  C   UNK     0      -6.914  13.866   1.666  0.00  0.00     0.021 A 
HETATM    9  N   UNK     0      -5.650  14.316   1.632  0.00  0.00    -0.361 N 
HETATM   10  C   UNK     0      -4.862  13.317   1.181  0.00  0.00     0.022 A 
HETATM   11  C   UNK     0      -5.638  12.190   0.926  0.00  0.00    -0.027 A 
HETATM   12  C   UNK     0      -6.932  12.529   1.229  0.00  0.00    -0.031 A 
HETATM   13  C   UNK     0      -8.127  11.610   1.111  0.00  0.00     0.051 C 
HETATM   14  C   UNK     0      -3.360  13.401   0.922  0.00  0.00     0.115 C 
HETATM   15  C   UNK     0      -2.972  14.432  -0.126  0.00  0.00     0.021 A 
HETATM   16  N   UNK     0      -3.222  15.755  -0.109  0.00  0.00    -0.361 N 
HETATM   17  C   UNK     0      -2.781  16.299  -1.245  0.00  0.00     0.022 A 
HETATM   18  C   UNK     0      -2.207  15.284  -2.036  0.00  0.00    -0.027 A 
HETATM   19  C   UNK     0      -2.332  14.120  -1.323  0.00  0.00    -0.031 A 
HETATM   20  C   UNK     0      -1.808  12.778  -1.801  0.00  0.00     0.051 C 
HETATM   21  C   UNK     0      -2.883  17.723  -1.744  0.00  0.00     0.115 C 
HETATM   22  C   UNK     0      -4.118  18.507  -1.368  0.00  0.00     0.022 A 
HETATM   23  N   UNK     0      -5.388  18.084  -1.322  0.00  0.00    -0.361 N 
HETATM   24  C   UNK     0      -6.144  19.069  -0.796  0.00  0.00     0.021 A 
HETATM   25  C   UNK     0      -5.342  20.157  -0.506  0.00  0.00    -0.031 A 
HETATM   26  C   UNK     0      -5.735  21.507   0.056  0.00  0.00     0.051 C 
HETATM   27  C   UNK     0      -4.042  19.821  -0.864  0.00  0.00    -0.027 A 
HETATM   28  C   UNK     0      -7.625  19.026  -0.461  0.00  0.00     0.115 C 
HETATM   29  H   UNK     0      -7.510  16.083  -0.490  0.00  0.00     0.165 HD
HETATM   30  H   UNK     0      -5.304  15.322   1.973  0.00  0.00     0.165 HD
HETATM   31  H   UNK     0      -3.677  16.325   0.743  0.00  0.00     0.165 HD
HETATM   32  H   UNK     0      -5.770  17.100  -1.700  0.00  0.00     0.165 HD
ENDROOT
BRANCH   6  33
HETATM   33  C   UNK     0      -9.194  16.949   3.867  0.00  0.00     0.051 C 
BRANCH  33  34
HETATM   34  C   UNK     0     -10.518  16.222   3.887  0.00  0.00     0.114 C 
BRANCH  34  35
HETATM   35  C   UNK     0     -11.585  17.230   3.625  0.00  0.00     0.139 C 
HETATM   36  O   UNK     0     -12.018  17.408   2.449  0.00  0.00    -0.650 OA
BRANCH  35  37
HETATM   37  O   UNK     0     -12.147  18.006   4.631  0.00  0.00    -0.776 OA
HETATM   38  H   UNK     0     -13.059  17.810   5.011  0.00  0.00     0.167 HD
ENDBRANCH  35  37
ENDBRANCH  34  35
ENDBRANCH  33  34
ENDBRANCH   6  33
BRANCH  27  39
HETATM   39  C   UNK     0      -2.902  20.773  -0.764  0.00  0.00     0.051 C 
BRANCH  39  40
HETATM   40  C   UNK     0      -1.770  20.414   0.090  0.00  0.00     0.114 C 
BRANCH  40  41
HETATM   41  C   UNK     0      -0.409  20.405  -0.398  0.00  0.00     0.139 C 
HETATM   42  O   UNK     0       0.200  19.372  -0.705  0.00  0.00    -0.650 OA
BRANCH  41  43
HETATM   43  O   UNK     0       0.282  21.642  -0.539  0.00  0.00    -0.776 OA
HETATM   44  H   UNK     0       0.653  22.016   0.326  0.00  0.00     0.167 HD
ENDBRANCH  41  43
ENDBRANCH  40  41
ENDBRANCH  39  40
ENDBRANCH  27  39
BRANCH  11  45
HETATM   45  C   UNK     0      -5.202  10.841   0.421  0.00  0.00     0.051 C 
BRANCH  45  46
HETATM   46  C   UNK     0      -5.090   9.805   1.479  0.00  0.00     0.114 C 
BRANCH  46  47
HETATM   47  C   UNK     0      -5.145   8.477   0.804  0.00  0.00     0.139 C 
HETATM   48  O   UNK     0      -6.223   7.866   0.784  0.00  0.00    -0.650 OA
BRANCH  47  49
HETATM   49  O   UNK     0      -4.027   7.939   0.218  0.00  0.00    -0.776 OA
HETATM   50  H   UNK     0      -3.573   7.093   0.582  0.00  0.00     0.167 HD
ENDBRANCH  47  49
ENDBRANCH  46  47
ENDBRANCH  45  46
ENDBRANCH  11  45
BRANCH  18  51
HETATM   51  C   UNK     0      -1.557  15.420  -3.388  0.00  0.00     0.051 C 
BRANCH  51  52
HETATM   52  C   UNK     0      -0.061  15.529  -3.132  0.00  0.00     0.114 C 
BRANCH  52  53
HETATM   53  C   UNK     0       0.509  16.758  -3.718  0.00  0.00     0.139 C 
HETATM   54  O   UNK     0       0.687  16.837  -4.944  0.00  0.00    -0.650 OA
BRANCH  53  55
HETATM   55  O   UNK     0       0.843  17.810  -2.900  0.00  0.00    -0.776 OA
HETATM   56  H   UNK     0       0.475  17.985  -1.995  0.00  0.00     0.167 HD
ENDBRANCH  53  55
ENDBRANCH  52  53
ENDBRANCH  51  52
ENDBRANCH  18  51
TORSDOF 16
ENDMDL
MODEL 17
REMARK VINA RESULT:      -7.9      1.912      7.225
REMARK  16 active torsions:
REMARK  status: ('A' for Active; 'I' for Inactive)
REMARK    1  A    between atoms: C_6  and  C_7 
REMARK    2  A    between atoms: C_7  and  C_8 
REMARK    3  A    between atoms: C_8  and  C_9 
REMARK    4  A    between atoms: C_9  and  O_11 
REMARK    5  A    between atoms: C_16  and  C_17 
REMARK    6  A    between atoms: C_17  and  C_18 
REMARK    7  A    between atoms: C_18  and  C_19 
REMARK    8  A    between atoms: C_19  and  O_21 
REMARK    9  A    between atoms: C_28  and  C_29 
REMARK   10  A    between atoms: C_29  and  C_30 
REMARK   11  A    between atoms: C_30  and  C_31 
REMARK   12  A    between atoms: C_31  and  O_33 
REMARK   13  A    between atoms: C_42  and  C_43 
REMARK   14  A    between atoms: C_43  and  C_44 
REMARK   15  A    between atoms: C_44  and  C_45 
REMARK   16  A    between atoms: C_45  and  O_47 
ROOT
HETATM    1  C   UNK     0     -30.618  -0.310  10.231  0.00  0.00     0.051 C 
HETATM    2  C   UNK     0     -29.957  -1.662  10.061  0.00  0.00    -0.031 A 
HETATM    3  C   UNK     0     -29.829  -2.442   8.922  0.00  0.00     0.021 A 
HETATM    4  N   UNK     0     -29.190  -3.592   9.244  0.00  0.00    -0.361 N 
HETATM    5  C   UNK     0     -28.901  -3.558  10.561  0.00  0.00     0.022 A 
HETATM    6  C   UNK     0     -29.369  -2.366  11.104  0.00  0.00    -0.027 A 
HETATM    7  C   UNK     0     -28.124  -4.533  11.390  0.00  0.00     0.115 C 
HETATM    8  C   UNK     0     -26.856  -5.095  10.772  0.00  0.00     0.021 A 
HETATM    9  N   UNK     0     -25.974  -4.480   9.968  0.00  0.00    -0.361 N 
HETATM   10  C   UNK     0     -25.051  -5.389   9.586  0.00  0.00     0.022 A 
HETATM   11  C   UNK     0     -25.342  -6.620  10.167  0.00  0.00    -0.027 A 
HETATM   12  C   UNK     0     -26.477  -6.442  10.916  0.00  0.00    -0.031 A 
HETATM   13  C   UNK     0     -27.162  -7.513  11.734  0.00  0.00     0.051 C 
HETATM   14  C   UNK     0     -23.895  -5.147   8.620  0.00  0.00     0.115 C 
HETATM   15  C   UNK     0     -24.334  -4.730   7.226  0.00  0.00     0.021 A 
HETATM   16  N   UNK     0     -25.076  -3.660   6.884  0.00  0.00    -0.361 N 
HETATM   17  C   UNK     0     -25.303  -3.686   5.568  0.00  0.00     0.022 A 
HETATM   18  C   UNK     0     -24.670  -4.823   5.026  0.00  0.00    -0.027 A 
HETATM   19  C   UNK     0     -24.066  -5.467   6.074  0.00  0.00    -0.031 A 
HETATM   20  C   UNK     0     -23.238  -6.730   5.924  0.00  0.00     0.051 C 
HETATM   21  C   UNK     0     -26.133  -2.762   4.707  0.00  0.00     0.115 C 
HETATM   22  C   UNK     0     -27.374  -2.161   5.324  0.00  0.00     0.022 A 
HETATM   23  N   UNK     0     -28.267  -2.748   6.130  0.00  0.00    -0.361 N 
HETATM   24  C   UNK     0     -29.132  -1.807   6.561  0.00  0.00     0.021 A 
HETATM   25  C   UNK     0     -28.793  -0.586   6.009  0.00  0.00    -0.031 A 
HETATM   26  C   UNK     0     -29.484   0.753   6.161  0.00  0.00     0.051 C 
HETATM   27  C   UNK     0     -27.671  -0.787   5.213  0.00  0.00    -0.027 A 
HETATM   28  C   UNK     0     -30.262  -1.971   7.562  0.00  0.00     0.115 C 
HETATM   29  H   UNK     0     -28.984  -4.436   8.546  0.00  0.00     0.165 HD
HETATM   30  H   UNK     0     -25.972  -3.393   9.709  0.00  0.00     0.165 HD
HETATM   31  H   UNK     0     -25.407  -2.844   7.577  0.00  0.00     0.165 HD
HETATM   32  H   UNK     0     -28.322  -3.842   6.370  0.00  0.00     0.165 HD
ENDROOT
BRANCH   6  33
HETATM   33  C   UNK     0     -29.302  -1.853  12.520  0.00  0.00     0.051 C 
BRANCH  33  34
HETATM   34  C   UNK     0     -30.335  -2.535  13.385  0.00  0.00     0.114 C 
BRANCH  34  35
HETATM   35  C   UNK     0     -31.524  -1.637  13.453  0.00  0.00     0.139 C 
HETATM   36  O   UNK     0     -31.429  -0.494  13.989  0.00  0.00    -0.650 OA
BRANCH  35  37
HETATM   37  O   UNK     0     -32.765  -1.997  12.943  0.00  0.00    -0.776 OA
HETATM   38  H   UNK     0     -32.897  -2.834  12.398  0.00  0.00     0.167 HD
ENDBRANCH  35  37
ENDBRANCH  34  35
ENDBRANCH  33  34
ENDBRANCH   6  33
BRANCH  27  39
HETATM   39  C   UNK     0     -27.053   0.292   4.395  0.00  0.00     0.051 C 
BRANCH  39  40
HETATM   40  C   UNK     0     -27.694   0.659   3.133  0.00  0.00     0.114 C 
BRANCH  40  41
HETATM   41  C   UNK     0     -26.941   1.148   2.000  0.00  0.00     0.139 C 
HETATM   42  O   UNK     0     -25.737   0.914   1.827  0.00  0.00    -0.650 OA
BRANCH  41  43
HETATM   43  O   UNK     0     -27.603   1.943   1.022  0.00  0.00    -0.776 OA
HETATM   44  H   UNK     0     -27.041   2.158   0.207  0.00  0.00     0.167 HD
ENDBRANCH  41  43
ENDBRANCH  40  41
ENDBRANCH  39  40
ENDBRANCH  27  39
BRANCH  11  45
HETATM   45  C   UNK     0     -24.595  -7.920  10.040  0.00  0.00     0.051 C 
BRANCH  45  46
HETATM   46  C   UNK     0     -23.846  -8.311  11.262  0.00  0.00     0.114 C 
BRANCH  46  47
HETATM   47  C   UNK     0     -22.858  -7.229  11.539  0.00  0.00     0.139 C 
HETATM   48  O   UNK     0     -23.001  -6.545  12.562  0.00  0.00    -0.650 OA
BRANCH  47  49
HETATM   49  O   UNK     0     -21.814  -6.994  10.680  0.00  0.00    -0.776 OA
HETATM   50  H   UNK     0     -20.844  -7.227  10.925  0.00  0.00     0.167 HD
ENDBRANCH  47  49
ENDBRANCH  46  47
ENDBRANCH  45  46
ENDBRANCH  11  45
BRANCH  18  51
HETATM   51  C   UNK     0     -24.626  -5.259   3.584  0.00  0.00     0.051 C 
BRANCH  51  52
HETATM   52  C   UNK     0     -23.194  -5.046   3.119  0.00  0.00     0.114 C 
BRANCH  52  53
HETATM   53  C   UNK     0     -23.114  -4.847   1.658  0.00  0.00     0.139 C 
HETATM   54  O   UNK     0     -22.505  -3.869   1.196  0.00  0.00    -0.650 OA
BRANCH  53  55
HETATM   55  O   UNK     0     -23.720  -5.748   0.816  0.00  0.00    -0.776 OA
HETATM   56  H   UNK     0     -23.475  -5.918  -0.131  0.00  0.00     0.167 HD
ENDBRANCH  53  55
ENDBRANCH  52  53
ENDBRANCH  51  52
ENDBRANCH  18  51
TORSDOF 16
ENDMDL
MODEL 18
REMARK VINA RESULT:      -7.8     31.514     35.224
REMARK  16 active torsions:
REMARK  status: ('A' for Active; 'I' for Inactive)
REMARK    1  A    between atoms: C_6  and  C_7 
REMARK    2  A    between atoms: C_7  and  C_8 
REMARK    3  A    between atoms: C_8  and  C_9 
REMARK    4  A    between atoms: C_9  and  O_11 
REMARK    5  A    between atoms: C_16  and  C_17 
REMARK    6  A    between atoms: C_17  and  C_18 
REMARK    7  A    between atoms: C_18  and  C_19 
REMARK    8  A    between atoms: C_19  and  O_21 
REMARK    9  A    between atoms: C_28  and  C_29 
REMARK   10  A    between atoms: C_29  and  C_30 
REMARK   11  A    between atoms: C_30  and  C_31 
REMARK   12  A    between atoms: C_31  and  O_33 
REMARK   13  A    between atoms: C_42  and  C_43 
REMARK   14  A    between atoms: C_43  and  C_44 
REMARK   15  A    between atoms: C_44  and  C_45 
REMARK   16  A    between atoms: C_45  and  O_47 
ROOT
HETATM    1  C   UNK     0       7.405   2.946   8.539  0.00  0.00     0.051 C 
HETATM    2  C   UNK     0       7.972   3.288   7.176  0.00  0.00    -0.031 A 
HETATM    3  C   UNK     0       7.893   2.579   5.988  0.00  0.00     0.021 A 
HETATM    4  N   UNK     0       8.575   3.249   5.029  0.00  0.00    -0.361 N 
HETATM    5  C   UNK     0       9.078   4.374   5.577  0.00  0.00     0.022 A 
HETATM    6  C   UNK     0       8.722   4.428   6.921  0.00  0.00    -0.027 A 
HETATM    7  C   UNK     0       9.825   5.498   4.929  0.00  0.00     0.115 C 
HETATM    8  C   UNK     0       9.307   5.972   3.583  0.00  0.00     0.021 A 
HETATM    9  N   UNK     0       8.037   6.053   3.156  0.00  0.00    -0.361 N 
HETATM   10  C   UNK     0       8.053   6.440   1.863  0.00  0.00     0.022 A 
HETATM   11  C   UNK     0       9.369   6.623   1.448  0.00  0.00    -0.027 A 
HETATM   12  C   UNK     0      10.164   6.330   2.526  0.00  0.00    -0.031 A 
HETATM   13  C   UNK     0      11.675   6.395   2.542  0.00  0.00     0.051 C 
HETATM   14  C   UNK     0       6.837   6.601   0.955  0.00  0.00     0.115 C 
HETATM   15  C   UNK     0       6.043   5.320   0.756  0.00  0.00     0.021 A 
HETATM   16  N   UNK     0       5.458   4.561   1.702  0.00  0.00    -0.361 N 
HETATM   17  C   UNK     0       4.920   3.483   1.127  0.00  0.00     0.022 A 
HETATM   18  C   UNK     0       5.158   3.547  -0.260  0.00  0.00    -0.027 A 
HETATM   19  C   UNK     0       5.861   4.703  -0.480  0.00  0.00    -0.031 A 
HETATM   20  C   UNK     0       6.294   5.179  -1.854  0.00  0.00     0.051 C 
HETATM   21  C   UNK     0       4.219   2.297   1.751  0.00  0.00     0.115 C 
HETATM   22  C   UNK     0       4.695   1.841   3.110  0.00  0.00     0.022 A 
HETATM   23  N   UNK     0       5.952   1.755   3.564  0.00  0.00    -0.361 N 
HETATM   24  C   UNK     0       5.909   1.444   4.875  0.00  0.00     0.021 A 
HETATM   25  C   UNK     0       4.592   1.317   5.273  0.00  0.00    -0.031 A 
HETATM   26  C   UNK     0       4.039   0.941   6.632  0.00  0.00     0.051 C 
HETATM   27  C   UNK     0       3.796   1.567   4.161  0.00  0.00    -0.027 A 
HETATM   28  C   UNK     0       7.075   1.327   5.841  0.00  0.00     0.115 C 
HETATM   29  H   UNK     0       8.729   2.903   3.980  0.00  0.00     0.165 HD
HETATM   30  H   UNK     0       7.125   5.886   3.780  0.00  0.00     0.165 HD
HETATM   31  H   UNK     0       5.382   4.814   2.791  0.00  0.00     0.165 HD
HETATM   32  H   UNK     0       6.884   1.870   2.951  0.00  0.00     0.165 HD
ENDROOT
BRANCH   6  33
HETATM   33  C   UNK     0       9.039   5.467   7.967  0.00  0.00     0.051 C 
BRANCH  33  34
HETATM   34  C   UNK     0      10.528   5.702   8.054  0.00  0.00     0.114 C 
BRANCH  34  35
HETATM   35  C   UNK     0      10.740   7.170   8.211  0.00  0.00     0.139 C 
HETATM   36  O   UNK     0      10.121   7.986   7.468  0.00  0.00    -0.650 OA
BRANCH  35  37
HETATM   37  O   UNK     0      11.604   7.705   9.159  0.00  0.00    -0.776 OA
HETATM   38  H   UNK     0      11.440   7.604  10.148  0.00  0.00     0.167 HD
ENDBRANCH  35  37
ENDBRANCH  34  35
ENDBRANCH  33  34
ENDBRANCH   6  33
BRANCH  27  39
HETATM   39  C   UNK     0       2.313   1.453   4.184  0.00  0.00     0.051 C 
BRANCH  39  40
HETATM   40  C   UNK     0       1.528   2.661   4.435  0.00  0.00     0.114 C 
BRANCH  40  41
HETATM   41  C   UNK     0       0.743   2.835   5.637  0.00  0.00     0.139 C 
HETATM   42  O   UNK     0       0.624   1.962   6.507  0.00  0.00    -0.650 OA
BRANCH  41  43
HETATM   43  O   UNK     0       0.064   4.069   5.847  0.00  0.00    -0.776 OA
HETATM   44  H   UNK     0      -0.381   4.153   6.753  0.00  0.00     0.167 HD
ENDBRANCH  41  43
ENDBRANCH  40  41
ENDBRANCH  39  40
ENDBRANCH  27  39
BRANCH  11  45
HETATM   45  C   UNK     0       9.880   7.056   0.100  0.00  0.00     0.051 C 
BRANCH  45  46
HETATM   46  C   UNK     0       9.894   8.528  -0.098  0.00  0.00     0.114 C 
BRANCH  46  47
HETATM   47  C   UNK     0       8.880   8.842  -1.145  0.00  0.00     0.139 C 
HETATM   48  O   UNK     0       8.821   8.119  -2.149  0.00  0.00    -0.650 OA
BRANCH  47  49
HETATM   49  O   UNK     0       8.030   9.910  -1.002  0.00  0.00    -0.776 OA
HETATM   50  H   UNK     0       7.131   9.961  -1.495  0.00  0.00     0.167 HD
ENDBRANCH  47  49
ENDBRANCH  46  47
ENDBRANCH  45  46
ENDBRANCH  11  45
BRANCH  18  51
HETATM   51  C   UNK     0       4.720   2.571  -1.321  0.00  0.00     0.051 C 
BRANCH  51  52
HETATM   52  C   UNK     0       3.523   3.204  -2.015  0.00  0.00     0.114 C 
BRANCH  52  53
HETATM   53  C   UNK     0       2.273   2.987  -1.262  0.00  0.00     0.139 C 
HETATM   54  O   UNK     0       1.658   3.954  -0.786  0.00  0.00    -0.650 OA
BRANCH  53  55
HETATM   55  O   UNK     0       1.797   1.709  -1.090  0.00  0.00    -0.776 OA
HETATM   56  H   UNK     0       2.177   1.022  -0.483  0.00  0.00     0.167 HD
ENDBRANCH  53  55
ENDBRANCH  52  53
ENDBRANCH  51  52
ENDBRANCH  18  51
TORSDOF 16
ENDMDL
MODEL 19
REMARK VINA RESULT:      -7.8      2.683      7.903
REMARK  16 active torsions:
REMARK  status: ('A' for Active; 'I' for Inactive)
REMARK    1  A    between atoms: C_6  and  C_7 
REMARK    2  A    between atoms: C_7  and  C_8 
REMARK    3  A    between atoms: C_8  and  C_9 
REMARK    4  A    between atoms: C_9  and  O_11 
REMARK    5  A    between atoms: C_16  and  C_17 
REMARK    6  A    between atoms: C_17  and  C_18 
REMARK    7  A    between atoms: C_18  and  C_19 
REMARK    8  A    between atoms: C_19  and  O_21 
REMARK    9  A    between atoms: C_28  and  C_29 
REMARK   10  A    between atoms: C_29  and  C_30 
REMARK   11  A    between atoms: C_30  and  C_31 
REMARK   12  A    between atoms: C_31  and  O_33 
REMARK   13  A    between atoms: C_42  and  C_43 
REMARK   14  A    between atoms: C_43  and  C_44 
REMARK   15  A    between atoms: C_44  and  C_45 
REMARK   16  A    between atoms: C_45  and  O_47 
ROOT
HETATM    1  C   UNK     0     -27.325  -2.028   4.678  0.00  0.00     0.051 C 
HETATM    2  C   UNK     0     -28.379  -1.644   5.697  0.00  0.00    -0.031 A 
HETATM    3  C   UNK     0     -29.002  -2.426   6.657  0.00  0.00     0.021 A 
HETATM    4  N   UNK     0     -29.903  -1.669   7.327  0.00  0.00    -0.361 N 
HETATM    5  C   UNK     0     -29.862  -0.419   6.821  0.00  0.00     0.022 A 
HETATM    6  C   UNK     0     -28.921  -0.369   5.798  0.00  0.00    -0.027 A 
HETATM    7  C   UNK     0     -30.586   0.813   7.267  0.00  0.00     0.115 C 
HETATM    8  C   UNK     0     -30.669   1.049   8.765  0.00  0.00     0.021 A 
HETATM    9  N   UNK     0     -29.753   0.775   9.707  0.00  0.00    -0.361 N 
HETATM   10  C   UNK     0     -30.290   1.066  10.911  0.00  0.00     0.022 A 
HETATM   11  C   UNK     0     -31.583   1.551  10.739  0.00  0.00    -0.027 A 
HETATM   12  C   UNK     0     -31.828   1.543   9.389  0.00  0.00    -0.031 A 
HETATM   13  C   UNK     0     -33.113   1.993   8.732  0.00  0.00     0.051 C 
HETATM   14  C   UNK     0     -29.628   0.851  12.269  0.00  0.00     0.115 C 
HETATM   15  C   UNK     0     -29.286  -0.601  12.564  0.00  0.00     0.021 A 
HETATM   16  N   UNK     0     -28.493  -1.420  11.849  0.00  0.00    -0.361 N 
HETATM   17  C   UNK     0     -28.506  -2.635  12.401  0.00  0.00     0.022 A 
HETATM   18  C   UNK     0     -29.341  -2.604  13.535  0.00  0.00    -0.027 A 
HETATM   19  C   UNK     0     -29.823  -1.324  13.627  0.00  0.00    -0.031 A 
HETATM   20  C   UNK     0     -30.740  -0.845  14.738  0.00  0.00     0.051 C 
HETATM   21  C   UNK     0     -27.845  -3.916  11.946  0.00  0.00     0.115 C 
HETATM   22  C   UNK     0     -27.716  -4.145  10.458  0.00  0.00     0.022 A 
HETATM   23  N   UNK     0     -28.610  -3.877   9.497  0.00  0.00    -0.361 N 
HETATM   24  C   UNK     0     -28.027  -4.102   8.302  0.00  0.00     0.021 A 
HETATM   25  C   UNK     0     -26.729  -4.534   8.499  0.00  0.00    -0.031 A 
HETATM   26  C   UNK     0     -25.696  -4.948   7.472  0.00  0.00     0.051 C 
HETATM   27  C   UNK     0     -26.507  -4.570   9.871  0.00  0.00    -0.027 A 
HETATM   28  C   UNK     0     -28.609  -3.852   6.922  0.00  0.00     0.115 C 
HETATM   29  H   UNK     0     -30.590  -2.033   8.126  0.00  0.00     0.165 HD
HETATM   30  H   UNK     0     -28.709   0.422   9.522  0.00  0.00     0.165 HD
HETATM   31  H   UNK     0     -27.872  -1.123  10.964  0.00  0.00     0.165 HD
HETATM   32  H   UNK     0     -29.676  -3.568   9.654  0.00  0.00     0.165 HD
ENDROOT
BRANCH   6  33
HETATM   33  C   UNK     0     -28.506   0.783   4.918  0.00  0.00     0.051 C 
BRANCH  33  34
HETATM   34  C   UNK     0     -27.608   1.735   5.672  0.00  0.00     0.114 C 
BRANCH  34  35
HETATM   35  C   UNK     0     -26.199   1.329   5.402  0.00  0.00     0.139 C 
HETATM   36  O   UNK     0     -25.714   1.447   4.239  0.00  0.00    -0.650 OA
BRANCH  35  37
HETATM   37  O   UNK     0     -25.365   0.815   6.387  0.00  0.00    -0.776 OA
HETATM   38  H   UNK     0     -25.549  -0.068   6.836  0.00  0.00     0.167 HD
ENDBRANCH  35  37
ENDBRANCH  34  35
ENDBRANCH  33  34
ENDBRANCH   6  33
BRANCH  27  39
HETATM   39  C   UNK     0     -25.237  -5.057  10.474  0.00  0.00     0.051 C 
BRANCH  39  40
HETATM   40  C   UNK     0     -25.199  -6.419  11.007  0.00  0.00     0.114 C 
BRANCH  40  41
HETATM   41  C   UNK     0     -25.314  -7.582  10.157  0.00  0.00     0.139 C 
HETATM   42  O   UNK     0     -24.339  -8.188   9.692  0.00  0.00    -0.650 OA
BRANCH  41  43
HETATM   43  O   UNK     0     -26.609  -8.071   9.826  0.00  0.00    -0.776 OA
HETATM   44  H   UNK     0     -27.320  -7.354   9.748  0.00  0.00     0.167 HD
ENDBRANCH  41  43
ENDBRANCH  40  41
ENDBRANCH  39  40
ENDBRANCH  27  39
BRANCH  11  45
HETATM   45  C   UNK     0     -32.563   2.011  11.784  0.00  0.00     0.051 C 
BRANCH  45  46
HETATM   46  C   UNK     0     -32.894   0.979  12.800  0.00  0.00     0.114 C 
BRANCH  46  47
HETATM   47  C   UNK     0     -33.632  -0.111  12.099  0.00  0.00     0.139 C 
HETATM   48  O   UNK     0     -34.805   0.093  11.757  0.00  0.00    -0.650 OA
BRANCH  47  49
HETATM   49  O   UNK     0     -33.027  -1.315  11.839  0.00  0.00    -0.776 OA
HETATM   50  H   UNK     0     -32.124  -1.378  11.353  0.00  0.00     0.167 HD
ENDBRANCH  47  49
ENDBRANCH  46  47
ENDBRANCH  45  46
ENDBRANCH  11  45
BRANCH  18  51
HETATM   51  C   UNK     0     -29.647  -3.728  14.492  0.00  0.00     0.051 C 
BRANCH  51  52
HETATM   52  C   UNK     0     -30.917  -4.390  13.979  0.00  0.00     0.114 C 
BRANCH  52  53
HETATM   53  C   UNK     0     -31.874  -4.659  15.070  0.00  0.00     0.139 C 
HETATM   54  O   UNK     0     -32.360  -3.719  15.718  0.00  0.00    -0.650 OA
BRANCH  53  55
HETATM   55  O   UNK     0     -32.221  -5.956  15.364  0.00  0.00    -0.776 OA
HETATM   56  H   UNK     0     -32.861  -6.244  16.067  0.00  0.00     0.167 HD
ENDBRANCH  53  55
ENDBRANCH  52  53
ENDBRANCH  51  52
ENDBRANCH  18  51
TORSDOF 16
ENDMDL
MODEL 20
REMARK VINA RESULT:      -7.7     26.178     29.488
REMARK  16 active torsions:
REMARK  status: ('A' for Active; 'I' for Inactive)
REMARK    1  A    between atoms: C_6  and  C_7 
REMARK    2  A    between atoms: C_7  and  C_8 
REMARK    3  A    between atoms: C_8  and  C_9 
REMARK    4  A    between atoms: C_9  and  O_11 
REMARK    5  A    between atoms: C_16  and  C_17 
REMARK    6  A    between atoms: C_17  and  C_18 
REMARK    7  A    between atoms: C_18  and  C_19 
REMARK    8  A    between atoms: C_19  and  O_21 
REMARK    9  A    between atoms: C_28  and  C_29 
REMARK   10  A    between atoms: C_29  and  C_30 
REMARK   11  A    between atoms: C_30  and  C_31 
REMARK   12  A    between atoms: C_31  and  O_33 
REMARK   13  A    between atoms: C_42  and  C_43 
REMARK   14  A    between atoms: C_43  and  C_44 
REMARK   15  A    between atoms: C_44  and  C_45 
REMARK   16  A    between atoms: C_45  and  O_47 
ROOT
HETATM    1  C   UNK     0      -4.407  10.529   0.503  0.00  0.00     0.051 C 
HETATM    2  C   UNK     0      -4.963  11.767   1.176  0.00  0.00    -0.031 A 
HETATM    3  C   UNK     0      -4.332  12.965   1.473  0.00  0.00     0.021 A 
HETATM    4  N   UNK     0      -5.209  13.780   2.107  0.00  0.00    -0.361 N 
HETATM    5  C   UNK     0      -6.387  13.131   2.212  0.00  0.00     0.022 A 
HETATM    6  C   UNK     0      -6.267  11.868   1.642  0.00  0.00    -0.027 A 
HETATM    7  C   UNK     0      -7.699  13.619   2.741  0.00  0.00     0.115 C 
HETATM    8  C   UNK     0      -8.114  15.025   2.344  0.00  0.00     0.021 A 
HETATM    9  N   UNK     0      -7.904  15.661   1.181  0.00  0.00    -0.361 N 
HETATM   10  C   UNK     0      -8.363  16.925   1.305  0.00  0.00     0.022 A 
HETATM   11  C   UNK     0      -8.891  17.104   2.580  0.00  0.00    -0.027 A 
HETATM   12  C   UNK     0      -8.738  15.911   3.240  0.00  0.00    -0.031 A 
HETATM   13  C   UNK     0      -9.174  15.635   4.661  0.00  0.00     0.051 C 
HETATM   14  C   UNK     0      -8.274  18.024   0.251  0.00  0.00     0.115 C 
HETATM   15  C   UNK     0      -6.851  18.382  -0.147  0.00  0.00     0.021 A 
HETATM   16  N   UNK     0      -5.913  17.566  -0.664  0.00  0.00    -0.361 N 
HETATM   17  C   UNK     0      -4.773  18.245  -0.810  0.00  0.00     0.022 A 
HETATM   18  C   UNK     0      -4.981  19.569  -0.376  0.00  0.00    -0.027 A 
HETATM   19  C   UNK     0      -6.286  19.642   0.035  0.00  0.00    -0.031 A 
HETATM   20  C   UNK     0      -6.940  20.913   0.547  0.00  0.00     0.051 C 
HETATM   21  C   UNK     0      -3.414  17.774  -1.276  0.00  0.00     0.115 C 
HETATM   22  C   UNK     0      -3.006  16.363  -0.925  0.00  0.00     0.022 A 
HETATM   23  N   UNK     0      -3.206  15.702   0.223  0.00  0.00    -0.361 N 
HETATM   24  C   UNK     0      -2.812  14.424   0.050  0.00  0.00     0.021 A 
HETATM   25  C   UNK     0      -2.338  14.260  -1.238  0.00  0.00    -0.031 A 
HETATM   26  C   UNK     0      -1.753  13.024  -1.888  0.00  0.00     0.051 C 
HETATM   27  C   UNK     0      -2.452  15.487  -1.881  0.00  0.00    -0.027 A 
HETATM   28  C   UNK     0      -2.928  13.275   1.036  0.00  0.00     0.115 C 
HETATM   29  H   UNK     0      -4.977  14.793   2.510  0.00  0.00     0.165 HD
HETATM   30  H   UNK     0      -7.477  15.207   0.253  0.00  0.00     0.165 HD
HETATM   31  H   UNK     0      -6.070  16.501  -0.977  0.00  0.00     0.165 HD
HETATM   32  H   UNK     0      -3.586  16.143   1.180  0.00  0.00     0.165 HD
ENDROOT
BRANCH   6  33
HETATM   33  C   UNK     0      -7.284  10.763   1.511  0.00  0.00     0.051 C 
BRANCH  33  34
HETATM   34  C   UNK     0      -8.131  10.958   0.275  0.00  0.00     0.114 C 
BRANCH  34  35
HETATM   35  C   UNK     0      -9.535  11.178   0.726  0.00  0.00     0.139 C 
HETATM   36  O   UNK     0     -10.108  12.285   0.510  0.00  0.00    -0.650 OA
BRANCH  35  37
HETATM   37  O   UNK     0     -10.270  10.202   1.389  0.00  0.00    -0.776 OA
HETATM   38  H   UNK     0      -9.946   9.776   2.242  0.00  0.00     0.167 HD
ENDBRANCH  35  37
ENDBRANCH  34  35
ENDBRANCH  33  34
ENDBRANCH   6  33
BRANCH  27  39
HETATM   39  C   UNK     0      -1.973  15.721  -3.271  0.00  0.00     0.051 C 
BRANCH  39  40
HETATM   40  C   UNK     0      -0.644  16.302  -3.458  0.00  0.00     0.114 C 
BRANCH  40  41
HETATM   41  C   UNK     0      -0.415  17.729  -3.425  0.00  0.00     0.139 C 
HETATM   42  O   UNK     0       0.352  18.280  -2.624  0.00  0.00    -0.650 OA
BRANCH  41  43
HETATM   43  O   UNK     0      -1.100  18.561  -4.356  0.00  0.00    -0.776 OA
HETATM   44  H   UNK     0      -1.975  18.179  -4.694  0.00  0.00     0.167 HD
ENDBRANCH  41  43
ENDBRANCH  40  41
ENDBRANCH  39  40
ENDBRANCH  27  39
BRANCH  11  45
HETATM   45  C   UNK     0      -9.521  18.336   3.174  0.00  0.00     0.051 C 
BRANCH  45  46
HETATM   46  C   UNK     0     -10.879  18.634   2.651  0.00  0.00     0.114 C 
BRANCH  46  47
HETATM   47  C   UNK     0     -11.838  17.768   3.395  0.00  0.00     0.139 C 
HETATM   48  O   UNK     0     -12.293  16.765   2.828  0.00  0.00    -0.650 OA
BRANCH  47  49
HETATM   49  O   UNK     0     -12.213  18.076   4.678  0.00  0.00    -0.776 OA
HETATM   50  H   UNK     0     -11.993  17.462   5.472  0.00  0.00     0.167 HD
ENDBRANCH  47  49
ENDBRANCH  46  47
ENDBRANCH  45  46
ENDBRANCH  11  45
BRANCH  18  51
HETATM   51  C   UNK     0      -3.995  20.709  -0.374  0.00  0.00     0.051 C 
BRANCH  51  52
HETATM   52  C   UNK     0      -3.079  20.478   0.819  0.00  0.00     0.114 C 
BRANCH  52  53
HETATM   53  C   UNK     0      -1.673  20.797   0.502  0.00  0.00     0.139 C 
HETATM   54  O   UNK     0      -1.125  21.779   1.029  0.00  0.00    -0.650 OA
BRANCH  53  55
HETATM   55  O   UNK     0      -0.979  20.006  -0.379  0.00  0.00    -0.776 OA
HETATM   56  H   UNK     0      -0.451  19.197  -0.147  0.00  0.00     0.167 HD
ENDBRANCH  53  55
ENDBRANCH  52  53
ENDBRANCH  51  52
ENDBRANCH  18  51
TORSDOF 16
ENDMDL
