MODEL 1
REMARK VINA RESULT:     -10.2      0.000      0.000
REMARK  28 active torsions:
REMARK  status: ('A' for Active; 'I' for Inactive)
REMARK    1  A    between atoms: C_2  and  O_3 
REMARK    2  A    between atoms: C_2  and  C_4 
REMARK    3  A    between atoms: C_4  and  C_5 
REMARK    4  A    between atoms: C_5  and  C_6 
REMARK    5  A    between atoms: C_7  and  C_8 
REMARK    6  A    between atoms: C_8  and  C_9 
REMARK    7  A    between atoms: C_9  and  O_11 
REMARK    8  A    between atoms: C_28  and  C_29 
REMARK    9  A    between atoms: C_29  and  C_30 
REMARK   10  A    between atoms: C_30  and  O_32 
REMARK   11  A    between atoms: C_33  and  C_34 
REMARK   12  A    between atoms: C_34  and  C_35 
REMARK   13  A    between atoms: C_35  and  C_36 
REMARK   14  A    between atoms: C_36  and  O_38 
REMARK   15  A    between atoms: C_39  and  C_40 
REMARK   16  A    between atoms: C_40  and  C_41 
REMARK   17  A    between atoms: C_41  and  C_42 
REMARK   18  A    between atoms: C_42  and  O_44 
REMARK   19  A    between atoms: C_45  and  C_46 
REMARK   20  A    between atoms: C_46  and  C_47 
REMARK   21  A    between atoms: C_47  and  O_49 
REMARK   22  A    between atoms: C_50  and  C_51 
REMARK   23  A    between atoms: C_51  and  C_52 
REMARK   24  A    between atoms: C_52  and  O_54 
REMARK   25  A    between atoms: C_55  and  C_56 
REMARK   26  A    between atoms: C_56  and  C_57 
REMARK   27  A    between atoms: C_57  and  C_58 
REMARK   28  A    between atoms: C_58  and  O_60 
ROOT
ATOM      1  O   UNK d   0       1.443  -2.449  31.612  0.00  0.00    -0.650 OA
ATOM      2  C   UNK d   0       1.017  -1.291  31.819  0.00  0.00     0.139 C 
ENDROOT
BRANCH   2   3
ATOM      3  O   UNK d   0       0.375  -1.010  33.001  0.00  0.00    -0.776 OA
ATOM      4  H   UNK d   0       0.901  -0.844  33.861  0.00  0.00     0.167 HD
ENDBRANCH   2   3
BRANCH   2   5
ATOM      5  C   UNK d   0       1.206  -0.229  30.790  0.00  0.00     0.115 C 
BRANCH   5   6
ATOM      6  C   UNK d   0       1.165  -0.832  29.411  0.00  0.00     0.052 C 
BRANCH   6   7
ATOM      7  C   UNK d   0      -0.234  -0.898  28.847  0.00  0.00    -0.020 A 
ATOM      8  C   UNK d   0      -0.908   0.063  28.269  0.00  0.00    -0.011 A 
ATOM      9  C   UNK d   0      -2.210  -0.466  27.899  0.00  0.00     0.067 A 
ATOM     10  C   UNK d   0      -3.355   0.023  27.252  0.00  0.00     0.062 C 
ATOM     11  N   UNK d   0      -2.245  -1.756  28.296  0.00  0.00    -0.248 NA
ATOM     12  C   UNK d   0      -4.419  -0.724  26.733  0.00  0.00     0.041 A 
ATOM     13  N   UNK d   0      -5.086  -1.782  27.233  0.00  0.00    -0.355 N 
ATOM     14  C   UNK d   0      -4.904  -0.416  25.449  0.00  0.00    -0.022 A 
ATOM     15  C   UNK d   0      -5.976  -2.159  26.295  0.00  0.00     0.042 A 
ATOM     16  H   UNK d   0      -4.944  -2.241  28.236  0.00  0.00     0.166 HD
ATOM     17  C   UNK d   0      -6.921  -3.203  26.301  0.00  0.00     0.062 C 
ATOM     18  C   UNK d   0      -5.891  -1.326  25.162  0.00  0.00    -0.013 A 
ATOM     19  C   UNK d   0      -6.765  -4.505  26.702  0.00  0.00     0.067 A 
ATOM     20  N   UNK d   0      -5.643  -4.805  27.361  0.00  0.00    -0.248 NA
ATOM     21  C   UNK d   0      -7.534  -5.734  26.587  0.00  0.00    -0.011 A 
ATOM     22  C   UNK d   0      -5.621  -6.140  27.682  0.00  0.00     0.066 A 
ATOM     23  C   UNK d   0      -4.522  -6.582  28.405  0.00  0.00     0.062 C 
ATOM     24  C   UNK d   0      -6.857  -6.687  27.159  0.00  0.00    -0.020 A 
ATOM     25  C   UNK d   0      -3.470  -5.814  28.927  0.00  0.00     0.041 A 
ATOM     26  N   UNK d   0      -2.797  -4.771  28.425  0.00  0.00    -0.355 N 
ATOM     27  C   UNK d   0      -2.987  -6.120  30.218  0.00  0.00    -0.022 A 
ATOM     28  C   UNK d   0      -1.903  -4.399  29.354  0.00  0.00     0.042 A 
ATOM     29  H   UNK d   0      -2.934  -4.318  27.412  0.00  0.00     0.166 HD
ATOM     30  C   UNK d   0      -0.951  -3.368  29.358  0.00  0.00     0.062 C 
ATOM     31  C   UNK d   0      -1.996  -5.229  30.496  0.00  0.00    -0.013 A 
ATOM     32  C   UNK d   0      -1.087  -2.077  28.873  0.00  0.00     0.066 A 
BRANCH   8  33
ATOM     33  C   UNK d   0      -0.451   1.445  28.030  0.00  0.00     0.151 C 
BRANCH  33  34
ATOM     34  C   UNK d   0      -1.267   2.447  28.740  0.00  0.00     0.143 C 
ATOM     35  O   UNK d   0      -1.156   2.606  29.964  0.00  0.00    -0.650 OA
BRANCH  34  36
ATOM     36  O   UNK d   0      -2.163   3.213  28.031  0.00  0.00    -0.776 OA
ATOM     37  H   UNK d   0      -3.167   3.205  28.255  0.00  0.00     0.167 HD
ENDBRANCH  34  36
ENDBRANCH  33  34
ENDBRANCH   8  33
BRANCH  31  38
ATOM     38  C   UNK d   0      -1.193  -5.160  31.774  0.00  0.00     0.151 C 
BRANCH  38  39
ATOM     39  C   UNK d   0      -1.837  -4.367  32.800  0.00  0.00     0.143 C 
ATOM     40  O   UNK d   0      -2.960  -4.650  33.253  0.00  0.00    -0.650 OA
BRANCH  39  41
ATOM     41  O   UNK d   0      -1.187  -3.242  33.307  0.00  0.00    -0.776 OA
ATOM     42  H   UNK d   0      -0.531  -2.766  32.680  0.00  0.00     0.167 HD
ENDBRANCH  39  41
ENDBRANCH  38  39
ENDBRANCH  31  38
BRANCH  27  43
ATOM     43  C   UNK d   0      -3.423  -7.204  31.172  0.00  0.00     0.052 C 
BRANCH  43  44
ATOM     44  C   UNK d   0      -2.467  -8.350  31.239  0.00  0.00     0.115 C 
BRANCH  44  45
ATOM     45  C   UNK d   0      -2.243  -8.633  32.681  0.00  0.00     0.139 C 
ATOM     46  O   UNK d   0      -1.822  -9.771  33.003  0.00  0.00    -0.650 OA
BRANCH  45  47
ATOM     47  O   UNK d   0      -2.474  -7.701  33.670  0.00  0.00    -0.776 OA
ATOM     48  H   UNK d   0      -2.488  -6.684  33.489  0.00  0.00     0.167 HD
ENDBRANCH  45  47
ENDBRANCH  44  45
ENDBRANCH  43  44
ENDBRANCH  27  43
BRANCH  24  49
ATOM     49  C   UNK d   0      -7.285  -8.089  27.305  0.00  0.00     0.052 C 
BRANCH  49  50
ATOM     50  C   UNK d   0      -6.186  -8.910  27.930  0.00  0.00     0.115 C 
BRANCH  50  51
ATOM     51  C   UNK d   0      -6.173 -10.337  27.637  0.00  0.00     0.139 C 
ATOM     52  O   UNK d   0      -5.140 -11.039  27.741  0.00  0.00    -0.650 OA
BRANCH  51  53
ATOM     53  O   UNK d   0      -7.339 -10.963  27.221  0.00  0.00    -0.776 OA
ATOM     54  H   UNK d   0      -7.560 -10.953  26.241  0.00  0.00     0.167 HD
ENDBRANCH  51  53
ENDBRANCH  50  51
ENDBRANCH  49  50
ENDBRANCH  24  49
BRANCH  21  55
ATOM     55  C   UNK d   0      -8.867  -5.825  25.921  0.00  0.00     0.151 C 
BRANCH  55  56
ATOM     56  C   UNK d   0      -9.960  -5.414  26.816  0.00  0.00     0.143 C 
ATOM     57  O   UNK d   0     -10.611  -6.225  27.504  0.00  0.00    -0.650 OA
BRANCH  56  58
ATOM     58  O   UNK d   0     -10.266  -4.056  26.886  0.00  0.00    -0.776 OA
ATOM     59  H   UNK d   0     -10.885  -3.709  26.131  0.00  0.00     0.167 HD
ENDBRANCH  56  58
ENDBRANCH  55  56
ENDBRANCH  21  55
BRANCH  18  60
ATOM     60  C   UNK d   0      -6.680  -1.370  23.877  0.00  0.00     0.151 C 
BRANCH  60  61
ATOM     61  C   UNK d   0      -7.976  -0.743  24.177  0.00  0.00     0.143 C 
ATOM     62  O   UNK d   0      -9.021  -1.314  24.491  0.00  0.00    -0.650 OA
BRANCH  61  63
ATOM     63  O   UNK d   0      -7.997   0.669  24.089  0.00  0.00    -0.776 OA
ATOM     64  H   UNK d   0      -7.173   1.213  24.275  0.00  0.00     0.167 HD
ENDBRANCH  61  63
ENDBRANCH  60  61
ENDBRANCH  18  60
BRANCH  14  65
ATOM     65  C   UNK d   0      -4.577   0.720  24.523  0.00  0.00     0.052 C 
BRANCH  65  66
ATOM     66  C   UNK d   0      -5.040   2.038  25.033  0.00  0.00     0.115 C 
BRANCH  66  67
ATOM     67  C   UNK d   0      -4.077   3.050  25.368  0.00  0.00     0.139 C 
ATOM     68  O   UNK d   0      -4.442   4.015  26.135  0.00  0.00    -0.650 OA
BRANCH  67  69
ATOM     69  O   UNK d   0      -2.747   3.131  24.957  0.00  0.00    -0.776 OA
ATOM     70  H   UNK d   0      -2.267   4.018  25.167  0.00  0.00     0.167 HD
ENDBRANCH  67  69
ENDBRANCH  66  67
ENDBRANCH  65  66
ENDBRANCH  14  65
ENDBRANCH   6   7
ENDBRANCH   5   6
ENDBRANCH   2   5
TORSDOF 28
ENDMDL
MODEL 2
REMARK VINA RESULT:     -10.1      1.715      7.933
REMARK  28 active torsions:
REMARK  status: ('A' for Active; 'I' for Inactive)
REMARK    1  A    between atoms: C_2  and  O_3 
REMARK    2  A    between atoms: C_2  and  C_4 
REMARK    3  A    between atoms: C_4  and  C_5 
REMARK    4  A    between atoms: C_5  and  C_6 
REMARK    5  A    between atoms: C_7  and  C_8 
REMARK    6  A    between atoms: C_8  and  C_9 
REMARK    7  A    between atoms: C_9  and  O_11 
REMARK    8  A    between atoms: C_28  and  C_29 
REMARK    9  A    between atoms: C_29  and  C_30 
REMARK   10  A    between atoms: C_30  and  O_32 
REMARK   11  A    between atoms: C_33  and  C_34 
REMARK   12  A    between atoms: C_34  and  C_35 
REMARK   13  A    between atoms: C_35  and  C_36 
REMARK   14  A    between atoms: C_36  and  O_38 
REMARK   15  A    between atoms: C_39  and  C_40 
REMARK   16  A    between atoms: C_40  and  C_41 
REMARK   17  A    between atoms: C_41  and  C_42 
REMARK   18  A    between atoms: C_42  and  O_44 
REMARK   19  A    between atoms: C_45  and  C_46 
REMARK   20  A    between atoms: C_46  and  C_47 
REMARK   21  A    between atoms: C_47  and  O_49 
REMARK   22  A    between atoms: C_50  and  C_51 
REMARK   23  A    between atoms: C_51  and  C_52 
REMARK   24  A    between atoms: C_52  and  O_54 
REMARK   25  A    between atoms: C_55  and  C_56 
REMARK   26  A    between atoms: C_56  and  C_57 
REMARK   27  A    between atoms: C_57  and  C_58 
REMARK   28  A    between atoms: C_58  and  O_60 
ROOT
ATOM      1  O   UNK d   0      -1.400   2.577  29.665  0.00  0.00    -0.650 OA
ATOM      2  C   UNK d   0      -0.449   2.433  28.865  0.00  0.00     0.139 C 
ENDROOT
BRANCH   2   3
ATOM      3  O   UNK d   0       0.383   3.496  28.610  0.00  0.00    -0.776 OA
ATOM      4  H   UNK d   0       0.224   4.407  29.046  0.00  0.00     0.167 HD
ENDBRANCH   2   3
BRANCH   2   5
ATOM      5  C   UNK d   0      -0.225   1.120  28.196  0.00  0.00     0.115 C 
BRANCH   5   6
ATOM      6  C   UNK d   0      -0.107   0.029  29.226  0.00  0.00     0.052 C 
BRANCH   6   7
ATOM      7  C   UNK d   0      -0.954  -1.177  28.895  0.00  0.00    -0.020 A 
ATOM      8  C   UNK d   0      -0.656  -2.437  29.080  0.00  0.00    -0.011 A 
ATOM      9  C   UNK d   0      -1.774  -3.234  28.602  0.00  0.00     0.067 A 
ATOM     10  C   UNK d   0      -2.088  -4.600  28.535  0.00  0.00     0.062 C 
ATOM     11  N   UNK d   0      -2.707  -2.376  28.137  0.00  0.00    -0.248 NA
ATOM     12  C   UNK d   0      -3.343  -5.170  28.293  0.00  0.00     0.041 A 
ATOM     13  N   UNK d   0      -4.307  -4.848  27.409  0.00  0.00    -0.355 N 
ATOM     14  C   UNK d   0      -3.775  -6.235  29.104  0.00  0.00    -0.022 A 
ATOM     15  C   UNK d   0      -5.342  -5.677  27.644  0.00  0.00     0.042 A 
ATOM     16  H   UNK d   0      -4.250  -4.064  26.623  0.00  0.00     0.166 HD
ATOM     17  C   UNK d   0      -6.597  -5.773  27.010  0.00  0.00     0.062 C 
ATOM     18  C   UNK d   0      -5.046  -6.561  28.699  0.00  0.00    -0.013 A 
ATOM     19  C   UNK d   0      -7.459  -4.769  26.647  0.00  0.00     0.067 A 
ATOM     20  N   UNK d   0      -6.993  -3.519  26.711  0.00  0.00    -0.248 NA
ATOM     21  C   UNK d   0      -8.838  -4.689  26.196  0.00  0.00    -0.011 A 
ATOM     22  C   UNK d   0      -7.968  -2.628  26.335  0.00  0.00     0.066 A 
ATOM     23  C   UNK d   0      -7.606  -1.289  26.319  0.00  0.00     0.062 C 
ATOM     24  C   UNK d   0      -9.131  -3.433  26.019  0.00  0.00    -0.020 A 
ATOM     25  C   UNK d   0      -6.336  -0.738  26.553  0.00  0.00     0.041 A 
ATOM     26  N   UNK d   0      -5.384  -1.048  27.441  0.00  0.00    -0.355 N 
ATOM     27  C   UNK d   0      -5.902   0.328  25.736  0.00  0.00    -0.022 A 
ATOM     28  C   UNK d   0      -4.354  -0.217  27.215  0.00  0.00     0.042 A 
ATOM     29  H   UNK d   0      -5.448  -1.830  28.238  0.00  0.00     0.166 HD
ATOM     30  C   UNK d   0      -3.104  -0.105  27.844  0.00  0.00     0.062 C 
ATOM     31  C   UNK d   0      -4.649   0.664  26.148  0.00  0.00    -0.013 A 
ATOM     32  C   UNK d   0      -2.275  -1.123  28.286  0.00  0.00     0.066 A 
BRANCH   8  33
ATOM     33  C   UNK d   0       0.587  -2.976  29.662  0.00  0.00     0.151 C 
BRANCH  33  34
ATOM     34  C   UNK d   0       0.397  -3.505  31.025  0.00  0.00     0.143 C 
ATOM     35  O   UNK d   0      -0.206  -2.846  31.885  0.00  0.00    -0.650 OA
BRANCH  34  36
ATOM     36  O   UNK d   0       0.897  -4.745  31.344  0.00  0.00    -0.776 OA
ATOM     37  H   UNK d   0       0.857  -5.526  30.675  0.00  0.00     0.167 HD
ENDBRANCH  34  36
ENDBRANCH  33  34
ENDBRANCH   8  33
BRANCH  31  38
ATOM     38  C   UNK d   0      -3.776   1.746  25.556  0.00  0.00     0.151 C 
BRANCH  38  39
ATOM     39  C   UNK d   0      -3.906   3.012  26.246  0.00  0.00     0.143 C 
ATOM     40  O   UNK d   0      -4.792   3.836  25.961  0.00  0.00    -0.650 OA
BRANCH  39  41
ATOM     41  O   UNK d   0      -3.013   3.331  27.269  0.00  0.00    -0.776 OA
ATOM     42  H   UNK d   0      -2.560   4.248  27.216  0.00  0.00     0.167 HD
ENDBRANCH  39  41
ENDBRANCH  38  39
ENDBRANCH  31  38
BRANCH  27  43
ATOM     43  C   UNK d   0      -6.620   1.024  24.607  0.00  0.00     0.052 C 
BRANCH  43  44
ATOM     44  C   UNK d   0      -7.849   1.752  25.048  0.00  0.00     0.115 C 
BRANCH  44  45
ATOM     45  C   UNK d   0      -7.607   3.194  24.779  0.00  0.00     0.139 C 
ATOM     46  O   UNK d   0      -8.224   4.037  25.476  0.00  0.00    -0.650 OA
BRANCH  45  47
ATOM     47  O   UNK d   0      -6.737   3.637  23.807  0.00  0.00    -0.776 OA
ATOM     48  H   UNK d   0      -5.789   3.246  23.683  0.00  0.00     0.167 HD
ENDBRANCH  45  47
ENDBRANCH  44  45
ENDBRANCH  43  44
ENDBRANCH  27  43
BRANCH  24  49
ATOM     49  C   UNK d   0     -10.414  -2.902  25.528  0.00  0.00     0.052 C 
BRANCH  49  50
ATOM     50  C   UNK d   0     -10.965  -1.886  26.496  0.00  0.00     0.115 C 
BRANCH  50  51
ATOM     51  C   UNK d   0     -11.189  -2.327  27.866  0.00  0.00     0.139 C 
ATOM     52  O   UNK d   0     -12.152  -3.061  28.192  0.00  0.00    -0.650 OA
BRANCH  51  53
ATOM     53  O   UNK d   0     -10.315  -1.928  28.866  0.00  0.00    -0.776 OA
ATOM     54  H   UNK d   0      -9.336  -2.119  28.746  0.00  0.00     0.167 HD
ENDBRANCH  51  53
ENDBRANCH  50  51
ENDBRANCH  49  50
ENDBRANCH  24  49
BRANCH  21  55
ATOM     55  C   UNK d   0      -9.718  -5.877  25.984  0.00  0.00     0.151 C 
BRANCH  55  56
ATOM     56  C   UNK d   0     -10.886  -5.864  26.877  0.00  0.00     0.143 C 
ATOM     57  O   UNK d   0     -10.800  -6.071  28.104  0.00  0.00    -0.650 OA
BRANCH  56  58
ATOM     58  O   UNK d   0     -12.134  -5.608  26.310  0.00  0.00    -0.776 OA
ATOM     59  H   UNK d   0     -12.444  -4.621  26.367  0.00  0.00     0.167 HD
ENDBRANCH  56  58
ENDBRANCH  55  56
ENDBRANCH  21  55
BRANCH  18  60
ATOM     60  C   UNK d   0      -5.894  -7.650  29.307  0.00  0.00     0.151 C 
BRANCH  60  61
ATOM     61  C   UNK d   0      -5.794  -8.797  28.393  0.00  0.00     0.143 C 
ATOM     62  O   UNK d   0      -6.658  -9.204  27.615  0.00  0.00    -0.650 OA
BRANCH  61  63
ATOM     63  O   UNK d   0      -4.561  -9.492  28.429  0.00  0.00    -0.776 OA
ATOM     64  H   UNK d   0      -4.208  -9.876  29.288  0.00  0.00     0.167 HD
ENDBRANCH  61  63
ENDBRANCH  60  61
ENDBRANCH  18  60
BRANCH  14  65
ATOM     65  C   UNK d   0      -3.047  -7.025  30.154  0.00  0.00     0.052 C 
BRANCH  65  66
ATOM     66  C   UNK d   0      -3.141  -6.417  31.508  0.00  0.00     0.115 C 
BRANCH  66  67
ATOM     67  C   UNK d   0      -2.256  -6.858  32.549  0.00  0.00     0.139 C 
ATOM     68  O   UNK d   0      -1.046  -6.424  32.551  0.00  0.00    -0.650 OA
BRANCH  67  69
ATOM     69  O   UNK d   0      -2.542  -7.729  33.601  0.00  0.00    -0.776 OA
ATOM     70  H   UNK d   0      -2.220  -8.699  33.478  0.00  0.00     0.167 HD
ENDBRANCH  67  69
ENDBRANCH  66  67
ENDBRANCH  65  66
ENDBRANCH  14  65
ENDBRANCH   6   7
ENDBRANCH   5   6
ENDBRANCH   2   5
TORSDOF 28
ENDMDL
MODEL 3
REMARK VINA RESULT:     -10.0      1.901      7.677
REMARK  28 active torsions:
REMARK  status: ('A' for Active; 'I' for Inactive)
REMARK    1  A    between atoms: C_2  and  O_3 
REMARK    2  A    between atoms: C_2  and  C_4 
REMARK    3  A    between atoms: C_4  and  C_5 
REMARK    4  A    between atoms: C_5  and  C_6 
REMARK    5  A    between atoms: C_7  and  C_8 
REMARK    6  A    between atoms: C_8  and  C_9 
REMARK    7  A    between atoms: C_9  and  O_11 
REMARK    8  A    between atoms: C_28  and  C_29 
REMARK    9  A    between atoms: C_29  and  C_30 
REMARK   10  A    between atoms: C_30  and  O_32 
REMARK   11  A    between atoms: C_33  and  C_34 
REMARK   12  A    between atoms: C_34  and  C_35 
REMARK   13  A    between atoms: C_35  and  C_36 
REMARK   14  A    between atoms: C_36  and  O_38 
REMARK   15  A    between atoms: C_39  and  C_40 
REMARK   16  A    between atoms: C_40  and  C_41 
REMARK   17  A    between atoms: C_41  and  C_42 
REMARK   18  A    between atoms: C_42  and  O_44 
REMARK   19  A    between atoms: C_45  and  C_46 
REMARK   20  A    between atoms: C_46  and  C_47 
REMARK   21  A    between atoms: C_47  and  O_49 
REMARK   22  A    between atoms: C_50  and  C_51 
REMARK   23  A    between atoms: C_51  and  C_52 
REMARK   24  A    between atoms: C_52  and  O_54 
REMARK   25  A    between atoms: C_55  and  C_56 
REMARK   26  A    between atoms: C_56  and  C_57 
REMARK   27  A    between atoms: C_57  and  C_58 
REMARK   28  A    between atoms: C_58  and  O_60 
ROOT
ATOM      1  O   UNK d   0       2.872   0.831  29.428  0.00  0.00    -0.650 OA
ATOM      2  C   UNK d   0       2.418   1.211  28.326  0.00  0.00     0.139 C 
ENDROOT
BRANCH   2   3
ATOM      3  O   UNK d   0       3.182   2.028  27.528  0.00  0.00    -0.776 OA
ATOM      4  H   UNK d   0       4.031   2.471  27.886  0.00  0.00     0.167 HD
ENDBRANCH   2   3
BRANCH   2   5
ATOM      5  C   UNK d   0       1.061   0.779  27.887  0.00  0.00     0.115 C 
BRANCH   5   6
ATOM      6  C   UNK d   0       0.236   0.373  29.079  0.00  0.00     0.052 C 
BRANCH   6   7
ATOM      7  C   UNK d   0      -0.550  -0.893  28.837  0.00  0.00    -0.020 A 
ATOM      8  C   UNK d   0      -0.166  -2.125  29.052  0.00  0.00    -0.011 A 
ATOM      9  C   UNK d   0      -1.255  -3.006  28.661  0.00  0.00     0.067 A 
ATOM     10  C   UNK d   0      -1.487  -4.390  28.660  0.00  0.00     0.062 C 
ATOM     11  N   UNK d   0      -2.261  -2.225  28.215  0.00  0.00    -0.248 NA
ATOM     12  C   UNK d   0      -2.714  -5.043  28.504  0.00  0.00     0.041 A 
ATOM     13  N   UNK d   0      -3.739  -4.815  27.661  0.00  0.00    -0.355 N 
ATOM     14  C   UNK d   0      -3.038  -6.100  29.374  0.00  0.00    -0.022 A 
ATOM     15  C   UNK d   0      -4.708  -5.694  27.979  0.00  0.00     0.042 A 
ATOM     16  H   UNK d   0      -3.769  -4.060  26.845  0.00  0.00     0.166 HD
ATOM     17  C   UNK d   0      -5.984  -5.890  27.415  0.00  0.00     0.062 C 
ATOM     18  C   UNK d   0      -4.305  -6.517  29.049  0.00  0.00    -0.013 A 
ATOM     19  C   UNK d   0      -6.924  -4.956  27.061  0.00  0.00     0.067 A 
ATOM     20  N   UNK d   0      -6.534  -3.678  27.055  0.00  0.00    -0.248 NA
ATOM     21  C   UNK d   0      -8.326  -4.977  26.679  0.00  0.00    -0.011 A 
ATOM     22  C   UNK d   0      -7.579  -2.863  26.699  0.00  0.00     0.066 A 
ATOM     23  C   UNK d   0      -7.302  -1.506  26.615  0.00  0.00     0.062 C 
ATOM     24  C   UNK d   0      -8.704  -3.748  26.473  0.00  0.00    -0.020 A 
ATOM     25  C   UNK d   0      -6.059  -0.871  26.763  0.00  0.00     0.041 A 
ATOM     26  N   UNK d   0      -5.046  -1.088  27.611  0.00  0.00    -0.355 N 
ATOM     27  C   UNK d   0      -5.733   0.186  25.886  0.00  0.00    -0.022 A 
ATOM     28  C   UNK d   0      -4.082  -0.207  27.302  0.00  0.00     0.042 A 
ATOM     29  H   UNK d   0      -5.022  -1.840  28.438  0.00  0.00     0.166 HD
ATOM     30  C   UNK d   0      -2.812   0.006  27.860  0.00  0.00     0.062 C 
ATOM     31  C   UNK d   0      -4.484   0.612  26.220  0.00  0.00    -0.013 A 
ATOM     32  C   UNK d   0      -1.900  -0.943  28.295  0.00  0.00     0.066 A 
BRANCH   8  33
ATOM     33  C   UNK d   0       1.135  -2.566  29.587  0.00  0.00     0.151 C 
BRANCH  33  34
ATOM     34  C   UNK d   0       1.054  -3.012  30.989  0.00  0.00     0.143 C 
ATOM     35  O   UNK d   0       1.862  -3.835  31.444  0.00  0.00    -0.650 OA
BRANCH  34  36
ATOM     36  O   UNK d   0       0.065  -2.508  31.802  0.00  0.00    -0.776 OA
ATOM     37  H   UNK d   0      -0.295  -1.552  31.676  0.00  0.00     0.167 HD
ENDBRANCH  34  36
ENDBRANCH  33  34
ENDBRANCH   8  33
BRANCH  31  38
ATOM     38  C   UNK d   0      -3.710   1.721  25.545  0.00  0.00     0.151 C 
BRANCH  38  39
ATOM     39  C   UNK d   0      -3.742   2.962  26.289  0.00  0.00     0.143 C 
ATOM     40  O   UNK d   0      -2.943   3.207  27.210  0.00  0.00    -0.650 OA
BRANCH  39  41
ATOM     41  O   UNK d   0      -4.698   3.927  25.973  0.00  0.00    -0.776 OA
ATOM     42  H   UNK d   0      -4.692   4.784  26.534  0.00  0.00     0.167 HD
ENDBRANCH  39  41
ENDBRANCH  38  39
ENDBRANCH  31  38
BRANCH  27  43
ATOM     43  C   UNK d   0      -6.548   0.793  24.771  0.00  0.00     0.052 C 
BRANCH  43  44
ATOM     44  C   UNK d   0      -7.719   1.582  25.258  0.00  0.00     0.115 C 
BRANCH  44  45
ATOM     45  C   UNK d   0      -7.431   3.007  24.947  0.00  0.00     0.139 C 
ATOM     46  O   UNK d   0      -7.872   3.885  25.729  0.00  0.00    -0.650 OA
BRANCH  45  47
ATOM     47  O   UNK d   0      -6.699   3.397  23.847  0.00  0.00    -0.776 OA
ATOM     48  H   UNK d   0      -6.872   3.027  22.898  0.00  0.00     0.167 HD
ENDBRANCH  45  47
ENDBRANCH  44  45
ENDBRANCH  43  44
ENDBRANCH  27  43
BRANCH  24  49
ATOM     49  C   UNK d   0     -10.041  -3.314  26.030  0.00  0.00     0.052 C 
BRANCH  49  50
ATOM     50  C   UNK d   0     -10.776  -2.645  27.163  0.00  0.00     0.115 C 
BRANCH  50  51
ATOM     51  C   UNK d   0     -11.741  -3.451  27.897  0.00  0.00     0.139 C 
ATOM     52  O   UNK d   0     -12.082  -4.601  27.530  0.00  0.00    -0.650 OA
BRANCH  51  53
ATOM     53  O   UNK d   0     -12.321  -2.946  29.051  0.00  0.00    -0.776 OA
ATOM     54  H   UNK d   0     -11.845  -2.208  29.539  0.00  0.00     0.167 HD
ENDBRANCH  51  53
ENDBRANCH  50  51
ENDBRANCH  49  50
ENDBRANCH  24  49
BRANCH  21  55
ATOM     55  C   UNK d   0      -9.139  -6.222  26.557  0.00  0.00     0.151 C 
BRANCH  55  56
ATOM     56  C   UNK d   0      -9.112  -6.766  25.190  0.00  0.00     0.143 C 
ATOM     57  O   UNK d   0      -8.209  -7.522  24.782  0.00  0.00    -0.650 OA
BRANCH  56  58
ATOM     58  O   UNK d   0     -10.149  -6.410  24.329  0.00  0.00    -0.776 OA
ATOM     59  H   UNK d   0      -9.877  -6.316  23.334  0.00  0.00     0.167 HD
ENDBRANCH  56  58
ENDBRANCH  55  56
ENDBRANCH  21  55
BRANCH  18  60
ATOM     60  C   UNK d   0      -5.053  -7.630  29.739  0.00  0.00     0.151 C 
BRANCH  60  61
ATOM     61  C   UNK d   0      -5.019  -8.773  28.814  0.00  0.00     0.143 C 
ATOM     62  O   UNK d   0      -5.974  -9.280  28.226  0.00  0.00    -0.650 OA
BRANCH  61  63
ATOM     63  O   UNK d   0      -3.737  -9.332  28.594  0.00  0.00    -0.776 OA
ATOM     64  H   UNK d   0      -3.424  -9.562  27.667  0.00  0.00     0.167 HD
ENDBRANCH  61  63
ENDBRANCH  60  61
ENDBRANCH  18  60
BRANCH  14  65
ATOM     65  C   UNK d   0      -2.212  -6.803  30.414  0.00  0.00     0.052 C 
BRANCH  65  66
ATOM     66  C   UNK d   0      -1.585  -5.870  31.387  0.00  0.00     0.115 C 
BRANCH  66  67
ATOM     67  C   UNK d   0      -2.412  -5.124  32.294  0.00  0.00     0.139 C 
ATOM     68  O   UNK d   0      -1.844  -4.339  33.139  0.00  0.00    -0.650 OA
BRANCH  67  69
ATOM     69  O   UNK d   0      -3.803  -5.137  32.385  0.00  0.00    -0.776 OA
ATOM     70  H   UNK d   0      -4.288  -4.332  31.963  0.00  0.00     0.167 HD
ENDBRANCH  67  69
ENDBRANCH  66  67
ENDBRANCH  65  66
ENDBRANCH  14  65
ENDBRANCH   6   7
ENDBRANCH   5   6
ENDBRANCH   2   5
TORSDOF 28
ENDMDL
MODEL 4
REMARK VINA RESULT:      -9.9      1.381      4.441
REMARK  28 active torsions:
REMARK  status: ('A' for Active; 'I' for Inactive)
REMARK    1  A    between atoms: C_2  and  O_3 
REMARK    2  A    between atoms: C_2  and  C_4 
REMARK    3  A    between atoms: C_4  and  C_5 
REMARK    4  A    between atoms: C_5  and  C_6 
REMARK    5  A    between atoms: C_7  and  C_8 
REMARK    6  A    between atoms: C_8  and  C_9 
REMARK    7  A    between atoms: C_9  and  O_11 
REMARK    8  A    between atoms: C_28  and  C_29 
REMARK    9  A    between atoms: C_29  and  C_30 
REMARK   10  A    between atoms: C_30  and  O_32 
REMARK   11  A    between atoms: C_33  and  C_34 
REMARK   12  A    between atoms: C_34  and  C_35 
REMARK   13  A    between atoms: C_35  and  C_36 
REMARK   14  A    between atoms: C_36  and  O_38 
REMARK   15  A    between atoms: C_39  and  C_40 
REMARK   16  A    between atoms: C_40  and  C_41 
REMARK   17  A    between atoms: C_41  and  C_42 
REMARK   18  A    between atoms: C_42  and  O_44 
REMARK   19  A    between atoms: C_45  and  C_46 
REMARK   20  A    between atoms: C_46  and  C_47 
REMARK   21  A    between atoms: C_47  and  O_49 
REMARK   22  A    between atoms: C_50  and  C_51 
REMARK   23  A    between atoms: C_51  and  C_52 
REMARK   24  A    between atoms: C_52  and  O_54 
REMARK   25  A    between atoms: C_55  and  C_56 
REMARK   26  A    between atoms: C_56  and  C_57 
REMARK   27  A    between atoms: C_57  and  C_58 
REMARK   28  A    between atoms: C_58  and  O_60 
ROOT
ATOM      1  O   UNK d   0       1.436  -4.063  33.308  0.00  0.00    -0.650 OA
ATOM      2  C   UNK d   0       0.499  -4.633  32.705  0.00  0.00     0.139 C 
ENDROOT
BRANCH   2   3
ATOM      3  O   UNK d   0      -0.785  -4.495  33.172  0.00  0.00    -0.776 OA
ATOM      4  H   UNK d   0      -1.313  -5.302  33.512  0.00  0.00     0.167 HD
ENDBRANCH   2   3
BRANCH   2   5
ATOM      5  C   UNK d   0       0.779  -5.453  31.492  0.00  0.00     0.115 C 
BRANCH   5   6
ATOM      6  C   UNK d   0       1.245  -4.570  30.366  0.00  0.00     0.052 C 
BRANCH   6   7
ATOM      7  C   UNK d   0       0.158  -3.651  29.861  0.00  0.00    -0.020 A 
ATOM      8  C   UNK d   0       0.181  -2.344  29.802  0.00  0.00    -0.011 A 
ATOM      9  C   UNK d   0      -1.090  -1.900  29.255  0.00  0.00     0.067 A 
ATOM     10  C   UNK d   0      -1.676  -0.668  28.926  0.00  0.00     0.062 C 
ATOM     11  N   UNK d   0      -1.829  -3.003  29.014  0.00  0.00    -0.248 NA
ATOM     12  C   UNK d   0      -2.815  -0.454  28.143  0.00  0.00     0.041 A 
ATOM     13  N   UNK d   0      -4.002  -1.089  28.112  0.00  0.00    -0.355 N 
ATOM     14  C   UNK d   0      -2.783   0.545  27.153  0.00  0.00    -0.022 A 
ATOM     15  C   UNK d   0      -4.720  -0.524  27.123  0.00  0.00     0.042 A 
ATOM     16  H   UNK d   0      -4.333  -1.907  28.789  0.00  0.00     0.166 HD
ATOM     17  C   UNK d   0      -6.023  -0.805  26.666  0.00  0.00     0.062 C 
ATOM     18  C   UNK d   0      -3.989   0.504  26.498  0.00  0.00    -0.013 A 
ATOM     19  C   UNK d   0      -6.608  -2.021  26.421  0.00  0.00     0.067 A 
ATOM     20  N   UNK d   0      -5.953  -3.104  26.846  0.00  0.00    -0.248 NA
ATOM     21  C   UNK d   0      -7.821  -2.484  25.768  0.00  0.00    -0.011 A 
ATOM     22  C   UNK d   0      -6.648  -4.242  26.518  0.00  0.00     0.066 A 
ATOM     23  C   UNK d   0      -6.096  -5.444  26.935  0.00  0.00     0.062 C 
ATOM     24  C   UNK d   0      -7.837  -3.785  25.825  0.00  0.00    -0.020 A 
ATOM     25  C   UNK d   0      -4.957  -5.637  27.732  0.00  0.00     0.041 A 
ATOM     26  N   UNK d   0      -3.772  -5.015  27.753  0.00  0.00    -0.355 N 
ATOM     27  C   UNK d   0      -4.993  -6.637  28.729  0.00  0.00    -0.022 A 
ATOM     28  C   UNK d   0      -3.051  -5.583  28.733  0.00  0.00     0.042 A 
ATOM     29  H   UNK d   0      -3.437  -4.200  27.065  0.00  0.00     0.166 HD
ATOM     30  C   UNK d   0      -1.751  -5.320  29.192  0.00  0.00     0.062 C 
ATOM     31  C   UNK d   0      -3.791  -6.609  29.367  0.00  0.00    -0.013 A 
ATOM     32  C   UNK d   0      -1.135  -4.089  29.357  0.00  0.00     0.066 A 
BRANCH   8  33
ATOM     33  C   UNK d   0       1.286  -1.459  30.216  0.00  0.00     0.151 C 
BRANCH  33  34
ATOM     34  C   UNK d   0       1.023  -0.780  31.498  0.00  0.00     0.143 C 
ATOM     35  O   UNK d   0       0.319   0.239  31.545  0.00  0.00    -0.650 OA
BRANCH  34  36
ATOM     36  O   UNK d   0       1.569  -1.285  32.655  0.00  0.00    -0.776 OA
ATOM     37  H   UNK d   0       2.155  -0.703  33.268  0.00  0.00     0.167 HD
ENDBRANCH  34  36
ENDBRANCH  33  34
ENDBRANCH   8  33
BRANCH  31  38
ATOM     38  C   UNK d   0      -3.372  -7.493  30.518  0.00  0.00     0.151 C 
BRANCH  38  39
ATOM     39  C   UNK d   0      -3.155  -6.753  31.744  0.00  0.00     0.143 C 
ATOM     40  O   UNK d   0      -2.258  -7.053  32.552  0.00  0.00    -0.650 OA
BRANCH  39  41
ATOM     41  O   UNK d   0      -3.972  -5.663  32.042  0.00  0.00    -0.776 OA
ATOM     42  H   UNK d   0      -3.657  -4.746  31.711  0.00  0.00     0.167 HD
ENDBRANCH  39  41
ENDBRANCH  38  39
ENDBRANCH  31  38
BRANCH  27  43
ATOM     43  C   UNK d   0      -6.101  -7.596  29.086  0.00  0.00     0.052 C 
BRANCH  43  44
ATOM     44  C   UNK d   0      -5.828  -9.000  28.654  0.00  0.00     0.115 C 
BRANCH  44  45
ATOM     45  C   UNK d   0      -6.759  -9.287  27.532  0.00  0.00     0.139 C 
ATOM     46  O   UNK d   0      -6.861 -10.475  27.137  0.00  0.00    -0.650 OA
BRANCH  45  47
ATOM     47  O   UNK d   0      -7.511  -8.311  26.916  0.00  0.00    -0.776 OA
ATOM     48  H   UNK d   0      -8.402  -7.962  27.304  0.00  0.00     0.167 HD
ENDBRANCH  45  47
ENDBRANCH  44  45
ENDBRANCH  43  44
ENDBRANCH  27  43
BRANCH  24  49
ATOM     49  C   UNK d   0      -8.905  -4.664  25.318  0.00  0.00     0.052 C 
BRANCH  49  50
ATOM     50  C   UNK d   0      -9.775  -5.140  26.452  0.00  0.00     0.115 C 
BRANCH  50  51
ATOM     51  C   UNK d   0     -11.105  -4.557  26.560  0.00  0.00     0.139 C 
ATOM     52  O   UNK d   0     -11.845  -4.740  27.555  0.00  0.00    -0.650 OA
BRANCH  51  53
ATOM     53  O   UNK d   0     -11.593  -3.766  25.531  0.00  0.00    -0.776 OA
ATOM     54  H   UNK d   0     -11.046  -3.686  24.692  0.00  0.00     0.167 HD
ENDBRANCH  51  53
ENDBRANCH  50  51
ENDBRANCH  49  50
ENDBRANCH  24  49
BRANCH  21  55
ATOM     55  C   UNK d   0      -8.841  -1.579  25.160  0.00  0.00     0.151 C 
BRANCH  55  56
ATOM     56  C   UNK d   0      -8.243  -0.650  24.188  0.00  0.00     0.143 C 
ATOM     57  O   UNK d   0      -8.267   0.587  24.335  0.00  0.00    -0.650 OA
BRANCH  56  58
ATOM     58  O   UNK d   0      -7.630  -1.196  23.061  0.00  0.00    -0.776 OA
ATOM     59  H   UNK d   0      -8.274  -1.660  22.396  0.00  0.00     0.167 HD
ENDBRANCH  56  58
ENDBRANCH  55  56
ENDBRANCH  21  55
BRANCH  18  60
ATOM     60  C   UNK d   0      -4.381   1.403  25.352  0.00  0.00     0.151 C 
BRANCH  60  61
ATOM     61  C   UNK d   0      -5.152   2.505  25.948  0.00  0.00     0.143 C 
ATOM     62  O   UNK d   0      -4.704   3.536  26.451  0.00  0.00    -0.650 OA
BRANCH  61  63
ATOM     63  O   UNK d   0      -6.557   2.337  25.928  0.00  0.00    -0.776 OA
ATOM     64  H   UNK d   0      -7.025   1.979  25.114  0.00  0.00     0.167 HD
ENDBRANCH  61  63
ENDBRANCH  60  61
ENDBRANCH  18  60
BRANCH  14  65
ATOM     65  C   UNK d   0      -1.747   1.589  26.847  0.00  0.00     0.052 C 
BRANCH  65  66
ATOM     66  C   UNK d   0      -1.828   2.771  27.747  0.00  0.00     0.115 C 
BRANCH  66  67
ATOM     67  C   UNK d   0      -1.003   2.830  28.920  0.00  0.00     0.139 C 
ATOM     68  O   UNK d   0       0.165   3.359  28.823  0.00  0.00    -0.650 OA
BRANCH  67  69
ATOM     69  O   UNK d   0      -1.307   2.372  30.202  0.00  0.00    -0.776 OA
ATOM     70  H   UNK d   0      -2.174   2.743  30.616  0.00  0.00     0.167 HD
ENDBRANCH  67  69
ENDBRANCH  66  67
ENDBRANCH  65  66
ENDBRANCH  14  65
ENDBRANCH   6   7
ENDBRANCH   5   6
ENDBRANCH   2   5
TORSDOF 28
ENDMDL
MODEL 5
REMARK VINA RESULT:      -9.9      1.887      4.376
REMARK  28 active torsions:
REMARK  status: ('A' for Active; 'I' for Inactive)
REMARK    1  A    between atoms: C_2  and  O_3 
REMARK    2  A    between atoms: C_2  and  C_4 
REMARK    3  A    between atoms: C_4  and  C_5 
REMARK    4  A    between atoms: C_5  and  C_6 
REMARK    5  A    between atoms: C_7  and  C_8 
REMARK    6  A    between atoms: C_8  and  C_9 
REMARK    7  A    between atoms: C_9  and  O_11 
REMARK    8  A    between atoms: C_28  and  C_29 
REMARK    9  A    between atoms: C_29  and  C_30 
REMARK   10  A    between atoms: C_30  and  O_32 
REMARK   11  A    between atoms: C_33  and  C_34 
REMARK   12  A    between atoms: C_34  and  C_35 
REMARK   13  A    between atoms: C_35  and  C_36 
REMARK   14  A    between atoms: C_36  and  O_38 
REMARK   15  A    between atoms: C_39  and  C_40 
REMARK   16  A    between atoms: C_40  and  C_41 
REMARK   17  A    between atoms: C_41  and  C_42 
REMARK   18  A    between atoms: C_42  and  O_44 
REMARK   19  A    between atoms: C_45  and  C_46 
REMARK   20  A    between atoms: C_46  and  C_47 
REMARK   21  A    between atoms: C_47  and  O_49 
REMARK   22  A    between atoms: C_50  and  C_51 
REMARK   23  A    between atoms: C_51  and  C_52 
REMARK   24  A    between atoms: C_52  and  O_54 
REMARK   25  A    between atoms: C_55  and  C_56 
REMARK   26  A    between atoms: C_56  and  C_57 
REMARK   27  A    between atoms: C_57  and  C_58 
REMARK   28  A    between atoms: C_58  and  O_60 
ROOT
ATOM      1  O   UNK d   0       1.050  -7.560  31.230  0.00  0.00    -0.650 OA
ATOM      2  C   UNK d   0       1.919  -6.847  30.679  0.00  0.00     0.139 C 
ENDROOT
BRANCH   2   3
ATOM      3  O   UNK d   0       3.054  -7.436  30.176  0.00  0.00    -0.776 OA
ATOM      4  H   UNK d   0       2.998  -8.262  29.577  0.00  0.00     0.167 HD
ENDBRANCH   2   3
BRANCH   2   5
ATOM      5  C   UNK d   0       1.720  -5.374  30.572  0.00  0.00     0.115 C 
BRANCH   5   6
ATOM      6  C   UNK d   0       1.527  -4.980  29.133  0.00  0.00     0.052 C 
BRANCH   6   7
ATOM      7  C   UNK d   0       0.342  -4.065  28.934  0.00  0.00    -0.020 A 
ATOM      8  C   UNK d   0       0.320  -2.759  29.018  0.00  0.00    -0.011 A 
ATOM      9  C   UNK d   0      -1.041  -2.320  28.758  0.00  0.00     0.067 A 
ATOM     10  C   UNK d   0      -1.710  -1.089  28.677  0.00  0.00     0.062 C 
ATOM     11  N   UNK d   0      -1.782  -3.426  28.532  0.00  0.00    -0.248 NA
ATOM     12  C   UNK d   0      -2.978  -0.847  28.138  0.00  0.00     0.041 A 
ATOM     13  N   UNK d   0      -4.133  -1.530  28.248  0.00  0.00    -0.355 N 
ATOM     14  C   UNK d   0      -3.153   0.250  27.274  0.00  0.00    -0.022 A 
ATOM     15  C   UNK d   0      -5.034  -0.899  27.471  0.00  0.00     0.042 A 
ATOM     16  H   UNK d   0      -4.314  -2.429  28.878  0.00  0.00     0.166 HD
ATOM     17  C   UNK d   0      -6.391  -1.191  27.225  0.00  0.00     0.062 C 
ATOM     18  C   UNK d   0      -4.456   0.221  26.844  0.00  0.00    -0.013 A 
ATOM     19  C   UNK d   0      -6.977  -2.400  26.954  0.00  0.00     0.067 A 
ATOM     20  N   UNK d   0      -6.227  -3.490  27.133  0.00  0.00    -0.248 NA
ATOM     21  C   UNK d   0      -8.276  -2.849  26.480  0.00  0.00    -0.011 A 
ATOM     22  C   UNK d   0      -6.940  -4.619  26.809  0.00  0.00     0.066 A 
ATOM     23  C   UNK d   0      -6.289  -5.831  26.986  0.00  0.00     0.062 C 
ATOM     24  C   UNK d   0      -8.246  -4.147  26.394  0.00  0.00    -0.020 A 
ATOM     25  C   UNK d   0      -5.020  -6.053  27.542  0.00  0.00     0.041 A 
ATOM     26  N   UNK d   0      -3.868  -5.383  27.420  0.00  0.00    -0.355 N 
ATOM     27  C   UNK d   0      -4.846  -7.152  28.412  0.00  0.00    -0.022 A 
ATOM     28  C   UNK d   0      -2.965  -6.015  28.187  0.00  0.00     0.042 A 
ATOM     29  H   UNK d   0      -3.685  -4.486  26.778  0.00  0.00     0.166 HD
ATOM     30  C   UNK d   0      -1.611  -5.742  28.434  0.00  0.00     0.062 C 
ATOM     31  C   UNK d   0      -3.550  -7.135  28.825  0.00  0.00    -0.013 A 
ATOM     32  C   UNK d   0      -1.008  -4.508  28.623  0.00  0.00     0.066 A 
BRANCH   8  33
ATOM     33  C   UNK d   0       1.457  -1.872  29.324  0.00  0.00     0.151 C 
BRANCH  33  34
ATOM     34  C   UNK d   0       1.335  -1.224  30.642  0.00  0.00     0.143 C 
ATOM     35  O   UNK d   0       1.588  -1.846  31.684  0.00  0.00    -0.650 OA
BRANCH  34  36
ATOM     36  O   UNK d   0       0.935   0.090  30.714  0.00  0.00    -0.776 OA
ATOM     37  H   UNK d   0       1.569   0.825  31.057  0.00  0.00     0.167 HD
ENDBRANCH  34  36
ENDBRANCH  33  34
ENDBRANCH   8  33
BRANCH  31  38
ATOM     38  C   UNK d   0      -2.905  -8.114  29.778  0.00  0.00     0.151 C 
BRANCH  38  39
ATOM     39  C   UNK d   0      -2.689  -7.555  31.096  0.00  0.00     0.143 C 
ATOM     40  O   UNK d   0      -3.352  -6.596  31.529  0.00  0.00    -0.650 OA
BRANCH  39  41
ATOM     41  O   UNK d   0      -1.707  -8.102  31.921  0.00  0.00    -0.776 OA
ATOM     42  H   UNK d   0      -1.499  -7.598  32.788  0.00  0.00     0.167 HD
ENDBRANCH  39  41
ENDBRANCH  38  39
ENDBRANCH  31  38
BRANCH  27  43
ATOM     43  C   UNK d   0      -5.845  -8.193  28.851  0.00  0.00     0.052 C 
BRANCH  43  44
ATOM     44  C   UNK d   0      -5.646  -9.519  28.191  0.00  0.00     0.115 C 
BRANCH  44  45
ATOM     45  C   UNK d   0      -6.926  -9.853  27.515  0.00  0.00     0.139 C 
ATOM     46  O   UNK d   0      -7.414 -10.995  27.703  0.00  0.00    -0.650 OA
BRANCH  45  47
ATOM     47  O   UNK d   0      -7.596  -8.965  26.702  0.00  0.00    -0.776 OA
ATOM     48  H   UNK d   0      -8.182  -9.266  25.906  0.00  0.00     0.167 HD
ENDBRANCH  45  47
ENDBRANCH  44  45
ENDBRANCH  43  44
ENDBRANCH  27  43
BRANCH  24  49
ATOM     49  C   UNK d   0      -9.365  -5.017  25.990  0.00  0.00     0.052 C 
BRANCH  49  50
ATOM     50  C   UNK d   0      -9.990  -5.662  27.200  0.00  0.00     0.115 C 
BRANCH  50  51
ATOM     51  C   UNK d   0     -11.415  -5.445  27.408  0.00  0.00     0.139 C 
ATOM     52  O   UNK d   0     -12.292  -5.971  26.683  0.00  0.00    -0.650 OA
BRANCH  51  53
ATOM     53  O   UNK d   0     -11.841  -4.624  28.441  0.00  0.00    -0.776 OA
ATOM     54  H   UNK d   0     -12.741  -4.184  28.359  0.00  0.00     0.167 HD
ENDBRANCH  51  53
ENDBRANCH  50  51
ENDBRANCH  49  50
ENDBRANCH  24  49
BRANCH  21  55
ATOM     55  C   UNK d   0      -9.413  -1.933  26.167  0.00  0.00     0.151 C 
BRANCH  55  56
ATOM     56  C   UNK d   0     -10.443  -1.955  27.216  0.00  0.00     0.143 C 
ATOM     57  O   UNK d   0     -11.662  -1.874  26.967  0.00  0.00    -0.650 OA
BRANCH  56  58
ATOM     58  O   UNK d   0     -10.021  -2.072  28.539  0.00  0.00    -0.776 OA
ATOM     59  H   UNK d   0     -10.747  -2.398  29.202  0.00  0.00     0.167 HD
ENDBRANCH  56  58
ENDBRANCH  55  56
ENDBRANCH  21  55
BRANCH  18  60
ATOM     60  C   UNK d   0      -5.074   1.215  25.893  0.00  0.00     0.151 C 
BRANCH  60  61
ATOM     61  C   UNK d   0      -4.565   0.867  24.558  0.00  0.00     0.143 C 
ATOM     62  O   UNK d   0      -4.670  -0.218  23.983  0.00  0.00    -0.650 OA
BRANCH  61  63
ATOM     63  O   UNK d   0      -3.886   1.908  23.881  0.00  0.00    -0.776 OA
ATOM     64  H   UNK d   0      -3.593   1.801  22.926  0.00  0.00     0.167 HD
ENDBRANCH  61  63
ENDBRANCH  60  61
ENDBRANCH  18  60
BRANCH  14  65
ATOM     65  C   UNK d   0      -2.218   1.367  26.907  0.00  0.00     0.052 C 
BRANCH  65  66
ATOM     66  C   UNK d   0      -2.102   2.401  27.970  0.00  0.00     0.115 C 
BRANCH  66  67
ATOM     67  C   UNK d   0      -1.108   2.259  28.996  0.00  0.00     0.139 C 
ATOM     68  O   UNK d   0       0.113   2.059  28.645  0.00  0.00    -0.650 OA
BRANCH  67  69
ATOM     69  O   UNK d   0      -1.294   2.309  30.377  0.00  0.00    -0.776 OA
ATOM     70  H   UNK d   0      -0.728   1.649  30.930  0.00  0.00     0.167 HD
ENDBRANCH  67  69
ENDBRANCH  66  67
ENDBRANCH  65  66
ENDBRANCH  14  65
ENDBRANCH   6   7
ENDBRANCH   5   6
ENDBRANCH   2   5
TORSDOF 28
ENDMDL
MODEL 6
REMARK VINA RESULT:      -9.9      1.820      8.022
REMARK  28 active torsions:
REMARK  status: ('A' for Active; 'I' for Inactive)
REMARK    1  A    between atoms: C_2  and  O_3 
REMARK    2  A    between atoms: C_2  and  C_4 
REMARK    3  A    between atoms: C_4  and  C_5 
REMARK    4  A    between atoms: C_5  and  C_6 
REMARK    5  A    between atoms: C_7  and  C_8 
REMARK    6  A    between atoms: C_8  and  C_9 
REMARK    7  A    between atoms: C_9  and  O_11 
REMARK    8  A    between atoms: C_28  and  C_29 
REMARK    9  A    between atoms: C_29  and  C_30 
REMARK   10  A    between atoms: C_30  and  O_32 
REMARK   11  A    between atoms: C_33  and  C_34 
REMARK   12  A    between atoms: C_34  and  C_35 
REMARK   13  A    between atoms: C_35  and  C_36 
REMARK   14  A    between atoms: C_36  and  O_38 
REMARK   15  A    between atoms: C_39  and  C_40 
REMARK   16  A    between atoms: C_40  and  C_41 
REMARK   17  A    between atoms: C_41  and  C_42 
REMARK   18  A    between atoms: C_42  and  O_44 
REMARK   19  A    between atoms: C_45  and  C_46 
REMARK   20  A    between atoms: C_46  and  C_47 
REMARK   21  A    between atoms: C_47  and  O_49 
REMARK   22  A    between atoms: C_50  and  C_51 
REMARK   23  A    between atoms: C_51  and  C_52 
REMARK   24  A    between atoms: C_52  and  O_54 
REMARK   25  A    between atoms: C_55  and  C_56 
REMARK   26  A    between atoms: C_56  and  C_57 
REMARK   27  A    between atoms: C_57  and  C_58 
REMARK   28  A    between atoms: C_58  and  O_60 
ROOT
ATOM      1  O   UNK d   0      -2.565  -7.072  33.286  0.00  0.00    -0.650 OA
ATOM      2  C   UNK d   0      -2.483  -8.216  32.786  0.00  0.00     0.139 C 
ENDROOT
BRANCH   2   3
ATOM      3  O   UNK d   0      -2.226  -9.291  33.603  0.00  0.00    -0.776 OA
ATOM      4  H   UNK d   0      -2.984  -9.785  34.079  0.00  0.00     0.167 HD
ENDBRANCH   2   3
BRANCH   2   5
ATOM      5  C   UNK d   0      -2.660  -8.407  31.319  0.00  0.00     0.115 C 
BRANCH   5   6
ATOM      6  C   UNK d   0      -1.400  -8.023  30.591  0.00  0.00     0.052 C 
BRANCH   6   7
ATOM      7  C   UNK d   0      -1.333  -6.546  30.285  0.00  0.00    -0.020 A 
ATOM      8  C   UNK d   0      -0.496  -5.667  30.773  0.00  0.00    -0.011 A 
ATOM      9  C   UNK d   0      -0.820  -4.374  30.195  0.00  0.00     0.067 A 
ATOM     10  C   UNK d   0      -0.310  -3.069  30.282  0.00  0.00     0.062 C 
ATOM     11  N   UNK d   0      -1.873  -4.557  29.370  0.00  0.00    -0.248 NA
ATOM     12  C   UNK d   0      -0.584  -1.994  29.429  0.00  0.00     0.041 A 
ATOM     13  N   UNK d   0      -1.739  -1.565  28.885  0.00  0.00    -0.355 N 
ATOM     14  C   UNK d   0       0.484  -1.202  28.968  0.00  0.00    -0.022 A 
ATOM     15  C   UNK d   0      -1.430  -0.528  28.085  0.00  0.00     0.042 A 
ATOM     16  H   UNK d   0      -2.754  -1.976  29.078  0.00  0.00     0.166 HD
ATOM     17  C   UNK d   0      -2.257   0.284  27.282  0.00  0.00     0.062 C 
ATOM     18  C   UNK d   0      -0.046  -0.270  28.111  0.00  0.00    -0.013 A 
ATOM     19  C   UNK d   0      -3.274  -0.086  26.440  0.00  0.00     0.067 A 
ATOM     20  N   UNK d   0      -3.690  -1.353  26.515  0.00  0.00    -0.248 NA
ATOM     21  C   UNK d   0      -4.066   0.564  25.410  0.00  0.00    -0.011 A 
ATOM     22  C   UNK d   0      -4.695  -1.579  25.608  0.00  0.00     0.066 A 
ATOM     23  C   UNK d   0      -5.249  -2.851  25.604  0.00  0.00     0.062 C 
ATOM     24  C   UNK d   0      -4.893  -0.316  24.923  0.00  0.00    -0.020 A 
ATOM     25  C   UNK d   0      -4.969  -3.913  26.478  0.00  0.00     0.041 A 
ATOM     26  N   UNK d   0      -3.819  -4.348  27.007  0.00  0.00    -0.355 N 
ATOM     27  C   UNK d   0      -6.042  -4.704  26.944  0.00  0.00    -0.022 A 
ATOM     28  C   UNK d   0      -4.123  -5.389  27.799  0.00  0.00     0.042 A 
ATOM     29  H   UNK d   0      -2.798  -3.941  26.804  0.00  0.00     0.166 HD
ATOM     30  C   UNK d   0      -3.310  -6.211  28.595  0.00  0.00     0.062 C 
ATOM     31  C   UNK d   0      -5.515  -5.640  27.781  0.00  0.00    -0.013 A 
ATOM     32  C   UNK d   0      -2.229  -5.842  29.379  0.00  0.00     0.066 A 
BRANCH   8  33
ATOM     33  C   UNK d   0       0.587  -5.919  31.742  0.00  0.00     0.151 C 
BRANCH  33  34
ATOM     34  C   UNK d   0       0.428  -5.150  32.989  0.00  0.00     0.143 C 
ATOM     35  O   UNK d   0       1.404  -4.622  33.541  0.00  0.00    -0.650 OA
BRANCH  34  36
ATOM     36  O   UNK d   0      -0.823  -5.020  33.547  0.00  0.00    -0.776 OA
ATOM     37  H   UNK d   0      -1.670  -5.288  33.028  0.00  0.00     0.167 HD
ENDBRANCH  34  36
ENDBRANCH  33  34
ENDBRANCH   8  33
BRANCH  31  38
ATOM     38  C   UNK d   0      -6.287  -6.701  28.530  0.00  0.00     0.151 C 
BRANCH  38  39
ATOM     39  C   UNK d   0      -6.456  -7.918  27.764  0.00  0.00     0.143 C 
ATOM     40  O   UNK d   0      -7.240  -7.996  26.802  0.00  0.00    -0.650 OA
BRANCH  39  41
ATOM     41  O   UNK d   0      -5.719  -9.052  28.106  0.00  0.00    -0.776 OA
ATOM     42  H   UNK d   0      -5.637  -9.782  27.392  0.00  0.00     0.167 HD
ENDBRANCH  39  41
ENDBRANCH  38  39
ENDBRANCH  31  38
BRANCH  27  43
ATOM     43  C   UNK d   0      -7.513  -4.606  26.627  0.00  0.00     0.052 C 
BRANCH  43  44
ATOM     44  C   UNK d   0      -8.164  -3.395  27.213  0.00  0.00     0.115 C 
BRANCH  44  45
ATOM     45  C   UNK d   0      -9.543  -3.346  26.661  0.00  0.00     0.139 C 
ATOM     46  O   UNK d   0     -10.344  -4.256  26.988  0.00  0.00    -0.650 OA
BRANCH  45  47
ATOM     47  O   UNK d   0      -9.975  -2.345  25.817  0.00  0.00    -0.776 OA
ATOM     48  H   UNK d   0      -9.934  -1.344  26.068  0.00  0.00     0.167 HD
ENDBRANCH  45  47
ENDBRANCH  44  45
ENDBRANCH  43  44
ENDBRANCH  27  43
BRANCH  24  49
ATOM     49  C   UNK d   0      -5.907  -0.073  23.883  0.00  0.00     0.052 C 
BRANCH  49  50
ATOM     50  C   UNK d   0      -7.281  -0.420  24.398  0.00  0.00     0.115 C 
BRANCH  50  51
ATOM     51  C   UNK d   0      -7.825   0.419  25.458  0.00  0.00     0.139 C 
ATOM     52  O   UNK d   0      -8.169  -0.038  26.573  0.00  0.00    -0.650 OA
BRANCH  51  53
ATOM     53  O   UNK d   0      -7.979   1.781  25.244  0.00  0.00    -0.776 OA
ATOM     54  H   UNK d   0      -7.200   2.384  25.443  0.00  0.00     0.167 HD
ENDBRANCH  51  53
ENDBRANCH  50  51
ENDBRANCH  49  50
ENDBRANCH  24  49
BRANCH  21  55
ATOM     55  C   UNK d   0      -3.917   1.997  25.022  0.00  0.00     0.151 C 
BRANCH  55  56
ATOM     56  C   UNK d   0      -4.473   2.904  26.037  0.00  0.00     0.143 C 
ATOM     57  O   UNK d   0      -5.698   3.079  26.188  0.00  0.00    -0.650 OA
BRANCH  56  58
ATOM     58  O   UNK d   0      -3.576   3.588  26.857  0.00  0.00    -0.776 OA
ATOM     59  H   UNK d   0      -2.831   4.104  26.354  0.00  0.00     0.167 HD
ENDBRANCH  56  58
ENDBRANCH  55  56
ENDBRANCH  21  55
BRANCH  18  60
ATOM     60  C   UNK d   0       0.750   0.781  27.378  0.00  0.00     0.151 C 
BRANCH  60  61
ATOM     61  C   UNK d   0       0.882   1.911  28.311  0.00  0.00     0.143 C 
ATOM     62  O   UNK d   0      -0.023   2.468  28.934  0.00  0.00    -0.650 OA
BRANCH  61  63
ATOM     63  O   UNK d   0       2.201   2.390  28.495  0.00  0.00    -0.776 OA
ATOM     64  H   UNK d   0       2.465   2.873  29.335  0.00  0.00     0.167 HD
ENDBRANCH  61  63
ENDBRANCH  60  61
ENDBRANCH  18  60
BRANCH  14  65
ATOM     65  C   UNK d   0       1.937  -1.197  29.349  0.00  0.00     0.052 C 
BRANCH  65  66
ATOM     66  C   UNK d   0       2.764  -2.095  28.499  0.00  0.00     0.115 C 
BRANCH  66  67
ATOM     67  C   UNK d   0       3.846  -1.549  27.729  0.00  0.00     0.139 C 
ATOM     68  O   UNK d   0       4.938  -1.245  28.336  0.00  0.00    -0.650 OA
BRANCH  67  69
ATOM     69  O   UNK d   0       3.874  -1.294  26.359  0.00  0.00    -0.776 OA
ATOM     70  H   UNK d   0       4.614  -0.654  26.038  0.00  0.00     0.167 HD
ENDBRANCH  67  69
ENDBRANCH  66  67
ENDBRANCH  65  66
ENDBRANCH  14  65
ENDBRANCH   6   7
ENDBRANCH   5   6
ENDBRANCH   2   5
TORSDOF 28
ENDMDL
MODEL 7
REMARK VINA RESULT:      -9.8      1.612      7.975
REMARK  28 active torsions:
REMARK  status: ('A' for Active; 'I' for Inactive)
REMARK    1  A    between atoms: C_2  and  O_3 
REMARK    2  A    between atoms: C_2  and  C_4 
REMARK    3  A    between atoms: C_4  and  C_5 
REMARK    4  A    between atoms: C_5  and  C_6 
REMARK    5  A    between atoms: C_7  and  C_8 
REMARK    6  A    between atoms: C_8  and  C_9 
REMARK    7  A    between atoms: C_9  and  O_11 
REMARK    8  A    between atoms: C_28  and  C_29 
REMARK    9  A    between atoms: C_29  and  C_30 
REMARK   10  A    between atoms: C_30  and  O_32 
REMARK   11  A    between atoms: C_33  and  C_34 
REMARK   12  A    between atoms: C_34  and  C_35 
REMARK   13  A    between atoms: C_35  and  C_36 
REMARK   14  A    between atoms: C_36  and  O_38 
REMARK   15  A    between atoms: C_39  and  C_40 
REMARK   16  A    between atoms: C_40  and  C_41 
REMARK   17  A    between atoms: C_41  and  C_42 
REMARK   18  A    between atoms: C_42  and  O_44 
REMARK   19  A    between atoms: C_45  and  C_46 
REMARK   20  A    between atoms: C_46  and  C_47 
REMARK   21  A    between atoms: C_47  and  O_49 
REMARK   22  A    between atoms: C_50  and  C_51 
REMARK   23  A    between atoms: C_51  and  C_52 
REMARK   24  A    between atoms: C_52  and  O_54 
REMARK   25  A    between atoms: C_55  and  C_56 
REMARK   26  A    between atoms: C_56  and  C_57 
REMARK   27  A    between atoms: C_57  and  C_58 
REMARK   28  A    between atoms: C_58  and  O_60 
ROOT
ATOM      1  O   UNK d   0      -0.130 -10.847  31.485  0.00  0.00    -0.650 OA
ATOM      2  C   UNK d   0       0.015 -10.045  30.536  0.00  0.00     0.139 C 
ENDROOT
BRANCH   2   3
ATOM      3  O   UNK d   0       1.283  -9.699  30.134  0.00  0.00    -0.776 OA
ATOM      4  H   UNK d   0       1.520  -9.622  29.143  0.00  0.00     0.167 HD
ENDBRANCH   2   3
BRANCH   2   5
ATOM      5  C   UNK d   0      -1.178  -9.472  29.851  0.00  0.00     0.115 C 
BRANCH   5   6
ATOM      6  C   UNK d   0      -1.975  -8.635  30.814  0.00  0.00     0.052 C 
BRANCH   6   7
ATOM      7  C   UNK d   0      -1.924  -7.162  30.484  0.00  0.00    -0.020 A 
ATOM      8  C   UNK d   0      -1.159  -6.249  31.023  0.00  0.00    -0.011 A 
ATOM      9  C   UNK d   0      -1.470  -4.977  30.391  0.00  0.00     0.067 A 
ATOM     10  C   UNK d   0      -1.007  -3.656  30.494  0.00  0.00     0.062 C 
ATOM     11  N   UNK d   0      -2.440  -5.209  29.482  0.00  0.00    -0.248 NA
ATOM     12  C   UNK d   0      -1.237  -2.607  29.597  0.00  0.00     0.041 A 
ATOM     13  N   UNK d   0      -2.352  -2.225  28.946  0.00  0.00    -0.355 N 
ATOM     14  C   UNK d   0      -0.157  -1.791  29.213  0.00  0.00    -0.022 A 
ATOM     15  C   UNK d   0      -2.005  -1.193  28.153  0.00  0.00     0.042 A 
ATOM     16  H   UNK d   0      -3.368  -2.663  29.059  0.00  0.00     0.166 HD
ATOM     17  C   UNK d   0      -2.782  -0.423  27.265  0.00  0.00     0.062 C 
ATOM     18  C   UNK d   0      -0.637  -0.893  28.293  0.00  0.00    -0.013 A 
ATOM     19  C   UNK d   0      -3.711  -0.841  26.346  0.00  0.00     0.067 A 
ATOM     20  N   UNK d   0      -4.094  -2.118  26.412  0.00  0.00    -0.248 NA
ATOM     21  C   UNK d   0      -4.429  -0.235  25.237  0.00  0.00    -0.011 A 
ATOM     22  C   UNK d   0      -5.010  -2.392  25.426  0.00  0.00     0.066 A 
ATOM     23  C   UNK d   0      -5.524  -3.681  25.403  0.00  0.00     0.062 C 
ATOM     24  C   UNK d   0      -5.184  -1.150  24.700  0.00  0.00    -0.020 A 
ATOM     25  C   UNK d   0      -5.290  -4.717  26.320  0.00  0.00     0.041 A 
ATOM     26  N   UNK d   0      -4.179  -5.106  26.956  0.00  0.00    -0.355 N 
ATOM     27  C   UNK d   0      -6.376  -5.532  26.708  0.00  0.00    -0.022 A 
ATOM     28  C   UNK d   0      -4.520  -6.140  27.741  0.00  0.00     0.042 A 
ATOM     29  H   UNK d   0      -3.156  -4.671  26.833  0.00  0.00     0.166 HD
ATOM     30  C   UNK d   0      -3.756  -6.921  28.622  0.00  0.00     0.062 C 
ATOM     31  C   UNK d   0      -5.897  -6.434  27.608  0.00  0.00    -0.013 A 
ATOM     32  C   UNK d   0      -2.758  -6.504  29.489  0.00  0.00     0.066 A 
BRANCH   8  33
ATOM     33  C   UNK d   0      -0.157  -6.449  32.087  0.00  0.00     0.151 C 
BRANCH  33  34
ATOM     34  C   UNK d   0       1.227  -6.295  31.604  0.00  0.00     0.143 C 
ATOM     35  O   UNK d   0       1.855  -7.264  31.154  0.00  0.00    -0.650 OA
BRANCH  34  36
ATOM     36  O   UNK d   0       1.827  -5.059  31.658  0.00  0.00    -0.776 OA
ATOM     37  H   UNK d   0       2.841  -4.963  31.808  0.00  0.00     0.167 HD
ENDBRANCH  34  36
ENDBRANCH  33  34
ENDBRANCH   8  33
BRANCH  31  38
ATOM     38  C   UNK d   0      -6.700  -7.505  28.310  0.00  0.00     0.151 C 
BRANCH  38  39
ATOM     39  C   UNK d   0      -6.717  -8.759  27.587  0.00  0.00     0.143 C 
ATOM     40  O   UNK d   0      -7.510  -8.979  26.655  0.00  0.00    -0.650 OA
BRANCH  39  41
ATOM     41  O   UNK d   0      -5.818  -9.765  27.938  0.00  0.00    -0.776 OA
ATOM     42  H   UNK d   0      -5.787 -10.033  28.927  0.00  0.00     0.167 HD
ENDBRANCH  39  41
ENDBRANCH  38  39
ENDBRANCH  31  38
BRANCH  27  43
ATOM     43  C   UNK d   0      -7.816  -5.485  26.264  0.00  0.00     0.052 C 
BRANCH  43  44
ATOM     44  C   UNK d   0      -8.716  -4.805  27.244  0.00  0.00     0.115 C 
BRANCH  44  45
ATOM     45  C   UNK d   0      -8.975  -3.443  26.709  0.00  0.00     0.139 C 
ATOM     46  O   UNK d   0      -9.662  -3.339  25.663  0.00  0.00    -0.650 OA
BRANCH  45  47
ATOM     47  O   UNK d   0      -8.499  -2.300  27.313  0.00  0.00    -0.776 OA
ATOM     48  H   UNK d   0      -7.508  -2.012  27.266  0.00  0.00     0.167 HD
ENDBRANCH  45  47
ENDBRANCH  44  45
ENDBRANCH  43  44
ENDBRANCH  27  43
BRANCH  24  49
ATOM     49  C   UNK d   0      -6.110  -0.958  23.571  0.00  0.00     0.052 C 
BRANCH  49  50
ATOM     50  C   UNK d   0      -7.523  -1.275  23.991  0.00  0.00     0.115 C 
BRANCH  50  51
ATOM     51  C   UNK d   0      -8.301  -0.193  24.578  0.00  0.00     0.139 C 
ATOM     52  O   UNK d   0      -9.256   0.355  23.979  0.00  0.00    -0.650 OA
BRANCH  51  53
ATOM     53  O   UNK d   0      -7.988   0.268  25.848  0.00  0.00    -0.776 OA
ATOM     54  H   UNK d   0      -8.087  -0.367  26.621  0.00  0.00     0.167 HD
ENDBRANCH  51  53
ENDBRANCH  50  51
ENDBRANCH  49  50
ENDBRANCH  24  49
BRANCH  21  55
ATOM     55  C   UNK d   0      -4.288   1.195  24.832  0.00  0.00     0.151 C 
BRANCH  55  56
ATOM     56  C   UNK d   0      -4.799   2.112  25.862  0.00  0.00     0.143 C 
ATOM     57  O   UNK d   0      -6.014   2.240  26.110  0.00  0.00    -0.650 OA
BRANCH  56  58
ATOM     58  O   UNK d   0      -3.869   2.862  26.582  0.00  0.00    -0.776 OA
ATOM     59  H   UNK d   0      -3.255   3.465  26.006  0.00  0.00     0.167 HD
ENDBRANCH  56  58
ENDBRANCH  55  56
ENDBRANCH  21  55
BRANCH  18  60
ATOM     60  C   UNK d   0       0.189   0.169  27.609  0.00  0.00     0.151 C 
BRANCH  60  61
ATOM     61  C   UNK d   0      -0.262   1.453  28.167  0.00  0.00     0.143 C 
ATOM     62  O   UNK d   0      -0.204   1.812  29.344  0.00  0.00    -0.650 OA
BRANCH  61  63
ATOM     63  O   UNK d   0      -0.819   2.355  27.229  0.00  0.00    -0.776 OA
ATOM     64  H   UNK d   0      -0.560   2.319  26.259  0.00  0.00     0.167 HD
ENDBRANCH  61  63
ENDBRANCH  60  61
ENDBRANCH  18  60
BRANCH  14  65
ATOM     65  C   UNK d   0       1.257  -1.734  29.718  0.00  0.00     0.052 C 
BRANCH  65  66
ATOM     66  C   UNK d   0       1.401  -0.917  30.953  0.00  0.00     0.115 C 
BRANCH  66  67
ATOM     67  C   UNK d   0       1.122  -1.506  32.233  0.00  0.00     0.139 C 
ATOM     68  O   UNK d   0       1.811  -2.527  32.602  0.00  0.00    -0.650 OA
BRANCH  67  69
ATOM     69  O   UNK d   0       0.166  -1.106  33.166  0.00  0.00    -0.776 OA
ATOM     70  H   UNK d   0      -0.159  -1.837  33.816  0.00  0.00     0.167 HD
ENDBRANCH  67  69
ENDBRANCH  66  67
ENDBRANCH  65  66
ENDBRANCH  14  65
ENDBRANCH   6   7
ENDBRANCH   5   6
ENDBRANCH   2   5
TORSDOF 28
ENDMDL
MODEL 8
REMARK VINA RESULT:      -9.8      1.741      7.571
REMARK  28 active torsions:
REMARK  status: ('A' for Active; 'I' for Inactive)
REMARK    1  A    between atoms: C_2  and  O_3 
REMARK    2  A    between atoms: C_2  and  C_4 
REMARK    3  A    between atoms: C_4  and  C_5 
REMARK    4  A    between atoms: C_5  and  C_6 
REMARK    5  A    between atoms: C_7  and  C_8 
REMARK    6  A    between atoms: C_8  and  C_9 
REMARK    7  A    between atoms: C_9  and  O_11 
REMARK    8  A    between atoms: C_28  and  C_29 
REMARK    9  A    between atoms: C_29  and  C_30 
REMARK   10  A    between atoms: C_30  and  O_32 
REMARK   11  A    between atoms: C_33  and  C_34 
REMARK   12  A    between atoms: C_34  and  C_35 
REMARK   13  A    between atoms: C_35  and  C_36 
REMARK   14  A    between atoms: C_36  and  O_38 
REMARK   15  A    between atoms: C_39  and  C_40 
REMARK   16  A    between atoms: C_40  and  C_41 
REMARK   17  A    between atoms: C_41  and  C_42 
REMARK   18  A    between atoms: C_42  and  O_44 
REMARK   19  A    between atoms: C_45  and  C_46 
REMARK   20  A    between atoms: C_46  and  C_47 
REMARK   21  A    between atoms: C_47  and  O_49 
REMARK   22  A    between atoms: C_50  and  C_51 
REMARK   23  A    between atoms: C_51  and  C_52 
REMARK   24  A    between atoms: C_52  and  O_54 
REMARK   25  A    between atoms: C_55  and  C_56 
REMARK   26  A    between atoms: C_56  and  C_57 
REMARK   27  A    between atoms: C_57  and  C_58 
REMARK   28  A    between atoms: C_58  and  O_60 
ROOT
ATOM      1  O   UNK d   0      -0.243   0.522  31.136  0.00  0.00    -0.650 OA
ATOM      2  C   UNK d   0       0.427  -0.468  31.504  0.00  0.00     0.139 C 
ENDROOT
BRANCH   2   3
ATOM      3  O   UNK d   0       0.290  -0.935  32.789  0.00  0.00    -0.776 OA
ATOM      4  H   UNK d   0       0.605  -0.380  33.588  0.00  0.00     0.167 HD
ENDBRANCH   2   3
BRANCH   2   5
ATOM      5  C   UNK d   0       1.364  -1.131  30.554  0.00  0.00     0.115 C 
BRANCH   5   6
ATOM      6  C   UNK d   0       0.837  -1.026  29.148  0.00  0.00     0.052 C 
BRANCH   6   7
ATOM      7  C   UNK d   0      -0.159  -2.112  28.818  0.00  0.00    -0.020 A 
ATOM      8  C   UNK d   0       0.035  -3.406  28.840  0.00  0.00    -0.011 A 
ATOM      9  C   UNK d   0      -1.206  -4.049  28.440  0.00  0.00     0.067 A 
ATOM     10  C   UNK d   0      -1.658  -5.368  28.283  0.00  0.00     0.062 C 
ATOM     11  N   UNK d   0      -2.100  -3.070  28.187  0.00  0.00    -0.248 NA
ATOM     12  C   UNK d   0      -2.983  -5.800  28.155  0.00  0.00     0.041 A 
ATOM     13  N   UNK d   0      -4.012  -5.304  27.442  0.00  0.00    -0.355 N 
ATOM     14  C   UNK d   0      -3.414  -6.907  28.910  0.00  0.00    -0.022 A 
ATOM     15  C   UNK d   0      -5.086  -6.062  27.731  0.00  0.00     0.042 A 
ATOM     16  H   UNK d   0      -3.975  -4.447  26.734  0.00  0.00     0.166 HD
ATOM     17  C   UNK d   0      -6.413  -5.983  27.262  0.00  0.00     0.062 C 
ATOM     18  C   UNK d   0      -4.750  -7.077  28.648  0.00  0.00    -0.013 A 
ATOM     19  C   UNK d   0      -7.211  -4.877  27.115  0.00  0.00     0.067 A 
ATOM     20  N   UNK d   0      -6.620  -3.685  27.237  0.00  0.00    -0.248 NA
ATOM     21  C   UNK d   0      -8.620  -4.632  26.860  0.00  0.00    -0.011 A 
ATOM     22  C   UNK d   0      -7.542  -2.679  27.081  0.00  0.00     0.066 A 
ATOM     23  C   UNK d   0      -7.055  -1.381  27.146  0.00  0.00     0.062 C 
ATOM     24  C   UNK d   0      -8.808  -3.344  26.845  0.00  0.00    -0.020 A 
ATOM     25  C   UNK d   0      -5.719  -0.969  27.262  0.00  0.00     0.041 A 
ATOM     26  N   UNK d   0      -4.700  -1.453  27.983  0.00  0.00    -0.355 N 
ATOM     27  C   UNK d   0      -5.286   0.139  26.502  0.00  0.00    -0.022 A 
ATOM     28  C   UNK d   0      -3.629  -0.692  27.703  0.00  0.00     0.042 A 
ATOM     29  H   UNK d   0      -4.741  -2.307  28.702  0.00  0.00     0.166 HD
ATOM     30  C   UNK d   0      -2.306  -0.755  28.169  0.00  0.00     0.062 C 
ATOM     31  C   UNK d   0      -3.965   0.321  26.774  0.00  0.00    -0.013 A 
ATOM     32  C   UNK d   0      -1.532  -1.882  28.397  0.00  0.00     0.066 A 
BRANCH   8  33
ATOM     33  C   UNK d   0       1.281  -4.109  29.198  0.00  0.00     0.151 C 
BRANCH  33  34
ATOM     34  C   UNK d   0       1.139  -4.945  30.403  0.00  0.00     0.143 C 
ATOM     35  O   UNK d   0       1.291  -6.173  30.347  0.00  0.00    -0.650 OA
BRANCH  34  36
ATOM     36  O   UNK d   0       0.833  -4.350  31.605  0.00  0.00    -0.776 OA
ATOM     37  H   UNK d   0       0.095  -4.727  32.216  0.00  0.00     0.167 HD
ENDBRANCH  34  36
ENDBRANCH  33  34
ENDBRANCH   8  33
BRANCH  31  38
ATOM     38  C   UNK d   0      -3.070   1.382  26.179  0.00  0.00     0.151 C 
BRANCH  38  39
ATOM     39  C   UNK d   0      -3.023   2.589  26.977  0.00  0.00     0.143 C 
ATOM     40  O   UNK d   0      -3.794   3.546  26.783  0.00  0.00    -0.650 OA
BRANCH  39  41
ATOM     41  O   UNK d   0      -2.087   2.697  28.005  0.00  0.00    -0.776 OA
ATOM     42  H   UNK d   0      -2.454   2.764  28.959  0.00  0.00     0.167 HD
ENDBRANCH  39  41
ENDBRANCH  38  39
ENDBRANCH  31  38
BRANCH  27  43
ATOM     43  C   UNK d   0      -6.066   1.012  25.550  0.00  0.00     0.052 C 
BRANCH  43  44
ATOM     44  C   UNK d   0      -5.840   0.668  24.113  0.00  0.00     0.115 C 
BRANCH  44  45
ATOM     45  C   UNK d   0      -6.842  -0.372  23.763  0.00  0.00     0.139 C 
ATOM     46  O   UNK d   0      -6.472  -1.572  23.754  0.00  0.00    -0.650 OA
BRANCH  45  47
ATOM     47  O   UNK d   0      -8.152  -0.073  23.456  0.00  0.00    -0.776 OA
ATOM     48  H   UNK d   0      -8.836   0.240  24.164  0.00  0.00     0.167 HD
ENDBRANCH  45  47
ENDBRANCH  44  45
ENDBRANCH  43  44
ENDBRANCH  27  43
BRANCH  24  49
ATOM     49  C   UNK d   0     -10.084  -2.655  26.582  0.00  0.00     0.052 C 
BRANCH  49  50
ATOM     50  C   UNK d   0     -10.161  -2.228  25.139  0.00  0.00     0.115 C 
BRANCH  50  51
ATOM     51  C   UNK d   0     -11.273  -1.367  24.759  0.00  0.00     0.139 C 
ATOM     52  O   UNK d   0     -11.186  -0.513  23.845  0.00  0.00    -0.650 OA
BRANCH  51  53
ATOM     53  O   UNK d   0     -12.485  -1.478  25.424  0.00  0.00    -0.776 OA
ATOM     54  H   UNK d   0     -13.239  -0.876  25.142  0.00  0.00     0.167 HD
ENDBRANCH  51  53
ENDBRANCH  50  51
ENDBRANCH  49  50
ENDBRANCH  24  49
BRANCH  21  55
ATOM     55  C   UNK d   0      -9.631  -5.711  26.653  0.00  0.00     0.151 C 
BRANCH  55  56
ATOM     56  C   UNK d   0      -9.676  -6.163  25.254  0.00  0.00     0.143 C 
ATOM     57  O   UNK d   0     -10.475  -5.695  24.419  0.00  0.00    -0.650 OA
BRANCH  56  58
ATOM     58  O   UNK d   0      -8.781  -7.157  24.864  0.00  0.00    -0.776 OA
ATOM     59  H   UNK d   0      -9.176  -8.115  24.840  0.00  0.00     0.167 HD
ENDBRANCH  56  58
ENDBRANCH  55  56
ENDBRANCH  21  55
BRANCH  18  60
ATOM     60  C   UNK d   0      -5.620  -8.150  29.255  0.00  0.00     0.151 C 
BRANCH  60  61
ATOM     61  C   UNK d   0      -5.759  -9.189  28.223  0.00  0.00     0.143 C 
ATOM     62  O   UNK d   0      -6.718  -9.366  27.472  0.00  0.00    -0.650 OA
BRANCH  61  63
ATOM     63  O   UNK d   0      -4.656 -10.068  28.101  0.00  0.00    -0.776 OA
ATOM     64  H   UNK d   0      -3.764  -9.738  27.776  0.00  0.00     0.167 HD
ENDBRANCH  61  63
ENDBRANCH  60  61
ENDBRANCH  18  60
BRANCH  14  65
ATOM     65  C   UNK d   0      -2.644  -7.865  29.774  0.00  0.00     0.052 C 
BRANCH  65  66
ATOM     66  C   UNK d   0      -2.810  -7.599  31.228  0.00  0.00     0.115 C 
BRANCH  66  67
ATOM     67  C   UNK d   0      -2.888  -6.245  31.699  0.00  0.00     0.139 C 
ATOM     68  O   UNK d   0      -1.796  -5.581  31.844  0.00  0.00    -0.650 OA
BRANCH  67  69
ATOM     69  O   UNK d   0      -4.033  -5.523  32.036  0.00  0.00    -0.776 OA
ATOM     70  H   UNK d   0      -3.980  -4.505  31.888  0.00  0.00     0.167 HD
ENDBRANCH  67  69
ENDBRANCH  66  67
ENDBRANCH  65  66
ENDBRANCH  14  65
ENDBRANCH   6   7
ENDBRANCH   5   6
ENDBRANCH   2   5
TORSDOF 28
ENDMDL
MODEL 9
REMARK VINA RESULT:      -9.7      1.935      7.611
REMARK  28 active torsions:
REMARK  status: ('A' for Active; 'I' for Inactive)
REMARK    1  A    between atoms: C_2  and  O_3 
REMARK    2  A    between atoms: C_2  and  C_4 
REMARK    3  A    between atoms: C_4  and  C_5 
REMARK    4  A    between atoms: C_5  and  C_6 
REMARK    5  A    between atoms: C_7  and  C_8 
REMARK    6  A    between atoms: C_8  and  C_9 
REMARK    7  A    between atoms: C_9  and  O_11 
REMARK    8  A    between atoms: C_28  and  C_29 
REMARK    9  A    between atoms: C_29  and  C_30 
REMARK   10  A    between atoms: C_30  and  O_32 
REMARK   11  A    between atoms: C_33  and  C_34 
REMARK   12  A    between atoms: C_34  and  C_35 
REMARK   13  A    between atoms: C_35  and  C_36 
REMARK   14  A    between atoms: C_36  and  O_38 
REMARK   15  A    between atoms: C_39  and  C_40 
REMARK   16  A    between atoms: C_40  and  C_41 
REMARK   17  A    between atoms: C_41  and  C_42 
REMARK   18  A    between atoms: C_42  and  O_44 
REMARK   19  A    between atoms: C_45  and  C_46 
REMARK   20  A    between atoms: C_46  and  C_47 
REMARK   21  A    between atoms: C_47  and  O_49 
REMARK   22  A    between atoms: C_50  and  C_51 
REMARK   23  A    between atoms: C_51  and  C_52 
REMARK   24  A    between atoms: C_52  and  O_54 
REMARK   25  A    between atoms: C_55  and  C_56 
REMARK   26  A    between atoms: C_56  and  C_57 
REMARK   27  A    between atoms: C_57  and  C_58 
REMARK   28  A    between atoms: C_58  and  O_60 
ROOT
ATOM      1  O   UNK d   0       1.030 -11.174  30.494  0.00  0.00    -0.650 OA
ATOM      2  C   UNK d   0       1.059 -10.226  29.679  0.00  0.00     0.139 C 
ENDROOT
BRANCH   2   3
ATOM      3  O   UNK d   0       2.270  -9.786  29.200  0.00  0.00    -0.776 OA
ATOM      4  H   UNK d   0       3.029 -10.441  29.003  0.00  0.00     0.167 HD
ENDBRANCH   2   3
BRANCH   2   5
ATOM      5  C   UNK d   0      -0.210  -9.582  29.234  0.00  0.00     0.115 C 
BRANCH   5   6
ATOM      6  C   UNK d   0      -0.917  -8.965  30.410  0.00  0.00     0.052 C 
BRANCH   6   7
ATOM      7  C   UNK d   0      -1.140  -7.482  30.241  0.00  0.00    -0.020 A 
ATOM      8  C   UNK d   0      -0.432  -6.505  30.747  0.00  0.00    -0.011 A 
ATOM      9  C   UNK d   0      -1.031  -5.252  30.319  0.00  0.00     0.067 A 
ATOM     10  C   UNK d   0      -0.755  -3.887  30.490  0.00  0.00     0.062 C 
ATOM     11  N   UNK d   0      -2.104  -5.560  29.560  0.00  0.00    -0.248 NA
ATOM     12  C   UNK d   0      -1.290  -2.816  29.765  0.00  0.00     0.041 A 
ATOM     13  N   UNK d   0      -2.547  -2.567  29.351  0.00  0.00    -0.355 N 
ATOM     14  C   UNK d   0      -0.425  -1.807  29.304  0.00  0.00    -0.022 A 
ATOM     15  C   UNK d   0      -2.500  -1.429  28.631  0.00  0.00     0.042 A 
ATOM     16  H   UNK d   0      -3.452  -3.172  29.578  0.00  0.00     0.166 HD
ATOM     17  C   UNK d   0      -3.526  -0.723  27.972  0.00  0.00     0.062 C 
ATOM     18  C   UNK d   0      -1.187  -0.924  28.579  0.00  0.00    -0.013 A 
ATOM     19  C   UNK d   0      -4.532  -1.207  27.176  0.00  0.00     0.067 A 
ATOM     20  N   UNK d   0      -4.708  -2.530  27.161  0.00  0.00    -0.248 NA
ATOM     21  C   UNK d   0      -5.516  -0.634  26.272  0.00  0.00    -0.011 A 
ATOM     22  C   UNK d   0      -5.735  -2.865  26.313  0.00  0.00     0.066 A 
ATOM     23  C   UNK d   0      -6.052  -4.213  26.230  0.00  0.00     0.062 C 
ATOM     24  C   UNK d   0      -6.214  -1.610  25.767  0.00  0.00    -0.020 A 
ATOM     25  C   UNK d   0      -5.511  -5.271  26.977  0.00  0.00     0.041 A 
ATOM     26  N   UNK d   0      -4.260  -5.527  27.377  0.00  0.00    -0.355 N 
ATOM     27  C   UNK d   0      -6.381  -6.281  27.444  0.00  0.00    -0.022 A 
ATOM     28  C   UNK d   0      -4.302  -6.666  28.087  0.00  0.00     0.042 A 
ATOM     29  H   UNK d   0      -3.350  -4.924  27.138  0.00  0.00     0.166 HD
ATOM     30  C   UNK d   0      -3.289  -7.384  28.740  0.00  0.00     0.062 C 
ATOM     31  C   UNK d   0      -5.624  -7.167  28.147  0.00  0.00    -0.013 A 
ATOM     32  C   UNK d   0      -2.224  -6.885  29.474  0.00  0.00     0.066 A 
BRANCH   8  33
ATOM     33  C   UNK d   0       0.761  -6.629  31.605  0.00  0.00     0.151 C 
BRANCH  33  34
ATOM     34  C   UNK d   0       2.009  -6.283  30.901  0.00  0.00     0.143 C 
ATOM     35  O   UNK d   0       2.390  -5.106  30.823  0.00  0.00    -0.650 OA
BRANCH  34  36
ATOM     36  O   UNK d   0       2.758  -7.282  30.323  0.00  0.00    -0.776 OA
ATOM     37  H   UNK d   0       3.548  -7.714  30.821  0.00  0.00     0.167 HD
ENDBRANCH  34  36
ENDBRANCH  33  34
ENDBRANCH   8  33
BRANCH  31  38
ATOM     38  C   UNK d   0      -6.125  -8.409  28.847  0.00  0.00     0.151 C 
BRANCH  38  39
ATOM     39  C   UNK d   0      -6.107  -9.579  27.996  0.00  0.00     0.143 C 
ATOM     40  O   UNK d   0      -7.074  -9.898  27.283  0.00  0.00    -0.650 OA
BRANCH  39  41
ATOM     41  O   UNK d   0      -4.971 -10.387  27.965  0.00  0.00    -0.776 OA
ATOM     42  H   UNK d   0      -4.987 -11.181  27.317  0.00  0.00     0.167 HD
ENDBRANCH  39  41
ENDBRANCH  38  39
ENDBRANCH  31  38
BRANCH  27  43
ATOM     43  C   UNK d   0      -7.868  -6.431  27.247  0.00  0.00     0.052 C 
BRANCH  43  44
ATOM     44  C   UNK d   0      -8.234  -6.997  25.913  0.00  0.00     0.115 C 
BRANCH  44  45
ATOM     45  C   UNK d   0      -9.705  -6.842  25.775  0.00  0.00     0.139 C 
ATOM     46  O   UNK d   0     -10.327  -7.686  25.084  0.00  0.00    -0.650 OA
BRANCH  45  47
ATOM     47  O   UNK d   0     -10.409  -5.820  26.375  0.00  0.00    -0.776 OA
ATOM     48  H   UNK d   0      -9.960  -4.950  26.705  0.00  0.00     0.167 HD
ENDBRANCH  45  47
ENDBRANCH  44  45
ENDBRANCH  43  44
ENDBRANCH  27  43
BRANCH  24  49
ATOM     49  C   UNK d   0      -7.344  -1.477  24.832  0.00  0.00     0.052 C 
BRANCH  49  50
ATOM     50  C   UNK d   0      -8.640  -1.340  25.591  0.00  0.00     0.115 C 
BRANCH  50  51
ATOM     51  C   UNK d   0      -9.381  -2.563  25.867  0.00  0.00     0.139 C 
ATOM     52  O   UNK d   0     -10.105  -3.123  25.010  0.00  0.00    -0.650 OA
BRANCH  51  53
ATOM     53  O   UNK d   0      -9.297  -3.148  27.121  0.00  0.00    -0.776 OA
ATOM     54  H   UNK d   0     -10.106  -3.113  27.716  0.00  0.00     0.167 HD
ENDBRANCH  51  53
ENDBRANCH  50  51
ENDBRANCH  49  50
ENDBRANCH  24  49
BRANCH  21  55
ATOM     55  C   UNK d   0      -5.659   0.829  26.011  0.00  0.00     0.151 C 
BRANCH  55  56
ATOM     56  C   UNK d   0      -4.938   1.245  24.799  0.00  0.00     0.143 C 
ATOM     57  O   UNK d   0      -3.942   0.636  24.363  0.00  0.00    -0.650 OA
BRANCH  56  58
ATOM     58  O   UNK d   0      -5.403   2.372  24.122  0.00  0.00    -0.776 OA
ATOM     59  H   UNK d   0      -4.730   3.157  24.067  0.00  0.00     0.167 HD
ENDBRANCH  56  58
ENDBRANCH  55  56
ENDBRANCH  21  55
BRANCH  18  60
ATOM     60  C   UNK d   0      -0.659   0.311  27.893  0.00  0.00     0.151 C 
BRANCH  60  61
ATOM     61  C   UNK d   0      -1.098   1.449  28.714  0.00  0.00     0.143 C 
ATOM     62  O   UNK d   0      -1.020   1.555  29.939  0.00  0.00    -0.650 OA
BRANCH  61  63
ATOM     63  O   UNK d   0      -1.669   2.527  27.995  0.00  0.00    -0.776 OA
ATOM     64  H   UNK d   0      -1.430   3.478  28.211  0.00  0.00     0.167 HD
ENDBRANCH  61  63
ENDBRANCH  60  61
ENDBRANCH  18  60
BRANCH  14  65
ATOM     65  C   UNK d   0       1.032  -1.564  29.576  0.00  0.00     0.052 C 
BRANCH  65  66
ATOM     66  C   UNK d   0       1.273  -0.834  30.849  0.00  0.00     0.115 C 
BRANCH  66  67
ATOM     67  C   UNK d   0       1.061  -1.502  32.103  0.00  0.00     0.139 C 
ATOM     68  O   UNK d   0       0.094  -1.107  32.852  0.00  0.00    -0.650 OA
BRANCH  67  69
ATOM     69  O   UNK d   0       1.792  -2.561  32.639  0.00  0.00    -0.776 OA
ATOM     70  H   UNK d   0       2.808  -2.533  32.475  0.00  0.00     0.167 HD
ENDBRANCH  67  69
ENDBRANCH  66  67
ENDBRANCH  65  66
ENDBRANCH  14  65
ENDBRANCH   6   7
ENDBRANCH   5   6
ENDBRANCH   2   5
TORSDOF 28
ENDMDL
MODEL 10
REMARK VINA RESULT:      -9.7      1.785      9.593
REMARK  28 active torsions:
REMARK  status: ('A' for Active; 'I' for Inactive)
REMARK    1  A    between atoms: C_2  and  O_3 
REMARK    2  A    between atoms: C_2  and  C_4 
REMARK    3  A    between atoms: C_4  and  C_5 
REMARK    4  A    between atoms: C_5  and  C_6 
REMARK    5  A    between atoms: C_7  and  C_8 
REMARK    6  A    between atoms: C_8  and  C_9 
REMARK    7  A    between atoms: C_9  and  O_11 
REMARK    8  A    between atoms: C_28  and  C_29 
REMARK    9  A    between atoms: C_29  and  C_30 
REMARK   10  A    between atoms: C_30  and  O_32 
REMARK   11  A    between atoms: C_33  and  C_34 
REMARK   12  A    between atoms: C_34  and  C_35 
REMARK   13  A    between atoms: C_35  and  C_36 
REMARK   14  A    between atoms: C_36  and  O_38 
REMARK   15  A    between atoms: C_39  and  C_40 
REMARK   16  A    between atoms: C_40  and  C_41 
REMARK   17  A    between atoms: C_41  and  C_42 
REMARK   18  A    between atoms: C_42  and  O_44 
REMARK   19  A    between atoms: C_45  and  C_46 
REMARK   20  A    between atoms: C_46  and  C_47 
REMARK   21  A    between atoms: C_47  and  O_49 
REMARK   22  A    between atoms: C_50  and  C_51 
REMARK   23  A    between atoms: C_51  and  C_52 
REMARK   24  A    between atoms: C_52  and  O_54 
REMARK   25  A    between atoms: C_55  and  C_56 
REMARK   26  A    between atoms: C_56  and  C_57 
REMARK   27  A    between atoms: C_57  and  C_58 
REMARK   28  A    between atoms: C_58  and  O_60 
ROOT
ATOM      1  O   UNK d   0      -5.689 -11.284  27.388  0.00  0.00    -0.650 OA
ATOM      2  C   UNK d   0      -6.597 -10.437  27.538  0.00  0.00     0.139 C 
ENDROOT
BRANCH   2   3
ATOM      3  O   UNK d   0      -7.839 -10.679  27.001  0.00  0.00    -0.776 OA
ATOM      4  H   UNK d   0      -8.687 -10.344  27.463  0.00  0.00     0.167 HD
ENDBRANCH   2   3
BRANCH   2   5
ATOM      5  C   UNK d   0      -6.330  -9.180  28.293  0.00  0.00     0.115 C 
BRANCH   5   6
ATOM      6  C   UNK d   0      -4.881  -9.112  28.690  0.00  0.00     0.052 C 
BRANCH   6   7
ATOM      7  C   UNK d   0      -4.395  -7.695  28.876  0.00  0.00    -0.020 A 
ATOM      8  C   UNK d   0      -3.446  -7.274  29.673  0.00  0.00    -0.011 A 
ATOM      9  C   UNK d   0      -3.339  -5.833  29.517  0.00  0.00     0.067 A 
ATOM     10  C   UNK d   0      -2.534  -4.814  30.049  0.00  0.00     0.062 C 
ATOM     11  N   UNK d   0      -4.265  -5.459  28.609  0.00  0.00    -0.248 NA
ATOM     12  C   UNK d   0      -2.392  -3.508  29.567  0.00  0.00     0.041 A 
ATOM     13  N   UNK d   0      -3.304  -2.627  29.113  0.00  0.00    -0.355 N 
ATOM     14  C   UNK d   0      -1.101  -2.961  29.454  0.00  0.00    -0.022 A 
ATOM     15  C   UNK d   0      -2.623  -1.538  28.707  0.00  0.00     0.042 A 
ATOM     16  H   UNK d   0      -4.407  -2.764  29.097  0.00  0.00     0.166 HD
ATOM     17  C   UNK d   0      -3.084  -0.327  28.152  0.00  0.00     0.062 C 
ATOM     18  C   UNK d   0      -1.240  -1.711  28.905  0.00  0.00    -0.013 A 
ATOM     19  C   UNK d   0      -4.022  -0.130  27.171  0.00  0.00     0.067 A 
ATOM     20  N   UNK d   0      -4.752  -1.188  26.811  0.00  0.00    -0.248 NA
ATOM     21  C   UNK d   0      -4.456   0.989  26.351  0.00  0.00    -0.011 A 
ATOM     22  C   UNK d   0      -5.632  -0.843  25.814  0.00  0.00     0.066 A 
ATOM     23  C   UNK d   0      -6.483  -1.844  25.369  0.00  0.00     0.062 C 
ATOM     24  C   UNK d   0      -5.396   0.564  25.556  0.00  0.00    -0.020 A 
ATOM     25  C   UNK d   0      -6.619  -3.146  25.875  0.00  0.00     0.041 A 
ATOM     26  N   UNK d   0      -5.712  -4.027  26.313  0.00  0.00    -0.355 N 
ATOM     27  C   UNK d   0      -7.915  -3.693  25.993  0.00  0.00    -0.022 A 
ATOM     28  C   UNK d   0      -6.387  -5.118  26.710  0.00  0.00     0.042 A 
ATOM     29  H   UNK d   0      -4.602  -3.892  26.318  0.00  0.00     0.166 HD
ATOM     30  C   UNK d   0      -5.941  -6.332  27.255  0.00  0.00     0.062 C 
ATOM     31  C   UNK d   0      -7.778  -4.940  26.521  0.00  0.00    -0.013 A 
ATOM     32  C   UNK d   0      -4.933  -6.533  28.185  0.00  0.00     0.066 A 
BRANCH   8  33
ATOM     33  C   UNK d   0      -2.623  -8.096  30.580  0.00  0.00     0.151 C 
BRANCH  33  34
ATOM     34  C   UNK d   0      -1.256  -8.311  30.074  0.00  0.00     0.143 C 
ATOM     35  O   UNK d   0      -0.301  -7.662  30.525  0.00  0.00    -0.650 OA
BRANCH  34  36
ATOM     36  O   UNK d   0      -1.040  -9.242  29.085  0.00  0.00    -0.776 OA
ATOM     37  H   UNK d   0      -1.781  -9.896  28.796  0.00  0.00     0.167 HD
ENDBRANCH  34  36
ENDBRANCH  33  34
ENDBRANCH   8  33
BRANCH  31  38
ATOM     38  C   UNK d   0      -8.899  -5.901  26.840  0.00  0.00     0.151 C 
BRANCH  38  39
ATOM     39  C   UNK d   0      -9.179  -6.817  25.755  0.00  0.00     0.143 C 
ATOM     40  O   UNK d   0      -9.867  -6.493  24.771  0.00  0.00    -0.650 OA
BRANCH  39  41
ATOM     41  O   UNK d   0      -8.664  -8.112  25.800  0.00  0.00    -0.776 OA
ATOM     42  H   UNK d   0      -7.798  -8.284  25.280  0.00  0.00     0.167 HD
ENDBRANCH  39  41
ENDBRANCH  38  39
ENDBRANCH  31  38
BRANCH  27  43
ATOM     43  C   UNK d   0      -9.247  -3.087  25.628  0.00  0.00     0.052 C 
BRANCH  43  44
ATOM     44  C   UNK d   0      -9.954  -2.469  26.790  0.00  0.00     0.115 C 
BRANCH  44  45
ATOM     45  C   UNK d   0     -11.308  -2.088  26.310  0.00  0.00     0.139 C 
ATOM     46  O   UNK d   0     -11.560  -2.217  25.087  0.00  0.00    -0.650 OA
BRANCH  45  47
ATOM     47  O   UNK d   0     -12.291  -1.608  27.149  0.00  0.00    -0.776 OA
ATOM     48  H   UNK d   0     -12.958  -2.225  27.640  0.00  0.00     0.167 HD
ENDBRANCH  45  47
ENDBRANCH  44  45
ENDBRANCH  43  44
ENDBRANCH  27  43
BRANCH  24  49
ATOM     49  C   UNK d   0      -6.144   1.378  24.583  0.00  0.00     0.052 C 
BRANCH  49  50
ATOM     50  C   UNK d   0      -7.261   2.121  25.270  0.00  0.00     0.115 C 
BRANCH  50  51
ATOM     51  C   UNK d   0      -7.349   3.556  25.034  0.00  0.00     0.139 C 
ATOM     52  O   UNK d   0      -6.690   4.392  25.696  0.00  0.00    -0.650 OA
BRANCH  51  53
ATOM     53  O   UNK d   0      -8.191   4.038  24.043  0.00  0.00    -0.776 OA
ATOM     54  H   UNK d   0      -8.529   4.980  24.125  0.00  0.00     0.167 HD
ENDBRANCH  51  53
ENDBRANCH  50  51
ENDBRANCH  49  50
ENDBRANCH  24  49
BRANCH  21  55
ATOM     55  C   UNK d   0      -3.890   2.366  26.451  0.00  0.00     0.151 C 
BRANCH  55  56
ATOM     56  C   UNK d   0      -2.558   2.461  25.835  0.00  0.00     0.143 C 
ATOM     57  O   UNK d   0      -1.503   2.300  26.479  0.00  0.00    -0.650 OA
BRANCH  56  58
ATOM     58  O   UNK d   0      -2.492   2.744  24.471  0.00  0.00    -0.776 OA
ATOM     59  H   UNK d   0      -1.606   2.466  24.011  0.00  0.00     0.167 HD
ENDBRANCH  56  58
ENDBRANCH  55  56
ENDBRANCH  21  55
BRANCH  18  60
ATOM     60  C   UNK d   0      -0.101  -0.769  28.599  0.00  0.00     0.151 C 
BRANCH  60  61
ATOM     61  C   UNK d   0      -0.137   0.262  29.647  0.00  0.00     0.143 C 
ATOM     62  O   UNK d   0      -0.013   0.092  30.861  0.00  0.00    -0.650 OA
BRANCH  61  63
ATOM     63  O   UNK d   0      -0.337   1.585  29.184  0.00  0.00    -0.776 OA
ATOM     64  H   UNK d   0      -0.682   1.763  28.258  0.00  0.00     0.167 HD
ENDBRANCH  61  63
ENDBRANCH  60  61
ENDBRANCH  18  60
BRANCH  14  65
ATOM     65  C   UNK d   0       0.230  -3.486  29.911  0.00  0.00     0.052 C 
BRANCH  65  66
ATOM     66  C   UNK d   0       0.206  -3.991  31.310  0.00  0.00     0.115 C 
BRANCH  66  67
ATOM     67  C   UNK d   0       0.597  -3.125  32.387  0.00  0.00     0.139 C 
ATOM     68  O   UNK d   0       1.599  -3.467  33.117  0.00  0.00    -0.650 OA
BRANCH  67  69
ATOM     69  O   UNK d   0       0.014  -1.916  32.763  0.00  0.00    -0.776 OA
ATOM     70  H   UNK d   0      -0.963  -1.971  33.085  0.00  0.00     0.167 HD
ENDBRANCH  67  69
ENDBRANCH  66  67
ENDBRANCH  65  66
ENDBRANCH  14  65
ENDBRANCH   6   7
ENDBRANCH   5   6
ENDBRANCH   2   5
TORSDOF 28
ENDMDL
MODEL 11
REMARK VINA RESULT:      -9.6     32.341     35.070
REMARK  28 active torsions:
REMARK  status: ('A' for Active; 'I' for Inactive)
REMARK    1  A    between atoms: C_2  and  O_3 
REMARK    2  A    between atoms: C_2  and  C_4 
REMARK    3  A    between atoms: C_4  and  C_5 
REMARK    4  A    between atoms: C_5  and  C_6 
REMARK    5  A    between atoms: C_7  and  C_8 
REMARK    6  A    between atoms: C_8  and  C_9 
REMARK    7  A    between atoms: C_9  and  O_11 
REMARK    8  A    between atoms: C_28  and  C_29 
REMARK    9  A    between atoms: C_29  and  C_30 
REMARK   10  A    between atoms: C_30  and  O_32 
REMARK   11  A    between atoms: C_33  and  C_34 
REMARK   12  A    between atoms: C_34  and  C_35 
REMARK   13  A    between atoms: C_35  and  C_36 
REMARK   14  A    between atoms: C_36  and  O_38 
REMARK   15  A    between atoms: C_39  and  C_40 
REMARK   16  A    between atoms: C_40  and  C_41 
REMARK   17  A    between atoms: C_41  and  C_42 
REMARK   18  A    between atoms: C_42  and  O_44 
REMARK   19  A    between atoms: C_45  and  C_46 
REMARK   20  A    between atoms: C_46  and  C_47 
REMARK   21  A    between atoms: C_47  and  O_49 
REMARK   22  A    between atoms: C_50  and  C_51 
REMARK   23  A    between atoms: C_51  and  C_52 
REMARK   24  A    between atoms: C_52  and  O_54 
REMARK   25  A    between atoms: C_55  and  C_56 
REMARK   26  A    between atoms: C_56  and  C_57 
REMARK   27  A    between atoms: C_57  and  C_58 
REMARK   28  A    between atoms: C_58  and  O_60 
ROOT
ATOM      1  O   UNK d   0      10.912 -17.051  -2.815  0.00  0.00    -0.650 OA
ATOM      2  C   UNK d   0       9.988 -16.460  -3.416  0.00  0.00     0.139 C 
ENDROOT
BRANCH   2   3
ATOM      3  O   UNK d   0       8.764 -17.073  -3.541  0.00  0.00    -0.776 OA
ATOM      4  H   UNK d   0       8.658 -18.077  -3.379  0.00  0.00     0.167 HD
ENDBRANCH   2   3
BRANCH   2   5
ATOM      5  C   UNK d   0      10.217 -15.104  -3.991  0.00  0.00     0.115 C 
BRANCH   5   6
ATOM      6  C   UNK d   0      11.692 -14.832  -4.104  0.00  0.00     0.052 C 
BRANCH   6   7
ATOM      7  C   UNK d   0      12.218 -13.996  -2.962  0.00  0.00    -0.020 A 
ATOM      8  C   UNK d   0      13.252 -14.246  -2.200  0.00  0.00    -0.011 A 
ATOM      9  C   UNK d   0      13.365 -13.166  -1.234  0.00  0.00     0.067 A 
ATOM     10  C   UNK d   0      14.238 -12.830  -0.188  0.00  0.00     0.062 C 
ATOM     11  N   UNK d   0      12.355 -12.304  -1.478  0.00  0.00    -0.248 NA
ATOM     12  C   UNK d   0      14.350 -11.594   0.459  0.00  0.00     0.041 A 
ATOM     13  N   UNK d   0      13.410 -10.733   0.892  0.00  0.00    -0.355 N 
ATOM     14  C   UNK d   0      15.630 -11.059   0.688  0.00  0.00    -0.022 A 
ATOM     15  C   UNK d   0      14.061  -9.661   1.383  0.00  0.00     0.042 A 
ATOM     16  H   UNK d   0      12.309 -10.887   0.870  0.00  0.00     0.166 HD
ATOM     17  C   UNK d   0      13.565  -8.476   1.960  0.00  0.00     0.062 C 
ATOM     18  C   UNK d   0      15.455  -9.829   1.272  0.00  0.00    -0.013 A 
ATOM     19  C   UNK d   0      12.533  -7.677   1.537  0.00  0.00     0.067 A 
ATOM     20  N   UNK d   0      11.751  -8.161   0.568  0.00  0.00    -0.248 NA
ATOM     21  C   UNK d   0      12.033  -6.353   1.868  0.00  0.00    -0.011 A 
ATOM     22  C   UNK d   0      10.778  -7.249   0.241  0.00  0.00     0.066 A 
ATOM     23  C   UNK d   0       9.869  -7.641  -0.731  0.00  0.00     0.062 C 
ATOM     24  C   UNK d   0      11.009  -6.107   1.103  0.00  0.00    -0.020 A 
ATOM     25  C   UNK d   0       9.766  -8.891  -1.359  0.00  0.00     0.041 A 
ATOM     26  N   UNK d   0      10.699  -9.741  -1.803  0.00  0.00    -0.355 N 
ATOM     27  C   UNK d   0       8.480  -9.430  -1.584  0.00  0.00    -0.022 A 
ATOM     28  C   UNK d   0      10.052 -10.807  -2.301  0.00  0.00     0.042 A 
ATOM     29  H   UNK d   0      11.805  -9.580  -1.790  0.00  0.00     0.166 HD
ATOM     30  C   UNK d   0      10.533 -11.989  -2.886  0.00  0.00     0.062 C 
ATOM     31  C   UNK d   0       8.652 -10.642  -2.179  0.00  0.00    -0.013 A 
ATOM     32  C   UNK d   0      11.629 -12.746  -2.505  0.00  0.00     0.066 A 
BRANCH   8  33
ATOM     33  C   UNK d   0      14.152 -15.412  -2.283  0.00  0.00     0.151 C 
BRANCH  33  34
ATOM     34  C   UNK d   0      15.461 -15.081  -2.874  0.00  0.00     0.143 C 
ATOM     35  O   UNK d   0      16.484 -15.045  -2.175  0.00  0.00    -0.650 OA
BRANCH  34  36
ATOM     36  O   UNK d   0      15.545 -14.807  -4.219  0.00  0.00    -0.776 OA
ATOM     37  H   UNK d   0      15.801 -15.536  -4.898  0.00  0.00     0.167 HD
ENDBRANCH  34  36
ENDBRANCH  33  34
ENDBRANCH   8  33
BRANCH  31  38
ATOM     38  C   UNK d   0       7.555 -11.594  -2.596  0.00  0.00     0.151 C 
BRANCH  38  39
ATOM     39  C   UNK d   0       7.409 -12.713  -1.691  0.00  0.00     0.143 C 
ATOM     40  O   UNK d   0       7.376 -12.571  -0.456  0.00  0.00    -0.650 OA
BRANCH  39  41
ATOM     41  O   UNK d   0       7.300 -14.004  -2.208  0.00  0.00    -0.776 OA
ATOM     42  H   UNK d   0       6.613 -14.146  -2.954  0.00  0.00     0.167 HD
ENDBRANCH  39  41
ENDBRANCH  38  39
ENDBRANCH  31  38
BRANCH  27  43
ATOM     43  C   UNK d   0       7.127  -8.846  -1.263  0.00  0.00     0.052 C 
BRANCH  43  44
ATOM     44  C   UNK d   0       6.712  -9.061   0.156  0.00  0.00     0.115 C 
BRANCH  44  45
ATOM     45  C   UNK d   0       5.329  -9.606   0.116  0.00  0.00     0.139 C 
ATOM     46  O   UNK d   0       4.372  -8.794   0.165  0.00  0.00    -0.650 OA
BRANCH  45  47
ATOM     47  O   UNK d   0       5.060 -10.954   0.021  0.00  0.00    -0.776 OA
ATOM     48  H   UNK d   0       4.842 -11.540   0.843  0.00  0.00     0.167 HD
ENDBRANCH  45  47
ENDBRANCH  44  45
ENDBRANCH  43  44
ENDBRANCH  27  43
BRANCH  24  49
ATOM     49  C   UNK d   0      10.176  -4.893   1.131  0.00  0.00     0.052 C 
BRANCH  49  50
ATOM     50  C   UNK d   0      10.419  -4.062  -0.102  0.00  0.00     0.115 C 
BRANCH  50  51
ATOM     51  C   UNK d   0      10.439  -2.615   0.064  0.00  0.00     0.139 C 
ATOM     52  O   UNK d   0      10.477  -2.064   1.190  0.00  0.00    -0.650 OA
BRANCH  51  53
ATOM     53  O   UNK d   0      10.413  -1.795  -1.054  0.00  0.00    -0.776 OA
ATOM     54  H   UNK d   0       9.578  -1.780  -1.613  0.00  0.00     0.167 HD
ENDBRANCH  51  53
ENDBRANCH  50  51
ENDBRANCH  49  50
ENDBRANCH  24  49
BRANCH  21  55
ATOM     55  C   UNK d   0      12.628  -5.474   2.918  0.00  0.00     0.151 C 
BRANCH  55  56
ATOM     56  C   UNK d   0      13.478  -4.422   2.339  0.00  0.00     0.143 C 
ATOM     57  O   UNK d   0      14.576  -4.662   1.798  0.00  0.00    -0.650 OA
BRANCH  56  58
ATOM     58  O   UNK d   0      13.020  -3.107   2.406  0.00  0.00    -0.776 OA
ATOM     59  H   UNK d   0      13.759  -2.395   2.547  0.00  0.00     0.167 HD
ENDBRANCH  56  58
ENDBRANCH  55  56
ENDBRANCH  21  55
BRANCH  18  60
ATOM     60  C   UNK d   0      16.571  -8.900   1.681  0.00  0.00     0.151 C 
BRANCH  60  61
ATOM     61  C   UNK d   0      16.637  -7.865   0.638  0.00  0.00     0.143 C 
ATOM     62  O   UNK d   0      16.872  -8.032  -0.559  0.00  0.00    -0.650 OA
BRANCH  61  63
ATOM     63  O   UNK d   0      16.401  -6.543   1.085  0.00  0.00    -0.776 OA
ATOM     64  H   UNK d   0      17.163  -5.932   1.322  0.00  0.00     0.167 HD
ENDBRANCH  61  63
ENDBRANCH  60  61
ENDBRANCH  18  60
BRANCH  14  65
ATOM     65  C   UNK d   0      16.994 -11.658   0.489  0.00  0.00     0.052 C 
BRANCH  65  66
ATOM     66  C   UNK d   0      17.342 -12.668   1.524  0.00  0.00     0.115 C 
BRANCH  66  67
ATOM     67  C   UNK d   0      17.296 -14.066   1.199  0.00  0.00     0.139 C 
ATOM     68  O   UNK d   0      16.451 -14.812   1.818  0.00  0.00    -0.650 OA
BRANCH  67  69
ATOM     69  O   UNK d   0      18.074 -14.751   0.268  0.00  0.00    -0.776 OA
ATOM     70  H   UNK d   0      18.737 -14.176  -0.272  0.00  0.00     0.167 HD
ENDBRANCH  67  69
ENDBRANCH  66  67
ENDBRANCH  65  66
ENDBRANCH  14  65
ENDBRANCH   6   7
ENDBRANCH   5   6
ENDBRANCH   2   5
TORSDOF 28
ENDMDL
MODEL 12
REMARK VINA RESULT:      -9.6      1.554     10.809
REMARK  28 active torsions:
REMARK  status: ('A' for Active; 'I' for Inactive)
REMARK    1  A    between atoms: C_2  and  O_3 
REMARK    2  A    between atoms: C_2  and  C_4 
REMARK    3  A    between atoms: C_4  and  C_5 
REMARK    4  A    between atoms: C_5  and  C_6 
REMARK    5  A    between atoms: C_7  and  C_8 
REMARK    6  A    between atoms: C_8  and  C_9 
REMARK    7  A    between atoms: C_9  and  O_11 
REMARK    8  A    between atoms: C_28  and  C_29 
REMARK    9  A    between atoms: C_29  and  C_30 
REMARK   10  A    between atoms: C_30  and  O_32 
REMARK   11  A    between atoms: C_33  and  C_34 
REMARK   12  A    between atoms: C_34  and  C_35 
REMARK   13  A    between atoms: C_35  and  C_36 
REMARK   14  A    between atoms: C_36  and  O_38 
REMARK   15  A    between atoms: C_39  and  C_40 
REMARK   16  A    between atoms: C_40  and  C_41 
REMARK   17  A    between atoms: C_41  and  C_42 
REMARK   18  A    between atoms: C_42  and  O_44 
REMARK   19  A    between atoms: C_45  and  C_46 
REMARK   20  A    between atoms: C_46  and  C_47 
REMARK   21  A    between atoms: C_47  and  O_49 
REMARK   22  A    between atoms: C_50  and  C_51 
REMARK   23  A    between atoms: C_51  and  C_52 
REMARK   24  A    between atoms: C_52  and  O_54 
REMARK   25  A    between atoms: C_55  and  C_56 
REMARK   26  A    between atoms: C_56  and  C_57 
REMARK   27  A    between atoms: C_57  and  C_58 
REMARK   28  A    between atoms: C_58  and  O_60 
ROOT
ATOM      1  O   UNK d   0      -9.845  -8.066  23.977  0.00  0.00    -0.650 OA
ATOM      2  C   UNK d   0      -8.758  -8.438  24.473  0.00  0.00     0.139 C 
ENDROOT
BRANCH   2   3
ATOM      3  O   UNK d   0      -8.447  -9.776  24.485  0.00  0.00    -0.776 OA
ATOM      4  H   UNK d   0      -8.072 -10.223  25.324  0.00  0.00     0.167 HD
ENDBRANCH   2   3
BRANCH   2   5
ATOM      5  C   UNK d   0      -7.815  -7.436  25.045  0.00  0.00     0.115 C 
BRANCH   5   6
ATOM      6  C   UNK d   0      -8.142  -7.183  26.491  0.00  0.00     0.052 C 
BRANCH   6   7
ATOM      7  C   UNK d   0      -6.933  -6.777  27.299  0.00  0.00    -0.020 A 
ATOM      8  C   UNK d   0      -6.321  -7.471  28.224  0.00  0.00    -0.011 A 
ATOM      9  C   UNK d   0      -5.218  -6.670  28.726  0.00  0.00     0.067 A 
ATOM     10  C   UNK d   0      -4.197  -6.833  29.675  0.00  0.00     0.062 C 
ATOM     11  N   UNK d   0      -5.235  -5.500  28.053  0.00  0.00    -0.248 NA
ATOM     12  C   UNK d   0      -3.046  -6.051  29.825  0.00  0.00     0.041 A 
ATOM     13  N   UNK d   0      -2.870  -4.716  29.784  0.00  0.00    -0.355 N 
ATOM     14  C   UNK d   0      -1.806  -6.691  30.000  0.00  0.00    -0.022 A 
ATOM     15  C   UNK d   0      -1.550  -4.494  29.921  0.00  0.00     0.042 A 
ATOM     16  H   UNK d   0      -3.666  -3.946  29.680  0.00  0.00     0.166 HD
ATOM     17  C   UNK d   0      -0.825  -3.286  29.948  0.00  0.00     0.062 C 
ATOM     18  C   UNK d   0      -0.850  -5.708  30.059  0.00  0.00    -0.013 A 
ATOM     19  C   UNK d   0      -0.943  -2.190  29.131  0.00  0.00     0.067 A 
ATOM     20  N   UNK d   0      -2.004  -2.153  28.320  0.00  0.00    -0.248 NA
ATOM     21  C   UNK d   0      -0.170  -0.985  28.881  0.00  0.00    -0.011 A 
ATOM     22  C   UNK d   0      -1.979  -1.011  27.557  0.00  0.00     0.066 A 
ATOM     23  C   UNK d   0      -3.048  -0.825  26.692  0.00  0.00     0.062 C 
ATOM     24  C   UNK d   0      -0.779  -0.302  27.956  0.00  0.00    -0.020 A 
ATOM     25  C   UNK d   0      -4.200  -1.616  26.566  0.00  0.00     0.041 A 
ATOM     26  N   UNK d   0      -4.373  -2.943  26.591  0.00  0.00    -0.355 N 
ATOM     27  C   UNK d   0      -5.445  -0.973  26.394  0.00  0.00    -0.022 A 
ATOM     28  C   UNK d   0      -5.688  -3.168  26.446  0.00  0.00     0.042 A 
ATOM     29  H   UNK d   0      -3.571  -3.716  26.685  0.00  0.00     0.166 HD
ATOM     30  C   UNK d   0      -6.422  -4.364  26.408  0.00  0.00     0.062 C 
ATOM     31  C   UNK d   0      -6.392  -1.947  26.319  0.00  0.00    -0.013 A 
ATOM     32  C   UNK d   0      -6.242  -5.502  27.179  0.00  0.00     0.066 A 
BRANCH   8  33
ATOM     33  C   UNK d   0      -6.675  -8.824  28.695  0.00  0.00     0.151 C 
BRANCH  33  34
ATOM     34  C   UNK d   0      -6.171  -9.887  27.806  0.00  0.00     0.143 C 
ATOM     35  O   UNK d   0      -6.906 -10.405  26.953  0.00  0.00    -0.650 OA
BRANCH  34  36
ATOM     36  O   UNK d   0      -4.868 -10.308  27.928  0.00  0.00    -0.776 OA
ATOM     37  H   UNK d   0      -4.093  -9.635  28.005  0.00  0.00     0.167 HD
ENDBRANCH  34  36
ENDBRANCH  33  34
ENDBRANCH   8  33
BRANCH  31  38
ATOM     38  C   UNK d   0      -7.878  -1.734  26.149  0.00  0.00     0.151 C 
BRANCH  38  39
ATOM     39  C   UNK d   0      -8.623  -1.975  27.367  0.00  0.00     0.143 C 
ATOM     40  O   UNK d   0      -8.397  -1.352  28.419  0.00  0.00    -0.650 OA
BRANCH  39  41
ATOM     41  O   UNK d   0      -9.633  -2.936  27.374  0.00  0.00    -0.776 OA
ATOM     42  H   UNK d   0      -9.354  -3.898  27.590  0.00  0.00     0.167 HD
ENDBRANCH  39  41
ENDBRANCH  38  39
ENDBRANCH  31  38
BRANCH  27  43
ATOM     43  C   UNK d   0      -5.758   0.500  26.300  0.00  0.00     0.052 C 
BRANCH  43  44
ATOM     44  C   UNK d   0      -5.657   1.037  24.910  0.00  0.00     0.115 C 
BRANCH  44  45
ATOM     45  C   UNK d   0      -4.507   1.978  24.900  0.00  0.00     0.139 C 
ATOM     46  O   UNK d   0      -4.273   2.637  25.943  0.00  0.00    -0.650 OA
BRANCH  45  47
ATOM     47  O   UNK d   0      -3.690   2.149  23.803  0.00  0.00    -0.776 OA
ATOM     48  H   UNK d   0      -2.670   1.990  23.834  0.00  0.00     0.167 HD
ENDBRANCH  45  47
ENDBRANCH  44  45
ENDBRANCH  43  44
ENDBRANCH  27  43
BRANCH  24  49
ATOM     49  C   UNK d   0      -0.360   1.006  27.424  0.00  0.00     0.052 C 
BRANCH  49  50
ATOM     50  C   UNK d   0      -1.305   2.087  27.884  0.00  0.00     0.115 C 
BRANCH  50  51
ATOM     51  C   UNK d   0      -0.935   2.828  29.082  0.00  0.00     0.139 C 
ATOM     52  O   UNK d   0      -0.165   3.818  29.053  0.00  0.00    -0.650 OA
BRANCH  51  53
ATOM     53  O   UNK d   0      -1.440   2.441  30.313  0.00  0.00    -0.776 OA
ATOM     54  H   UNK d   0      -0.789   2.178  31.033  0.00  0.00     0.167 HD
ENDBRANCH  51  53
ENDBRANCH  50  51
ENDBRANCH  49  50
ENDBRANCH  24  49
BRANCH  21  55
ATOM     55  C   UNK d   0       1.095  -0.641  29.596  0.00  0.00     0.151 C 
BRANCH  55  56
ATOM     56  C   UNK d   0       0.910  -0.602  31.055  0.00  0.00     0.143 C 
ATOM     57  O   UNK d   0       1.480  -1.397  31.828  0.00  0.00    -0.650 OA
BRANCH  56  58
ATOM     58  O   UNK d   0       0.060   0.372  31.575  0.00  0.00    -0.776 OA
ATOM     59  H   UNK d   0       0.337   1.349  31.369  0.00  0.00     0.167 HD
ENDBRANCH  56  58
ENDBRANCH  55  56
ENDBRANCH  21  55
BRANCH  18  60
ATOM     60  C   UNK d   0       0.629  -5.950  30.232  0.00  0.00     0.151 C 
BRANCH  60  61
ATOM     61  C   UNK d   0       0.989  -5.342  31.522  0.00  0.00     0.143 C 
ATOM     62  O   UNK d   0       0.521  -5.616  32.628  0.00  0.00    -0.650 OA
BRANCH  61  63
ATOM     63  O   UNK d   0       1.984  -4.337  31.458  0.00  0.00    -0.776 OA
ATOM     64  H   UNK d   0       2.699  -4.269  32.161  0.00  0.00     0.167 HD
ENDBRANCH  61  63
ENDBRANCH  60  61
ENDBRANCH  18  60
BRANCH  14  65
ATOM     65  C   UNK d   0      -1.472  -8.140  30.213  0.00  0.00     0.052 C 
BRANCH  65  66
ATOM     66  C   UNK d   0      -1.073  -8.445  31.614  0.00  0.00     0.115 C 
BRANCH  66  67
ATOM     67  C   UNK d   0      -1.943  -8.081  32.697  0.00  0.00     0.139 C 
ATOM     68  O   UNK d   0      -2.565  -9.014  33.325  0.00  0.00    -0.650 OA
BRANCH  67  69
ATOM     69  O   UNK d   0      -2.215  -6.801  33.178  0.00  0.00    -0.776 OA
ATOM     70  H   UNK d   0      -2.744  -6.186  32.543  0.00  0.00     0.167 HD
ENDBRANCH  67  69
ENDBRANCH  66  67
ENDBRANCH  65  66
ENDBRANCH  14  65
ENDBRANCH   6   7
ENDBRANCH   5   6
ENDBRANCH   2   5
TORSDOF 28
ENDMDL
MODEL 13
REMARK VINA RESULT:      -9.4      1.701      7.296
REMARK  28 active torsions:
REMARK  status: ('A' for Active; 'I' for Inactive)
REMARK    1  A    between atoms: C_2  and  O_3 
REMARK    2  A    between atoms: C_2  and  C_4 
REMARK    3  A    between atoms: C_4  and  C_5 
REMARK    4  A    between atoms: C_5  and  C_6 
REMARK    5  A    between atoms: C_7  and  C_8 
REMARK    6  A    between atoms: C_8  and  C_9 
REMARK    7  A    between atoms: C_9  and  O_11 
REMARK    8  A    between atoms: C_28  and  C_29 
REMARK    9  A    between atoms: C_29  and  C_30 
REMARK   10  A    between atoms: C_30  and  O_32 
REMARK   11  A    between atoms: C_33  and  C_34 
REMARK   12  A    between atoms: C_34  and  C_35 
REMARK   13  A    between atoms: C_35  and  C_36 
REMARK   14  A    between atoms: C_36  and  O_38 
REMARK   15  A    between atoms: C_39  and  C_40 
REMARK   16  A    between atoms: C_40  and  C_41 
REMARK   17  A    between atoms: C_41  and  C_42 
REMARK   18  A    between atoms: C_42  and  O_44 
REMARK   19  A    between atoms: C_45  and  C_46 
REMARK   20  A    between atoms: C_46  and  C_47 
REMARK   21  A    between atoms: C_47  and  O_49 
REMARK   22  A    between atoms: C_50  and  C_51 
REMARK   23  A    between atoms: C_51  and  C_52 
REMARK   24  A    between atoms: C_52  and  O_54 
REMARK   25  A    between atoms: C_55  and  C_56 
REMARK   26  A    between atoms: C_56  and  C_57 
REMARK   27  A    between atoms: C_57  and  C_58 
REMARK   28  A    between atoms: C_58  and  O_60 
ROOT
ATOM      1  O   UNK d   0      -4.963   4.133  25.949  0.00  0.00    -0.650 OA
ATOM      2  C   UNK d   0      -4.641   3.170  25.219  0.00  0.00     0.139 C 
ENDROOT
BRANCH   2   3
ATOM      3  O   UNK d   0      -5.446   2.831  24.158  0.00  0.00    -0.776 OA
ATOM      4  H   UNK d   0      -6.459   2.753  24.267  0.00  0.00     0.167 HD
ENDBRANCH   2   3
BRANCH   2   5
ATOM      5  C   UNK d   0      -3.397   2.399  25.502  0.00  0.00     0.115 C 
BRANCH   5   6
ATOM      6  C   UNK d   0      -3.278   2.133  26.978  0.00  0.00     0.052 C 
BRANCH   6   7
ATOM      7  C   UNK d   0      -2.637   0.799  27.278  0.00  0.00    -0.020 A 
ATOM      8  C   UNK d   0      -1.373   0.556  27.515  0.00  0.00    -0.011 A 
ATOM      9  C   UNK d   0      -1.230  -0.873  27.740  0.00  0.00     0.067 A 
ATOM     10  C   UNK d   0      -0.178  -1.748  28.054  0.00  0.00     0.062 C 
ATOM     11  N   UNK d   0      -2.455  -1.424  27.614  0.00  0.00    -0.248 NA
ATOM     12  C   UNK d   0      -0.280  -3.067  28.509  0.00  0.00     0.041 A 
ATOM     13  N   UNK d   0      -1.080  -4.079  28.122  0.00  0.00    -0.355 N 
ATOM     14  C   UNK d   0       0.517  -3.477  29.594  0.00  0.00    -0.022 A 
ATOM     15  C   UNK d   0      -0.816  -5.117  28.937  0.00  0.00     0.042 A 
ATOM     16  H   UNK d   0      -1.802  -4.065  27.276  0.00  0.00     0.166 HD
ATOM     17  C   UNK d   0      -1.365  -6.415  28.970  0.00  0.00     0.062 C 
ATOM     18  C   UNK d   0       0.179  -4.777  29.874  0.00  0.00    -0.013 A 
ATOM     19  C   UNK d   0      -2.678  -6.798  28.877  0.00  0.00     0.067 A 
ATOM     20  N   UNK d   0      -3.557  -5.862  28.511  0.00  0.00    -0.248 NA
ATOM     21  C   UNK d   0      -3.427  -8.024  29.097  0.00  0.00    -0.011 A 
ATOM     22  C   UNK d   0      -4.826  -6.386  28.476  0.00  0.00     0.066 A 
ATOM     23  C   UNK d   0      -5.837  -5.527  28.072  0.00  0.00     0.062 C 
ATOM     24  C   UNK d   0      -4.684  -7.776  28.864  0.00  0.00    -0.020 A 
ATOM     25  C   UNK d   0      -5.712  -4.209  27.606  0.00  0.00     0.041 A 
ATOM     26  N   UNK d   0      -4.928  -3.199  28.001  0.00  0.00    -0.355 N 
ATOM     27  C   UNK d   0      -6.509  -3.800  26.515  0.00  0.00    -0.022 A 
ATOM     28  C   UNK d   0      -5.195  -2.159  27.195  0.00  0.00     0.042 A 
ATOM     29  H   UNK d   0      -4.210  -3.210  28.858  0.00  0.00     0.166 HD
ATOM     30  C   UNK d   0      -4.664  -0.861  27.157  0.00  0.00     0.062 C 
ATOM     31  C   UNK d   0      -6.188  -2.505  26.248  0.00  0.00    -0.013 A 
ATOM     32  C   UNK d   0      -3.346  -0.471  27.337  0.00  0.00     0.066 A 
BRANCH   8  33
ATOM     33  C   UNK d   0      -0.274   1.538  27.549  0.00  0.00     0.151 C 
BRANCH  33  34
ATOM     34  C   UNK d   0      -0.316   2.401  28.743  0.00  0.00     0.143 C 
ATOM     35  O   UNK d   0       0.118   3.561  28.706  0.00  0.00    -0.650 OA
BRANCH  34  36
ATOM     36  O   UNK d   0      -0.844   1.908  29.914  0.00  0.00    -0.776 OA
ATOM     37  H   UNK d   0      -0.239   1.644  30.704  0.00  0.00     0.167 HD
ENDBRANCH  34  36
ENDBRANCH  33  34
ENDBRANCH   8  33
BRANCH  31  38
ATOM     38  C   UNK d   0      -6.777  -1.648  25.151  0.00  0.00     0.151 C 
BRANCH  38  39
ATOM     39  C   UNK d   0      -5.786  -1.194  24.200  0.00  0.00     0.143 C 
ATOM     40  O   UNK d   0      -5.632   0.008  23.922  0.00  0.00    -0.650 OA
BRANCH  39  41
ATOM     41  O   UNK d   0      -4.966  -2.127  23.565  0.00  0.00    -0.776 OA
ATOM     42  H   UNK d   0      -4.079  -1.781  23.187  0.00  0.00     0.167 HD
ENDBRANCH  39  41
ENDBRANCH  38  39
ENDBRANCH  31  38
BRANCH  27  43
ATOM     43  C   UNK d   0      -7.541  -4.578  25.738  0.00  0.00     0.052 C 
BRANCH  43  44
ATOM     44  C   UNK d   0      -8.930  -4.401  26.259  0.00  0.00     0.115 C 
BRANCH  44  45
ATOM     45  C   UNK d   0      -9.578  -5.738  26.204  0.00  0.00     0.139 C 
ATOM     46  O   UNK d   0      -9.351  -6.464  25.205  0.00  0.00    -0.650 OA
BRANCH  45  47
ATOM     47  O   UNK d   0     -10.405  -6.209  27.201  0.00  0.00    -0.776 OA
ATOM     48  H   UNK d   0     -11.275  -6.731  27.006  0.00  0.00     0.167 HD
ENDBRANCH  45  47
ENDBRANCH  44  45
ENDBRANCH  43  44
ENDBRANCH  27  43
BRANCH  24  49
ATOM     49  C   UNK d   0      -5.788  -8.748  28.930  0.00  0.00     0.052 C 
BRANCH  49  50
ATOM     50  C   UNK d   0      -6.333  -9.017  27.551  0.00  0.00     0.115 C 
BRANCH  50  51
ATOM     51  C   UNK d   0      -6.806 -10.366  27.274  0.00  0.00     0.139 C 
ATOM     52  O   UNK d   0      -6.114 -11.386  27.505  0.00  0.00    -0.650 OA
BRANCH  51  53
ATOM     53  O   UNK d   0      -8.067 -10.554  26.731  0.00  0.00    -0.776 OA
ATOM     54  H   UNK d   0      -8.681 -11.216  27.171  0.00  0.00     0.167 HD
ENDBRANCH  51  53
ENDBRANCH  50  51
ENDBRANCH  49  50
ENDBRANCH  24  49
BRANCH  21  55
ATOM     55  C   UNK d   0      -2.808  -9.318  29.511  0.00  0.00     0.151 C 
BRANCH  55  56
ATOM     56  C   UNK d   0      -2.457 -10.157  28.355  0.00  0.00     0.143 C 
ATOM     57  O   UNK d   0      -1.462  -9.936  27.638  0.00  0.00    -0.650 OA
BRANCH  56  58
ATOM     58  O   UNK d   0      -3.284 -11.241  28.066  0.00  0.00    -0.776 OA
ATOM     59  H   UNK d   0      -4.034 -11.046  27.378  0.00  0.00     0.167 HD
ENDBRANCH  56  58
ENDBRANCH  55  56
ENDBRANCH  21  55
BRANCH  18  60
ATOM     60  C   UNK d   0       0.788  -5.611  30.975  0.00  0.00     0.151 C 
BRANCH  60  61
ATOM     61  C   UNK d   0       0.028  -5.287  32.192  0.00  0.00     0.143 C 
ATOM     62  O   UNK d   0      -1.196  -5.297  32.328  0.00  0.00    -0.650 OA
BRANCH  61  63
ATOM     63  O   UNK d   0       0.813  -4.930  33.315  0.00  0.00    -0.776 OA
ATOM     64  H   UNK d   0       0.853  -3.980  33.638  0.00  0.00     0.167 HD
ENDBRANCH  61  63
ENDBRANCH  60  61
ENDBRANCH  18  60
BRANCH  14  65
ATOM     65  C   UNK d   0       1.631  -2.771  30.314  0.00  0.00     0.052 C 
BRANCH  65  66
ATOM     66  C   UNK d   0       1.160  -1.986  31.487  0.00  0.00     0.115 C 
BRANCH  66  67
ATOM     67  C   UNK d   0       0.955  -0.571  31.360  0.00  0.00     0.139 C 
ATOM     68  O   UNK d   0       1.632   0.070  30.474  0.00  0.00    -0.650 OA
BRANCH  67  69
ATOM     69  O   UNK d   0       0.089   0.236  32.097  0.00  0.00    -0.776 OA
ATOM     70  H   UNK d   0      -0.768  -0.223  32.439  0.00  0.00     0.167 HD
ENDBRANCH  67  69
ENDBRANCH  66  67
ENDBRANCH  65  66
ENDBRANCH  14  65
ENDBRANCH   6   7
ENDBRANCH   5   6
ENDBRANCH   2   5
TORSDOF 28
ENDMDL
MODEL 14
REMARK VINA RESULT:      -9.4      2.375      7.858
REMARK  28 active torsions:
REMARK  status: ('A' for Active; 'I' for Inactive)
REMARK    1  A    between atoms: C_2  and  O_3 
REMARK    2  A    between atoms: C_2  and  C_4 
REMARK    3  A    between atoms: C_4  and  C_5 
REMARK    4  A    between atoms: C_5  and  C_6 
REMARK    5  A    between atoms: C_7  and  C_8 
REMARK    6  A    between atoms: C_8  and  C_9 
REMARK    7  A    between atoms: C_9  and  O_11 
REMARK    8  A    between atoms: C_28  and  C_29 
REMARK    9  A    between atoms: C_29  and  C_30 
REMARK   10  A    between atoms: C_30  and  O_32 
REMARK   11  A    between atoms: C_33  and  C_34 
REMARK   12  A    between atoms: C_34  and  C_35 
REMARK   13  A    between atoms: C_35  and  C_36 
REMARK   14  A    between atoms: C_36  and  O_38 
REMARK   15  A    between atoms: C_39  and  C_40 
REMARK   16  A    between atoms: C_40  and  C_41 
REMARK   17  A    between atoms: C_41  and  C_42 
REMARK   18  A    between atoms: C_42  and  O_44 
REMARK   19  A    between atoms: C_45  and  C_46 
REMARK   20  A    between atoms: C_46  and  C_47 
REMARK   21  A    between atoms: C_47  and  O_49 
REMARK   22  A    between atoms: C_50  and  C_51 
REMARK   23  A    between atoms: C_51  and  C_52 
REMARK   24  A    between atoms: C_52  and  O_54 
REMARK   25  A    between atoms: C_55  and  C_56 
REMARK   26  A    between atoms: C_56  and  C_57 
REMARK   27  A    between atoms: C_57  and  C_58 
REMARK   28  A    between atoms: C_58  and  O_60 
ROOT
ATOM      1  O   UNK d   0       1.166 -10.292  27.415  0.00  0.00    -0.650 OA
ATOM      2  C   UNK d   0       0.735 -10.069  28.568  0.00  0.00     0.139 C 
ENDROOT
BRANCH   2   3
ATOM      3  O   UNK d   0       1.582 -10.208  29.642  0.00  0.00    -0.776 OA
ATOM      4  H   UNK d   0       2.215 -11.007  29.714  0.00  0.00     0.167 HD
ENDBRANCH   2   3
BRANCH   2   5
ATOM      5  C   UNK d   0      -0.683  -9.657  28.770  0.00  0.00     0.115 C 
BRANCH   5   6
ATOM      6  C   UNK d   0      -0.838  -8.973  30.101  0.00  0.00     0.052 C 
BRANCH   6   7
ATOM      7  C   UNK d   0      -0.923  -7.470  29.976  0.00  0.00    -0.020 A 
ATOM      8  C   UNK d   0      -0.094  -6.581  30.458  0.00  0.00    -0.011 A 
ATOM      9  C   UNK d   0      -0.591  -5.265  30.092  0.00  0.00     0.067 A 
ATOM     10  C   UNK d   0      -0.172  -3.937  30.275  0.00  0.00     0.062 C 
ATOM     11  N   UNK d   0      -1.731  -5.447  29.393  0.00  0.00    -0.248 NA
ATOM     12  C   UNK d   0      -0.640  -2.802  29.604  0.00  0.00     0.041 A 
ATOM     13  N   UNK d   0      -1.888  -2.421  29.271  0.00  0.00    -0.355 N 
ATOM     14  C   UNK d   0       0.292  -1.870  29.112  0.00  0.00    -0.022 A 
ATOM     15  C   UNK d   0      -1.771  -1.275  28.573  0.00  0.00     0.042 A 
ATOM     16  H   UNK d   0      -2.833  -2.940  29.540  0.00  0.00     0.166 HD
ATOM     17  C   UNK d   0      -2.758  -0.455  27.991  0.00  0.00     0.062 C 
ATOM     18  C   UNK d   0      -0.419  -0.898  28.453  0.00  0.00    -0.013 A 
ATOM     19  C   UNK d   0      -3.852  -0.818  27.247  0.00  0.00     0.067 A 
ATOM     20  N   UNK d   0      -4.158  -2.118  27.216  0.00  0.00    -0.248 NA
ATOM     21  C   UNK d   0      -4.825  -0.130  26.415  0.00  0.00    -0.011 A 
ATOM     22  C   UNK d   0      -5.260  -2.329  26.424  0.00  0.00     0.066 A 
ATOM     23  C   UNK d   0      -5.712  -3.637  26.333  0.00  0.00     0.062 C 
ATOM     24  C   UNK d   0      -5.644  -1.020  25.933  0.00  0.00    -0.020 A 
ATOM     25  C   UNK d   0      -5.236  -4.762  27.025  0.00  0.00     0.041 A 
ATOM     26  N   UNK d   0      -3.995  -5.149  27.344  0.00  0.00    -0.355 N 
ATOM     27  C   UNK d   0      -6.172  -5.695  27.522  0.00  0.00    -0.022 A 
ATOM     28  C   UNK d   0      -4.108  -6.296  28.032  0.00  0.00     0.042 A 
ATOM     29  H   UNK d   0      -3.045  -4.631  27.063  0.00  0.00     0.166 HD
ATOM     30  C   UNK d   0      -3.134  -7.126  28.609  0.00  0.00     0.062 C 
ATOM     31  C   UNK d   0      -5.467  -6.668  28.161  0.00  0.00    -0.013 A 
ATOM     32  C   UNK d   0      -1.985  -6.752  29.287  0.00  0.00     0.066 A 
BRANCH   8  33
ATOM     33  C   UNK d   0       1.128  -6.842  31.241  0.00  0.00     0.151 C 
BRANCH  33  34
ATOM     34  C   UNK d   0       2.359  -6.682  30.446  0.00  0.00     0.143 C 
ATOM     35  O   UNK d   0       2.793  -7.611  29.750  0.00  0.00    -0.650 OA
BRANCH  34  36
ATOM     36  O   UNK d   0       3.035  -5.484  30.482  0.00  0.00    -0.776 OA
ATOM     37  H   UNK d   0       4.063  -5.450  30.459  0.00  0.00     0.167 HD
ENDBRANCH  34  36
ENDBRANCH  33  34
ENDBRANCH   8  33
BRANCH  31  38
ATOM     38  C   UNK d   0      -6.047  -7.872  28.865  0.00  0.00     0.151 C 
BRANCH  38  39
ATOM     39  C   UNK d   0      -6.073  -9.053  28.028  0.00  0.00     0.143 C 
ATOM     40  O   UNK d   0      -5.161  -9.898  28.042  0.00  0.00    -0.650 OA
BRANCH  39  41
ATOM     41  O   UNK d   0      -7.153  -9.264  27.172  0.00  0.00    -0.776 OA
ATOM     42  H   UNK d   0      -7.184 -10.162  26.679  0.00  0.00     0.167 HD
ENDBRANCH  39  41
ENDBRANCH  38  39
ENDBRANCH  31  38
BRANCH  27  43
ATOM     43  C   UNK d   0      -7.677  -5.694  27.412  0.00  0.00     0.052 C 
BRANCH  43  44
ATOM     44  C   UNK d   0      -8.171  -6.155  26.079  0.00  0.00     0.115 C 
BRANCH  44  45
ATOM     45  C   UNK d   0      -9.496  -5.514  25.874  0.00  0.00     0.139 C 
ATOM     46  O   UNK d   0     -10.157  -5.835  24.855  0.00  0.00    -0.650 OA
BRANCH  45  47
ATOM     47  O   UNK d   0     -10.026  -4.594  26.752  0.00  0.00    -0.776 OA
ATOM     48  H   UNK d   0     -10.765  -4.830  27.433  0.00  0.00     0.167 HD
ENDBRANCH  45  47
ENDBRANCH  44  45
ENDBRANCH  43  44
ENDBRANCH  27  43
BRANCH  24  49
ATOM     49  C   UNK d   0      -6.807  -0.753  25.070  0.00  0.00     0.052 C 
BRANCH  49  50
ATOM     50  C   UNK d   0      -7.996  -0.350  25.903  0.00  0.00     0.115 C 
BRANCH  50  51
ATOM     51  C   UNK d   0      -8.889  -1.412  26.346  0.00  0.00     0.139 C 
ATOM     52  O   UNK d   0      -9.890  -1.774  25.684  0.00  0.00    -0.650 OA
BRANCH  51  53
ATOM     53  O   UNK d   0      -8.641  -2.061  27.546  0.00  0.00    -0.776 OA
ATOM     54  H   UNK d   0      -9.244  -1.865  28.326  0.00  0.00     0.167 HD
ENDBRANCH  51  53
ENDBRANCH  50  51
ENDBRANCH  49  50
ENDBRANCH  24  49
BRANCH  21  55
ATOM     55  C   UNK d   0      -4.838   1.346  26.193  0.00  0.00     0.151 C 
BRANCH  55  56
ATOM     56  C   UNK d   0      -3.835   1.763  25.201  0.00  0.00     0.143 C 
ATOM     57  O   UNK d   0      -4.037   1.709  23.972  0.00  0.00    -0.650 OA
BRANCH  56  58
ATOM     58  O   UNK d   0      -2.612   2.237  25.674  0.00  0.00    -0.776 OA
ATOM     59  H   UNK d   0      -2.680   2.944  26.427  0.00  0.00     0.167 HD
ENDBRANCH  56  58
ENDBRANCH  55  56
ENDBRANCH  21  55
BRANCH  18  60
ATOM     60  C   UNK d   0       0.187   0.297  27.761  0.00  0.00     0.151 C 
BRANCH  60  61
ATOM     61  C   UNK d   0      -0.312   1.478  28.482  0.00  0.00     0.143 C 
ATOM     62  O   UNK d   0      -0.736   2.524  27.990  0.00  0.00    -0.650 OA
BRANCH  61  63
ATOM     63  O   UNK d   0      -0.293   1.374  29.894  0.00  0.00    -0.776 OA
ATOM     64  H   UNK d   0      -1.032   1.762  30.452  0.00  0.00     0.167 HD
ENDBRANCH  61  63
ENDBRANCH  60  61
ENDBRANCH  18  60
BRANCH  14  65
ATOM     65  C   UNK d   0       1.779  -1.777  29.301  0.00  0.00     0.052 C 
BRANCH  65  66
ATOM     66  C   UNK d   0       2.538  -2.688  28.402  0.00  0.00     0.115 C 
BRANCH  66  67
ATOM     67  C   UNK d   0       2.733  -2.329  27.026  0.00  0.00     0.139 C 
ATOM     68  O   UNK d   0       3.883  -1.881  26.665  0.00  0.00    -0.650 OA
BRANCH  67  69
ATOM     69  O   UNK d   0       1.807  -2.403  25.985  0.00  0.00    -0.776 OA
ATOM     70  H   UNK d   0       0.886  -1.983  26.175  0.00  0.00     0.167 HD
ENDBRANCH  67  69
ENDBRANCH  66  67
ENDBRANCH  65  66
ENDBRANCH  14  65
ENDBRANCH   6   7
ENDBRANCH   5   6
ENDBRANCH   2   5
TORSDOF 28
ENDMDL
MODEL 15
REMARK VINA RESULT:      -9.4      1.865      2.436
REMARK  28 active torsions:
REMARK  status: ('A' for Active; 'I' for Inactive)
REMARK    1  A    between atoms: C_2  and  O_3 
REMARK    2  A    between atoms: C_2  and  C_4 
REMARK    3  A    between atoms: C_4  and  C_5 
REMARK    4  A    between atoms: C_5  and  C_6 
REMARK    5  A    between atoms: C_7  and  C_8 
REMARK    6  A    between atoms: C_8  and  C_9 
REMARK    7  A    between atoms: C_9  and  O_11 
REMARK    8  A    between atoms: C_28  and  C_29 
REMARK    9  A    between atoms: C_29  and  C_30 
REMARK   10  A    between atoms: C_30  and  O_32 
REMARK   11  A    between atoms: C_33  and  C_34 
REMARK   12  A    between atoms: C_34  and  C_35 
REMARK   13  A    between atoms: C_35  and  C_36 
REMARK   14  A    between atoms: C_36  and  O_38 
REMARK   15  A    between atoms: C_39  and  C_40 
REMARK   16  A    between atoms: C_40  and  C_41 
REMARK   17  A    between atoms: C_41  and  C_42 
REMARK   18  A    between atoms: C_42  and  O_44 
REMARK   19  A    between atoms: C_45  and  C_46 
REMARK   20  A    between atoms: C_46  and  C_47 
REMARK   21  A    between atoms: C_47  and  O_49 
REMARK   22  A    between atoms: C_50  and  C_51 
REMARK   23  A    between atoms: C_51  and  C_52 
REMARK   24  A    between atoms: C_52  and  O_54 
REMARK   25  A    between atoms: C_55  and  C_56 
REMARK   26  A    between atoms: C_56  and  C_57 
REMARK   27  A    between atoms: C_57  and  C_58 
REMARK   28  A    between atoms: C_58  and  O_60 
ROOT
ATOM      1  O   UNK d   0       4.620  -1.641  28.303  0.00  0.00    -0.650 OA
ATOM      2  C   UNK d   0       3.886  -1.530  27.296  0.00  0.00     0.139 C 
ENDROOT
BRANCH   2   3
ATOM      3  O   UNK d   0       4.397  -0.974  26.148  0.00  0.00    -0.776 OA
ATOM      4  H   UNK d   0       4.135  -1.331  25.227  0.00  0.00     0.167 HD
ENDBRANCH   2   3
BRANCH   2   5
ATOM      5  C   UNK d   0       2.471  -1.996  27.346  0.00  0.00     0.115 C 
BRANCH   5   6
ATOM      6  C   UNK d   0       1.747  -1.331  28.484  0.00  0.00     0.052 C 
BRANCH   6   7
ATOM      7  C   UNK d   0       0.287  -1.088  28.182  0.00  0.00    -0.020 A 
ATOM      8  C   UNK d   0      -0.286   0.047  27.876  0.00  0.00    -0.011 A 
ATOM      9  C   UNK d   0      -1.704  -0.209  27.680  0.00  0.00     0.067 A 
ATOM     10  C   UNK d   0      -2.830   0.550  27.327  0.00  0.00     0.062 C 
ATOM     11  N   UNK d   0      -1.906  -1.526  27.893  0.00  0.00    -0.248 NA
ATOM     12  C   UNK d   0      -4.078   0.071  26.913  0.00  0.00     0.041 A 
ATOM     13  N   UNK d   0      -4.837  -0.942  27.374  0.00  0.00    -0.355 N 
ATOM     14  C   UNK d   0      -4.696   0.659  25.794  0.00  0.00    -0.022 A 
ATOM     15  C   UNK d   0      -5.915  -1.017  26.572  0.00  0.00     0.042 A 
ATOM     16  H   UNK d   0      -4.623  -1.579  28.261  0.00  0.00     0.166 HD
ATOM     17  C   UNK d   0      -7.019  -1.892  26.605  0.00  0.00     0.062 C 
ATOM     18  C   UNK d   0      -5.862  -0.029  25.569  0.00  0.00    -0.013 A 
ATOM     19  C   UNK d   0      -7.037  -3.251  26.787  0.00  0.00     0.067 A 
ATOM     20  N   UNK d   0      -5.897  -3.824  27.180  0.00  0.00    -0.248 NA
ATOM     21  C   UNK d   0      -8.021  -4.311  26.644  0.00  0.00    -0.011 A 
ATOM     22  C   UNK d   0      -6.063  -5.181  27.304  0.00  0.00     0.066 A 
ATOM     23  C   UNK d   0      -4.962  -5.900  27.745  0.00  0.00     0.062 C 
ATOM     24  C   UNK d   0      -7.444  -5.439  26.945  0.00  0.00    -0.020 A 
ATOM     25  C   UNK d   0      -3.721  -5.399  28.168  0.00  0.00     0.041 A 
ATOM     26  N   UNK d   0      -2.960  -4.402  27.701  0.00  0.00    -0.355 N 
ATOM     27  C   UNK d   0      -3.104  -5.986  29.294  0.00  0.00    -0.022 A 
ATOM     28  C   UNK d   0      -1.879  -4.330  28.494  0.00  0.00     0.042 A 
ATOM     29  H   UNK d   0      -3.171  -3.770  26.803  0.00  0.00     0.166 HD
ATOM     30  C   UNK d   0      -0.769  -3.471  28.467  0.00  0.00     0.062 C 
ATOM     31  C   UNK d   0      -1.938  -5.316  29.507  0.00  0.00    -0.013 A 
ATOM     32  C   UNK d   0      -0.747  -2.112  28.199  0.00  0.00     0.066 A 
BRANCH   8  33
ATOM     33  C   UNK d   0       0.367   1.363  27.751  0.00  0.00     0.151 C 
BRANCH  33  34
ATOM     34  C   UNK d   0      -0.033   2.301  28.816  0.00  0.00     0.143 C 
ATOM     35  O   UNK d   0      -0.699   1.916  29.787  0.00  0.00    -0.650 OA
BRANCH  34  36
ATOM     36  O   UNK d   0       0.339   3.623  28.726  0.00  0.00    -0.776 OA
ATOM     37  H   UNK d   0      -0.113   4.345  29.303  0.00  0.00     0.167 HD
ENDBRANCH  34  36
ENDBRANCH  33  34
ENDBRANCH   8  33
BRANCH  31  38
ATOM     38  C   UNK d   0      -0.946  -5.585  30.614  0.00  0.00     0.151 C 
BRANCH  38  39
ATOM     39  C   UNK d   0      -1.337  -4.992  31.876  0.00  0.00     0.143 C 
ATOM     40  O   UNK d   0      -1.346  -5.637  32.939  0.00  0.00    -0.650 OA
BRANCH  39  41
ATOM     41  O   UNK d   0      -1.720  -3.652  31.915  0.00  0.00    -0.776 OA
ATOM     42  H   UNK d   0      -0.977  -2.964  32.075  0.00  0.00     0.167 HD
ENDBRANCH  39  41
ENDBRANCH  38  39
ENDBRANCH  31  38
BRANCH  27  43
ATOM     43  C   UNK d   0      -3.570  -7.136  30.151  0.00  0.00     0.052 C 
BRANCH  43  44
ATOM     44  C   UNK d   0      -2.943  -8.441  29.782  0.00  0.00     0.115 C 
BRANCH  44  45
ATOM     45  C   UNK d   0      -2.187  -8.902  30.977  0.00  0.00     0.139 C 
ATOM     46  O   UNK d   0      -1.388  -9.860  30.838  0.00  0.00    -0.650 OA
BRANCH  45  47
ATOM     47  O   UNK d   0      -2.324  -8.319  32.218  0.00  0.00    -0.776 OA
ATOM     48  H   UNK d   0      -3.208  -7.894  32.543  0.00  0.00     0.167 HD
ENDBRANCH  45  47
ENDBRANCH  44  45
ENDBRANCH  43  44
ENDBRANCH  27  43
BRANCH  24  49
ATOM     49  C   UNK d   0      -8.087  -6.764  26.970  0.00  0.00     0.052 C 
BRANCH  49  50
ATOM     50  C   UNK d   0      -8.154  -7.341  25.580  0.00  0.00     0.115 C 
BRANCH  50  51
ATOM     51  C   UNK d   0      -9.435  -7.881  25.145  0.00  0.00     0.139 C 
ATOM     52  O   UNK d   0      -9.752  -9.083  25.306  0.00  0.00    -0.650 OA
BRANCH  51  53
ATOM     53  O   UNK d   0     -10.355  -7.050  24.524  0.00  0.00    -0.776 OA
ATOM     54  H   UNK d   0     -10.908  -6.440  25.099  0.00  0.00     0.167 HD
ENDBRANCH  51  53
ENDBRANCH  50  51
ENDBRANCH  49  50
ENDBRANCH  24  49
BRANCH  21  55
ATOM     55  C   UNK d   0      -9.437  -4.086  26.227  0.00  0.00     0.151 C 
BRANCH  55  56
ATOM     56  C   UNK d   0     -10.309  -3.788  27.374  0.00  0.00     0.143 C 
ATOM     57  O   UNK d   0     -11.099  -4.622  27.856  0.00  0.00    -0.650 OA
BRANCH  56  58
ATOM     58  O   UNK d   0     -10.233  -2.513  27.932  0.00  0.00    -0.776 OA
ATOM     59  H   UNK d   0      -9.533  -2.409  28.689  0.00  0.00     0.167 HD
ENDBRANCH  56  58
ENDBRANCH  55  56
ENDBRANCH  21  55
BRANCH  18  60
ATOM     60  C   UNK d   0      -6.838   0.263  24.456  0.00  0.00     0.151 C 
BRANCH  60  61
ATOM     61  C   UNK d   0      -6.710  -0.850  23.504  0.00  0.00     0.143 C 
ATOM     62  O   UNK d   0      -5.666  -1.341  23.072  0.00  0.00    -0.650 OA
BRANCH  61  63
ATOM     63  O   UNK d   0      -7.933  -1.399  23.051  0.00  0.00    -0.776 OA
ATOM     64  H   UNK d   0      -7.978  -1.938  22.205  0.00  0.00     0.167 HD
ENDBRANCH  61  63
ENDBRANCH  60  61
ENDBRANCH  18  60
BRANCH  14  65
ATOM     65  C   UNK d   0      -4.320   1.872  24.991  0.00  0.00     0.052 C 
BRANCH  65  66
ATOM     66  C   UNK d   0      -4.823   3.140  25.583  0.00  0.00     0.115 C 
BRANCH  66  67
ATOM     67  C   UNK d   0      -6.042   3.720  25.094  0.00  0.00     0.139 C 
ATOM     68  O   UNK d   0      -6.673   4.550  25.847  0.00  0.00    -0.650 OA
BRANCH  67  69
ATOM     69  O   UNK d   0      -6.659   3.497  23.863  0.00  0.00    -0.776 OA
ATOM     70  H   UNK d   0      -6.607   2.532  23.505  0.00  0.00     0.167 HD
ENDBRANCH  67  69
ENDBRANCH  66  67
ENDBRANCH  65  66
ENDBRANCH  14  65
ENDBRANCH   6   7
ENDBRANCH   5   6
ENDBRANCH   2   5
TORSDOF 28
ENDMDL
MODEL 16
REMARK VINA RESULT:      -9.4      1.562      8.084
REMARK  28 active torsions:
REMARK  status: ('A' for Active; 'I' for Inactive)
REMARK    1  A    between atoms: C_2  and  O_3 
REMARK    2  A    between atoms: C_2  and  C_4 
REMARK    3  A    between atoms: C_4  and  C_5 
REMARK    4  A    between atoms: C_5  and  C_6 
REMARK    5  A    between atoms: C_7  and  C_8 
REMARK    6  A    between atoms: C_8  and  C_9 
REMARK    7  A    between atoms: C_9  and  O_11 
REMARK    8  A    between atoms: C_28  and  C_29 
REMARK    9  A    between atoms: C_29  and  C_30 
REMARK   10  A    between atoms: C_30  and  O_32 
REMARK   11  A    between atoms: C_33  and  C_34 
REMARK   12  A    between atoms: C_34  and  C_35 
REMARK   13  A    between atoms: C_35  and  C_36 
REMARK   14  A    between atoms: C_36  and  O_38 
REMARK   15  A    between atoms: C_39  and  C_40 
REMARK   16  A    between atoms: C_40  and  C_41 
REMARK   17  A    between atoms: C_41  and  C_42 
REMARK   18  A    between atoms: C_42  and  O_44 
REMARK   19  A    between atoms: C_45  and  C_46 
REMARK   20  A    between atoms: C_46  and  C_47 
REMARK   21  A    between atoms: C_47  and  O_49 
REMARK   22  A    between atoms: C_50  and  C_51 
REMARK   23  A    between atoms: C_51  and  C_52 
REMARK   24  A    between atoms: C_52  and  O_54 
REMARK   25  A    between atoms: C_55  and  C_56 
REMARK   26  A    between atoms: C_56  and  C_57 
REMARK   27  A    between atoms: C_57  and  C_58 
REMARK   28  A    between atoms: C_58  and  O_60 
ROOT
ATOM      1  O   UNK d   0      -6.143 -11.668  26.529  0.00  0.00    -0.650 OA
ATOM      2  C   UNK d   0      -6.761 -10.692  27.010  0.00  0.00     0.139 C 
ENDROOT
BRANCH   2   3
ATOM      3  O   UNK d   0      -8.118 -10.594  26.820  0.00  0.00    -0.776 OA
ATOM      4  H   UNK d   0      -8.760 -11.264  27.248  0.00  0.00     0.167 HD
ENDBRANCH   2   3
BRANCH   2   5
ATOM      5  C   UNK d   0      -6.027  -9.647  27.780  0.00  0.00     0.115 C 
BRANCH   5   6
ATOM      6  C   UNK d   0      -6.954  -8.516  28.131  0.00  0.00     0.052 C 
BRANCH   6   7
ATOM      7  C   UNK d   0      -6.452  -7.179  27.640  0.00  0.00    -0.020 A 
ATOM      8  C   UNK d   0      -6.964  -6.433  26.695  0.00  0.00    -0.011 A 
ATOM      9  C   UNK d   0      -6.136  -5.245  26.569  0.00  0.00     0.067 A 
ATOM     10  C   UNK d   0      -6.148  -4.081  25.784  0.00  0.00     0.062 C 
ATOM     11  N   UNK d   0      -5.139  -5.354  27.471  0.00  0.00    -0.248 NA
ATOM     12  C   UNK d   0      -5.416  -2.907  25.999  0.00  0.00     0.041 A 
ATOM     13  N   UNK d   0      -4.134  -2.716  26.362  0.00  0.00    -0.355 N 
ATOM     14  C   UNK d   0      -6.072  -1.667  25.889  0.00  0.00    -0.022 A 
ATOM     15  C   UNK d   0      -3.961  -1.387  26.493  0.00  0.00     0.042 A 
ATOM     16  H   UNK d   0      -3.361  -3.503  26.504  0.00  0.00     0.166 HD
ATOM     17  C   UNK d   0      -2.817  -0.646  26.852  0.00  0.00     0.062 C 
ATOM     18  C   UNK d   0      -5.154  -0.697  26.205  0.00  0.00    -0.013 A 
ATOM     19  C   UNK d   0      -1.919  -0.881  27.861  0.00  0.00     0.067 A 
ATOM     20  N   UNK d   0      -1.997  -2.063  28.478  0.00  0.00    -0.248 NA
ATOM     21  C   UNK d   0      -0.841  -0.139  28.493  0.00  0.00    -0.011 A 
ATOM     22  C   UNK d   0      -1.050  -2.147  29.469  0.00  0.00     0.066 A 
ATOM     23  C   UNK d   0      -0.995  -3.343  30.169  0.00  0.00     0.062 C 
ATOM     24  C   UNK d   0      -0.339  -0.884  29.436  0.00  0.00    -0.020 A 
ATOM     25  C   UNK d   0      -1.730  -4.515  29.929  0.00  0.00     0.041 A 
ATOM     26  N   UNK d   0      -3.008  -4.706  29.583  0.00  0.00    -0.355 N 
ATOM     27  C   UNK d   0      -1.070  -5.759  30.035  0.00  0.00    -0.022 A 
ATOM     28  C   UNK d   0      -3.186  -6.031  29.460  0.00  0.00     0.042 A 
ATOM     29  H   UNK d   0      -3.786  -3.914  29.451  0.00  0.00     0.166 HD
ATOM     30  C   UNK d   0      -4.320  -6.782  29.113  0.00  0.00     0.062 C 
ATOM     31  C   UNK d   0      -1.983  -6.723  29.739  0.00  0.00    -0.013 A 
ATOM     32  C   UNK d   0      -5.273  -6.495  28.148  0.00  0.00     0.066 A 
BRANCH   8  33
ATOM     33  C   UNK d   0      -8.161  -6.726  25.886  0.00  0.00     0.151 C 
BRANCH  33  34
ATOM     34  C   UNK d   0      -9.327  -5.913  26.277  0.00  0.00     0.143 C 
ATOM     35  O   UNK d   0     -10.010  -6.215  27.266  0.00  0.00    -0.650 OA
BRANCH  34  36
ATOM     36  O   UNK d   0      -9.660  -4.807  25.531  0.00  0.00    -0.776 OA
ATOM     37  H   UNK d   0      -9.023  -4.435  24.813  0.00  0.00     0.167 HD
ENDBRANCH  34  36
ENDBRANCH  33  34
ENDBRANCH   8  33
BRANCH  31  38
ATOM     38  C   UNK d   0      -1.730  -8.212  29.709  0.00  0.00     0.151 C 
BRANCH  38  39
ATOM     39  C   UNK d   0      -1.680  -8.800  31.031  0.00  0.00     0.143 C 
ATOM     40  O   UNK d   0      -2.483  -8.488  31.928  0.00  0.00    -0.650 OA
BRANCH  39  41
ATOM     41  O   UNK d   0      -0.703  -9.751  31.323  0.00  0.00    -0.776 OA
ATOM     42  H   UNK d   0       0.139  -9.416  31.801  0.00  0.00     0.167 HD
ENDBRANCH  39  41
ENDBRANCH  38  39
ENDBRANCH  31  38
BRANCH  27  43
ATOM     43  C   UNK d   0       0.363  -6.055  30.401  0.00  0.00     0.052 C 
BRANCH  43  44
ATOM     44  C   UNK d   0       1.277  -6.099  29.220  0.00  0.00     0.115 C 
BRANCH  44  45
ATOM     45  C   UNK d   0       2.558  -5.481  29.652  0.00  0.00     0.139 C 
ATOM     46  O   UNK d   0       3.527  -5.509  28.854  0.00  0.00    -0.650 OA
BRANCH  45  47
ATOM     47  O   UNK d   0       2.721  -4.880  30.881  0.00  0.00    -0.776 OA
ATOM     48  H   UNK d   0       2.981  -3.886  30.988  0.00  0.00     0.167 HD
ENDBRANCH  45  47
ENDBRANCH  44  45
ENDBRANCH  43  44
ENDBRANCH  27  43
BRANCH  24  49
ATOM     49  C   UNK d   0       0.799  -0.537  30.304  0.00  0.00     0.052 C 
BRANCH  49  50
ATOM     50  C   UNK d   0       1.396  -1.781  30.909  0.00  0.00     0.115 C 
BRANCH  50  51
ATOM     51  C   UNK d   0       1.220  -1.974  32.342  0.00  0.00     0.139 C 
ATOM     52  O   UNK d   0       1.805  -2.882  32.979  0.00  0.00    -0.650 OA
BRANCH  51  53
ATOM     53  O   UNK d   0       0.375  -1.133  33.050  0.00  0.00    -0.776 OA
ATOM     54  H   UNK d   0      -0.386  -0.699  32.556  0.00  0.00     0.167 HD
ENDBRANCH  51  53
ENDBRANCH  50  51
ENDBRANCH  49  50
ENDBRANCH  24  49
BRANCH  21  55
ATOM     55  C   UNK d   0      -0.421   1.235  28.087  0.00  0.00     0.151 C 
BRANCH  55  56
ATOM     56  C   UNK d   0      -1.314   2.268  28.634  0.00  0.00     0.143 C 
ATOM     57  O   UNK d   0      -2.066   2.958  27.918  0.00  0.00    -0.650 OA
BRANCH  56  58
ATOM     58  O   UNK d   0      -1.304   2.470  30.013  0.00  0.00    -0.776 OA
ATOM     59  H   UNK d   0      -0.989   3.410  30.314  0.00  0.00     0.167 HD
ENDBRANCH  56  58
ENDBRANCH  55  56
ENDBRANCH  21  55
BRANCH  18  60
ATOM     60  C   UNK d   0      -5.435   0.785  26.224  0.00  0.00     0.151 C 
BRANCH  60  61
ATOM     61  C   UNK d   0      -5.234   1.252  24.843  0.00  0.00     0.143 C 
ATOM     62  O   UNK d   0      -4.181   1.250  24.206  0.00  0.00    -0.650 OA
BRANCH  61  63
ATOM     63  O   UNK d   0      -6.393   1.751  24.201  0.00  0.00    -0.776 OA
ATOM     64  H   UNK d   0      -6.881   2.551  24.562  0.00  0.00     0.167 HD
ENDBRANCH  61  63
ENDBRANCH  60  61
ENDBRANCH  18  60
BRANCH  14  65
ATOM     65  C   UNK d   0      -7.458  -1.329  25.418  0.00  0.00     0.052 C 
BRANCH  65  66
ATOM     66  C   UNK d   0      -8.400  -1.050  26.534  0.00  0.00     0.115 C 
BRANCH  66  67
ATOM     67  C   UNK d   0      -9.592  -1.838  26.673  0.00  0.00     0.139 C 
ATOM     68  O   UNK d   0      -9.715  -2.588  27.710  0.00  0.00    -0.650 OA
BRANCH  67  69
ATOM     69  O   UNK d   0     -10.678  -1.903  25.800  0.00  0.00    -0.776 OA
ATOM     70  H   UNK d   0     -10.495  -2.351  24.891  0.00  0.00     0.167 HD
ENDBRANCH  67  69
ENDBRANCH  66  67
ENDBRANCH  65  66
ENDBRANCH  14  65
ENDBRANCH   6   7
ENDBRANCH   5   6
ENDBRANCH   2   5
TORSDOF 28
ENDMDL
MODEL 17
REMARK VINA RESULT:      -9.4      5.827     12.680
REMARK  28 active torsions:
REMARK  status: ('A' for Active; 'I' for Inactive)
REMARK    1  A    between atoms: C_2  and  O_3 
REMARK    2  A    between atoms: C_2  and  C_4 
REMARK    3  A    between atoms: C_4  and  C_5 
REMARK    4  A    between atoms: C_5  and  C_6 
REMARK    5  A    between atoms: C_7  and  C_8 
REMARK    6  A    between atoms: C_8  and  C_9 
REMARK    7  A    between atoms: C_9  and  O_11 
REMARK    8  A    between atoms: C_28  and  C_29 
REMARK    9  A    between atoms: C_29  and  C_30 
REMARK   10  A    between atoms: C_30  and  O_32 
REMARK   11  A    between atoms: C_33  and  C_34 
REMARK   12  A    between atoms: C_34  and  C_35 
REMARK   13  A    between atoms: C_35  and  C_36 
REMARK   14  A    between atoms: C_36  and  O_38 
REMARK   15  A    between atoms: C_39  and  C_40 
REMARK   16  A    between atoms: C_40  and  C_41 
REMARK   17  A    between atoms: C_41  and  C_42 
REMARK   18  A    between atoms: C_42  and  O_44 
REMARK   19  A    between atoms: C_45  and  C_46 
REMARK   20  A    between atoms: C_46  and  C_47 
REMARK   21  A    between atoms: C_47  and  O_49 
REMARK   22  A    between atoms: C_50  and  C_51 
REMARK   23  A    between atoms: C_51  and  C_52 
REMARK   24  A    between atoms: C_52  and  O_54 
REMARK   25  A    between atoms: C_55  and  C_56 
REMARK   26  A    between atoms: C_56  and  C_57 
REMARK   27  A    between atoms: C_57  and  C_58 
REMARK   28  A    between atoms: C_58  and  O_60 
ROOT
ATOM      1  O   UNK d   0      -4.333  -6.647  29.840  0.00  0.00    -0.650 OA
ATOM      2  C   UNK d   0      -3.577  -5.746  30.266  0.00  0.00     0.139 C 
ENDROOT
BRANCH   2   3
ATOM      3  O   UNK d   0      -3.351  -5.638  31.617  0.00  0.00    -0.776 OA
ATOM      4  H   UNK d   0      -2.796  -4.871  32.000  0.00  0.00     0.167 HD
ENDBRANCH   2   3
BRANCH   2   5
ATOM      5  C   UNK d   0      -2.931  -4.799  29.313  0.00  0.00     0.115 C 
BRANCH   5   6
ATOM      6  C   UNK d   0      -2.202  -5.561  28.240  0.00  0.00     0.052 C 
BRANCH   6   7
ATOM      7  C   UNK d   0      -0.743  -5.770  28.564  0.00  0.00    -0.020 A 
ATOM      8  C   UNK d   0      -0.186  -6.832  29.089  0.00  0.00    -0.011 A 
ATOM      9  C   UNK d   0       1.237  -6.567  29.224  0.00  0.00     0.067 A 
ATOM     10  C   UNK d   0       2.360  -7.276  29.680  0.00  0.00     0.062 C 
ATOM     11  N   UNK d   0       1.458  -5.319  28.762  0.00  0.00    -0.248 NA
ATOM     12  C   UNK d   0       3.706  -6.954  29.473  0.00  0.00     0.041 A 
ATOM     13  N   UNK d   0       4.355  -5.776  29.535  0.00  0.00    -0.355 N 
ATOM     14  C   UNK d   0       4.595  -7.969  29.077  0.00  0.00    -0.022 A 
ATOM     15  C   UNK d   0       5.632  -6.016  29.180  0.00  0.00     0.042 A 
ATOM     16  H   UNK d   0       3.924  -4.797  29.842  0.00  0.00     0.166 HD
ATOM     17  C   UNK d   0       6.731  -5.141  29.078  0.00  0.00     0.062 C 
ATOM     18  C   UNK d   0       5.820  -7.380  28.885  0.00  0.00    -0.013 A 
ATOM     19  C   UNK d   0       6.790  -3.892  28.513  0.00  0.00     0.067 A 
ATOM     20  N   UNK d   0       5.628  -3.322  28.183  0.00  0.00    -0.248 NA
ATOM     21  C   UNK d   0       7.844  -2.964  28.137  0.00  0.00    -0.011 A 
ATOM     22  C   UNK d   0       5.846  -2.090  27.618  0.00  0.00     0.066 A 
ATOM     23  C   UNK d   0       4.717  -1.367  27.261  0.00  0.00     0.062 C 
ATOM     24  C   UNK d   0       7.285  -1.913  27.610  0.00  0.00    -0.020 A 
ATOM     25  C   UNK d   0       3.373  -1.703  27.489  0.00  0.00     0.041 A 
ATOM     26  N   UNK d   0       2.725  -2.871  27.413  0.00  0.00    -0.355 N 
ATOM     27  C   UNK d   0       2.482  -0.684  27.891  0.00  0.00    -0.022 A 
ATOM     28  C   UNK d   0       1.449  -2.632  27.758  0.00  0.00     0.042 A 
ATOM     29  H   UNK d   0       3.156  -3.851  27.094  0.00  0.00     0.166 HD
ATOM     30  C   UNK d   0       0.343  -3.491  27.855  0.00  0.00     0.062 C 
ATOM     31  C   UNK d   0       1.263  -1.263  28.064  0.00  0.00    -0.013 A 
ATOM     32  C   UNK d   0       0.307  -4.785  28.349  0.00  0.00     0.066 A 
BRANCH   8  33
ATOM     33  C   UNK d   0      -0.862  -8.081  29.486  0.00  0.00     0.151 C 
BRANCH  33  34
ATOM     34  C   UNK d   0      -0.645  -8.421  30.904  0.00  0.00     0.143 C 
ATOM     35  O   UNK d   0      -1.032  -7.664  31.806  0.00  0.00    -0.650 OA
BRANCH  34  36
ATOM     36  O   UNK d   0      -0.003  -9.594  31.227  0.00  0.00    -0.776 OA
ATOM     37  H   UNK d   0       0.935  -9.807  30.862  0.00  0.00     0.167 HD
ENDBRANCH  34  36
ENDBRANCH  33  34
ENDBRANCH   8  33
BRANCH  31  38
ATOM     38  C   UNK d   0      -0.002  -0.565  28.506  0.00  0.00     0.151 C 
BRANCH  38  39
ATOM     39  C   UNK d   0      -0.023  -0.287  29.927  0.00  0.00     0.143 C 
ATOM     40  O   UNK d   0      -0.641   0.679  30.407  0.00  0.00    -0.650 OA
BRANCH  39  41
ATOM     41  O   UNK d   0       0.670  -1.126  30.800  0.00  0.00    -0.776 OA
ATOM     42  H   UNK d   0       0.167  -1.438  31.636  0.00  0.00     0.167 HD
ENDBRANCH  39  41
ENDBRANCH  38  39
ENDBRANCH  31  38
BRANCH  27  43
ATOM     43  C   UNK d   0       2.742   0.786  28.109  0.00  0.00     0.052 C 
BRANCH  43  44
ATOM     44  C   UNK d   0       3.454   1.076  29.391  0.00  0.00     0.115 C 
BRANCH  44  45
ATOM     45  C   UNK d   0       4.862   1.389  29.033  0.00  0.00     0.139 C 
ATOM     46  O   UNK d   0       5.771   0.975  29.794  0.00  0.00    -0.650 OA
BRANCH  45  47
ATOM     47  O   UNK d   0       5.205   2.105  27.907  0.00  0.00    -0.776 OA
ATOM     48  H   UNK d   0       4.569   2.784  27.458  0.00  0.00     0.167 HD
ENDBRANCH  45  47
ENDBRANCH  44  45
ENDBRANCH  43  44
ENDBRANCH  27  43
BRANCH  24  49
ATOM     49  C   UNK d   0       7.982  -0.709  27.127  0.00  0.00     0.052 C 
BRANCH  49  50
ATOM     50  C   UNK d   0       7.968  -0.665  25.620  0.00  0.00     0.115 C 
BRANCH  50  51
ATOM     51  C   UNK d   0       7.365   0.505  24.995  0.00  0.00     0.139 C 
ATOM     52  O   UNK d   0       7.759   0.963  23.897  0.00  0.00    -0.650 OA
BRANCH  51  53
ATOM     53  O   UNK d   0       6.314   1.154  25.624  0.00  0.00    -0.776 OA
ATOM     54  H   UNK d   0       6.504   2.022  26.093  0.00  0.00     0.167 HD
ENDBRANCH  51  53
ENDBRANCH  50  51
ENDBRANCH  49  50
ENDBRANCH  24  49
BRANCH  21  55
ATOM     55  C   UNK d   0       9.299  -3.223  28.348  0.00  0.00     0.151 C 
BRANCH  55  56
ATOM     56  C   UNK d   0       9.598  -3.584  29.742  0.00  0.00     0.143 C 
ATOM     57  O   UNK d   0      10.137  -4.663  30.059  0.00  0.00    -0.650 OA
BRANCH  56  58
ATOM     58  O   UNK d   0       9.258  -2.669  30.737  0.00  0.00    -0.776 OA
ATOM     59  H   UNK d   0       9.113  -3.080  31.677  0.00  0.00     0.167 HD
ENDBRANCH  56  58
ENDBRANCH  55  56
ENDBRANCH  21  55
BRANCH  18  60
ATOM     60  C   UNK d   0       7.068  -8.104  28.445  0.00  0.00     0.151 C 
BRANCH  60  61
ATOM     61  C   UNK d   0       7.844  -8.353  29.670  0.00  0.00     0.143 C 
ATOM     62  O   UNK d   0       7.591  -9.170  30.556  0.00  0.00    -0.650 OA
BRANCH  61  63
ATOM     63  O   UNK d   0       9.002  -7.553  29.823  0.00  0.00    -0.776 OA
ATOM     64  H   UNK d   0       9.543  -7.266  29.026  0.00  0.00     0.167 HD
ENDBRANCH  61  63
ENDBRANCH  60  61
ENDBRANCH  18  60
BRANCH  14  65
ATOM     65  C   UNK d   0       4.400  -9.454  28.962  0.00  0.00     0.052 C 
BRANCH  65  66
ATOM     66  C   UNK d   0       3.444  -9.834  27.887  0.00  0.00     0.115 C 
BRANCH  66  67
ATOM     67  C   UNK d   0       2.169 -10.395  28.235  0.00  0.00     0.139 C 
ATOM     68  O   UNK d   0       1.986 -10.802  29.441  0.00  0.00    -0.650 OA
BRANCH  67  69
ATOM     69  O   UNK d   0       1.058 -10.566  27.410  0.00  0.00    -0.776 OA
ATOM     70  H   UNK d   0       0.459  -9.737  27.288  0.00  0.00     0.167 HD
ENDBRANCH  67  69
ENDBRANCH  66  67
ENDBRANCH  65  66
ENDBRANCH  14  65
ENDBRANCH   6   7
ENDBRANCH   5   6
ENDBRANCH   2   5
TORSDOF 28
ENDMDL
MODEL 18
REMARK VINA RESULT:      -9.4      2.052      8.332
REMARK  28 active torsions:
REMARK  status: ('A' for Active; 'I' for Inactive)
REMARK    1  A    between atoms: C_2  and  O_3 
REMARK    2  A    between atoms: C_2  and  C_4 
REMARK    3  A    between atoms: C_4  and  C_5 
REMARK    4  A    between atoms: C_5  and  C_6 
REMARK    5  A    between atoms: C_7  and  C_8 
REMARK    6  A    between atoms: C_8  and  C_9 
REMARK    7  A    between atoms: C_9  and  O_11 
REMARK    8  A    between atoms: C_28  and  C_29 
REMARK    9  A    between atoms: C_29  and  C_30 
REMARK   10  A    between atoms: C_30  and  O_32 
REMARK   11  A    between atoms: C_33  and  C_34 
REMARK   12  A    between atoms: C_34  and  C_35 
REMARK   13  A    between atoms: C_35  and  C_36 
REMARK   14  A    between atoms: C_36  and  O_38 
REMARK   15  A    between atoms: C_39  and  C_40 
REMARK   16  A    between atoms: C_40  and  C_41 
REMARK   17  A    between atoms: C_41  and  C_42 
REMARK   18  A    between atoms: C_42  and  O_44 
REMARK   19  A    between atoms: C_45  and  C_46 
REMARK   20  A    between atoms: C_46  and  C_47 
REMARK   21  A    between atoms: C_47  and  O_49 
REMARK   22  A    between atoms: C_50  and  C_51 
REMARK   23  A    between atoms: C_51  and  C_52 
REMARK   24  A    between atoms: C_52  and  O_54 
REMARK   25  A    between atoms: C_55  and  C_56 
REMARK   26  A    between atoms: C_56  and  C_57 
REMARK   27  A    between atoms: C_57  and  C_58 
REMARK   28  A    between atoms: C_58  and  O_60 
ROOT
ATOM      1  O   UNK d   0       3.111  -6.053  29.034  0.00  0.00    -0.650 OA
ATOM      2  C   UNK d   0       2.661  -5.873  30.187  0.00  0.00     0.139 C 
ENDROOT
BRANCH   2   3
ATOM      3  O   UNK d   0       2.788  -4.637  30.774  0.00  0.00    -0.776 OA
ATOM      4  H   UNK d   0       3.539  -3.999  30.504  0.00  0.00     0.167 HD
ENDBRANCH   2   3
BRANCH   2   5
ATOM      5  C   UNK d   0       1.996  -6.991  30.914  0.00  0.00     0.115 C 
BRANCH   5   6
ATOM      6  C   UNK d   0       0.748  -6.497  31.594  0.00  0.00     0.052 C 
BRANCH   6   7
ATOM      7  C   UNK d   0      -0.429  -6.403  30.652  0.00  0.00    -0.020 A 
ATOM      8  C   UNK d   0      -1.177  -7.381  30.209  0.00  0.00    -0.011 A 
ATOM      9  C   UNK d   0      -2.177  -6.810  29.323  0.00  0.00     0.067 A 
ATOM     10  C   UNK d   0      -3.255  -7.296  28.566  0.00  0.00     0.062 C 
ATOM     11  N   UNK d   0      -1.960  -5.479  29.279  0.00  0.00    -0.248 NA
ATOM     12  C   UNK d   0      -4.287  -6.550  27.986  0.00  0.00     0.041 A 
ATOM     13  N   UNK d   0      -4.268  -5.384  27.313  0.00  0.00    -0.355 N 
ATOM     14  C   UNK d   0      -5.613  -6.996  28.131  0.00  0.00    -0.022 A 
ATOM     15  C   UNK d   0      -5.548  -5.075  27.033  0.00  0.00     0.042 A 
ATOM     16  H   UNK d   0      -3.366  -4.801  27.024  0.00  0.00     0.166 HD
ATOM     17  C   UNK d   0      -6.093  -3.970  26.349  0.00  0.00     0.062 C 
ATOM     18  C   UNK d   0      -6.421  -6.062  27.531  0.00  0.00    -0.013 A 
ATOM     19  C   UNK d   0      -5.780  -2.641  26.471  0.00  0.00     0.067 A 
ATOM     20  N   UNK d   0      -4.687  -2.339  27.177  0.00  0.00    -0.248 NA
ATOM     21  C   UNK d   0      -6.359  -1.385  26.022  0.00  0.00    -0.011 A 
ATOM     22  C   UNK d   0      -4.511  -0.978  27.224  0.00  0.00     0.066 A 
ATOM     23  C   UNK d   0      -3.387  -0.524  27.899  0.00  0.00     0.062 C 
ATOM     24  C   UNK d   0      -5.615  -0.416  26.470  0.00  0.00    -0.020 A 
ATOM     25  C   UNK d   0      -2.355  -1.290  28.463  0.00  0.00     0.041 A 
ATOM     26  N   UNK d   0      -2.375  -2.442  29.145  0.00  0.00    -0.355 N 
ATOM     27  C   UNK d   0      -1.024  -0.844  28.314  0.00  0.00    -0.022 A 
ATOM     28  C   UNK d   0      -1.100  -2.747  29.433  0.00  0.00     0.042 A 
ATOM     29  H   UNK d   0      -3.283  -3.021  29.444  0.00  0.00     0.166 HD
ATOM     30  C   UNK d   0      -0.545  -3.838  30.121  0.00  0.00     0.062 C 
ATOM     31  C   UNK d   0      -0.223  -1.760  28.924  0.00  0.00    -0.013 A 
ATOM     32  C   UNK d   0      -0.922  -5.170  30.058  0.00  0.00     0.066 A 
BRANCH   8  33
ATOM     33  C   UNK d   0      -1.044  -8.814  30.533  0.00  0.00     0.151 C 
BRANCH  33  34
ATOM     34  C   UNK d   0      -0.584  -9.618  29.387  0.00  0.00     0.143 C 
ATOM     35  O   UNK d   0       0.404  -9.273  28.723  0.00  0.00    -0.650 OA
BRANCH  34  36
ATOM     36  O   UNK d   0      -1.263 -10.766  29.051  0.00  0.00    -0.776 OA
ATOM     37  H   UNK d   0      -2.286 -10.827  29.142  0.00  0.00     0.167 HD
ENDBRANCH  34  36
ENDBRANCH  33  34
ENDBRANCH   8  33
BRANCH  31  38
ATOM     38  C   UNK d   0       1.284  -1.711  29.008  0.00  0.00     0.151 C 
BRANCH  38  39
ATOM     39  C   UNK d   0       1.931  -2.234  27.823  0.00  0.00     0.143 C 
ATOM     40  O   UNK d   0       2.244  -1.510  26.862  0.00  0.00    -0.650 OA
BRANCH  39  41
ATOM     41  O   UNK d   0       2.218  -3.596  27.743  0.00  0.00    -0.776 OA
ATOM     42  H   UNK d   0       2.761  -3.999  28.513  0.00  0.00     0.167 HD
ENDBRANCH  39  41
ENDBRANCH  38  39
ENDBRANCH  31  38
BRANCH  27  43
ATOM     43  C   UNK d   0      -0.499   0.394  27.630  0.00  0.00     0.052 C 
BRANCH  43  44
ATOM     44  C   UNK d   0       0.060   1.402  28.581  0.00  0.00     0.115 C 
BRANCH  44  45
ATOM     45  C   UNK d   0      -1.095   2.169  29.114  0.00  0.00     0.139 C 
ATOM     46  O   UNK d   0      -1.752   2.881  28.314  0.00  0.00    -0.650 OA
BRANCH  45  47
ATOM     47  O   UNK d   0      -1.474   2.127  30.438  0.00  0.00    -0.776 OA
ATOM     48  H   UNK d   0      -2.363   2.527  30.780  0.00  0.00     0.167 HD
ENDBRANCH  45  47
ENDBRANCH  44  45
ENDBRANCH  43  44
ENDBRANCH  27  43
BRANCH  24  49
ATOM     49  C   UNK d   0      -5.816   1.021  26.219  0.00  0.00     0.052 C 
BRANCH  49  50
ATOM     50  C   UNK d   0      -4.489   1.714  26.040  0.00  0.00     0.115 C 
BRANCH  50  51
ATOM     51  C   UNK d   0      -4.506   3.166  25.930  0.00  0.00     0.139 C 
ATOM     52  O   UNK d   0      -5.224   3.773  25.100  0.00  0.00    -0.650 OA
BRANCH  51  53
ATOM     53  O   UNK d   0      -3.703   3.927  26.765  0.00  0.00    -0.776 OA
ATOM     54  H   UNK d   0      -4.007   4.076  27.712  0.00  0.00     0.167 HD
ENDBRANCH  51  53
ENDBRANCH  50  51
ENDBRANCH  49  50
ENDBRANCH  24  49
BRANCH  21  55
ATOM     55  C   UNK d   0      -7.594  -1.286  25.189  0.00  0.00     0.151 C 
BRANCH  55  56
ATOM     56  C   UNK d   0      -7.289  -0.969  23.786  0.00  0.00     0.143 C 
ATOM     57  O   UNK d   0      -6.237  -1.336  23.225  0.00  0.00    -0.650 OA
BRANCH  56  58
ATOM     58  O   UNK d   0      -8.226  -0.228  23.069  0.00  0.00    -0.776 OA
ATOM     59  H   UNK d   0      -8.510   0.663  23.515  0.00  0.00     0.167 HD
ENDBRANCH  56  58
ENDBRANCH  55  56
ENDBRANCH  21  55
BRANCH  18  60
ATOM     60  C   UNK d   0      -7.926  -6.139  27.459  0.00  0.00     0.151 C 
BRANCH  60  61
ATOM     61  C   UNK d   0      -8.249  -6.427  26.053  0.00  0.00     0.143 C 
ATOM     62  O   UNK d   0      -7.655  -7.198  25.298  0.00  0.00    -0.650 OA
BRANCH  61  63
ATOM     63  O   UNK d   0      -9.367  -5.729  25.536  0.00  0.00    -0.776 OA
ATOM     64  H   UNK d   0     -10.035  -5.295  26.149  0.00  0.00     0.167 HD
ENDBRANCH  61  63
ENDBRANCH  60  61
ENDBRANCH  18  60
BRANCH  14  65
ATOM     65  C   UNK d   0      -6.162  -8.273  28.701  0.00  0.00     0.052 C 
BRANCH  65  66
ATOM     66  C   UNK d   0      -5.974  -9.441  27.798  0.00  0.00     0.115 C 
BRANCH  66  67
ATOM     67  C   UNK d   0      -7.122 -10.133  27.283  0.00  0.00     0.139 C 
ATOM     68  O   UNK d   0      -7.567 -11.151  27.931  0.00  0.00    -0.650 OA
BRANCH  67  69
ATOM     69  O   UNK d   0      -7.847  -9.842  26.128  0.00  0.00    -0.776 OA
ATOM     70  H   UNK d   0      -7.359 -10.011  25.237  0.00  0.00     0.167 HD
ENDBRANCH  67  69
ENDBRANCH  66  67
ENDBRANCH  65  66
ENDBRANCH  14  65
ENDBRANCH   6   7
ENDBRANCH   5   6
ENDBRANCH   2   5
TORSDOF 28
ENDMDL
MODEL 19
REMARK VINA RESULT:      -9.4      2.268      7.835
REMARK  28 active torsions:
REMARK  status: ('A' for Active; 'I' for Inactive)
REMARK    1  A    between atoms: C_2  and  O_3 
REMARK    2  A    between atoms: C_2  and  C_4 
REMARK    3  A    between atoms: C_4  and  C_5 
REMARK    4  A    between atoms: C_5  and  C_6 
REMARK    5  A    between atoms: C_7  and  C_8 
REMARK    6  A    between atoms: C_8  and  C_9 
REMARK    7  A    between atoms: C_9  and  O_11 
REMARK    8  A    between atoms: C_28  and  C_29 
REMARK    9  A    between atoms: C_29  and  C_30 
REMARK   10  A    between atoms: C_30  and  O_32 
REMARK   11  A    between atoms: C_33  and  C_34 
REMARK   12  A    between atoms: C_34  and  C_35 
REMARK   13  A    between atoms: C_35  and  C_36 
REMARK   14  A    between atoms: C_36  and  O_38 
REMARK   15  A    between atoms: C_39  and  C_40 
REMARK   16  A    between atoms: C_40  and  C_41 
REMARK   17  A    between atoms: C_41  and  C_42 
REMARK   18  A    between atoms: C_42  and  O_44 
REMARK   19  A    between atoms: C_45  and  C_46 
REMARK   20  A    between atoms: C_46  and  C_47 
REMARK   21  A    between atoms: C_47  and  O_49 
REMARK   22  A    between atoms: C_50  and  C_51 
REMARK   23  A    between atoms: C_51  and  C_52 
REMARK   24  A    between atoms: C_52  and  O_54 
REMARK   25  A    between atoms: C_55  and  C_56 
REMARK   26  A    between atoms: C_56  and  C_57 
REMARK   27  A    between atoms: C_57  and  C_58 
REMARK   28  A    between atoms: C_58  and  O_60 
ROOT
ATOM      1  O   UNK d   0      -1.063   2.847  29.593  0.00  0.00    -0.650 OA
ATOM      2  C   UNK d   0      -0.203   2.906  28.687  0.00  0.00     0.139 C 
ENDROOT
BRANCH   2   3
ATOM      3  O   UNK d   0       0.696   3.946  28.678  0.00  0.00    -0.776 OA
ATOM      4  H   UNK d   0       0.526   4.794  29.222  0.00  0.00     0.167 HD
ENDBRANCH   2   3
BRANCH   2   5
ATOM      5  C   UNK d   0      -0.157   1.858  27.628  0.00  0.00     0.115 C 
BRANCH   5   6
ATOM      6  C   UNK d   0       0.621   0.665  28.114  0.00  0.00     0.052 C 
BRANCH   6   7
ATOM      7  C   UNK d   0      -0.120  -0.635  27.908  0.00  0.00    -0.020 A 
ATOM      8  C   UNK d   0       0.368  -1.848  27.956  0.00  0.00    -0.011 A 
ATOM      9  C   UNK d   0      -0.718  -2.775  27.687  0.00  0.00     0.067 A 
ATOM     10  C   UNK d   0      -0.864  -4.169  27.615  0.00  0.00     0.062 C 
ATOM     11  N   UNK d   0      -1.831  -2.040  27.481  0.00  0.00    -0.248 NA
ATOM     12  C   UNK d   0      -2.059  -4.897  27.618  0.00  0.00     0.041 A 
ATOM     13  N   UNK d   0      -3.227  -4.686  26.981  0.00  0.00    -0.355 N 
ATOM     14  C   UNK d   0      -2.163  -6.031  28.443  0.00  0.00    -0.022 A 
ATOM     15  C   UNK d   0      -4.072  -5.652  27.387  0.00  0.00     0.042 A 
ATOM     16  H   UNK d   0      -3.444  -3.881  26.245  0.00  0.00     0.166 HD
ATOM     17  C   UNK d   0      -5.413  -5.901  27.034  0.00  0.00     0.062 C 
ATOM     18  C   UNK d   0      -3.441  -6.515  28.305  0.00  0.00    -0.013 A 
ATOM     19  C   UNK d   0      -6.454  -5.014  26.921  0.00  0.00     0.067 A 
ATOM     20  N   UNK d   0      -6.147  -3.715  26.951  0.00  0.00    -0.248 NA
ATOM     21  C   UNK d   0      -7.897  -5.110  26.782  0.00  0.00    -0.011 A 
ATOM     22  C   UNK d   0      -7.285  -2.954  26.843  0.00  0.00     0.066 A 
ATOM     23  C   UNK d   0      -7.107  -1.578  26.822  0.00  0.00     0.062 C 
ATOM     24  C   UNK d   0      -8.378  -3.901  26.741  0.00  0.00    -0.020 A 
ATOM     25  C   UNK d   0      -5.897  -0.867  26.807  0.00  0.00     0.041 A 
ATOM     26  N   UNK d   0      -4.741  -1.069  27.451  0.00  0.00    -0.355 N 
ATOM     27  C   UNK d   0      -5.792   0.269  25.975  0.00  0.00    -0.022 A 
ATOM     28  C   UNK d   0      -3.900  -0.101  27.054  0.00  0.00     0.042 A 
ATOM     29  H   UNK d   0      -4.528  -1.872  28.199  0.00  0.00     0.166 HD
ATOM     30  C   UNK d   0      -2.566   0.164  27.404  0.00  0.00     0.062 C 
ATOM     31  C   UNK d   0      -4.531   0.759  26.125  0.00  0.00    -0.013 A 
ATOM     32  C   UNK d   0      -1.538  -0.744  27.601  0.00  0.00     0.066 A 
BRANCH   8  33
ATOM     33  C   UNK d   0       1.767  -2.229  28.226  0.00  0.00     0.151 C 
BRANCH  33  34
ATOM     34  C   UNK d   0       2.527  -2.518  26.997  0.00  0.00     0.143 C 
ATOM     35  O   UNK d   0       3.691  -2.941  27.053  0.00  0.00    -0.650 OA
BRANCH  34  36
ATOM     36  O   UNK d   0       1.935  -2.313  25.772  0.00  0.00    -0.776 OA
ATOM     37  H   UNK d   0       1.437  -1.438  25.560  0.00  0.00     0.167 HD
ENDBRANCH  34  36
ENDBRANCH  33  34
ENDBRANCH   8  33
BRANCH  31  38
ATOM     38  C   UNK d   0      -3.954   1.964  25.419  0.00  0.00     0.151 C 
BRANCH  38  39
ATOM     39  C   UNK d   0      -4.036   3.172  26.213  0.00  0.00     0.143 C 
ATOM     40  O   UNK d   0      -3.261   3.402  27.157  0.00  0.00    -0.650 OA
BRANCH  39  41
ATOM     41  O   UNK d   0      -5.014   4.122  25.918  0.00  0.00    -0.776 OA
ATOM     42  H   UNK d   0      -5.483   4.035  25.011  0.00  0.00     0.167 HD
ENDBRANCH  39  41
ENDBRANCH  38  39
ENDBRANCH  31  38
BRANCH  27  43
ATOM     43  C   UNK d   0      -6.823   0.890  25.067  0.00  0.00     0.052 C 
BRANCH  43  44
ATOM     44  C   UNK d   0      -7.661   1.926  25.745  0.00  0.00     0.115 C 
BRANCH  44  45
ATOM     45  C   UNK d   0      -7.544   3.164  24.932  0.00  0.00     0.139 C 
ATOM     46  O   UNK d   0      -8.189   4.177  25.300  0.00  0.00    -0.650 OA
BRANCH  45  47
ATOM     47  O   UNK d   0      -6.757   3.246  23.803  0.00  0.00    -0.776 OA
ATOM     48  H   UNK d   0      -7.007   3.827  22.987  0.00  0.00     0.167 HD
ENDBRANCH  45  47
ENDBRANCH  44  45
ENDBRANCH  43  44
ENDBRANCH  27  43
BRANCH  24  49
ATOM     49  C   UNK d   0      -9.794  -3.535  26.568  0.00  0.00     0.052 C 
BRANCH  49  50
ATOM     50  C   UNK d   0     -10.032  -3.002  25.178  0.00  0.00     0.115 C 
BRANCH  50  51
ATOM     51  C   UNK d   0     -11.146  -3.569  24.430  0.00  0.00     0.139 C 
ATOM     52  O   UNK d   0     -11.433  -3.206  23.265  0.00  0.00    -0.650 OA
BRANCH  51  53
ATOM     53  O   UNK d   0     -11.935  -4.550  25.012  0.00  0.00    -0.776 OA
ATOM     54  H   UNK d   0     -12.135  -5.378  24.478  0.00  0.00     0.167 HD
ENDBRANCH  51  53
ENDBRANCH  50  51
ENDBRANCH  49  50
ENDBRANCH  24  49
BRANCH  21  55
ATOM     55  C   UNK d   0      -8.645  -6.399  26.700  0.00  0.00     0.151 C 
BRANCH  55  56
ATOM     56  C   UNK d   0      -8.847  -6.832  25.308  0.00  0.00     0.143 C 
ATOM     57  O   UNK d   0      -9.884  -6.574  24.665  0.00  0.00    -0.650 OA
BRANCH  56  58
ATOM     58  O   UNK d   0      -7.826  -7.560  24.700  0.00  0.00    -0.776 OA
ATOM     59  H   UNK d   0      -7.975  -8.584  24.674  0.00  0.00     0.167 HD
ENDBRANCH  56  58
ENDBRANCH  55  56
ENDBRANCH  21  55
BRANCH  18  60
ATOM     60  C   UNK d   0      -3.990  -7.724  29.021  0.00  0.00     0.151 C 
BRANCH  60  61
ATOM     61  C   UNK d   0      -4.969  -7.209  29.990  0.00  0.00     0.143 C 
ATOM     62  O   UNK d   0      -6.177  -7.447  30.021  0.00  0.00    -0.650 OA
BRANCH  61  63
ATOM     63  O   UNK d   0      -4.439  -6.351  30.983  0.00  0.00    -0.776 OA
ATOM     64  H   UNK d   0      -4.011  -6.721  31.813  0.00  0.00     0.167 HD
ENDBRANCH  61  63
ENDBRANCH  60  61
ENDBRANCH  18  60
BRANCH  14  65
ATOM     65  C   UNK d   0      -1.129  -6.743  29.268  0.00  0.00     0.052 C 
BRANCH  65  66
ATOM     66  C   UNK d   0      -0.900  -6.104  30.591  0.00  0.00     0.115 C 
BRANCH  66  67
ATOM     67  C   UNK d   0       0.170  -6.566  31.429  0.00  0.00     0.139 C 
ATOM     68  O   UNK d   0       0.590  -7.773  31.279  0.00  0.00    -0.650 OA
BRANCH  67  69
ATOM     69  O   UNK d   0       0.842  -5.858  32.425  0.00  0.00    -0.776 OA
ATOM     70  H   UNK d   0       0.301  -5.113  32.888  0.00  0.00     0.167 HD
ENDBRANCH  67  69
ENDBRANCH  66  67
ENDBRANCH  65  66
ENDBRANCH  14  65
ENDBRANCH   6   7
ENDBRANCH   5   6
ENDBRANCH   2   5
TORSDOF 28
ENDMDL
MODEL 20
REMARK VINA RESULT:      -9.2      1.706     10.686
REMARK  28 active torsions:
REMARK  status: ('A' for Active; 'I' for Inactive)
REMARK    1  A    between atoms: C_2  and  O_3 
REMARK    2  A    between atoms: C_2  and  C_4 
REMARK    3  A    between atoms: C_4  and  C_5 
REMARK    4  A    between atoms: C_5  and  C_6 
REMARK    5  A    between atoms: C_7  and  C_8 
REMARK    6  A    between atoms: C_8  and  C_9 
REMARK    7  A    between atoms: C_9  and  O_11 
REMARK    8  A    between atoms: C_28  and  C_29 
REMARK    9  A    between atoms: C_29  and  C_30 
REMARK   10  A    between atoms: C_30  and  O_32 
REMARK   11  A    between atoms: C_33  and  C_34 
REMARK   12  A    between atoms: C_34  and  C_35 
REMARK   13  A    between atoms: C_35  and  C_36 
REMARK   14  A    between atoms: C_36  and  O_38 
REMARK   15  A    between atoms: C_39  and  C_40 
REMARK   16  A    between atoms: C_40  and  C_41 
REMARK   17  A    between atoms: C_41  and  C_42 
REMARK   18  A    between atoms: C_42  and  O_44 
REMARK   19  A    between atoms: C_45  and  C_46 
REMARK   20  A    between atoms: C_46  and  C_47 
REMARK   21  A    between atoms: C_47  and  O_49 
REMARK   22  A    between atoms: C_50  and  C_51 
REMARK   23  A    between atoms: C_51  and  C_52 
REMARK   24  A    between atoms: C_52  and  O_54 
REMARK   25  A    between atoms: C_55  and  C_56 
REMARK   26  A    between atoms: C_56  and  C_57 
REMARK   27  A    between atoms: C_57  and  C_58 
REMARK   28  A    between atoms: C_58  and  O_60 
ROOT
ATOM      1  O   UNK d   0      -9.018  -9.917  23.954  0.00  0.00    -0.650 OA
ATOM      2  C   UNK d   0      -8.582  -9.571  25.075  0.00  0.00     0.139 C 
ENDROOT
BRANCH   2   3
ATOM      3  O   UNK d   0      -8.660 -10.450  26.128  0.00  0.00    -0.776 OA
ATOM      4  H   UNK d   0      -9.557 -10.667  26.569  0.00  0.00     0.167 HD
ENDBRANCH   2   3
BRANCH   2   5
ATOM      5  C   UNK d   0      -7.985  -8.218  25.261  0.00  0.00     0.115 C 
BRANCH   5   6
ATOM      6  C   UNK d   0      -8.320  -7.688  26.629  0.00  0.00     0.052 C 
BRANCH   6   7
ATOM      7  C   UNK d   0      -7.140  -7.025  27.299  0.00  0.00    -0.020 A 
ATOM      8  C   UNK d   0      -6.317  -7.551  28.169  0.00  0.00    -0.011 A 
ATOM      9  C   UNK d   0      -5.349  -6.532  28.539  0.00  0.00     0.067 A 
ATOM     10  C   UNK d   0      -4.228  -6.457  29.380  0.00  0.00     0.062 C 
ATOM     11  N   UNK d   0      -5.662  -5.414  27.850  0.00  0.00    -0.248 NA
ATOM     12  C   UNK d   0      -3.245  -5.462  29.397  0.00  0.00     0.041 A 
ATOM     13  N   UNK d   0      -3.340  -4.121  29.313  0.00  0.00    -0.355 N 
ATOM     14  C   UNK d   0      -1.892  -5.842  29.455  0.00  0.00    -0.022 A 
ATOM     15  C   UNK d   0      -2.082  -3.642  29.308  0.00  0.00     0.042 A 
ATOM     16  H   UNK d   0      -4.278  -3.524  29.277  0.00  0.00     0.166 HD
ATOM     17  C   UNK d   0      -1.610  -2.316  29.238  0.00  0.00     0.062 C 
ATOM     18  C   UNK d   0      -1.147  -4.691  29.395  0.00  0.00    -0.013 A 
ATOM     19  C   UNK d   0      -2.021  -1.297  28.417  0.00  0.00     0.067 A 
ATOM     20  N   UNK d   0      -3.142  -1.496  27.720  0.00  0.00    -0.248 NA
ATOM     21  C   UNK d   0      -1.528   0.025  28.066  0.00  0.00    -0.011 A 
ATOM     22  C   UNK d   0      -3.417  -0.402  26.936  0.00  0.00     0.066 A 
ATOM     23  C   UNK d   0      -4.581  -0.460  26.184  0.00  0.00     0.062 C 
ATOM     24  C   UNK d   0      -2.347   0.541  27.196  0.00  0.00    -0.020 A 
ATOM     25  C   UNK d   0      -5.562  -1.464  26.191  0.00  0.00     0.041 A 
ATOM     26  N   UNK d   0      -5.467  -2.797  26.260  0.00  0.00    -0.355 N 
ATOM     27  C   UNK d   0      -6.920  -1.081  26.138  0.00  0.00    -0.022 A 
ATOM     28  C   UNK d   0      -6.720  -3.278  26.256  0.00  0.00     0.042 A 
ATOM     29  H   UNK d   0      -4.523  -3.396  26.284  0.00  0.00     0.166 HD
ATOM     30  C   UNK d   0      -7.204  -4.595  26.316  0.00  0.00     0.062 C 
ATOM     31  C   UNK d   0      -7.660  -2.223  26.179  0.00  0.00    -0.013 A 
ATOM     32  C   UNK d   0      -6.730  -5.645  27.085  0.00  0.00     0.066 A 
BRANCH   8  33
ATOM     33  C   UNK d   0      -6.350  -8.927  28.699  0.00  0.00     0.151 C 
BRANCH  33  34
ATOM     34  C   UNK d   0      -5.437  -9.836  27.982  0.00  0.00     0.143 C 
ATOM     35  O   UNK d   0      -4.213  -9.786  28.168  0.00  0.00    -0.650 OA
BRANCH  34  36
ATOM     36  O   UNK d   0      -5.955 -10.750  27.094  0.00  0.00    -0.776 OA
ATOM     37  H   UNK d   0      -6.382 -10.451  26.207  0.00  0.00     0.167 HD
ENDBRANCH  34  36
ENDBRANCH  33  34
ENDBRANCH   8  33
BRANCH  31  38
ATOM     38  C   UNK d   0      -9.168  -2.309  26.159  0.00  0.00     0.151 C 
BRANCH  38  39
ATOM     39  C   UNK d   0      -9.750  -2.265  27.484  0.00  0.00     0.143 C 
ATOM     40  O   UNK d   0     -10.919  -2.624  27.709  0.00  0.00    -0.650 OA
BRANCH  39  41
ATOM     41  O   UNK d   0      -8.983  -1.807  28.555  0.00  0.00    -0.776 OA
ATOM     42  H   UNK d   0      -9.063  -0.813  28.788  0.00  0.00     0.167 HD
ENDBRANCH  39  41
ENDBRANCH  38  39
ENDBRANCH  31  38
BRANCH  27  43
ATOM     43  C   UNK d   0      -7.524   0.298  26.049  0.00  0.00     0.052 C 
BRANCH  43  44
ATOM     44  C   UNK d   0      -7.680   0.785  24.645  0.00  0.00     0.115 C 
BRANCH  44  45
ATOM     45  C   UNK d   0      -7.527   2.263  24.689  0.00  0.00     0.139 C 
ATOM     46  O   UNK d   0      -8.172   2.899  25.560  0.00  0.00    -0.650 OA
BRANCH  45  47
ATOM     47  O   UNK d   0      -6.709   2.956  23.823  0.00  0.00    -0.776 OA
ATOM     48  H   UNK d   0      -5.698   2.763  23.733  0.00  0.00     0.167 HD
ENDBRANCH  45  47
ENDBRANCH  44  45
ENDBRANCH  43  44
ENDBRANCH  27  43
BRANCH  24  49
ATOM     49  C   UNK d   0      -2.248   1.884  26.600  0.00  0.00     0.052 C 
BRANCH  49  50
ATOM     50  C   UNK d   0      -3.458   2.708  26.958  0.00  0.00     0.115 C 
BRANCH  50  51
ATOM     51  C   UNK d   0      -4.173   3.351  25.864  0.00  0.00     0.139 C 
ATOM     52  O   UNK d   0      -5.114   4.158  26.052  0.00  0.00    -0.650 OA
BRANCH  51  53
ATOM     53  O   UNK d   0      -3.815   3.073  24.553  0.00  0.00    -0.776 OA
ATOM     54  H   UNK d   0      -2.902   2.690  24.381  0.00  0.00     0.167 HD
ENDBRANCH  51  53
ENDBRANCH  50  51
ENDBRANCH  49  50
ENDBRANCH  24  49
BRANCH  21  55
ATOM     55  C   UNK d   0      -0.293   0.635  28.639  0.00  0.00     0.151 C 
BRANCH  55  56
ATOM     56  C   UNK d   0      -0.531   1.219  29.968  0.00  0.00     0.143 C 
ATOM     57  O   UNK d   0      -1.150   2.289  30.135  0.00  0.00    -0.650 OA
BRANCH  56  58
ATOM     58  O   UNK d   0      -0.038   0.533  31.077  0.00  0.00    -0.776 OA
ATOM     59  H   UNK d   0       0.908   0.130  30.955  0.00  0.00     0.167 HD
ENDBRANCH  56  58
ENDBRANCH  55  56
ENDBRANCH  21  55
BRANCH  18  60
ATOM     60  C   UNK d   0       0.361  -4.635  29.420  0.00  0.00     0.151 C 
BRANCH  60  61
ATOM     61  C   UNK d   0       0.741  -4.610  30.840  0.00  0.00     0.143 C 
ATOM     62  O   UNK d   0       1.781  -5.042  31.338  0.00  0.00    -0.650 OA
BRANCH  61  63
ATOM     63  O   UNK d   0      -0.209  -4.019  31.708  0.00  0.00    -0.776 OA
ATOM     64  H   UNK d   0       0.072  -3.597  32.575  0.00  0.00     0.167 HD
ENDBRANCH  61  63
ENDBRANCH  60  61
ENDBRANCH  18  60
BRANCH  14  65
ATOM     65  C   UNK d   0      -1.260  -7.190  29.659  0.00  0.00     0.052 C 
BRANCH  65  66
ATOM     66  C   UNK d   0      -0.848  -7.431  31.068  0.00  0.00     0.115 C 
BRANCH  66  67
ATOM     67  C   UNK d   0      -1.800  -7.257  32.128  0.00  0.00     0.139 C 
ATOM     68  O   UNK d   0      -2.556  -8.249  32.443  0.00  0.00    -0.650 OA
BRANCH  67  69
ATOM     69  O   UNK d   0      -2.027  -6.113  32.892  0.00  0.00    -0.776 OA
ATOM     70  H   UNK d   0      -2.984  -6.001  33.258  0.00  0.00     0.167 HD
ENDBRANCH  67  69
ENDBRANCH  66  67
ENDBRANCH  65  66
ENDBRANCH  14  65
ENDBRANCH   6   7
ENDBRANCH   5   6
ENDBRANCH   2   5
TORSDOF 28
ENDMDL
