MODEL 1
REMARK VINA RESULT:      -9.7      0.000      0.000
REMARK  28 active torsions:
REMARK  status: ('A' for Active; 'I' for Inactive)
REMARK    1  A    between atoms: C_2  and  O_3 
REMARK    2  A    between atoms: C_2  and  C_4 
REMARK    3  A    between atoms: C_4  and  C_5 
REMARK    4  A    between atoms: C_5  and  C_6 
REMARK    5  A    between atoms: C_7  and  C_8 
REMARK    6  A    between atoms: C_8  and  C_9 
REMARK    7  A    between atoms: C_9  and  O_11 
REMARK    8  A    between atoms: C_28  and  C_29 
REMARK    9  A    between atoms: C_29  and  C_30 
REMARK   10  A    between atoms: C_30  and  O_32 
REMARK   11  A    between atoms: C_33  and  C_34 
REMARK   12  A    between atoms: C_34  and  C_35 
REMARK   13  A    between atoms: C_35  and  C_36 
REMARK   14  A    between atoms: C_36  and  O_38 
REMARK   15  A    between atoms: C_39  and  C_40 
REMARK   16  A    between atoms: C_40  and  C_41 
REMARK   17  A    between atoms: C_41  and  C_42 
REMARK   18  A    between atoms: C_42  and  O_44 
REMARK   19  A    between atoms: C_45  and  C_46 
REMARK   20  A    between atoms: C_46  and  C_47 
REMARK   21  A    between atoms: C_47  and  O_49 
REMARK   22  A    between atoms: C_50  and  C_51 
REMARK   23  A    between atoms: C_51  and  C_52 
REMARK   24  A    between atoms: C_52  and  O_54 
REMARK   25  A    between atoms: C_55  and  C_56 
REMARK   26  A    between atoms: C_56  and  C_57 
REMARK   27  A    between atoms: C_57  and  C_58 
REMARK   28  A    between atoms: C_58  and  O_60 
ROOT
ATOM      1  O   UNK d   0     -10.912   0.457  18.509  0.00  0.00    -0.650 OA
ATOM      2  C   UNK d   0     -10.018  -0.418  18.491  0.00  0.00     0.139 C 
ENDROOT
BRANCH   2   3
ATOM      3  O   UNK d   0      -8.703  -0.035  18.382  0.00  0.00    -0.776 OA
ATOM      4  H   UNK d   0      -8.066  -0.510  17.739  0.00  0.00     0.167 HD
ENDBRANCH   2   3
BRANCH   2   5
ATOM      5  C   UNK d   0     -10.381  -1.860  18.586  0.00  0.00     0.115 C 
BRANCH   5   6
ATOM      6  C   UNK d   0      -9.898  -2.597  17.366  0.00  0.00     0.052 C 
BRANCH   6   7
ATOM      7  C   UNK d   0      -9.610  -4.053  17.643  0.00  0.00    -0.020 A 
ATOM      8  C   UNK d   0     -10.220  -5.097  17.142  0.00  0.00    -0.011 A 
ATOM      9  C   UNK d   0      -9.603  -6.286  17.706  0.00  0.00     0.067 A 
ATOM     10  C   UNK d   0      -9.769  -7.673  17.571  0.00  0.00     0.062 C 
ATOM     11  N   UNK d   0      -8.630  -5.873  18.546  0.00  0.00    -0.248 NA
ATOM     12  C   UNK d   0      -8.888  -8.676  17.991  0.00  0.00     0.041 A 
ATOM     13  N   UNK d   0      -8.179  -8.815  19.128  0.00  0.00    -0.355 N 
ATOM     14  C   UNK d   0      -8.593  -9.734  17.112  0.00  0.00    -0.022 A 
ATOM     15  C   UNK d   0      -7.436  -9.929  18.989  0.00  0.00     0.042 A 
ATOM     16  H   UNK d   0      -8.218  -8.149  20.018  0.00  0.00     0.166 HD
ATOM     17  C   UNK d   0      -6.523 -10.534  19.875  0.00  0.00     0.062 C 
ATOM     18  C   UNK d   0      -7.668 -10.533  17.738  0.00  0.00    -0.013 A 
ATOM     19  C   UNK d   0      -5.538  -9.950  20.630  0.00  0.00     0.067 A 
ATOM     20  N   UNK d   0      -5.547  -8.616  20.708  0.00  0.00    -0.248 NA
ATOM     21  C   UNK d   0      -4.403 -10.416  21.409  0.00  0.00    -0.011 A 
ATOM     22  C   UNK d   0      -4.499  -8.177  21.480  0.00  0.00     0.066 A 
ATOM     23  C   UNK d   0      -4.410  -6.807  21.676  0.00  0.00     0.062 C 
ATOM     24  C   UNK d   0      -3.797  -9.374  21.900  0.00  0.00    -0.020 A 
ATOM     25  C   UNK d   0      -5.313  -5.817  21.257  0.00  0.00     0.041 A 
ATOM     26  N   UNK d   0      -6.005  -5.671  20.121  0.00  0.00    -0.355 N 
ATOM     27  C   UNK d   0      -5.612  -4.758  22.142  0.00  0.00    -0.022 A 
ATOM     28  C   UNK d   0      -6.740  -4.556  20.253  0.00  0.00     0.042 A 
ATOM     29  H   UNK d   0      -5.957  -6.335  19.224  0.00  0.00     0.166 HD
ATOM     30  C   UNK d   0      -7.646  -3.938  19.377  0.00  0.00     0.062 C 
ATOM     31  C   UNK d   0      -6.515  -3.956  21.515  0.00  0.00    -0.013 A 
ATOM     32  C   UNK d   0      -8.583  -4.540  18.552  0.00  0.00     0.066 A 
BRANCH   8  33
ATOM     33  C   UNK d   0     -11.337  -5.091  16.180  0.00  0.00     0.151 C 
BRANCH  33  34
ATOM     34  C   UNK d   0     -12.585  -5.628  16.752  0.00  0.00     0.143 C 
ATOM     35  O   UNK d   0     -13.027  -5.201  17.829  0.00  0.00    -0.650 OA
BRANCH  34  36
ATOM     36  O   UNK d   0     -13.265  -6.618  16.081  0.00  0.00    -0.776 OA
ATOM     37  H   UNK d   0     -13.536  -6.505  15.095  0.00  0.00     0.167 HD
ENDBRANCH  34  36
ENDBRANCH  33  34
ENDBRANCH   8  33
BRANCH  31  38
ATOM     38  C   UNK d   0      -7.137  -2.702  22.083  0.00  0.00     0.151 C 
BRANCH  38  39
ATOM     39  C   UNK d   0      -6.446  -1.497  21.674  0.00  0.00     0.143 C 
ATOM     40  O   UNK d   0      -5.447  -1.067  22.277  0.00  0.00    -0.650 OA
BRANCH  39  41
ATOM     41  O   UNK d   0      -6.906  -0.784  20.568  0.00  0.00    -0.776 OA
ATOM     42  H   UNK d   0      -7.838  -0.365  20.643  0.00  0.00     0.167 HD
ENDBRANCH  39  41
ENDBRANCH  38  39
ENDBRANCH  31  38
BRANCH  27  43
ATOM     43  C   UNK d   0      -5.080  -4.488  23.527  0.00  0.00     0.052 C 
BRANCH  43  44
ATOM     44  C   UNK d   0      -3.946  -3.515  23.546  0.00  0.00     0.115 C 
BRANCH  44  45
ATOM     45  C   UNK d   0      -2.704  -4.315  23.704  0.00  0.00     0.139 C 
ATOM     46  O   UNK d   0      -1.996  -4.516  22.686  0.00  0.00    -0.650 OA
BRANCH  45  47
ATOM     47  O   UNK d   0      -2.298  -4.834  24.914  0.00  0.00    -0.776 OA
ATOM     48  H   UNK d   0      -2.885  -5.474  25.474  0.00  0.00     0.167 HD
ENDBRANCH  45  47
ENDBRANCH  44  45
ENDBRANCH  43  44
ENDBRANCH  27  43
BRANCH  24  49
ATOM     49  C   UNK d   0      -2.618  -9.391  22.783  0.00  0.00     0.052 C 
BRANCH  49  50
ATOM     50  C   UNK d   0      -1.888  -8.074  22.709  0.00  0.00     0.115 C 
BRANCH  50  51
ATOM     51  C   UNK d   0      -0.885  -7.812  23.732  0.00  0.00     0.139 C 
ATOM     52  O   UNK d   0      -1.185  -7.545  24.920  0.00  0.00    -0.650 OA
BRANCH  51  53
ATOM     53  O   UNK d   0       0.460  -7.851  23.401  0.00  0.00    -0.776 OA
ATOM     54  H   UNK d   0       0.986  -8.673  23.643  0.00  0.00     0.167 HD
ENDBRANCH  51  53
ENDBRANCH  50  51
ENDBRANCH  49  50
ENDBRANCH  24  49
BRANCH  21  55
ATOM     55  C   UNK d   0      -4.045 -11.855  21.584  0.00  0.00     0.151 C 
BRANCH  55  56
ATOM     56  C   UNK d   0      -4.793 -12.478  22.687  0.00  0.00     0.143 C 
ATOM     57  O   UNK d   0      -4.411 -12.432  23.873  0.00  0.00    -0.650 OA
BRANCH  56  58
ATOM     58  O   UNK d   0      -5.976 -13.145  22.374  0.00  0.00    -0.776 OA
ATOM     59  H   UNK d   0      -6.417 -13.646  23.166  0.00  0.00     0.167 HD
ENDBRANCH  56  58
ENDBRANCH  55  56
ENDBRANCH  21  55
BRANCH  18  60
ATOM     60  C   UNK d   0      -7.065 -11.783  17.147  0.00  0.00     0.151 C 
BRANCH  60  61
ATOM     61  C   UNK d   0      -5.916 -11.337  16.345  0.00  0.00     0.143 C 
ATOM     62  O   UNK d   0      -4.873 -10.830  16.760  0.00  0.00    -0.650 OA
BRANCH  61  63
ATOM     63  O   UNK d   0      -6.049 -11.521  14.948  0.00  0.00    -0.776 OA
ATOM     64  H   UNK d   0      -5.303 -11.280  14.320  0.00  0.00     0.167 HD
ENDBRANCH  61  63
ENDBRANCH  60  61
ENDBRANCH  18  60
BRANCH  14  65
ATOM     65  C   UNK d   0      -9.185 -10.097  15.780  0.00  0.00     0.052 C 
BRANCH  65  66
ATOM     66  C   UNK d   0     -10.564 -10.645  15.886  0.00  0.00     0.115 C 
BRANCH  66  67
ATOM     67  C   UNK d   0     -11.631 -10.037  15.142  0.00  0.00     0.139 C 
ATOM     68  O   UNK d   0     -12.591 -10.783  14.725  0.00  0.00    -0.650 OA
BRANCH  67  69
ATOM     69  O   UNK d   0     -11.772  -8.694  14.795  0.00  0.00    -0.776 OA
ATOM     70  H   UNK d   0     -12.735  -8.328  14.805  0.00  0.00     0.167 HD
ENDBRANCH  67  69
ENDBRANCH  66  67
ENDBRANCH  65  66
ENDBRANCH  14  65
ENDBRANCH   6   7
ENDBRANCH   5   6
ENDBRANCH   2   5
TORSDOF 28
ENDMDL
MODEL 2
REMARK VINA RESULT:      -9.6      1.609      7.790
REMARK  28 active torsions:
REMARK  status: ('A' for Active; 'I' for Inactive)
REMARK    1  A    between atoms: C_2  and  O_3 
REMARK    2  A    between atoms: C_2  and  C_4 
REMARK    3  A    between atoms: C_4  and  C_5 
REMARK    4  A    between atoms: C_5  and  C_6 
REMARK    5  A    between atoms: C_7  and  C_8 
REMARK    6  A    between atoms: C_8  and  C_9 
REMARK    7  A    between atoms: C_9  and  O_11 
REMARK    8  A    between atoms: C_28  and  C_29 
REMARK    9  A    between atoms: C_29  and  C_30 
REMARK   10  A    between atoms: C_30  and  O_32 
REMARK   11  A    between atoms: C_33  and  C_34 
REMARK   12  A    between atoms: C_34  and  C_35 
REMARK   13  A    between atoms: C_35  and  C_36 
REMARK   14  A    between atoms: C_36  and  O_38 
REMARK   15  A    between atoms: C_39  and  C_40 
REMARK   16  A    between atoms: C_40  and  C_41 
REMARK   17  A    between atoms: C_41  and  C_42 
REMARK   18  A    between atoms: C_42  and  O_44 
REMARK   19  A    between atoms: C_45  and  C_46 
REMARK   20  A    between atoms: C_46  and  C_47 
REMARK   21  A    between atoms: C_47  and  O_49 
REMARK   22  A    between atoms: C_50  and  C_51 
REMARK   23  A    between atoms: C_51  and  C_52 
REMARK   24  A    between atoms: C_52  and  O_54 
REMARK   25  A    between atoms: C_55  and  C_56 
REMARK   26  A    between atoms: C_56  and  C_57 
REMARK   27  A    between atoms: C_57  and  C_58 
REMARK   28  A    between atoms: C_58  and  O_60 
ROOT
ATOM      1  O   UNK d   0     -14.668  -6.329  16.696  0.00  0.00    -0.650 OA
ATOM      2  C   UNK d   0     -14.203  -5.171  16.607  0.00  0.00     0.139 C 
ENDROOT
BRANCH   2   3
ATOM      3  O   UNK d   0     -14.457  -4.429  15.478  0.00  0.00    -0.776 OA
ATOM      4  H   UNK d   0     -15.409  -4.315  15.125  0.00  0.00     0.167 HD
ENDBRANCH   2   3
BRANCH   2   5
ATOM      5  C   UNK d   0     -13.383  -4.606  17.715  0.00  0.00     0.115 C 
BRANCH   5   6
ATOM      6  C   UNK d   0     -12.274  -3.755  17.157  0.00  0.00     0.052 C 
BRANCH   6   7
ATOM      7  C   UNK d   0     -10.928  -4.090  17.754  0.00  0.00    -0.020 A 
ATOM      8  C   UNK d   0     -10.077  -3.269  18.314  0.00  0.00    -0.011 A 
ATOM      9  C   UNK d   0      -8.920  -4.044  18.730  0.00  0.00     0.067 A 
ATOM     10  C   UNK d   0      -7.708  -3.780  19.386  0.00  0.00     0.062 C 
ATOM     11  N   UNK d   0      -9.149  -5.326  18.379  0.00  0.00    -0.248 NA
ATOM     12  C   UNK d   0      -6.831  -4.711  19.953  0.00  0.00     0.041 A 
ATOM     13  N   UNK d   0      -6.392  -5.903  19.505  0.00  0.00    -0.355 N 
ATOM     14  C   UNK d   0      -6.311  -4.464  21.237  0.00  0.00    -0.022 A 
ATOM     15  C   UNK d   0      -5.615  -6.421  20.474  0.00  0.00     0.042 A 
ATOM     16  H   UNK d   0      -6.613  -6.360  18.515  0.00  0.00     0.166 HD
ATOM     17  C   UNK d   0      -4.908  -7.640  20.524  0.00  0.00     0.062 C 
ATOM     18  C   UNK d   0      -5.540  -5.548  21.576  0.00  0.00    -0.013 A 
ATOM     19  C   UNK d   0      -5.327  -8.895  20.164  0.00  0.00     0.067 A 
ATOM     20  N   UNK d   0      -6.478  -8.979  19.492  0.00  0.00    -0.248 NA
ATOM     21  C   UNK d   0      -4.833 -10.251  20.338  0.00  0.00    -0.011 A 
ATOM     22  C   UNK d   0      -6.773 -10.291  19.215  0.00  0.00     0.066 A 
ATOM     23  C   UNK d   0      -7.929 -10.521  18.484  0.00  0.00     0.062 C 
ATOM     24  C   UNK d   0      -5.687 -11.063  19.784  0.00  0.00    -0.020 A 
ATOM     25  C   UNK d   0      -8.790  -9.571  17.912  0.00  0.00     0.041 A 
ATOM     26  N   UNK d   0      -9.237  -8.394  18.364  0.00  0.00    -0.355 N 
ATOM     27  C   UNK d   0      -9.307  -9.818  16.622  0.00  0.00    -0.022 A 
ATOM     28  C   UNK d   0     -10.020  -7.879  17.403  0.00  0.00     0.042 A 
ATOM     29  H   UNK d   0      -9.024  -7.941  19.364  0.00  0.00     0.166 HD
ATOM     30  C   UNK d   0     -10.736  -6.673  17.343  0.00  0.00     0.062 C 
ATOM     31  C   UNK d   0     -10.086  -8.752  16.292  0.00  0.00    -0.013 A 
ATOM     32  C   UNK d   0     -10.341  -5.421  17.787  0.00  0.00     0.066 A 
BRANCH   8  33
ATOM     33  C   UNK d   0     -10.239  -1.815  18.496  0.00  0.00     0.151 C 
BRANCH  33  34
ATOM     34  C   UNK d   0      -9.412  -1.027  17.564  0.00  0.00     0.143 C 
ATOM     35  O   UNK d   0      -9.375  -1.304  16.357  0.00  0.00    -0.650 OA
BRANCH  34  36
ATOM     36  O   UNK d   0      -8.671   0.027  18.045  0.00  0.00    -0.776 OA
ATOM     37  H   UNK d   0      -9.052   0.670  18.752  0.00  0.00     0.167 HD
ENDBRANCH  34  36
ENDBRANCH  33  34
ENDBRANCH   8  33
BRANCH  31  38
ATOM     38  C   UNK d   0     -10.838  -8.565  14.995  0.00  0.00     0.151 C 
BRANCH  38  39
ATOM     39  C   UNK d   0     -12.187  -9.088  15.047  0.00  0.00     0.143 C 
ATOM     40  O   UNK d   0     -12.432 -10.306  14.989  0.00  0.00    -0.650 OA
BRANCH  39  41
ATOM     41  O   UNK d   0     -13.260  -8.205  15.168  0.00  0.00    -0.776 OA
ATOM     42  H   UNK d   0     -13.795  -8.009  14.317  0.00  0.00     0.167 HD
ENDBRANCH  39  41
ENDBRANCH  38  39
ENDBRANCH  31  38
BRANCH  27  43
ATOM     43  C   UNK d   0      -9.094 -11.005  15.715  0.00  0.00     0.052 C 
BRANCH  43  44
ATOM     44  C   UNK d   0      -7.832 -10.921  14.919  0.00  0.00     0.115 C 
BRANCH  44  45
ATOM     45  C   UNK d   0      -7.115 -12.206  15.124  0.00  0.00     0.139 C 
ATOM     46  O   UNK d   0      -7.374 -13.158  14.347  0.00  0.00    -0.650 OA
BRANCH  45  47
ATOM     47  O   UNK d   0      -6.181 -12.390  16.121  0.00  0.00    -0.776 OA
ATOM     48  H   UNK d   0      -5.334 -11.806  16.210  0.00  0.00     0.167 HD
ENDBRANCH  45  47
ENDBRANCH  44  45
ENDBRANCH  43  44
ENDBRANCH  27  43
BRANCH  24  49
ATOM     49  C   UNK d   0      -5.559 -12.528  19.695  0.00  0.00     0.052 C 
BRANCH  49  50
ATOM     50  C   UNK d   0      -6.040 -13.175  20.969  0.00  0.00     0.115 C 
BRANCH  50  51
ATOM     51  C   UNK d   0      -7.295 -12.691  21.527  0.00  0.00     0.139 C 
ATOM     52  O   UNK d   0      -7.347 -11.969  22.550  0.00  0.00    -0.650 OA
BRANCH  51  53
ATOM     53  O   UNK d   0      -8.494 -13.034  20.919  0.00  0.00    -0.776 OA
ATOM     54  H   UNK d   0      -9.279 -13.254  21.507  0.00  0.00     0.167 HD
ENDBRANCH  51  53
ENDBRANCH  50  51
ENDBRANCH  49  50
ENDBRANCH  24  49
BRANCH  21  55
ATOM     55  C   UNK d   0      -3.559 -10.592  21.036  0.00  0.00     0.151 C 
BRANCH  55  56
ATOM     56  C   UNK d   0      -3.656 -10.394  22.490  0.00  0.00     0.143 C 
ATOM     57  O   UNK d   0      -3.116  -9.437  23.078  0.00  0.00    -0.650 OA
BRANCH  56  58
ATOM     58  O   UNK d   0      -4.387 -11.327  23.225  0.00  0.00    -0.776 OA
ATOM     59  H   UNK d   0      -5.410 -11.306  23.060  0.00  0.00     0.167 HD
ENDBRANCH  56  58
ENDBRANCH  55  56
ENDBRANCH  21  55
BRANCH  18  60
ATOM     60  C   UNK d   0      -4.797  -5.706  22.879  0.00  0.00     0.151 C 
BRANCH  60  61
ATOM     61  C   UNK d   0      -3.397  -5.361  22.590  0.00  0.00     0.143 C 
ATOM     62  O   UNK d   0      -2.898  -5.150  21.485  0.00  0.00    -0.650 OA
BRANCH  61  63
ATOM     63  O   UNK d   0      -2.554  -5.265  23.723  0.00  0.00    -0.776 OA
ATOM     64  H   UNK d   0      -2.926  -5.339  24.654  0.00  0.00     0.167 HD
ENDBRANCH  61  63
ENDBRANCH  60  61
ENDBRANCH  18  60
BRANCH  14  65
ATOM     65  C   UNK d   0      -6.408  -3.250  22.117  0.00  0.00     0.052 C 
BRANCH  65  66
ATOM     66  C   UNK d   0      -5.354  -2.239  21.831  0.00  0.00     0.115 C 
BRANCH  66  67
ATOM     67  C   UNK d   0      -4.242  -2.097  22.728  0.00  0.00     0.139 C 
ATOM     68  O   UNK d   0      -3.082  -1.849  22.233  0.00  0.00    -0.650 OA
BRANCH  67  69
ATOM     69  O   UNK d   0      -4.250  -2.197  24.119  0.00  0.00    -0.776 OA
ATOM     70  H   UNK d   0      -5.050  -2.702  24.528  0.00  0.00     0.167 HD
ENDBRANCH  67  69
ENDBRANCH  66  67
ENDBRANCH  65  66
ENDBRANCH  14  65
ENDBRANCH   6   7
ENDBRANCH   5   6
ENDBRANCH   2   5
TORSDOF 28
ENDMDL
MODEL 3
REMARK VINA RESULT:      -9.6      1.634      8.509
REMARK  28 active torsions:
REMARK  status: ('A' for Active; 'I' for Inactive)
REMARK    1  A    between atoms: C_2  and  O_3 
REMARK    2  A    between atoms: C_2  and  C_4 
REMARK    3  A    between atoms: C_4  and  C_5 
REMARK    4  A    between atoms: C_5  and  C_6 
REMARK    5  A    between atoms: C_7  and  C_8 
REMARK    6  A    between atoms: C_8  and  C_9 
REMARK    7  A    between atoms: C_9  and  O_11 
REMARK    8  A    between atoms: C_28  and  C_29 
REMARK    9  A    between atoms: C_29  and  C_30 
REMARK   10  A    between atoms: C_30  and  O_32 
REMARK   11  A    between atoms: C_33  and  C_34 
REMARK   12  A    between atoms: C_34  and  C_35 
REMARK   13  A    between atoms: C_35  and  C_36 
REMARK   14  A    between atoms: C_36  and  O_38 
REMARK   15  A    between atoms: C_39  and  C_40 
REMARK   16  A    between atoms: C_40  and  C_41 
REMARK   17  A    between atoms: C_41  and  C_42 
REMARK   18  A    between atoms: C_42  and  O_44 
REMARK   19  A    between atoms: C_45  and  C_46 
REMARK   20  A    between atoms: C_46  and  C_47 
REMARK   21  A    between atoms: C_47  and  O_49 
REMARK   22  A    between atoms: C_50  and  C_51 
REMARK   23  A    between atoms: C_51  and  C_52 
REMARK   24  A    between atoms: C_52  and  O_54 
REMARK   25  A    between atoms: C_55  and  C_56 
REMARK   26  A    between atoms: C_56  and  C_57 
REMARK   27  A    between atoms: C_57  and  C_58 
REMARK   28  A    between atoms: C_58  and  O_60 
ROOT
ATOM      1  O   UNK d   0      -7.144  -3.783  25.148  0.00  0.00    -0.650 OA
ATOM      2  C   UNK d   0      -7.404  -2.603  24.825  0.00  0.00     0.139 C 
ENDROOT
BRANCH   2   3
ATOM      3  O   UNK d   0      -8.620  -2.063  25.168  0.00  0.00    -0.776 OA
ATOM      4  H   UNK d   0      -9.483  -2.380  24.722  0.00  0.00     0.167 HD
ENDBRANCH   2   3
BRANCH   2   5
ATOM      5  C   UNK d   0      -6.402  -1.795  24.075  0.00  0.00     0.115 C 
BRANCH   5   6
ATOM      6  C   UNK d   0      -6.619  -1.945  22.594  0.00  0.00     0.052 C 
BRANCH   6   7
ATOM      7  C   UNK d   0      -6.097  -3.257  22.060  0.00  0.00    -0.020 A 
ATOM      8  C   UNK d   0      -4.947  -3.825  22.322  0.00  0.00    -0.011 A 
ATOM      9  C   UNK d   0      -4.884  -5.069  21.573  0.00  0.00     0.067 A 
ATOM     10  C   UNK d   0      -3.965  -6.121  21.433  0.00  0.00     0.062 C 
ATOM     11  N   UNK d   0      -6.035  -5.176  20.877  0.00  0.00    -0.248 NA
ATOM     12  C   UNK d   0      -4.200  -7.382  20.875  0.00  0.00     0.041 A 
ATOM     13  N   UNK d   0      -4.875  -7.750  19.769  0.00  0.00    -0.355 N 
ATOM     14  C   UNK d   0      -3.731  -8.523  21.550  0.00  0.00    -0.022 A 
ATOM     15  C   UNK d   0      -4.852  -9.096  19.729  0.00  0.00     0.042 A 
ATOM     16  H   UNK d   0      -5.341  -7.072  19.021  0.00  0.00     0.166 HD
ATOM     17  C   UNK d   0      -5.402  -9.991  18.791  0.00  0.00     0.062 C 
ATOM     18  C   UNK d   0      -4.144  -9.616  20.830  0.00  0.00    -0.013 A 
ATOM     19  C   UNK d   0      -6.645  -9.977  18.211  0.00  0.00     0.067 A 
ATOM     20  N   UNK d   0      -7.383  -8.878  18.388  0.00  0.00    -0.248 NA
ATOM     21  C   UNK d   0      -7.437 -10.900  17.415  0.00  0.00    -0.011 A 
ATOM     22  C   UNK d   0      -8.600  -9.015  17.766  0.00  0.00     0.066 A 
ATOM     23  C   UNK d   0      -9.455  -7.926  17.839  0.00  0.00     0.062 C 
ATOM     24  C   UNK d   0      -8.581 -10.333  17.162  0.00  0.00    -0.020 A 
ATOM     25  C   UNK d   0      -9.195  -6.663  18.393  0.00  0.00     0.041 A 
ATOM     26  N   UNK d   0      -8.538  -6.298  19.500  0.00  0.00    -0.355 N 
ATOM     27  C   UNK d   0      -9.663  -5.518  17.712  0.00  0.00    -0.022 A 
ATOM     28  C   UNK d   0      -8.566  -4.956  19.547  0.00  0.00     0.042 A 
ATOM     29  H   UNK d   0      -8.079  -6.981  20.257  0.00  0.00     0.166 HD
ATOM     30  C   UNK d   0      -8.031  -4.053  20.479  0.00  0.00     0.062 C 
ATOM     31  C   UNK d   0      -9.269  -4.434  18.435  0.00  0.00    -0.013 A 
ATOM     32  C   UNK d   0      -6.808  -4.118  21.127  0.00  0.00     0.066 A 
BRANCH   8  33
ATOM     33  C   UNK d   0      -3.889  -3.310  23.211  0.00  0.00     0.151 C 
BRANCH  33  34
ATOM     34  C   UNK d   0      -2.903  -2.476  22.500  0.00  0.00     0.143 C 
ATOM     35  O   UNK d   0      -1.782  -2.919  22.214  0.00  0.00    -0.650 OA
BRANCH  34  36
ATOM     36  O   UNK d   0      -3.235  -1.186  22.153  0.00  0.00    -0.776 OA
ATOM     37  H   UNK d   0      -3.249  -0.885  21.169  0.00  0.00     0.167 HD
ENDBRANCH  34  36
ENDBRANCH  33  34
ENDBRANCH   8  33
BRANCH  31  38
ATOM     38  C   UNK d   0      -9.530  -2.987  18.086  0.00  0.00     0.151 C 
BRANCH  38  39
ATOM     39  C   UNK d   0     -10.669  -2.437  18.790  0.00  0.00     0.143 C 
ATOM     40  O   UNK d   0     -10.934  -1.222  18.781  0.00  0.00    -0.650 OA
BRANCH  39  41
ATOM     41  O   UNK d   0     -11.509  -3.288  19.508  0.00  0.00    -0.776 OA
ATOM     42  H   UNK d   0     -12.172  -3.849  18.964  0.00  0.00     0.167 HD
ENDBRANCH  39  41
ENDBRANCH  38  39
ENDBRANCH  31  38
BRANCH  27  43
ATOM     43  C   UNK d   0     -10.454  -5.420  16.432  0.00  0.00     0.052 C 
BRANCH  43  44
ATOM     44  C   UNK d   0     -11.875  -5.855  16.581  0.00  0.00     0.115 C 
BRANCH  44  45
ATOM     45  C   UNK d   0     -12.715  -4.657  16.320  0.00  0.00     0.139 C 
ATOM     46  O   UNK d   0     -13.165  -4.023  17.306  0.00  0.00    -0.650 OA
BRANCH  45  47
ATOM     47  O   UNK d   0     -13.012  -4.215  15.048  0.00  0.00    -0.776 OA
ATOM     48  H   UNK d   0     -12.554  -3.394  14.620  0.00  0.00     0.167 HD
ENDBRANCH  45  47
ENDBRANCH  44  45
ENDBRANCH  43  44
ENDBRANCH  27  43
BRANCH  24  49
ATOM     49  C   UNK d   0      -9.672 -10.901  16.351  0.00  0.00     0.052 C 
BRANCH  49  50
ATOM     50  C   UNK d   0      -9.384 -10.719  14.883  0.00  0.00     0.115 C 
BRANCH  50  51
ATOM     51  C   UNK d   0      -9.605 -11.868  14.015  0.00  0.00     0.139 C 
ATOM     52  O   UNK d   0      -9.419 -13.048  14.394  0.00  0.00    -0.650 OA
BRANCH  51  53
ATOM     53  O   UNK d   0     -10.036 -11.670  12.712  0.00  0.00    -0.776 OA
ATOM     54  H   UNK d   0     -10.927 -11.230  12.568  0.00  0.00     0.167 HD
ENDBRANCH  51  53
ENDBRANCH  50  51
ENDBRANCH  49  50
ENDBRANCH  24  49
BRANCH  21  55
ATOM     55  C   UNK d   0      -6.966 -12.250  16.987  0.00  0.00     0.151 C 
BRANCH  55  56
ATOM     56  C   UNK d   0      -6.360 -12.223  15.647  0.00  0.00     0.143 C 
ATOM     57  O   UNK d   0      -5.731 -11.240  15.211  0.00  0.00    -0.650 OA
BRANCH  56  58
ATOM     58  O   UNK d   0      -6.504 -13.355  14.847  0.00  0.00    -0.776 OA
ATOM     59  H   UNK d   0      -6.814 -13.166  13.876  0.00  0.00     0.167 HD
ENDBRANCH  56  58
ENDBRANCH  55  56
ENDBRANCH  21  55
BRANCH  18  60
ATOM     60  C   UNK d   0      -3.866 -11.052  21.201  0.00  0.00     0.151 C 
BRANCH  60  61
ATOM     61  C   UNK d   0      -4.829 -11.389  22.260  0.00  0.00     0.143 C 
ATOM     62  O   UNK d   0      -4.574 -11.688  23.427  0.00  0.00    -0.650 OA
BRANCH  61  63
ATOM     63  O   UNK d   0      -6.189 -11.360  21.870  0.00  0.00    -0.776 OA
ATOM     64  H   UNK d   0      -6.665 -12.198  21.586  0.00  0.00     0.167 HD
ENDBRANCH  61  63
ENDBRANCH  60  61
ENDBRANCH  18  60
BRANCH  14  65
ATOM     65  C   UNK d   0      -2.847  -8.654  22.758  0.00  0.00     0.052 C 
BRANCH  65  66
ATOM     66  C   UNK d   0      -1.653  -7.769  22.703  0.00  0.00     0.115 C 
BRANCH  66  67
ATOM     67  C   UNK d   0      -1.212  -7.095  23.891  0.00  0.00     0.139 C 
ATOM     68  O   UNK d   0      -0.210  -7.579  24.536  0.00  0.00    -0.650 OA
BRANCH  67  69
ATOM     69  O   UNK d   0      -1.743  -5.940  24.464  0.00  0.00    -0.776 OA
ATOM     70  H   UNK d   0      -2.708  -6.018  24.817  0.00  0.00     0.167 HD
ENDBRANCH  67  69
ENDBRANCH  66  67
ENDBRANCH  65  66
ENDBRANCH  14  65
ENDBRANCH   6   7
ENDBRANCH   5   6
ENDBRANCH   2   5
TORSDOF 28
ENDMDL
MODEL 4
REMARK VINA RESULT:      -9.6      2.057      3.548
REMARK  28 active torsions:
REMARK  status: ('A' for Active; 'I' for Inactive)
REMARK    1  A    between atoms: C_2  and  O_3 
REMARK    2  A    between atoms: C_2  and  C_4 
REMARK    3  A    between atoms: C_4  and  C_5 
REMARK    4  A    between atoms: C_5  and  C_6 
REMARK    5  A    between atoms: C_7  and  C_8 
REMARK    6  A    between atoms: C_8  and  C_9 
REMARK    7  A    between atoms: C_9  and  O_11 
REMARK    8  A    between atoms: C_28  and  C_29 
REMARK    9  A    between atoms: C_29  and  C_30 
REMARK   10  A    between atoms: C_30  and  O_32 
REMARK   11  A    between atoms: C_33  and  C_34 
REMARK   12  A    between atoms: C_34  and  C_35 
REMARK   13  A    between atoms: C_35  and  C_36 
REMARK   14  A    between atoms: C_36  and  O_38 
REMARK   15  A    between atoms: C_39  and  C_40 
REMARK   16  A    between atoms: C_40  and  C_41 
REMARK   17  A    between atoms: C_41  and  C_42 
REMARK   18  A    between atoms: C_42  and  O_44 
REMARK   19  A    between atoms: C_45  and  C_46 
REMARK   20  A    between atoms: C_46  and  C_47 
REMARK   21  A    between atoms: C_47  and  O_49 
REMARK   22  A    between atoms: C_50  and  C_51 
REMARK   23  A    between atoms: C_51  and  C_52 
REMARK   24  A    between atoms: C_52  and  O_54 
REMARK   25  A    between atoms: C_55  and  C_56 
REMARK   26  A    between atoms: C_56  and  C_57 
REMARK   27  A    between atoms: C_57  and  C_58 
REMARK   28  A    between atoms: C_58  and  O_60 
ROOT
ATOM      1  O   UNK d   0      -8.728  -3.255  17.633  0.00  0.00    -0.650 OA
ATOM      2  C   UNK d   0      -9.038  -3.704  16.508  0.00  0.00     0.139 C 
ENDROOT
BRANCH   2   3
ATOM      3  O   UNK d   0      -9.408  -2.831  15.513  0.00  0.00    -0.776 OA
ATOM      4  H   UNK d   0     -10.394  -2.642  15.317  0.00  0.00     0.167 HD
ENDBRANCH   2   3
BRANCH   2   5
ATOM      5  C   UNK d   0      -9.007  -5.172  16.253  0.00  0.00     0.115 C 
BRANCH   5   6
ATOM      6  C   UNK d   0      -9.851  -5.892  17.270  0.00  0.00     0.052 C 
BRANCH   6   7
ATOM      7  C   UNK d   0      -9.094  -6.987  17.982  0.00  0.00    -0.020 A 
ATOM      8  C   UNK d   0      -9.313  -8.276  17.926  0.00  0.00    -0.011 A 
ATOM      9  C   UNK d   0      -8.340  -8.931  18.784  0.00  0.00     0.067 A 
ATOM     10  C   UNK d   0      -8.029 -10.253  19.137  0.00  0.00     0.062 C 
ATOM     11  N   UNK d   0      -7.571  -7.964  19.327  0.00  0.00    -0.248 NA
ATOM     12  C   UNK d   0      -6.868 -10.711  19.768  0.00  0.00     0.041 A 
ATOM     13  N   UNK d   0      -6.165 -10.211  20.803  0.00  0.00    -0.355 N 
ATOM     14  C   UNK d   0      -6.226 -11.857  19.265  0.00  0.00    -0.022 A 
ATOM     15  C   UNK d   0      -5.091 -11.006  20.964  0.00  0.00     0.042 A 
ATOM     16  H   UNK d   0      -6.434  -9.325  21.420  0.00  0.00     0.166 HD
ATOM     17  C   UNK d   0      -4.036 -10.939  21.896  0.00  0.00     0.062 C 
ATOM     18  C   UNK d   0      -5.094 -12.049  20.017  0.00  0.00    -0.013 A 
ATOM     19  C   UNK d   0      -3.312  -9.847  22.302  0.00  0.00     0.067 A 
ATOM     20  N   UNK d   0      -3.768  -8.648  21.933  0.00  0.00    -0.248 NA
ATOM     21  C   UNK d   0      -2.095  -9.626  23.064  0.00  0.00    -0.011 A 
ATOM     22  C   UNK d   0      -2.936  -7.658  22.396  0.00  0.00     0.066 A 
ATOM     23  C   UNK d   0      -3.314  -6.353  22.115  0.00  0.00     0.062 C 
ATOM     24  C   UNK d   0      -1.878  -8.343  23.112  0.00  0.00    -0.020 A 
ATOM     25  C   UNK d   0      -4.492  -5.914  21.491  0.00  0.00     0.041 A 
ATOM     26  N   UNK d   0      -5.182  -6.402  20.453  0.00  0.00    -0.355 N 
ATOM     27  C   UNK d   0      -5.137  -4.766  22.000  0.00  0.00    -0.022 A 
ATOM     28  C   UNK d   0      -6.249  -5.606  20.285  0.00  0.00     0.042 A 
ATOM     29  H   UNK d   0      -4.904  -7.286  19.827  0.00  0.00     0.166 HD
ATOM     30  C   UNK d   0      -7.300  -5.656  19.356  0.00  0.00     0.062 C 
ATOM     31  C   UNK d   0      -6.251  -4.564  21.243  0.00  0.00    -0.013 A 
ATOM     32  C   UNK d   0      -7.973  -6.772  18.885  0.00  0.00     0.066 A 
BRANCH   8  33
ATOM     33  C   UNK d   0     -10.359  -8.962  17.144  0.00  0.00     0.151 C 
BRANCH  33  34
ATOM     34  C   UNK d   0      -9.817  -9.684  15.979  0.00  0.00     0.143 C 
ATOM     35  O   UNK d   0     -10.548 -10.396  15.275  0.00  0.00    -0.650 OA
BRANCH  34  36
ATOM     36  O   UNK d   0      -8.482  -9.565  15.671  0.00  0.00    -0.776 OA
ATOM     37  H   UNK d   0      -8.148  -9.642  14.700  0.00  0.00     0.167 HD
ENDBRANCH  34  36
ENDBRANCH  33  34
ENDBRANCH   8  33
BRANCH  31  38
ATOM     38  C   UNK d   0      -7.264  -3.458  21.425  0.00  0.00     0.151 C 
BRANCH  38  39
ATOM     39  C   UNK d   0      -6.908  -2.249  20.714  0.00  0.00     0.143 C 
ATOM     40  O   UNK d   0      -6.748  -1.159  21.293  0.00  0.00    -0.650 OA
BRANCH  39  41
ATOM     41  O   UNK d   0      -6.734  -2.291  19.331  0.00  0.00    -0.776 OA
ATOM     42  H   UNK d   0      -6.015  -1.676  18.937  0.00  0.00     0.167 HD
ENDBRANCH  39  41
ENDBRANCH  38  39
ENDBRANCH  31  38
BRANCH  27  43
ATOM     43  C   UNK d   0      -4.742  -3.875  23.150  0.00  0.00     0.052 C 
BRANCH  43  44
ATOM     44  C   UNK d   0      -3.268  -3.643  23.239  0.00  0.00     0.115 C 
BRANCH  44  45
ATOM     45  C   UNK d   0      -2.990  -2.388  22.494  0.00  0.00     0.139 C 
ATOM     46  O   UNK d   0      -1.861  -2.253  21.961  0.00  0.00    -0.650 OA
BRANCH  45  47
ATOM     47  O   UNK d   0      -3.917  -1.376  22.363  0.00  0.00    -0.776 OA
ATOM     48  H   UNK d   0      -4.030  -0.626  23.063  0.00  0.00     0.167 HD
ENDBRANCH  45  47
ENDBRANCH  44  45
ENDBRANCH  43  44
ENDBRANCH  27  43
BRANCH  24  49
ATOM     49  C   UNK d   0      -0.771  -7.675  23.818  0.00  0.00     0.052 C 
BRANCH  49  50
ATOM     50  C   UNK d   0       0.427  -7.547  22.912  0.00  0.00     0.115 C 
BRANCH  50  51
ATOM     51  C   UNK d   0       0.662  -6.245  22.301  0.00  0.00     0.139 C 
ATOM     52  O   UNK d   0       1.509  -6.067  21.394  0.00  0.00    -0.650 OA
BRANCH  51  53
ATOM     53  O   UNK d   0      -0.066  -5.146  22.727  0.00  0.00    -0.776 OA
ATOM     54  H   UNK d   0      -0.174  -4.373  22.094  0.00  0.00     0.167 HD
ENDBRANCH  51  53
ENDBRANCH  50  51
ENDBRANCH  49  50
ENDBRANCH  24  49
BRANCH  21  55
ATOM     55  C   UNK d   0      -1.277 -10.719  23.669  0.00  0.00     0.151 C 
BRANCH  55  56
ATOM     56  C   UNK d   0      -1.633 -10.960  25.076  0.00  0.00     0.143 C 
ATOM     57  O   UNK d   0      -2.620 -11.641  25.415  0.00  0.00    -0.650 OA
BRANCH  56  58
ATOM     58  O   UNK d   0      -0.819 -10.395  26.056  0.00  0.00    -0.776 OA
ATOM     59  H   UNK d   0      -1.312 -10.116  26.924  0.00  0.00     0.167 HD
ENDBRANCH  56  58
ENDBRANCH  55  56
ENDBRANCH  21  55
BRANCH  18  60
ATOM     60  C   UNK d   0      -4.100 -13.166  19.815  0.00  0.00     0.151 C 
BRANCH  60  61
ATOM     61  C   UNK d   0      -3.079 -12.636  18.899  0.00  0.00     0.143 C 
ATOM     62  O   UNK d   0      -3.056 -11.521  18.377  0.00  0.00    -0.650 OA
BRANCH  61  63
ATOM     63  O   UNK d   0      -2.017 -13.525  18.602  0.00  0.00    -0.776 OA
ATOM     64  H   UNK d   0      -2.159 -14.519  18.597  0.00  0.00     0.167 HD
ENDBRANCH  61  63
ENDBRANCH  60  61
ENDBRANCH  18  60
BRANCH  14  65
ATOM     65  C   UNK d   0      -6.649 -12.831  18.202  0.00  0.00     0.052 C 
BRANCH  65  66
ATOM     66  C   UNK d   0      -6.200 -12.436  16.839  0.00  0.00     0.115 C 
BRANCH  66  67
ATOM     67  C   UNK d   0      -6.965 -12.839  15.693  0.00  0.00     0.139 C 
ATOM     68  O   UNK d   0      -6.394 -13.566  14.799  0.00  0.00    -0.650 OA
BRANCH  67  69
ATOM     69  O   UNK d   0      -8.296 -12.538  15.406  0.00  0.00    -0.776 OA
ATOM     70  H   UNK d   0      -8.916 -13.346  15.256  0.00  0.00     0.167 HD
ENDBRANCH  67  69
ENDBRANCH  66  67
ENDBRANCH  65  66
ENDBRANCH  14  65
ENDBRANCH   6   7
ENDBRANCH   5   6
ENDBRANCH   2   5
TORSDOF 28
ENDMDL
MODEL 5
REMARK VINA RESULT:      -9.4      1.775      7.513
REMARK  28 active torsions:
REMARK  status: ('A' for Active; 'I' for Inactive)
REMARK    1  A    between atoms: C_2  and  O_3 
REMARK    2  A    between atoms: C_2  and  C_4 
REMARK    3  A    between atoms: C_4  and  C_5 
REMARK    4  A    between atoms: C_5  and  C_6 
REMARK    5  A    between atoms: C_7  and  C_8 
REMARK    6  A    between atoms: C_8  and  C_9 
REMARK    7  A    between atoms: C_9  and  O_11 
REMARK    8  A    between atoms: C_28  and  C_29 
REMARK    9  A    between atoms: C_29  and  C_30 
REMARK   10  A    between atoms: C_30  and  O_32 
REMARK   11  A    between atoms: C_33  and  C_34 
REMARK   12  A    between atoms: C_34  and  C_35 
REMARK   13  A    between atoms: C_35  and  C_36 
REMARK   14  A    between atoms: C_36  and  O_38 
REMARK   15  A    between atoms: C_39  and  C_40 
REMARK   16  A    between atoms: C_40  and  C_41 
REMARK   17  A    between atoms: C_41  and  C_42 
REMARK   18  A    between atoms: C_42  and  O_44 
REMARK   19  A    between atoms: C_45  and  C_46 
REMARK   20  A    between atoms: C_46  and  C_47 
REMARK   21  A    between atoms: C_47  and  O_49 
REMARK   22  A    between atoms: C_50  and  C_51 
REMARK   23  A    between atoms: C_51  and  C_52 
REMARK   24  A    between atoms: C_52  and  O_54 
REMARK   25  A    between atoms: C_55  and  C_56 
REMARK   26  A    between atoms: C_56  and  C_57 
REMARK   27  A    between atoms: C_57  and  C_58 
REMARK   28  A    between atoms: C_58  and  O_60 
ROOT
ATOM      1  O   UNK d   0      -7.048 -12.442  17.008  0.00  0.00    -0.650 OA
ATOM      2  C   UNK d   0      -7.329 -11.822  15.958  0.00  0.00     0.139 C 
ENDROOT
BRANCH   2   3
ATOM      3  O   UNK d   0      -6.316 -11.430  15.116  0.00  0.00    -0.776 OA
ATOM      4  H   UNK d   0      -6.418 -10.611  14.513  0.00  0.00     0.167 HD
ENDBRANCH   2   3
BRANCH   2   5
ATOM      5  C   UNK d   0      -8.749 -11.512  15.628  0.00  0.00     0.115 C 
BRANCH   5   6
ATOM      6  C   UNK d   0      -9.447 -10.941  16.832  0.00  0.00     0.052 C 
BRANCH   6   7
ATOM      7  C   UNK d   0      -9.173  -9.468  17.018  0.00  0.00    -0.020 A 
ATOM      8  C   UNK d   0      -9.653  -8.471  16.319  0.00  0.00    -0.011 A 
ATOM      9  C   UNK d   0      -9.101  -7.241  16.860  0.00  0.00     0.067 A 
ATOM     10  C   UNK d   0      -9.226  -5.869  16.588  0.00  0.00     0.062 C 
ATOM     11  N   UNK d   0      -8.289  -7.582  17.882  0.00  0.00    -0.248 NA
ATOM     12  C   UNK d   0      -8.826  -4.804  17.402  0.00  0.00     0.041 A 
ATOM     13  N   UNK d   0      -7.708  -4.615  18.128  0.00  0.00    -0.355 N 
ATOM     14  C   UNK d   0      -9.709  -3.726  17.594  0.00  0.00    -0.022 A 
ATOM     15  C   UNK d   0      -7.862  -3.448  18.782  0.00  0.00     0.042 A 
ATOM     16  H   UNK d   0      -6.820  -5.283  18.163  0.00  0.00     0.166 HD
ATOM     17  C   UNK d   0      -6.998  -2.778  19.671  0.00  0.00     0.062 C 
ATOM     18  C   UNK d   0      -9.104  -2.861  18.472  0.00  0.00    -0.013 A 
ATOM     19  C   UNK d   0      -6.272  -3.289  20.717  0.00  0.00     0.067 A 
ATOM     20  N   UNK d   0      -6.199  -4.619  20.810  0.00  0.00    -0.248 NA
ATOM     21  C   UNK d   0      -5.521  -2.741  21.834  0.00  0.00    -0.011 A 
ATOM     22  C   UNK d   0      -5.456  -4.981  21.907  0.00  0.00     0.066 A 
ATOM     23  C   UNK d   0      -5.267  -6.341  22.103  0.00  0.00     0.062 C 
ATOM     24  C   UNK d   0      -5.050  -3.736  22.529  0.00  0.00    -0.020 A 
ATOM     25  C   UNK d   0      -5.666  -7.394  21.266  0.00  0.00     0.041 A 
ATOM     26  N   UNK d   0      -6.784  -7.590  20.556  0.00  0.00    -0.355 N 
ATOM     27  C   UNK d   0      -4.778  -8.474  21.071  0.00  0.00    -0.022 A 
ATOM     28  C   UNK d   0      -6.637  -8.757  19.910  0.00  0.00     0.042 A 
ATOM     29  H   UNK d   0      -7.680  -6.922  20.531  0.00  0.00     0.166 HD
ATOM     30  C   UNK d   0      -7.492  -9.439  19.030  0.00  0.00     0.062 C 
ATOM     31  C   UNK d   0      -5.384  -9.341  20.214  0.00  0.00    -0.013 A 
ATOM     32  C   UNK d   0      -8.289  -8.907  18.029  0.00  0.00     0.066 A 
BRANCH   8  33
ATOM     33  C   UNK d   0     -10.585  -8.559  15.179  0.00  0.00     0.151 C 
BRANCH  33  34
ATOM     34  C   UNK d   0     -11.999  -8.556  15.596  0.00  0.00     0.143 C 
ATOM     35  O   UNK d   0     -12.846  -9.218  14.980  0.00  0.00    -0.650 OA
BRANCH  34  36
ATOM     36  O   UNK d   0     -12.380  -7.807  16.685  0.00  0.00    -0.776 OA
ATOM     37  H   UNK d   0     -12.733  -6.846  16.576  0.00  0.00     0.167 HD
ENDBRANCH  34  36
ENDBRANCH  33  34
ENDBRANCH   8  33
BRANCH  31  38
ATOM     38  C   UNK d   0      -4.805 -10.639  19.701  0.00  0.00     0.151 C 
BRANCH  38  39
ATOM     39  C   UNK d   0      -4.253 -10.521  18.368  0.00  0.00     0.143 C 
ATOM     40  O   UNK d   0      -3.750  -9.464  17.948  0.00  0.00    -0.650 OA
BRANCH  39  41
ATOM     41  O   UNK d   0      -4.279 -11.623  17.515  0.00  0.00    -0.776 OA
ATOM     42  H   UNK d   0      -3.408 -11.847  17.024  0.00  0.00     0.167 HD
ENDBRANCH  39  41
ENDBRANCH  38  39
ENDBRANCH  31  38
BRANCH  27  43
ATOM     43  C   UNK d   0      -3.408  -8.707  21.657  0.00  0.00     0.052 C 
BRANCH  43  44
ATOM     44  C   UNK d   0      -3.372  -9.823  22.651  0.00  0.00     0.115 C 
BRANCH  44  45
ATOM     45  C   UNK d   0      -2.032  -9.779  23.290  0.00  0.00     0.139 C 
ATOM     46  O   UNK d   0      -1.341 -10.827  23.288  0.00  0.00    -0.650 OA
BRANCH  45  47
ATOM     47  O   UNK d   0      -1.520  -8.641  23.875  0.00  0.00    -0.776 OA
ATOM     48  H   UNK d   0      -2.068  -7.772  23.986  0.00  0.00     0.167 HD
ENDBRANCH  45  47
ENDBRANCH  44  45
ENDBRANCH  43  44
ENDBRANCH  27  43
BRANCH  24  49
ATOM     49  C   UNK d   0      -4.199  -3.632  23.727  0.00  0.00     0.052 C 
BRANCH  49  50
ATOM     50  C   UNK d   0      -4.986  -3.073  24.884  0.00  0.00     0.115 C 
BRANCH  50  51
ATOM     51  C   UNK d   0      -6.295  -3.656  25.141  0.00  0.00     0.139 C 
ATOM     52  O   UNK d   0      -7.365  -3.034  24.938  0.00  0.00    -0.650 OA
BRANCH  51  53
ATOM     53  O   UNK d   0      -6.386  -4.949  25.633  0.00  0.00    -0.776 OA
ATOM     54  H   UNK d   0      -6.105  -5.117  26.583  0.00  0.00     0.167 HD
ENDBRANCH  51  53
ENDBRANCH  50  51
ENDBRANCH  49  50
ENDBRANCH  24  49
BRANCH  21  55
ATOM     55  C   UNK d   0      -5.350  -1.280  22.088  0.00  0.00     0.151 C 
BRANCH  55  56
ATOM     56  C   UNK d   0      -6.641  -0.588  22.220  0.00  0.00     0.143 C 
ATOM     57  O   UNK d   0      -7.057   0.232  21.378  0.00  0.00    -0.650 OA
BRANCH  56  58
ATOM     58  O   UNK d   0      -7.419  -0.873  23.341  0.00  0.00    -0.776 OA
ATOM     59  H   UNK d   0      -7.095  -0.432  24.221  0.00  0.00     0.167 HD
ENDBRANCH  56  58
ENDBRANCH  55  56
ENDBRANCH  21  55
BRANCH  18  60
ATOM     60  C   UNK d   0      -9.706  -1.568  18.965  0.00  0.00     0.151 C 
BRANCH  60  61
ATOM     61  C   UNK d   0      -9.177  -0.516  18.084  0.00  0.00     0.143 C 
ATOM     62  O   UNK d   0      -9.213  -0.491  16.853  0.00  0.00    -0.650 OA
BRANCH  61  63
ATOM     63  O   UNK d   0      -8.568   0.576  18.748  0.00  0.00    -0.776 OA
ATOM     64  H   UNK d   0      -9.085   1.141  19.398  0.00  0.00     0.167 HD
ENDBRANCH  61  63
ENDBRANCH  60  61
ENDBRANCH  18  60
BRANCH  14  65
ATOM     65  C   UNK d   0     -11.023  -3.406  16.941  0.00  0.00     0.052 C 
BRANCH  65  66
ATOM     66  C   UNK d   0     -12.166  -4.146  17.541  0.00  0.00     0.115 C 
BRANCH  66  67
ATOM     67  C   UNK d   0     -13.249  -4.581  16.705  0.00  0.00     0.139 C 
ATOM     68  O   UNK d   0     -14.142  -5.356  17.211  0.00  0.00    -0.650 OA
BRANCH  67  69
ATOM     69  O   UNK d   0     -13.474  -4.264  15.366  0.00  0.00    -0.776 OA
ATOM     70  H   UNK d   0     -13.384  -3.268  15.120  0.00  0.00     0.167 HD
ENDBRANCH  67  69
ENDBRANCH  66  67
ENDBRANCH  65  66
ENDBRANCH  14  65
ENDBRANCH   6   7
ENDBRANCH   5   6
ENDBRANCH   2   5
TORSDOF 28
ENDMDL
MODEL 6
REMARK VINA RESULT:      -9.4      1.217      1.514
REMARK  28 active torsions:
REMARK  status: ('A' for Active; 'I' for Inactive)
REMARK    1  A    between atoms: C_2  and  O_3 
REMARK    2  A    between atoms: C_2  and  C_4 
REMARK    3  A    between atoms: C_4  and  C_5 
REMARK    4  A    between atoms: C_5  and  C_6 
REMARK    5  A    between atoms: C_7  and  C_8 
REMARK    6  A    between atoms: C_8  and  C_9 
REMARK    7  A    between atoms: C_9  and  O_11 
REMARK    8  A    between atoms: C_28  and  C_29 
REMARK    9  A    between atoms: C_29  and  C_30 
REMARK   10  A    between atoms: C_30  and  O_32 
REMARK   11  A    between atoms: C_33  and  C_34 
REMARK   12  A    between atoms: C_34  and  C_35 
REMARK   13  A    between atoms: C_35  and  C_36 
REMARK   14  A    between atoms: C_36  and  O_38 
REMARK   15  A    between atoms: C_39  and  C_40 
REMARK   16  A    between atoms: C_40  and  C_41 
REMARK   17  A    between atoms: C_41  and  C_42 
REMARK   18  A    between atoms: C_42  and  O_44 
REMARK   19  A    between atoms: C_45  and  C_46 
REMARK   20  A    between atoms: C_46  and  C_47 
REMARK   21  A    between atoms: C_47  and  O_49 
REMARK   22  A    between atoms: C_50  and  C_51 
REMARK   23  A    between atoms: C_51  and  C_52 
REMARK   24  A    between atoms: C_52  and  O_54 
REMARK   25  A    between atoms: C_55  and  C_56 
REMARK   26  A    between atoms: C_56  and  C_57 
REMARK   27  A    between atoms: C_57  and  C_58 
REMARK   28  A    between atoms: C_58  and  O_60 
ROOT
ATOM      1  O   UNK d   0     -10.821   0.065  18.518  0.00  0.00    -0.650 OA
ATOM      2  C   UNK d   0     -10.009  -0.879  18.398  0.00  0.00     0.139 C 
ENDROOT
BRANCH   2   3
ATOM      3  O   UNK d   0      -8.680  -0.600  18.187  0.00  0.00    -0.776 OA
ATOM      4  H   UNK d   0      -8.392   0.147  17.551  0.00  0.00     0.167 HD
ENDBRANCH   2   3
BRANCH   2   5
ATOM      5  C   UNK d   0     -10.482  -2.290  18.483  0.00  0.00     0.115 C 
BRANCH   5   6
ATOM      6  C   UNK d   0      -9.939  -3.088  17.329  0.00  0.00     0.052 C 
BRANCH   6   7
ATOM      7  C   UNK d   0      -9.573  -4.500  17.721  0.00  0.00    -0.020 A 
ATOM      8  C   UNK d   0     -10.139  -5.611  17.323  0.00  0.00    -0.011 A 
ATOM      9  C   UNK d   0      -9.453  -6.716  17.972  0.00  0.00     0.067 A 
ATOM     10  C   UNK d   0      -9.551  -8.116  17.958  0.00  0.00     0.062 C 
ATOM     11  N   UNK d   0      -8.487  -6.186  18.751  0.00  0.00    -0.248 NA
ATOM     12  C   UNK d   0      -8.613  -9.036  18.440  0.00  0.00     0.041 A 
ATOM     13  N   UNK d   0      -7.878  -9.043  19.568  0.00  0.00    -0.355 N 
ATOM     14  C   UNK d   0      -8.282 -10.149  17.647  0.00  0.00    -0.022 A 
ATOM     15  C   UNK d   0      -7.083 -10.128  19.507  0.00  0.00     0.042 A 
ATOM     16  H   UNK d   0      -7.933  -8.307  20.400  0.00  0.00     0.166 HD
ATOM     17  C   UNK d   0      -6.124 -10.610  20.420  0.00  0.00     0.062 C 
ATOM     18  C   UNK d   0      -7.307 -10.846  18.317  0.00  0.00    -0.013 A 
ATOM     19  C   UNK d   0      -5.155  -9.916  21.100  0.00  0.00     0.067 A 
ATOM     20  N   UNK d   0      -5.230  -8.584  21.066  0.00  0.00    -0.248 NA
ATOM     21  C   UNK d   0      -3.984 -10.260  21.889  0.00  0.00    -0.011 A 
ATOM     22  C   UNK d   0      -4.191  -8.030  21.774  0.00  0.00     0.066 A 
ATOM     23  C   UNK d   0      -4.167  -6.645  21.853  0.00  0.00     0.062 C 
ATOM     24  C   UNK d   0      -3.422  -9.151  22.277  0.00  0.00    -0.020 A 
ATOM     25  C   UNK d   0      -5.126  -5.740  21.372  0.00  0.00     0.041 A 
ATOM     26  N   UNK d   0      -5.846  -5.725  20.244  0.00  0.00    -0.355 N 
ATOM     27  C   UNK d   0      -5.461  -4.625  22.171  0.00  0.00    -0.022 A 
ATOM     28  C   UNK d   0      -6.634  -4.639  20.299  0.00  0.00     0.042 A 
ATOM     29  H   UNK d   0      -5.782  -6.460  19.405  0.00  0.00     0.166 HD
ATOM     30  C   UNK d   0      -7.585  -4.143  19.394  0.00  0.00     0.062 C 
ATOM     31  C   UNK d   0      -6.415  -3.923  21.500  0.00  0.00    -0.013 A 
ATOM     32  C   UNK d   0      -8.506  -4.857  18.644  0.00  0.00     0.066 A 
BRANCH   8  33
ATOM     33  C   UNK d   0     -11.273  -5.741  16.390  0.00  0.00     0.151 C 
BRANCH  33  34
ATOM     34  C   UNK d   0     -12.523  -5.177  16.930  0.00  0.00     0.143 C 
ATOM     35  O   UNK d   0     -12.902  -5.451  18.078  0.00  0.00    -0.650 OA
BRANCH  34  36
ATOM     36  O   UNK d   0     -13.279  -4.337  16.146  0.00  0.00    -0.776 OA
ATOM     37  H   UNK d   0     -12.988  -3.365  15.970  0.00  0.00     0.167 HD
ENDBRANCH  34  36
ENDBRANCH  33  34
ENDBRANCH   8  33
BRANCH  31  38
ATOM     38  C   UNK d   0      -7.089  -2.657  21.974  0.00  0.00     0.151 C 
BRANCH  38  39
ATOM     39  C   UNK d   0      -6.424  -1.459  21.509  0.00  0.00     0.143 C 
ATOM     40  O   UNK d   0      -5.379  -1.032  22.031  0.00  0.00    -0.650 OA
BRANCH  39  41
ATOM     41  O   UNK d   0      -6.963  -0.748  20.436  0.00  0.00    -0.776 OA
ATOM     42  H   UNK d   0      -6.845  -1.158  19.505  0.00  0.00     0.167 HD
ENDBRANCH  39  41
ENDBRANCH  38  39
ENDBRANCH  31  38
BRANCH  27  43
ATOM     43  C   UNK d   0      -4.919  -4.212  23.517  0.00  0.00     0.052 C 
BRANCH  43  44
ATOM     44  C   UNK d   0      -3.635  -3.452  23.428  0.00  0.00     0.115 C 
BRANCH  44  45
ATOM     45  C   UNK d   0      -2.966  -3.594  24.747  0.00  0.00     0.139 C 
ATOM     46  O   UNK d   0      -1.724  -3.414  24.803  0.00  0.00    -0.650 OA
BRANCH  45  47
ATOM     47  O   UNK d   0      -3.649  -3.907  25.902  0.00  0.00    -0.776 OA
ATOM     48  H   UNK d   0      -3.471  -4.769  26.443  0.00  0.00     0.167 HD
ENDBRANCH  45  47
ENDBRANCH  44  45
ENDBRANCH  43  44
ENDBRANCH  27  43
BRANCH  24  49
ATOM     49  C   UNK d   0      -2.228  -9.036  23.132  0.00  0.00     0.052 C 
BRANCH  49  50
ATOM     50  C   UNK d   0      -1.487  -7.759  22.828  0.00  0.00     0.115 C 
BRANCH  50  51
ATOM     51  C   UNK d   0      -0.826  -7.093  23.942  0.00  0.00     0.139 C 
ATOM     52  O   UNK d   0       0.092  -6.254  23.780  0.00  0.00    -0.650 OA
BRANCH  51  53
ATOM     53  O   UNK d   0      -1.209  -7.386  25.242  0.00  0.00    -0.776 OA
ATOM     54  H   UNK d   0      -2.190  -7.471  25.440  0.00  0.00     0.167 HD
ENDBRANCH  51  53
ENDBRANCH  50  51
ENDBRANCH  49  50
ENDBRANCH  24  49
BRANCH  21  55
ATOM     55  C   UNK d   0      -3.552 -11.659  22.177  0.00  0.00     0.151 C 
BRANCH  55  56
ATOM     56  C   UNK d   0      -4.202 -12.201  23.380  0.00  0.00     0.143 C 
ATOM     57  O   UNK d   0      -3.766 -12.001  24.531  0.00  0.00    -0.650 OA
BRANCH  56  58
ATOM     58  O   UNK d   0      -5.353 -12.967  23.206  0.00  0.00    -0.776 OA
ATOM     59  H   UNK d   0      -6.205 -12.582  23.651  0.00  0.00     0.167 HD
ENDBRANCH  56  58
ENDBRANCH  55  56
ENDBRANCH  21  55
BRANCH  18  60
ATOM     60  C   UNK d   0      -6.653 -12.112  17.820  0.00  0.00     0.151 C 
BRANCH  60  61
ATOM     61  C   UNK d   0      -5.261 -11.752  17.511  0.00  0.00     0.143 C 
ATOM     62  O   UNK d   0      -4.874 -10.815  16.811  0.00  0.00    -0.650 OA
BRANCH  61  63
ATOM     63  O   UNK d   0      -4.279 -12.589  18.093  0.00  0.00    -0.776 OA
ATOM     64  H   UNK d   0      -3.300 -12.427  17.935  0.00  0.00     0.167 HD
ENDBRANCH  61  63
ENDBRANCH  60  61
ENDBRANCH  18  60
BRANCH  14  65
ATOM     65  C   UNK d   0      -8.880 -10.652  16.364  0.00  0.00     0.052 C 
BRANCH  65  66
ATOM     66  C   UNK d   0      -7.899 -10.707  15.247  0.00  0.00     0.115 C 
BRANCH  66  67
ATOM     67  C   UNK d   0      -7.979 -11.767  14.281  0.00  0.00     0.139 C 
ATOM     68  O   UNK d   0      -7.150 -12.746  14.375  0.00  0.00    -0.650 OA
BRANCH  67  69
ATOM     69  O   UNK d   0      -8.867 -11.883  13.213  0.00  0.00    -0.776 OA
ATOM     70  H   UNK d   0      -8.658 -12.630  12.535  0.00  0.00     0.167 HD
ENDBRANCH  67  69
ENDBRANCH  66  67
ENDBRANCH  65  66
ENDBRANCH  14  65
ENDBRANCH   6   7
ENDBRANCH   5   6
ENDBRANCH   2   5
TORSDOF 28
ENDMDL
MODEL 7
REMARK VINA RESULT:      -9.3      1.615      2.029
REMARK  28 active torsions:
REMARK  status: ('A' for Active; 'I' for Inactive)
REMARK    1  A    between atoms: C_2  and  O_3 
REMARK    2  A    between atoms: C_2  and  C_4 
REMARK    3  A    between atoms: C_4  and  C_5 
REMARK    4  A    between atoms: C_5  and  C_6 
REMARK    5  A    between atoms: C_7  and  C_8 
REMARK    6  A    between atoms: C_8  and  C_9 
REMARK    7  A    between atoms: C_9  and  O_11 
REMARK    8  A    between atoms: C_28  and  C_29 
REMARK    9  A    between atoms: C_29  and  C_30 
REMARK   10  A    between atoms: C_30  and  O_32 
REMARK   11  A    between atoms: C_33  and  C_34 
REMARK   12  A    between atoms: C_34  and  C_35 
REMARK   13  A    between atoms: C_35  and  C_36 
REMARK   14  A    between atoms: C_36  and  O_38 
REMARK   15  A    between atoms: C_39  and  C_40 
REMARK   16  A    between atoms: C_40  and  C_41 
REMARK   17  A    between atoms: C_41  and  C_42 
REMARK   18  A    between atoms: C_42  and  O_44 
REMARK   19  A    between atoms: C_45  and  C_46 
REMARK   20  A    between atoms: C_46  and  C_47 
REMARK   21  A    between atoms: C_47  and  O_49 
REMARK   22  A    between atoms: C_50  and  C_51 
REMARK   23  A    between atoms: C_51  and  C_52 
REMARK   24  A    between atoms: C_52  and  O_54 
REMARK   25  A    between atoms: C_55  and  C_56 
REMARK   26  A    between atoms: C_56  and  C_57 
REMARK   27  A    between atoms: C_57  and  C_58 
REMARK   28  A    between atoms: C_58  and  O_60 
ROOT
ATOM      1  O   UNK d   0     -10.711   0.511  18.647  0.00  0.00    -0.650 OA
ATOM      2  C   UNK d   0      -9.889  -0.360  18.283  0.00  0.00     0.139 C 
ENDROOT
BRANCH   2   3
ATOM      3  O   UNK d   0      -8.634   0.025  17.879  0.00  0.00    -0.776 OA
ATOM      4  H   UNK d   0      -7.807  -0.519  18.135  0.00  0.00     0.167 HD
ENDBRANCH   2   3
BRANCH   2   5
ATOM      5  C   UNK d   0     -10.273  -1.800  18.290  0.00  0.00     0.115 C 
BRANCH   5   6
ATOM      6  C   UNK d   0      -9.642  -2.510  17.124  0.00  0.00     0.052 C 
BRANCH   6   7
ATOM      7  C   UNK d   0      -9.584  -4.007  17.316  0.00  0.00    -0.020 A 
ATOM      8  C   UNK d   0     -10.409  -4.904  16.841  0.00  0.00    -0.011 A 
ATOM      9  C   UNK d   0      -9.957  -6.209  17.296  0.00  0.00     0.067 A 
ATOM     10  C   UNK d   0     -10.371  -7.539  17.128  0.00  0.00     0.062 C 
ATOM     11  N   UNK d   0      -8.854  -6.011  18.047  0.00  0.00    -0.248 NA
ATOM     12  C   UNK d   0      -9.642  -8.697  17.418  0.00  0.00     0.041 A 
ATOM     13  N   UNK d   0      -8.864  -9.014  18.471  0.00  0.00    -0.355 N 
ATOM     14  C   UNK d   0      -9.617  -9.741  16.475  0.00  0.00    -0.022 A 
ATOM     15  C   UNK d   0      -8.341 -10.229  18.217  0.00  0.00     0.042 A 
ATOM     16  H   UNK d   0      -8.704  -8.400  19.385  0.00  0.00     0.166 HD
ATOM     17  C   UNK d   0      -7.467 -11.025  18.983  0.00  0.00     0.062 C 
ATOM     18  C   UNK d   0      -8.790 -10.716  16.974  0.00  0.00    -0.013 A 
ATOM     19  C   UNK d   0      -6.329 -10.656  19.655  0.00  0.00     0.067 A 
ATOM     20  N   UNK d   0      -6.101  -9.346  19.782  0.00  0.00    -0.248 NA
ATOM     21  C   UNK d   0      -5.224 -11.347  20.297  0.00  0.00    -0.011 A 
ATOM     22  C   UNK d   0      -4.925  -9.131  20.459  0.00  0.00     0.066 A 
ATOM     23  C   UNK d   0      -4.583  -7.808  20.696  0.00  0.00     0.062 C 
ATOM     24  C   UNK d   0      -4.404 -10.450  20.762  0.00  0.00    -0.020 A 
ATOM     25  C   UNK d   0      -5.337  -6.660  20.408  0.00  0.00     0.041 A 
ATOM     26  N   UNK d   0      -6.097  -6.338  19.355  0.00  0.00    -0.355 N 
ATOM     27  C   UNK d   0      -5.364  -5.615  21.357  0.00  0.00    -0.022 A 
ATOM     28  C   UNK d   0      -6.613  -5.124  19.602  0.00  0.00     0.042 A 
ATOM     29  H   UNK d   0      -6.249  -6.952  18.433  0.00  0.00     0.166 HD
ATOM     30  C   UNK d   0      -7.476  -4.317  18.845  0.00  0.00     0.062 C 
ATOM     31  C   UNK d   0      -6.170  -4.639  20.855  0.00  0.00    -0.013 A 
ATOM     32  C   UNK d   0      -8.576  -4.707  18.098  0.00  0.00     0.066 A 
BRANCH   8  33
ATOM     33  C   UNK d   0     -11.595  -4.660  15.999  0.00  0.00     0.151 C 
BRANCH  33  34
ATOM     34  C   UNK d   0     -12.829  -4.487  16.787  0.00  0.00     0.143 C 
ATOM     35  O   UNK d   0     -12.884  -4.849  17.971  0.00  0.00    -0.650 OA
BRANCH  34  36
ATOM     36  O   UNK d   0     -13.932  -3.916  16.196  0.00  0.00    -0.776 OA
ATOM     37  H   UNK d   0     -13.989  -3.792  15.176  0.00  0.00     0.167 HD
ENDBRANCH  34  36
ENDBRANCH  33  34
ENDBRANCH   8  33
BRANCH  31  38
ATOM     38  C   UNK d   0      -6.511  -3.331  21.529  0.00  0.00     0.151 C 
BRANCH  38  39
ATOM     39  C   UNK d   0      -7.626  -3.444  22.444  0.00  0.00     0.143 C 
ATOM     40  O   UNK d   0      -7.510  -3.232  23.664  0.00  0.00    -0.650 OA
BRANCH  39  41
ATOM     41  O   UNK d   0      -8.882  -3.803  21.955  0.00  0.00    -0.776 OA
ATOM     42  H   UNK d   0      -9.641  -3.872  22.639  0.00  0.00     0.167 HD
ENDBRANCH  39  41
ENDBRANCH  38  39
ENDBRANCH  31  38
BRANCH  27  43
ATOM     43  C   UNK d   0      -4.666  -5.512  22.690  0.00  0.00     0.052 C 
BRANCH  43  44
ATOM     44  C   UNK d   0      -3.272  -4.986  22.589  0.00  0.00     0.115 C 
BRANCH  44  45
ATOM     45  C   UNK d   0      -3.175  -3.852  23.544  0.00  0.00     0.139 C 
ATOM     46  O   UNK d   0      -3.089  -4.116  24.769  0.00  0.00    -0.650 OA
BRANCH  45  47
ATOM     47  O   UNK d   0      -3.170  -2.534  23.142  0.00  0.00    -0.776 OA
ATOM     48  H   UNK d   0      -2.302  -1.986  23.030  0.00  0.00     0.167 HD
ENDBRANCH  45  47
ENDBRANCH  44  45
ENDBRANCH  43  44
ENDBRANCH  27  43
BRANCH  24  49
ATOM     49  C   UNK d   0      -3.168 -10.712  21.519  0.00  0.00     0.052 C 
BRANCH  49  50
ATOM     50  C   UNK d   0      -3.338 -10.300  22.959  0.00  0.00     0.115 C 
BRANCH  50  51
ATOM     51  C   UNK d   0      -3.338 -11.359  23.959  0.00  0.00     0.139 C 
ATOM     52  O   UNK d   0      -4.044 -12.389  23.853  0.00  0.00    -0.650 OA
BRANCH  51  53
ATOM     53  O   UNK d   0      -2.534 -11.242  25.082  0.00  0.00    -0.776 OA
ATOM     54  H   UNK d   0      -2.564 -11.977  25.767  0.00  0.00     0.167 HD
ENDBRANCH  51  53
ENDBRANCH  50  51
ENDBRANCH  49  50
ENDBRANCH  24  49
BRANCH  21  55
ATOM     55  C   UNK d   0      -5.105 -12.833  20.382  0.00  0.00     0.151 C 
BRANCH  55  56
ATOM     56  C   UNK d   0      -6.193 -13.429  21.173  0.00  0.00     0.143 C 
ATOM     57  O   UNK d   0      -7.014 -14.235  20.692  0.00  0.00    -0.650 OA
BRANCH  56  58
ATOM     58  O   UNK d   0      -6.294 -13.065  22.514  0.00  0.00    -0.776 OA
ATOM     59  H   UNK d   0      -6.904 -13.676  23.087  0.00  0.00     0.167 HD
ENDBRANCH  56  58
ENDBRANCH  55  56
ENDBRANCH  21  55
BRANCH  18  60
ATOM     60  C   UNK d   0      -8.470 -12.016  16.280  0.00  0.00     0.151 C 
BRANCH  60  61
ATOM     61  C   UNK d   0      -7.219 -11.783  15.542  0.00  0.00     0.143 C 
ATOM     62  O   UNK d   0      -7.080 -11.137  14.503  0.00  0.00    -0.650 OA
BRANCH  61  63
ATOM     63  O   UNK d   0      -6.065 -12.375  16.110  0.00  0.00    -0.776 OA
ATOM     64  H   UNK d   0      -5.543 -11.907  16.830  0.00  0.00     0.167 HD
ENDBRANCH  61  63
ENDBRANCH  60  61
ENDBRANCH  18  60
BRANCH  14  65
ATOM     65  C   UNK d   0     -10.386  -9.927  15.198  0.00  0.00     0.052 C 
BRANCH  65  66
ATOM     66  C   UNK d   0     -11.693 -10.606  15.399  0.00  0.00     0.115 C 
BRANCH  66  67
ATOM     67  C   UNK d   0     -12.150 -11.570  14.438  0.00  0.00     0.139 C 
ATOM     68  O   UNK d   0     -13.110 -12.360  14.769  0.00  0.00    -0.650 OA
BRANCH  67  69
ATOM     69  O   UNK d   0     -11.675 -11.776  13.144  0.00  0.00    -0.776 OA
ATOM     70  H   UNK d   0     -11.814 -10.994  12.486  0.00  0.00     0.167 HD
ENDBRANCH  67  69
ENDBRANCH  66  67
ENDBRANCH  65  66
ENDBRANCH  14  65
ENDBRANCH   6   7
ENDBRANCH   5   6
ENDBRANCH   2   5
TORSDOF 28
ENDMDL
MODEL 8
REMARK VINA RESULT:      -9.1      2.037      8.655
REMARK  28 active torsions:
REMARK  status: ('A' for Active; 'I' for Inactive)
REMARK    1  A    between atoms: C_2  and  O_3 
REMARK    2  A    between atoms: C_2  and  C_4 
REMARK    3  A    between atoms: C_4  and  C_5 
REMARK    4  A    between atoms: C_5  and  C_6 
REMARK    5  A    between atoms: C_7  and  C_8 
REMARK    6  A    between atoms: C_8  and  C_9 
REMARK    7  A    between atoms: C_9  and  O_11 
REMARK    8  A    between atoms: C_28  and  C_29 
REMARK    9  A    between atoms: C_29  and  C_30 
REMARK   10  A    between atoms: C_30  and  O_32 
REMARK   11  A    between atoms: C_33  and  C_34 
REMARK   12  A    between atoms: C_34  and  C_35 
REMARK   13  A    between atoms: C_35  and  C_36 
REMARK   14  A    between atoms: C_36  and  O_38 
REMARK   15  A    between atoms: C_39  and  C_40 
REMARK   16  A    between atoms: C_40  and  C_41 
REMARK   17  A    between atoms: C_41  and  C_42 
REMARK   18  A    between atoms: C_42  and  O_44 
REMARK   19  A    between atoms: C_45  and  C_46 
REMARK   20  A    between atoms: C_46  and  C_47 
REMARK   21  A    between atoms: C_47  and  O_49 
REMARK   22  A    between atoms: C_50  and  C_51 
REMARK   23  A    between atoms: C_51  and  C_52 
REMARK   24  A    between atoms: C_52  and  O_54 
REMARK   25  A    between atoms: C_55  and  C_56 
REMARK   26  A    between atoms: C_56  and  C_57 
REMARK   27  A    between atoms: C_57  and  C_58 
REMARK   28  A    between atoms: C_58  and  O_60 
ROOT
ATOM      1  O   UNK d   0      -6.317  -0.211  22.676  0.00  0.00    -0.650 OA
ATOM      2  C   UNK d   0      -5.822  -1.131  21.989  0.00  0.00     0.139 C 
ENDROOT
BRANCH   2   3
ATOM      3  O   UNK d   0      -4.497  -1.457  22.155  0.00  0.00    -0.776 OA
ATOM      4  H   UNK d   0      -3.987  -1.976  21.437  0.00  0.00     0.167 HD
ENDBRANCH   2   3
BRANCH   2   5
ATOM      5  C   UNK d   0      -6.663  -1.864  21.001  0.00  0.00     0.115 C 
BRANCH   5   6
ATOM      6  C   UNK d   0      -7.285  -3.073  21.646  0.00  0.00     0.052 C 
BRANCH   6   7
ATOM      7  C   UNK d   0      -7.091  -4.330  20.833  0.00  0.00    -0.020 A 
ATOM      8  C   UNK d   0      -6.029  -5.093  20.783  0.00  0.00    -0.011 A 
ATOM      9  C   UNK d   0      -6.304  -6.180  19.859  0.00  0.00     0.067 A 
ATOM     10  C   UNK d   0      -5.616  -7.311  19.391  0.00  0.00     0.062 C 
ATOM     11  N   UNK d   0      -7.556  -5.998  19.388  0.00  0.00    -0.248 NA
ATOM     12  C   UNK d   0      -6.153  -8.406  18.706  0.00  0.00     0.041 A 
ATOM     13  N   UNK d   0      -7.054  -8.473  17.708  0.00  0.00    -0.355 N 
ATOM     14  C   UNK d   0      -5.781  -9.704  19.102  0.00  0.00    -0.022 A 
ATOM     15  C   UNK d   0      -7.269  -9.780  17.465  0.00  0.00     0.042 A 
ATOM     16  H   UNK d   0      -7.513  -7.614  17.172  0.00  0.00     0.166 HD
ATOM     17  C   UNK d   0      -8.113 -10.407  16.526  0.00  0.00     0.062 C 
ATOM     18  C   UNK d   0      -6.490 -10.583  18.320  0.00  0.00    -0.013 A 
ATOM     19  C   UNK d   0      -9.413 -10.114  16.204  0.00  0.00     0.067 A 
ATOM     20  N   UNK d   0      -9.911  -8.970  16.680  0.00  0.00    -0.248 NA
ATOM     21  C   UNK d   0     -10.472 -10.759  15.446  0.00  0.00    -0.011 A 
ATOM     22  C   UNK d   0     -11.219  -8.821  16.289  0.00  0.00     0.066 A 
ATOM     23  C   UNK d   0     -11.851  -7.652  16.685  0.00  0.00     0.062 C 
ATOM     24  C   UNK d   0     -11.528  -9.999  15.503  0.00  0.00    -0.020 A 
ATOM     25  C   UNK d   0     -11.290  -6.557  17.361  0.00  0.00     0.041 A 
ATOM     26  N   UNK d   0     -10.406  -6.491  18.364  0.00  0.00    -0.355 N 
ATOM     27  C   UNK d   0     -11.660  -5.255  16.961  0.00  0.00    -0.022 A 
ATOM     28  C   UNK d   0     -10.196  -5.189  18.614  0.00  0.00     0.042 A 
ATOM     29  H   UNK d   0      -9.953  -7.356  18.909  0.00  0.00     0.166 HD
ATOM     30  C   UNK d   0      -9.368  -4.551  19.550  0.00  0.00     0.062 C 
ATOM     31  C   UNK d   0     -10.972  -4.383  17.748  0.00  0.00    -0.013 A 
ATOM     32  C   UNK d   0      -8.083  -4.902  19.935  0.00  0.00     0.066 A 
BRANCH   8  33
ATOM     33  C   UNK d   0      -4.765  -4.900  21.519  0.00  0.00     0.151 C 
BRANCH  33  34
ATOM     34  C   UNK d   0      -4.756  -5.583  22.825  0.00  0.00     0.143 C 
ATOM     35  O   UNK d   0      -5.456  -5.175  23.762  0.00  0.00    -0.650 OA
BRANCH  34  36
ATOM     36  O   UNK d   0      -3.956  -6.689  23.003  0.00  0.00    -0.776 OA
ATOM     37  H   UNK d   0      -3.732  -7.040  23.943  0.00  0.00     0.167 HD
ENDBRANCH  34  36
ENDBRANCH  33  34
ENDBRANCH   8  33
BRANCH  31  38
ATOM     38  C   UNK d   0     -11.035  -2.875  17.674  0.00  0.00     0.151 C 
BRANCH  38  39
ATOM     39  C   UNK d   0      -9.832  -2.289  17.124  0.00  0.00     0.143 C 
ATOM     40  O   UNK d   0      -9.171  -1.430  17.733  0.00  0.00    -0.650 OA
BRANCH  39  41
ATOM     41  O   UNK d   0      -9.386  -2.692  15.865  0.00  0.00    -0.776 OA
ATOM     42  H   UNK d   0     -10.103  -2.845  15.149  0.00  0.00     0.167 HD
ENDBRANCH  39  41
ENDBRANCH  38  39
ENDBRANCH  31  38
BRANCH  27  43
ATOM     43  C   UNK d   0     -12.623  -4.820  15.884  0.00  0.00     0.052 C 
BRANCH  43  44
ATOM     44  C   UNK d   0     -13.892  -4.244  16.424  0.00  0.00     0.115 C 
BRANCH  44  45
ATOM     45  C   UNK d   0     -14.896  -5.339  16.407  0.00  0.00     0.139 C 
ATOM     46  O   UNK d   0     -15.709  -5.383  15.451  0.00  0.00    -0.650 OA
BRANCH  45  47
ATOM     47  O   UNK d   0     -14.966  -6.303  17.390  0.00  0.00    -0.776 OA
ATOM     48  H   UNK d   0     -15.287  -7.268  17.206  0.00  0.00     0.167 HD
ENDBRANCH  45  47
ENDBRANCH  44  45
ENDBRANCH  43  44
ENDBRANCH  27  43
BRANCH  24  49
ATOM     49  C   UNK d   0     -12.818 -10.254  14.841  0.00  0.00     0.052 C 
BRANCH  49  50
ATOM     50  C   UNK d   0     -13.277 -11.664  15.112  0.00  0.00     0.115 C 
BRANCH  50  51
ATOM     51  C   UNK d   0     -13.870 -12.395  14.000  0.00  0.00     0.139 C 
ATOM     52  O   UNK d   0     -13.473 -12.268  12.818  0.00  0.00    -0.650 OA
BRANCH  51  53
ATOM     53  O   UNK d   0     -14.919 -13.271  14.236  0.00  0.00    -0.776 OA
ATOM     54  H   UNK d   0     -15.145 -13.945  13.526  0.00  0.00     0.167 HD
ENDBRANCH  51  53
ENDBRANCH  50  51
ENDBRANCH  49  50
ENDBRANCH  24  49
BRANCH  21  55
ATOM     55  C   UNK d   0     -10.317 -12.065  14.739  0.00  0.00     0.151 C 
BRANCH  55  56
ATOM     56  C   UNK d   0      -9.865 -11.891  13.351  0.00  0.00     0.143 C 
ATOM     57  O   UNK d   0      -8.853 -12.459  12.894  0.00  0.00    -0.650 OA
BRANCH  56  58
ATOM     58  O   UNK d   0     -10.611 -11.051  12.525  0.00  0.00    -0.776 OA
ATOM     59  H   UNK d   0     -10.597 -11.303  11.520  0.00  0.00     0.167 HD
ENDBRANCH  56  58
ENDBRANCH  55  56
ENDBRANCH  21  55
BRANCH  18  60
ATOM     60  C   UNK d   0      -6.404 -12.086  18.413  0.00  0.00     0.151 C 
BRANCH  60  61
ATOM     61  C   UNK d   0      -5.320 -12.486  17.502  0.00  0.00     0.143 C 
ATOM     62  O   UNK d   0      -4.119 -12.558  17.764  0.00  0.00    -0.650 OA
BRANCH  61  63
ATOM     63  O   UNK d   0      -5.730 -12.818  16.188  0.00  0.00    -0.776 OA
ATOM     64  H   UNK d   0      -5.320 -13.594  15.698  0.00  0.00     0.167 HD
ENDBRANCH  61  63
ENDBRANCH  60  61
ENDBRANCH  18  60
BRANCH  14  65
ATOM     65  C   UNK d   0      -4.746 -10.172  20.085  0.00  0.00     0.052 C 
BRANCH  65  66
ATOM     66  C   UNK d   0      -5.259 -10.245  21.480  0.00  0.00     0.115 C 
BRANCH  66  67
ATOM     67  C   UNK d   0      -5.969 -11.413  21.916  0.00  0.00     0.139 C 
ATOM     68  O   UNK d   0      -7.204 -11.291  22.253  0.00  0.00    -0.650 OA
BRANCH  67  69
ATOM     69  O   UNK d   0      -5.482 -12.715  22.030  0.00  0.00    -0.776 OA
ATOM     70  H   UNK d   0      -4.460 -12.805  22.117  0.00  0.00     0.167 HD
ENDBRANCH  67  69
ENDBRANCH  66  67
ENDBRANCH  65  66
ENDBRANCH  14  65
ENDBRANCH   6   7
ENDBRANCH   5   6
ENDBRANCH   2   5
TORSDOF 28
ENDMDL
MODEL 9
REMARK VINA RESULT:      -9.1      2.239      8.332
REMARK  28 active torsions:
REMARK  status: ('A' for Active; 'I' for Inactive)
REMARK    1  A    between atoms: C_2  and  O_3 
REMARK    2  A    between atoms: C_2  and  C_4 
REMARK    3  A    between atoms: C_4  and  C_5 
REMARK    4  A    between atoms: C_5  and  C_6 
REMARK    5  A    between atoms: C_7  and  C_8 
REMARK    6  A    between atoms: C_8  and  C_9 
REMARK    7  A    between atoms: C_9  and  O_11 
REMARK    8  A    between atoms: C_28  and  C_29 
REMARK    9  A    between atoms: C_29  and  C_30 
REMARK   10  A    between atoms: C_30  and  O_32 
REMARK   11  A    between atoms: C_33  and  C_34 
REMARK   12  A    between atoms: C_34  and  C_35 
REMARK   13  A    between atoms: C_35  and  C_36 
REMARK   14  A    between atoms: C_36  and  O_38 
REMARK   15  A    between atoms: C_39  and  C_40 
REMARK   16  A    between atoms: C_40  and  C_41 
REMARK   17  A    between atoms: C_41  and  C_42 
REMARK   18  A    between atoms: C_42  and  O_44 
REMARK   19  A    between atoms: C_45  and  C_46 
REMARK   20  A    between atoms: C_46  and  C_47 
REMARK   21  A    between atoms: C_47  and  O_49 
REMARK   22  A    between atoms: C_50  and  C_51 
REMARK   23  A    between atoms: C_51  and  C_52 
REMARK   24  A    between atoms: C_52  and  O_54 
REMARK   25  A    between atoms: C_55  and  C_56 
REMARK   26  A    between atoms: C_56  and  C_57 
REMARK   27  A    between atoms: C_57  and  C_58 
REMARK   28  A    between atoms: C_58  and  O_60 
ROOT
ATOM      1  O   UNK d   0      -0.104  -9.296  24.099  0.00  0.00    -0.650 OA
ATOM      2  C   UNK d   0      -0.878 -10.278  24.086  0.00  0.00     0.139 C 
ENDROOT
BRANCH   2   3
ATOM      3  O   UNK d   0      -1.622 -10.565  25.205  0.00  0.00    -0.776 OA
ATOM      4  H   UNK d   0      -1.172 -10.751  26.104  0.00  0.00     0.167 HD
ENDBRANCH   2   3
BRANCH   2   5
ATOM      5  C   UNK d   0      -0.989 -11.127  22.866  0.00  0.00     0.115 C 
BRANCH   5   6
ATOM      6  C   UNK d   0      -2.343 -11.781  22.812  0.00  0.00     0.052 C 
BRANCH   6   7
ATOM      7  C   UNK d   0      -3.146 -11.357  21.605  0.00  0.00    -0.020 A 
ATOM      8  C   UNK d   0      -3.380 -12.049  20.519  0.00  0.00    -0.011 A 
ATOM      9  C   UNK d   0      -4.189 -11.227  19.634  0.00  0.00     0.067 A 
ATOM     10  C   UNK d   0      -4.779 -11.379  18.370  0.00  0.00     0.062 C 
ATOM     11  N   UNK d   0      -4.396 -10.049  20.259  0.00  0.00    -0.248 NA
ATOM     12  C   UNK d   0      -5.765 -10.571  17.792  0.00  0.00     0.041 A 
ATOM     13  N   UNK d   0      -5.906  -9.232  17.759  0.00  0.00    -0.355 N 
ATOM     14  C   UNK d   0      -6.864 -11.183  17.162  0.00  0.00    -0.022 A 
ATOM     15  C   UNK d   0      -7.070  -8.979  17.132  0.00  0.00     0.042 A 
ATOM     16  H   UNK d   0      -5.188  -8.480  18.154  0.00  0.00     0.166 HD
ATOM     17  C   UNK d   0      -7.697  -7.754  16.828  0.00  0.00     0.062 C 
ATOM     18  C   UNK d   0      -7.699 -10.178  16.743  0.00  0.00    -0.013 A 
ATOM     19  C   UNK d   0      -7.867  -6.651  17.625  0.00  0.00     0.067 A 
ATOM     20  N   UNK d   0      -7.192  -6.628  18.777  0.00  0.00    -0.248 NA
ATOM     21  C   UNK d   0      -8.644  -5.425  17.560  0.00  0.00    -0.011 A 
ATOM     22  C   UNK d   0      -7.472  -5.477  19.471  0.00  0.00     0.066 A 
ATOM     23  C   UNK d   0      -6.805  -5.305  20.675  0.00  0.00     0.062 C 
ATOM     24  C   UNK d   0      -8.411  -4.744  18.645  0.00  0.00    -0.020 A 
ATOM     25  C   UNK d   0      -5.809  -6.122  21.231  0.00  0.00     0.041 A 
ATOM     26  N   UNK d   0      -5.676  -7.453  21.277  0.00  0.00    -0.355 N 
ATOM     27  C   UNK d   0      -4.704  -5.506  21.859  0.00  0.00    -0.022 A 
ATOM     28  C   UNK d   0      -4.520  -7.707  21.911  0.00  0.00     0.042 A 
ATOM     29  H   UNK d   0      -6.404  -8.207  20.889  0.00  0.00     0.166 HD
ATOM     30  C   UNK d   0      -3.889  -8.921  22.228  0.00  0.00     0.062 C 
ATOM     31  C   UNK d   0      -3.883  -6.502  22.291  0.00  0.00    -0.013 A 
ATOM     32  C   UNK d   0      -3.794 -10.064  21.450  0.00  0.00     0.066 A 
BRANCH   8  33
ATOM     33  C   UNK d   0      -2.912 -13.415  20.222  0.00  0.00     0.151 C 
BRANCH  33  34
ATOM     34  C   UNK d   0      -1.651 -13.433  19.459  0.00  0.00     0.143 C 
ATOM     35  O   UNK d   0      -1.643 -13.225  18.238  0.00  0.00    -0.650 OA
BRANCH  34  36
ATOM     36  O   UNK d   0      -0.469 -13.687  20.116  0.00  0.00    -0.776 OA
ATOM     37  H   UNK d   0       0.428 -13.714  19.611  0.00  0.00     0.167 HD
ENDBRANCH  34  36
ENDBRANCH  33  34
ENDBRANCH   8  33
BRANCH  31  38
ATOM     38  C   UNK d   0      -2.567  -6.323  23.011  0.00  0.00     0.151 C 
BRANCH  38  39
ATOM     39  C   UNK d   0      -1.438  -6.255  22.107  0.00  0.00     0.143 C 
ATOM     40  O   UNK d   0      -1.434  -5.525  21.101  0.00  0.00    -0.650 OA
BRANCH  39  41
ATOM     41  O   UNK d   0      -0.307  -7.030  22.363  0.00  0.00    -0.776 OA
ATOM     42  H   UNK d   0       0.297  -7.243  21.563  0.00  0.00     0.167 HD
ENDBRANCH  39  41
ENDBRANCH  38  39
ENDBRANCH  31  38
BRANCH  27  43
ATOM     43  C   UNK d   0      -4.410  -4.041  22.060  0.00  0.00     0.052 C 
BRANCH  43  44
ATOM     44  C   UNK d   0      -5.384  -3.361  22.967  0.00  0.00     0.115 C 
BRANCH  44  45
ATOM     45  C   UNK d   0      -5.141  -3.900  24.331  0.00  0.00     0.139 C 
ATOM     46  O   UNK d   0      -6.060  -4.558  24.879  0.00  0.00    -0.650 OA
BRANCH  45  47
ATOM     47  O   UNK d   0      -3.956  -3.712  25.008  0.00  0.00    -0.776 OA
ATOM     48  H   UNK d   0      -3.048  -3.600  24.529  0.00  0.00     0.167 HD
ENDBRANCH  45  47
ENDBRANCH  44  45
ENDBRANCH  43  44
ENDBRANCH  27  43
BRANCH  24  49
ATOM     49  C   UNK d   0      -8.964  -3.419  18.974  0.00  0.00     0.052 C 
BRANCH  49  50
ATOM     50  C   UNK d   0     -10.032  -3.543  20.031  0.00  0.00     0.115 C 
BRANCH  50  51
ATOM     51  C   UNK d   0     -11.393  -3.198  19.644  0.00  0.00     0.139 C 
ATOM     52  O   UNK d   0     -12.381  -3.413  20.386  0.00  0.00    -0.650 OA
BRANCH  51  53
ATOM     53  O   UNK d   0     -11.629  -2.611  18.411  0.00  0.00    -0.776 OA
ATOM     54  H   UNK d   0     -12.572  -2.592  18.066  0.00  0.00     0.167 HD
ENDBRANCH  51  53
ENDBRANCH  50  51
ENDBRANCH  49  50
ENDBRANCH  24  49
BRANCH  21  55
ATOM     55  C   UNK d   0      -9.534  -5.059  16.419  0.00  0.00     0.151 C 
BRANCH  55  56
ATOM     56  C   UNK d   0     -10.926  -5.471  16.651  0.00  0.00     0.143 C 
ATOM     57  O   UNK d   0     -11.900  -4.738  16.389  0.00  0.00    -0.650 OA
BRANCH  56  58
ATOM     58  O   UNK d   0     -11.148  -6.738  17.189  0.00  0.00    -0.776 OA
ATOM     59  H   UNK d   0     -11.943  -7.255  16.774  0.00  0.00     0.167 HD
ENDBRANCH  56  58
ENDBRANCH  55  56
ENDBRANCH  21  55
BRANCH  18  60
ATOM     60  C   UNK d   0      -9.009 -10.386  16.023  0.00  0.00     0.151 C 
BRANCH  60  61
ATOM     61  C   UNK d   0     -10.062 -10.096  17.008  0.00  0.00     0.143 C 
ATOM     62  O   UNK d   0      -9.987 -10.214  18.231  0.00  0.00    -0.650 OA
BRANCH  61  63
ATOM     63  O   UNK d   0     -11.283  -9.630  16.464  0.00  0.00    -0.776 OA
ATOM     64  H   UNK d   0     -11.800 -10.183  15.803  0.00  0.00     0.167 HD
ENDBRANCH  61  63
ENDBRANCH  60  61
ENDBRANCH  18  60
BRANCH  14  65
ATOM     65  C   UNK d   0      -7.132 -12.626  16.843  0.00  0.00     0.052 C 
BRANCH  65  66
ATOM     66  C   UNK d   0      -6.783 -12.987  15.443  0.00  0.00     0.115 C 
BRANCH  66  67
ATOM     67  C   UNK d   0      -7.764 -13.615  14.604  0.00  0.00     0.139 C 
ATOM     68  O   UNK d   0      -8.282 -14.726  14.991  0.00  0.00    -0.650 OA
BRANCH  67  69
ATOM     69  O   UNK d   0      -8.250 -13.166  13.377  0.00  0.00    -0.776 OA
ATOM     70  H   UNK d   0      -9.193 -13.494  13.121  0.00  0.00     0.167 HD
ENDBRANCH  67  69
ENDBRANCH  66  67
ENDBRANCH  65  66
ENDBRANCH  14  65
ENDBRANCH   6   7
ENDBRANCH   5   6
ENDBRANCH   2   5
TORSDOF 28
ENDMDL
MODEL 10
REMARK VINA RESULT:      -9.1      1.408      7.377
REMARK  28 active torsions:
REMARK  status: ('A' for Active; 'I' for Inactive)
REMARK    1  A    between atoms: C_2  and  O_3 
REMARK    2  A    between atoms: C_2  and  C_4 
REMARK    3  A    between atoms: C_4  and  C_5 
REMARK    4  A    between atoms: C_5  and  C_6 
REMARK    5  A    between atoms: C_7  and  C_8 
REMARK    6  A    between atoms: C_8  and  C_9 
REMARK    7  A    between atoms: C_9  and  O_11 
REMARK    8  A    between atoms: C_28  and  C_29 
REMARK    9  A    between atoms: C_29  and  C_30 
REMARK   10  A    between atoms: C_30  and  O_32 
REMARK   11  A    between atoms: C_33  and  C_34 
REMARK   12  A    between atoms: C_34  and  C_35 
REMARK   13  A    between atoms: C_35  and  C_36 
REMARK   14  A    between atoms: C_36  and  O_38 
REMARK   15  A    between atoms: C_39  and  C_40 
REMARK   16  A    between atoms: C_40  and  C_41 
REMARK   17  A    between atoms: C_41  and  C_42 
REMARK   18  A    between atoms: C_42  and  O_44 
REMARK   19  A    between atoms: C_45  and  C_46 
REMARK   20  A    between atoms: C_46  and  C_47 
REMARK   21  A    between atoms: C_47  and  O_49 
REMARK   22  A    between atoms: C_50  and  C_51 
REMARK   23  A    between atoms: C_51  and  C_52 
REMARK   24  A    between atoms: C_52  and  O_54 
REMARK   25  A    between atoms: C_55  and  C_56 
REMARK   26  A    between atoms: C_56  and  C_57 
REMARK   27  A    between atoms: C_57  and  C_58 
REMARK   28  A    between atoms: C_58  and  O_60 
ROOT
ATOM      1  O   UNK d   0      -6.481 -11.626  14.800  0.00  0.00    -0.650 OA
ATOM      2  C   UNK d   0      -7.144 -12.276  15.639  0.00  0.00     0.139 C 
ENDROOT
BRANCH   2   3
ATOM      3  O   UNK d   0      -7.977 -13.280  15.207  0.00  0.00    -0.776 OA
ATOM      4  H   UNK d   0      -7.835 -14.248  15.504  0.00  0.00     0.167 HD
ENDBRANCH   2   3
BRANCH   2   5
ATOM      5  C   UNK d   0      -7.028 -11.961  17.091  0.00  0.00     0.115 C 
BRANCH   5   6
ATOM      6  C   UNK d   0      -8.291 -11.305  17.580  0.00  0.00     0.052 C 
BRANCH   6   7
ATOM      7  C   UNK d   0      -8.171  -9.802  17.662  0.00  0.00    -0.020 A 
ATOM      8  C   UNK d   0      -8.716  -8.913  16.872  0.00  0.00    -0.011 A 
ATOM      9  C   UNK d   0      -8.312  -7.597  17.337  0.00  0.00     0.067 A 
ATOM     10  C   UNK d   0      -8.559  -6.268  16.956  0.00  0.00     0.062 C 
ATOM     11  N   UNK d   0      -7.516  -7.778  18.412  0.00  0.00    -0.248 NA
ATOM     12  C   UNK d   0      -8.302  -5.112  17.701  0.00  0.00     0.041 A 
ATOM     13  N   UNK d   0      -7.240  -4.758  18.450  0.00  0.00    -0.355 N 
ATOM     14  C   UNK d   0      -9.293  -4.117  17.777  0.00  0.00    -0.022 A 
ATOM     15  C   UNK d   0      -7.537  -3.568  19.007  0.00  0.00     0.042 A 
ATOM     16  H   UNK d   0      -6.293  -5.329  18.568  0.00  0.00     0.166 HD
ATOM     17  C   UNK d   0      -6.782  -2.752  19.873  0.00  0.00     0.062 C 
ATOM     18  C   UNK d   0      -8.816  -3.135  18.608  0.00  0.00    -0.013 A 
ATOM     19  C   UNK d   0      -6.056  -3.109  20.980  0.00  0.00     0.067 A 
ATOM     20  N   UNK d   0      -5.857  -4.415  21.177  0.00  0.00    -0.248 NA
ATOM     21  C   UNK d   0      -5.413  -2.408  22.079  0.00  0.00    -0.011 A 
ATOM     22  C   UNK d   0      -5.131  -4.618  22.326  0.00  0.00     0.066 A 
ATOM     23  C   UNK d   0      -4.819  -5.935  22.632  0.00  0.00     0.062 C 
ATOM     24  C   UNK d   0      -4.877  -3.297  22.865  0.00  0.00    -0.020 A 
ATOM     25  C   UNK d   0      -5.075  -7.081  21.864  0.00  0.00     0.041 A 
ATOM     26  N   UNK d   0      -6.136  -7.440  21.131  0.00  0.00    -0.355 N 
ATOM     27  C   UNK d   0      -4.077  -8.077  21.784  0.00  0.00    -0.022 A 
ATOM     28  C   UNK d   0      -5.846  -8.630  20.582  0.00  0.00     0.042 A 
ATOM     29  H   UNK d   0      -7.091  -6.870  21.022  0.00  0.00     0.166 HD
ATOM     30  C   UNK d   0      -6.591  -9.457  19.727  0.00  0.00     0.062 C 
ATOM     31  C   UNK d   0      -4.557  -9.060  20.975  0.00  0.00    -0.013 A 
ATOM     32  C   UNK d   0      -7.392  -9.083  18.660  0.00  0.00     0.066 A 
BRANCH   8  33
ATOM     33  C   UNK d   0      -9.584  -9.176  15.709  0.00  0.00     0.151 C 
BRANCH  33  34
ATOM     34  C   UNK d   0     -10.995  -8.830  15.960  0.00  0.00     0.143 C 
ATOM     35  O   UNK d   0     -11.507  -9.014  17.073  0.00  0.00    -0.650 OA
BRANCH  34  36
ATOM     36  O   UNK d   0     -11.750  -8.295  14.942  0.00  0.00    -0.776 OA
ATOM     37  H   UNK d   0     -12.377  -7.496  15.105  0.00  0.00     0.167 HD
ENDBRANCH  34  36
ENDBRANCH  33  34
ENDBRANCH   8  33
BRANCH  31  38
ATOM     38  C   UNK d   0      -3.831 -10.327  20.585  0.00  0.00     0.151 C 
BRANCH  38  39
ATOM     39  C   UNK d   0      -3.926 -11.361  21.593  0.00  0.00     0.143 C 
ATOM     40  O   UNK d   0      -2.922 -11.899  22.091  0.00  0.00    -0.650 OA
BRANCH  39  41
ATOM     41  O   UNK d   0      -5.183 -11.779  22.030  0.00  0.00    -0.776 OA
ATOM     42  H   UNK d   0      -5.611 -12.561  21.525  0.00  0.00     0.167 HD
ENDBRANCH  39  41
ENDBRANCH  38  39
ENDBRANCH  31  38
BRANCH  27  43
ATOM     43  C   UNK d   0      -2.718  -8.126  22.437  0.00  0.00     0.052 C 
BRANCH  43  44
ATOM     44  C   UNK d   0      -1.888  -6.913  22.166  0.00  0.00     0.115 C 
BRANCH  44  45
ATOM     45  C   UNK d   0      -1.047  -6.697  23.372  0.00  0.00     0.139 C 
ATOM     46  O   UNK d   0       0.112  -6.240  23.210  0.00  0.00    -0.650 OA
BRANCH  45  47
ATOM     47  O   UNK d   0      -1.486  -6.972  24.649  0.00  0.00    -0.776 OA
ATOM     48  H   UNK d   0      -1.022  -7.658  25.265  0.00  0.00     0.167 HD
ENDBRANCH  45  47
ENDBRANCH  44  45
ENDBRANCH  43  44
ENDBRANCH  27  43
BRANCH  24  49
ATOM     49  C   UNK d   0      -4.093  -3.021  24.081  0.00  0.00     0.052 C 
BRANCH  49  50
ATOM     50  C   UNK d   0      -2.672  -3.493  23.907  0.00  0.00     0.115 C 
BRANCH  50  51
ATOM     51  C   UNK d   0      -1.805  -3.437  25.076  0.00  0.00     0.139 C 
ATOM     52  O   UNK d   0      -0.559  -3.332  24.989  0.00  0.00    -0.650 OA
BRANCH  51  53
ATOM     53  O   UNK d   0      -2.359  -3.502  26.345  0.00  0.00    -0.776 OA
ATOM     54  H   UNK d   0      -2.535  -4.409  26.741  0.00  0.00     0.167 HD
ENDBRANCH  51  53
ENDBRANCH  50  51
ENDBRANCH  49  50
ENDBRANCH  24  49
BRANCH  21  55
ATOM     55  C   UNK d   0      -5.397  -0.922  22.226  0.00  0.00     0.151 C 
BRANCH  55  56
ATOM     56  C   UNK d   0      -6.754  -0.363  22.319  0.00  0.00     0.143 C 
ATOM     57  O   UNK d   0      -7.198   0.470  21.504  0.00  0.00    -0.650 OA
BRANCH  56  58
ATOM     58  O   UNK d   0      -7.564  -0.794  23.368  0.00  0.00    -0.776 OA
ATOM     59  H   UNK d   0      -8.582  -0.754  23.179  0.00  0.00     0.167 HD
ENDBRANCH  56  58
ENDBRANCH  55  56
ENDBRANCH  21  55
BRANCH  18  60
ATOM     60  C   UNK d   0      -9.562  -1.877  18.978  0.00  0.00     0.151 C 
BRANCH  60  61
ATOM     61  C   UNK d   0      -9.092  -0.840  18.047  0.00  0.00     0.143 C 
ATOM     62  O   UNK d   0      -9.330  -0.761  16.842  0.00  0.00    -0.650 OA
BRANCH  61  63
ATOM     63  O   UNK d   0      -8.280   0.166  18.626  0.00  0.00    -0.776 OA
ATOM     64  H   UNK d   0      -8.685   1.001  19.009  0.00  0.00     0.167 HD
ENDBRANCH  61  63
ENDBRANCH  60  61
ENDBRANCH  18  60
BRANCH  14  65
ATOM     65  C   UNK d   0     -10.603  -3.980  17.054  0.00  0.00     0.052 C 
BRANCH  65  66
ATOM     66  C   UNK d   0     -11.738  -4.610  17.781  0.00  0.00     0.115 C 
BRANCH  66  67
ATOM     67  C   UNK d   0     -12.790  -5.249  17.043  0.00  0.00     0.139 C 
ATOM     68  O   UNK d   0     -13.377  -6.267  17.565  0.00  0.00    -0.650 OA
BRANCH  67  69
ATOM     69  O   UNK d   0     -13.281  -4.902  15.785  0.00  0.00    -0.776 OA
ATOM     70  H   UNK d   0     -13.629  -3.937  15.690  0.00  0.00     0.167 HD
ENDBRANCH  67  69
ENDBRANCH  66  67
ENDBRANCH  65  66
ENDBRANCH  14  65
ENDBRANCH   6   7
ENDBRANCH   5   6
ENDBRANCH   2   5
TORSDOF 28
ENDMDL
MODEL 11
REMARK VINA RESULT:      -9.1      1.872      7.482
REMARK  28 active torsions:
REMARK  status: ('A' for Active; 'I' for Inactive)
REMARK    1  A    between atoms: C_2  and  O_3 
REMARK    2  A    between atoms: C_2  and  C_4 
REMARK    3  A    between atoms: C_4  and  C_5 
REMARK    4  A    between atoms: C_5  and  C_6 
REMARK    5  A    between atoms: C_7  and  C_8 
REMARK    6  A    between atoms: C_8  and  C_9 
REMARK    7  A    between atoms: C_9  and  O_11 
REMARK    8  A    between atoms: C_28  and  C_29 
REMARK    9  A    between atoms: C_29  and  C_30 
REMARK   10  A    between atoms: C_30  and  O_32 
REMARK   11  A    between atoms: C_33  and  C_34 
REMARK   12  A    between atoms: C_34  and  C_35 
REMARK   13  A    between atoms: C_35  and  C_36 
REMARK   14  A    between atoms: C_36  and  O_38 
REMARK   15  A    between atoms: C_39  and  C_40 
REMARK   16  A    between atoms: C_40  and  C_41 
REMARK   17  A    between atoms: C_41  and  C_42 
REMARK   18  A    between atoms: C_42  and  O_44 
REMARK   19  A    between atoms: C_45  and  C_46 
REMARK   20  A    between atoms: C_46  and  C_47 
REMARK   21  A    between atoms: C_47  and  O_49 
REMARK   22  A    between atoms: C_50  and  C_51 
REMARK   23  A    between atoms: C_51  and  C_52 
REMARK   24  A    between atoms: C_52  and  O_54 
REMARK   25  A    between atoms: C_55  and  C_56 
REMARK   26  A    between atoms: C_56  and  C_57 
REMARK   27  A    between atoms: C_57  and  C_58 
REMARK   28  A    between atoms: C_58  and  O_60 
ROOT
ATOM      1  O   UNK d   0      -9.306 -11.446  13.708  0.00  0.00    -0.650 OA
ATOM      2  C   UNK d   0     -10.351 -11.387  14.394  0.00  0.00     0.139 C 
ENDROOT
BRANCH   2   3
ATOM      3  O   UNK d   0     -10.795 -12.514  15.043  0.00  0.00    -0.776 OA
ATOM      4  H   UNK d   0     -11.047 -13.357  14.524  0.00  0.00     0.167 HD
ENDBRANCH   2   3
BRANCH   2   5
ATOM      5  C   UNK d   0     -11.103 -10.105  14.503  0.00  0.00     0.115 C 
BRANCH   5   6
ATOM      6  C   UNK d   0     -11.461  -9.836  15.939  0.00  0.00     0.052 C 
BRANCH   6   7
ATOM      7  C   UNK d   0     -10.474  -8.921  16.623  0.00  0.00    -0.020 A 
ATOM      8  C   UNK d   0     -10.471  -7.613  16.632  0.00  0.00    -0.011 A 
ATOM      9  C   UNK d   0      -9.325  -7.175  17.411  0.00  0.00     0.067 A 
ATOM     10  C   UNK d   0      -8.783  -5.944  17.811  0.00  0.00     0.062 C 
ATOM     11  N   UNK d   0      -8.682  -8.283  17.835  0.00  0.00    -0.248 NA
ATOM     12  C   UNK d   0      -7.820  -5.723  18.802  0.00  0.00     0.041 A 
ATOM     13  N   UNK d   0      -6.683  -6.382  19.095  0.00  0.00    -0.355 N 
ATOM     14  C   UNK d   0      -8.024  -4.686  19.730  0.00  0.00    -0.022 A 
ATOM     15  C   UNK d   0      -6.164  -5.795  20.190  0.00  0.00     0.042 A 
ATOM     16  H   UNK d   0      -6.245  -7.233  18.528  0.00  0.00     0.166 HD
ATOM     17  C   UNK d   0      -4.989  -6.085  20.912  0.00  0.00     0.062 C 
ATOM     18  C   UNK d   0      -6.977  -4.727  20.617  0.00  0.00    -0.013 A 
ATOM     19  C   UNK d   0      -4.502  -7.303  21.312  0.00  0.00     0.067 A 
ATOM     20  N   UNK d   0      -5.088  -8.387  20.799  0.00  0.00    -0.248 NA
ATOM     21  C   UNK d   0      -3.460  -7.766  22.214  0.00  0.00    -0.011 A 
ATOM     22  C   UNK d   0      -4.507  -9.526  21.301  0.00  0.00     0.066 A 
ATOM     23  C   UNK d   0      -4.997 -10.731  20.821  0.00  0.00     0.062 C 
ATOM     24  C   UNK d   0      -3.471  -9.067  22.206  0.00  0.00    -0.020 A 
ATOM     25  C   UNK d   0      -5.956 -10.931  19.816  0.00  0.00     0.041 A 
ATOM     26  N   UNK d   0      -7.094 -10.285  19.533  0.00  0.00    -0.355 N 
ATOM     27  C   UNK d   0      -5.748 -11.969  18.882  0.00  0.00    -0.022 A 
ATOM     28  C   UNK d   0      -7.617 -10.875  18.447  0.00  0.00     0.042 A 
ATOM     29  H   UNK d   0      -7.537  -9.437  20.110  0.00  0.00     0.166 HD
ATOM     30  C   UNK d   0      -8.789 -10.603  17.724  0.00  0.00     0.062 C 
ATOM     31  C   UNK d   0      -6.794 -11.941  18.012  0.00  0.00    -0.013 A 
ATOM     32  C   UNK d   0      -9.323  -9.367  17.395  0.00  0.00     0.066 A 
BRANCH   8  33
ATOM     33  C   UNK d   0     -11.443  -6.721  15.972  0.00  0.00     0.151 C 
BRANCH  33  34
ATOM     34  C   UNK d   0     -12.427  -6.155  16.911  0.00  0.00     0.143 C 
ATOM     35  O   UNK d   0     -13.296  -6.869  17.431  0.00  0.00    -0.650 OA
BRANCH  34  36
ATOM     36  O   UNK d   0     -12.379  -4.813  17.212  0.00  0.00    -0.776 OA
ATOM     37  H   UNK d   0     -12.984  -4.135  16.729  0.00  0.00     0.167 HD
ENDBRANCH  34  36
ENDBRANCH  33  34
ENDBRANCH   8  33
BRANCH  31  38
ATOM     38  C   UNK d   0      -6.996 -12.860  16.830  0.00  0.00     0.151 C 
BRANCH  38  39
ATOM     39  C   UNK d   0      -6.548 -12.278  15.583  0.00  0.00     0.143 C 
ATOM     40  O   UNK d   0      -5.865 -11.239  15.540  0.00  0.00    -0.650 OA
BRANCH  39  41
ATOM     41  O   UNK d   0      -6.886 -12.893  14.378  0.00  0.00    -0.776 OA
ATOM     42  H   UNK d   0      -6.810 -13.915  14.344  0.00  0.00     0.167 HD
ENDBRANCH  39  41
ENDBRANCH  38  39
ENDBRANCH  31  38
BRANCH  27  43
ATOM     43  C   UNK d   0      -4.618 -12.965  18.791  0.00  0.00     0.052 C 
BRANCH  43  44
ATOM     44  C   UNK d   0      -3.306 -12.339  18.447  0.00  0.00     0.115 C 
BRANCH  44  45
ATOM     45  C   UNK d   0      -2.260 -13.350  18.754  0.00  0.00     0.139 C 
ATOM     46  O   UNK d   0      -1.257 -13.411  18.002  0.00  0.00    -0.650 OA
BRANCH  45  47
ATOM     47  O   UNK d   0      -2.346 -14.212  19.827  0.00  0.00    -0.776 OA
ATOM     48  H   UNK d   0      -1.822 -15.100  19.875  0.00  0.00     0.167 HD
ENDBRANCH  45  47
ENDBRANCH  44  45
ENDBRANCH  43  44
ENDBRANCH  27  43
BRANCH  24  49
ATOM     49  C   UNK d   0      -2.553  -9.948  22.949  0.00  0.00     0.052 C 
BRANCH  49  50
ATOM     50  C   UNK d   0      -3.327 -10.845  23.881  0.00  0.00     0.115 C 
BRANCH  50  51
ATOM     51  C   UNK d   0      -3.625 -12.192  23.414  0.00  0.00     0.139 C 
ATOM     52  O   UNK d   0      -4.549 -12.887  23.899  0.00  0.00    -0.650 OA
BRANCH  51  53
ATOM     53  O   UNK d   0      -2.869 -12.747  22.393  0.00  0.00    -0.776 OA
ATOM     54  H   UNK d   0      -2.030 -13.243  22.640  0.00  0.00     0.167 HD
ENDBRANCH  51  53
ENDBRANCH  50  51
ENDBRANCH  49  50
ENDBRANCH  24  49
BRANCH  21  55
ATOM     55  C   UNK d   0      -2.559  -6.859  22.985  0.00  0.00     0.151 C 
BRANCH  55  56
ATOM     56  C   UNK d   0      -1.348  -6.509  22.228  0.00  0.00     0.143 C 
ATOM     57  O   UNK d   0      -0.247  -7.062  22.423  0.00  0.00    -0.650 OA
BRANCH  56  58
ATOM     58  O   UNK d   0      -1.454  -5.517  21.255  0.00  0.00    -0.776 OA
ATOM     59  H   UNK d   0      -0.831  -5.639  20.437  0.00  0.00     0.167 HD
ENDBRANCH  56  58
ENDBRANCH  55  56
ENDBRANCH  21  55
BRANCH  18  60
ATOM     60  C   UNK d   0      -6.800  -3.793  21.788  0.00  0.00     0.151 C 
BRANCH  60  61
ATOM     61  C   UNK d   0      -5.776  -2.820  21.377  0.00  0.00     0.143 C 
ATOM     62  O   UNK d   0      -4.652  -2.678  21.859  0.00  0.00    -0.650 OA
BRANCH  61  63
ATOM     63  O   UNK d   0      -6.148  -1.968  20.310  0.00  0.00    -0.776 OA
ATOM     64  H   UNK d   0      -5.457  -1.570  19.699  0.00  0.00     0.167 HD
ENDBRANCH  61  63
ENDBRANCH  60  61
ENDBRANCH  18  60
BRANCH  14  65
ATOM     65  C   UNK d   0      -9.070  -3.609  19.783  0.00  0.00     0.052 C 
BRANCH  65  66
ATOM     66  C   UNK d   0     -10.286  -4.016  20.536  0.00  0.00     0.115 C 
BRANCH  66  67
ATOM     67  C   UNK d   0     -11.532  -3.346  20.291  0.00  0.00     0.139 C 
ATOM     68  O   UNK d   0     -11.752  -2.869  19.117  0.00  0.00    -0.650 OA
BRANCH  67  69
ATOM     69  O   UNK d   0     -12.578  -3.134  21.188  0.00  0.00    -0.776 OA
ATOM     70  H   UNK d   0     -12.665  -3.826  21.946  0.00  0.00     0.167 HD
ENDBRANCH  67  69
ENDBRANCH  66  67
ENDBRANCH  65  66
ENDBRANCH  14  65
ENDBRANCH   6   7
ENDBRANCH   5   6
ENDBRANCH   2   5
TORSDOF 28
ENDMDL
MODEL 12
REMARK VINA RESULT:      -9.0      1.779      8.130
REMARK  28 active torsions:
REMARK  status: ('A' for Active; 'I' for Inactive)
REMARK    1  A    between atoms: C_2  and  O_3 
REMARK    2  A    between atoms: C_2  and  C_4 
REMARK    3  A    between atoms: C_4  and  C_5 
REMARK    4  A    between atoms: C_5  and  C_6 
REMARK    5  A    between atoms: C_7  and  C_8 
REMARK    6  A    between atoms: C_8  and  C_9 
REMARK    7  A    between atoms: C_9  and  O_11 
REMARK    8  A    between atoms: C_28  and  C_29 
REMARK    9  A    between atoms: C_29  and  C_30 
REMARK   10  A    between atoms: C_30  and  O_32 
REMARK   11  A    between atoms: C_33  and  C_34 
REMARK   12  A    between atoms: C_34  and  C_35 
REMARK   13  A    between atoms: C_35  and  C_36 
REMARK   14  A    between atoms: C_36  and  O_38 
REMARK   15  A    between atoms: C_39  and  C_40 
REMARK   16  A    between atoms: C_40  and  C_41 
REMARK   17  A    between atoms: C_41  and  C_42 
REMARK   18  A    between atoms: C_42  and  O_44 
REMARK   19  A    between atoms: C_45  and  C_46 
REMARK   20  A    between atoms: C_46  and  C_47 
REMARK   21  A    between atoms: C_47  and  O_49 
REMARK   22  A    between atoms: C_50  and  C_51 
REMARK   23  A    between atoms: C_51  and  C_52 
REMARK   24  A    between atoms: C_52  and  O_54 
REMARK   25  A    between atoms: C_55  and  C_56 
REMARK   26  A    between atoms: C_56  and  C_57 
REMARK   27  A    between atoms: C_57  and  C_58 
REMARK   28  A    between atoms: C_58  and  O_60 
ROOT
ATOM      1  O   UNK d   0      -4.577 -12.307  22.682  0.00  0.00    -0.650 OA
ATOM      2  C   UNK d   0      -4.056 -11.352  23.299  0.00  0.00     0.139 C 
ENDROOT
BRANCH   2   3
ATOM      3  O   UNK d   0      -3.699 -11.515  24.616  0.00  0.00    -0.776 OA
ATOM      4  H   UNK d   0      -3.075 -12.272  24.903  0.00  0.00     0.167 HD
ENDBRANCH   2   3
BRANCH   2   5
ATOM      5  C   UNK d   0      -3.828 -10.051  22.608  0.00  0.00     0.115 C 
BRANCH   5   6
ATOM      6  C   UNK d   0      -3.293 -10.288  21.222  0.00  0.00     0.052 C 
BRANCH   6   7
ATOM      7  C   UNK d   0      -4.301  -9.961  20.146  0.00  0.00    -0.020 A 
ATOM      8  C   UNK d   0      -4.574 -10.653  19.070  0.00  0.00    -0.011 A 
ATOM      9  C   UNK d   0      -5.604  -9.942  18.332  0.00  0.00     0.067 A 
ATOM     10  C   UNK d   0      -6.327 -10.150  17.147  0.00  0.00     0.062 C 
ATOM     11  N   UNK d   0      -5.896  -8.824  19.028  0.00  0.00    -0.248 NA
ATOM     12  C   UNK d   0      -7.488  -9.486  16.735  0.00  0.00     0.041 A 
ATOM     13  N   UNK d   0      -7.826  -8.184  16.778  0.00  0.00    -0.355 N 
ATOM     14  C   UNK d   0      -8.559 -10.242  16.225  0.00  0.00    -0.022 A 
ATOM     15  C   UNK d   0      -9.088  -8.094  16.315  0.00  0.00     0.042 A 
ATOM     16  H   UNK d   0      -7.180  -7.342  17.111  0.00  0.00     0.166 HD
ATOM     17  C   UNK d   0      -9.921  -6.971  16.147  0.00  0.00     0.062 C 
ATOM     18  C   UNK d   0      -9.581  -9.364  15.959  0.00  0.00    -0.013 A 
ATOM     19  C   UNK d   0     -10.143  -5.925  17.006  0.00  0.00     0.067 A 
ATOM     20  N   UNK d   0      -9.332  -5.828  18.063  0.00  0.00    -0.248 NA
ATOM     21  C   UNK d   0     -11.092  -4.828  17.094  0.00  0.00    -0.011 A 
ATOM     22  C   UNK d   0      -9.683  -4.748  18.836  0.00  0.00     0.066 A 
ATOM     23  C   UNK d   0      -8.896  -4.507  19.952  0.00  0.00     0.062 C 
ATOM     24  C   UNK d   0     -10.821  -4.145  18.168  0.00  0.00    -0.020 A 
ATOM     25  C   UNK d   0      -7.726  -5.178  20.341  0.00  0.00     0.041 A 
ATOM     26  N   UNK d   0      -7.395  -6.474  20.312  0.00  0.00    -0.355 N 
ATOM     27  C   UNK d   0      -6.650  -4.418  20.849  0.00  0.00    -0.022 A 
ATOM     28  C   UNK d   0      -6.141  -6.567  20.782  0.00  0.00     0.042 A 
ATOM     29  H   UNK d   0      -8.050  -7.320  19.988  0.00  0.00     0.166 HD
ATOM     30  C   UNK d   0      -5.303  -7.679  20.963  0.00  0.00     0.062 C 
ATOM     31  C   UNK d   0      -5.642  -5.289  21.130  0.00  0.00    -0.013 A 
ATOM     32  C   UNK d   0      -5.147  -8.776  20.131  0.00  0.00     0.066 A 
BRANCH   8  33
ATOM     33  C   UNK d   0      -3.955 -11.927  18.657  0.00  0.00     0.151 C 
BRANCH  33  34
ATOM     34  C   UNK d   0      -4.567 -13.097  19.312  0.00  0.00     0.143 C 
ATOM     35  O   UNK d   0      -5.780 -13.123  19.564  0.00  0.00    -0.650 OA
BRANCH  34  36
ATOM     36  O   UNK d   0      -3.778 -14.173  19.648  0.00  0.00    -0.776 OA
ATOM     37  H   UNK d   0      -4.092 -14.872  20.334  0.00  0.00     0.167 HD
ENDBRANCH  34  36
ENDBRANCH  33  34
ENDBRANCH   8  33
BRANCH  31  38
ATOM     38  C   UNK d   0      -4.283  -4.932  21.683  0.00  0.00     0.151 C 
BRANCH  38  39
ATOM     39  C   UNK d   0      -4.229  -5.000  23.128  0.00  0.00     0.143 C 
ATOM     40  O   UNK d   0      -5.253  -5.032  23.831  0.00  0.00    -0.650 OA
BRANCH  39  41
ATOM     41  O   UNK d   0      -2.990  -5.032  23.767  0.00  0.00    -0.776 OA
ATOM     42  H   UNK d   0      -2.934  -4.587  24.689  0.00  0.00     0.167 HD
ENDBRANCH  39  41
ENDBRANCH  38  39
ENDBRANCH  31  38
BRANCH  27  43
ATOM     43  C   UNK d   0      -6.548  -2.930  21.074  0.00  0.00     0.052 C 
BRANCH  43  44
ATOM     44  C   UNK d   0      -7.028  -2.503  22.423  0.00  0.00     0.115 C 
BRANCH  44  45
ATOM     45  C   UNK d   0      -5.972  -1.624  22.990  0.00  0.00     0.139 C 
ATOM     46  O   UNK d   0      -5.843  -1.584  24.239  0.00  0.00    -0.650 OA
BRANCH  45  47
ATOM     47  O   UNK d   0      -5.131  -0.864  22.206  0.00  0.00    -0.776 OA
ATOM     48  H   UNK d   0      -5.427   0.021  21.763  0.00  0.00     0.167 HD
ENDBRANCH  45  47
ENDBRANCH  44  45
ENDBRANCH  43  44
ENDBRANCH  27  43
BRANCH  24  49
ATOM     49  C   UNK d   0     -11.513  -2.927  18.622  0.00  0.00     0.052 C 
BRANCH  49  50
ATOM     50  C   UNK d   0     -10.513  -1.896  19.081  0.00  0.00     0.115 C 
BRANCH  50  51
ATOM     51  C   UNK d   0     -10.279  -0.758  18.203  0.00  0.00     0.139 C 
ATOM     52  O   UNK d   0      -9.566  -0.833  17.174  0.00  0.00    -0.650 OA
BRANCH  51  53
ATOM     53  O   UNK d   0     -10.858   0.467  18.498  0.00  0.00    -0.776 OA
ATOM     54  H   UNK d   0     -10.295   1.158  18.962  0.00  0.00     0.167 HD
ENDBRANCH  51  53
ENDBRANCH  50  51
ENDBRANCH  49  50
ENDBRANCH  24  49
BRANCH  21  55
ATOM     55  C   UNK d   0     -12.169  -4.573  16.091  0.00  0.00     0.151 C 
BRANCH  55  56
ATOM     56  C   UNK d   0     -13.473  -5.083  16.542  0.00  0.00     0.143 C 
ATOM     57  O   UNK d   0     -13.716  -6.300  16.666  0.00  0.00    -0.650 OA
BRANCH  56  58
ATOM     58  O   UNK d   0     -14.468  -4.152  16.837  0.00  0.00    -0.776 OA
ATOM     59  H   UNK d   0     -15.084  -3.906  16.042  0.00  0.00     0.167 HD
ENDBRANCH  56  58
ENDBRANCH  55  56
ENDBRANCH  21  55
BRANCH  18  60
ATOM     60  C   UNK d   0     -10.929  -9.750  15.403  0.00  0.00     0.151 C 
BRANCH  60  61
ATOM     61  C   UNK d   0     -11.676 -10.337  16.526  0.00  0.00     0.143 C 
ATOM     62  O   UNK d   0     -12.357 -11.363  16.509  0.00  0.00    -0.650 OA
BRANCH  61  63
ATOM     63  O   UNK d   0     -11.586  -9.625  17.746  0.00  0.00    -0.776 OA
ATOM     64  H   UNK d   0     -10.992  -9.944  18.490  0.00  0.00     0.167 HD
ENDBRANCH  61  63
ENDBRANCH  60  61
ENDBRANCH  18  60
BRANCH  14  65
ATOM     65  C   UNK d   0      -8.654 -11.701  15.880  0.00  0.00     0.052 C 
BRANCH  65  66
ATOM     66  C   UNK d   0      -7.933 -12.051  14.628  0.00  0.00     0.115 C 
BRANCH  66  67
ATOM     67  C   UNK d   0      -8.671 -12.515  13.487  0.00  0.00     0.139 C 
ATOM     68  O   UNK d   0      -8.301 -13.607  12.919  0.00  0.00    -0.650 OA
BRANCH  67  69
ATOM     69  O   UNK d   0      -9.779 -11.916  12.887  0.00  0.00    -0.776 OA
ATOM     70  H   UNK d   0     -10.081 -11.021  13.297  0.00  0.00     0.167 HD
ENDBRANCH  67  69
ENDBRANCH  66  67
ENDBRANCH  65  66
ENDBRANCH  14  65
ENDBRANCH   6   7
ENDBRANCH   5   6
ENDBRANCH   2   5
TORSDOF 28
ENDMDL
MODEL 13
REMARK VINA RESULT:      -8.9      1.614      7.530
REMARK  28 active torsions:
REMARK  status: ('A' for Active; 'I' for Inactive)
REMARK    1  A    between atoms: C_2  and  O_3 
REMARK    2  A    between atoms: C_2  and  C_4 
REMARK    3  A    between atoms: C_4  and  C_5 
REMARK    4  A    between atoms: C_5  and  C_6 
REMARK    5  A    between atoms: C_7  and  C_8 
REMARK    6  A    between atoms: C_8  and  C_9 
REMARK    7  A    between atoms: C_9  and  O_11 
REMARK    8  A    between atoms: C_28  and  C_29 
REMARK    9  A    between atoms: C_29  and  C_30 
REMARK   10  A    between atoms: C_30  and  O_32 
REMARK   11  A    between atoms: C_33  and  C_34 
REMARK   12  A    between atoms: C_34  and  C_35 
REMARK   13  A    between atoms: C_35  and  C_36 
REMARK   14  A    between atoms: C_36  and  O_38 
REMARK   15  A    between atoms: C_39  and  C_40 
REMARK   16  A    between atoms: C_40  and  C_41 
REMARK   17  A    between atoms: C_41  and  C_42 
REMARK   18  A    between atoms: C_42  and  O_44 
REMARK   19  A    between atoms: C_45  and  C_46 
REMARK   20  A    between atoms: C_46  and  C_47 
REMARK   21  A    between atoms: C_47  and  O_49 
REMARK   22  A    between atoms: C_50  and  C_51 
REMARK   23  A    between atoms: C_51  and  C_52 
REMARK   24  A    between atoms: C_52  and  O_54 
REMARK   25  A    between atoms: C_55  and  C_56 
REMARK   26  A    between atoms: C_56  and  C_57 
REMARK   27  A    between atoms: C_57  and  C_58 
REMARK   28  A    between atoms: C_58  and  O_60 
ROOT
ATOM      1  O   UNK d   0      -9.122 -11.016  14.196  0.00  0.00    -0.650 OA
ATOM      2  C   UNK d   0     -10.151 -11.643  14.534  0.00  0.00     0.139 C 
ENDROOT
BRANCH   2   3
ATOM      3  O   UNK d   0     -10.060 -12.986  14.810  0.00  0.00    -0.776 OA
ATOM      4  H   UNK d   0     -10.873 -13.514  15.134  0.00  0.00     0.167 HD
ENDBRANCH   2   3
BRANCH   2   5
ATOM      5  C   UNK d   0     -11.459 -10.937  14.634  0.00  0.00     0.115 C 
BRANCH   5   6
ATOM      6  C   UNK d   0     -11.771 -10.624  16.072  0.00  0.00     0.052 C 
BRANCH   6   7
ATOM      7  C   UNK d   0     -10.933  -9.491  16.615  0.00  0.00    -0.020 A 
ATOM      8  C   UNK d   0     -11.147  -8.207  16.485  0.00  0.00    -0.011 A 
ATOM      9  C   UNK d   0     -10.072  -7.506  17.167  0.00  0.00     0.067 A 
ATOM     10  C   UNK d   0      -9.732  -6.166  17.412  0.00  0.00     0.062 C 
ATOM     11  N   UNK d   0      -9.245  -8.441  17.680  0.00  0.00    -0.248 NA
ATOM     12  C   UNK d   0      -8.798  -5.684  18.335  0.00  0.00     0.041 A 
ATOM     13  N   UNK d   0      -7.561  -6.113  18.651  0.00  0.00    -0.355 N 
ATOM     14  C   UNK d   0      -9.150  -4.597  19.155  0.00  0.00    -0.022 A 
ATOM     15  C   UNK d   0      -7.123  -5.331  19.655  0.00  0.00     0.042 A 
ATOM     16  H   UNK d   0      -7.001  -6.940  18.160  0.00  0.00     0.166 HD
ATOM     17  C   UNK d   0      -5.901  -5.345  20.357  0.00  0.00     0.062 C 
ATOM     18  C   UNK d   0      -8.092  -4.369  20.000  0.00  0.00    -0.013 A 
ATOM     19  C   UNK d   0      -5.210  -6.416  20.864  0.00  0.00     0.067 A 
ATOM     20  N   UNK d   0      -5.620  -7.631  20.493  0.00  0.00    -0.248 NA
ATOM     21  C   UNK d   0      -4.086  -6.601  21.767  0.00  0.00    -0.011 A 
ATOM     22  C   UNK d   0      -4.847  -8.598  21.089  0.00  0.00     0.066 A 
ATOM     23  C   UNK d   0      -5.142  -9.913  20.759  0.00  0.00     0.062 C 
ATOM     24  C   UNK d   0      -3.882  -7.880  21.898  0.00  0.00    -0.020 A 
ATOM     25  C   UNK d   0      -6.076 -10.375  19.820  0.00  0.00     0.041 A 
ATOM     26  N   UNK d   0      -7.311  -9.958  19.516  0.00  0.00    -0.355 N 
ATOM     27  C   UNK d   0      -5.720 -11.464  18.993  0.00  0.00    -0.022 A 
ATOM     28  C   UNK d   0      -7.754 -10.742  18.520  0.00  0.00     0.042 A 
ATOM     29  H   UNK d   0      -7.876  -9.135  20.017  0.00  0.00     0.166 HD
ATOM     30  C   UNK d   0      -8.970 -10.745  17.819  0.00  0.00     0.062 C 
ATOM     31  C   UNK d   0      -6.775 -11.702  18.168  0.00  0.00    -0.013 A 
ATOM     32  C   UNK d   0      -9.708  -9.656  17.383  0.00  0.00     0.066 A 
BRANCH   8  33
ATOM     33  C   UNK d   0     -12.267  -7.564  15.773  0.00  0.00     0.151 C 
BRANCH  33  34
ATOM     34  C   UNK d   0     -13.021  -6.626  16.625  0.00  0.00     0.143 C 
ATOM     35  O   UNK d   0     -12.918  -5.401  16.469  0.00  0.00    -0.650 OA
BRANCH  34  36
ATOM     36  O   UNK d   0     -13.848  -7.121  17.607  0.00  0.00    -0.776 OA
ATOM     37  H   UNK d   0     -14.366  -8.001  17.475  0.00  0.00     0.167 HD
ENDBRANCH  34  36
ENDBRANCH  33  34
ENDBRANCH   8  33
BRANCH  31  38
ATOM     38  C   UNK d   0      -6.848 -12.767  17.099  0.00  0.00     0.151 C 
BRANCH  38  39
ATOM     39  C   UNK d   0      -6.493 -12.271  15.786  0.00  0.00     0.143 C 
ATOM     40  O   UNK d   0      -5.868 -11.208  15.623  0.00  0.00    -0.650 OA
BRANCH  39  41
ATOM     41  O   UNK d   0      -6.859 -13.000  14.655  0.00  0.00    -0.776 OA
ATOM     42  H   UNK d   0      -6.279 -13.813  14.423  0.00  0.00     0.167 HD
ENDBRANCH  39  41
ENDBRANCH  38  39
ENDBRANCH  31  38
BRANCH  27  43
ATOM     43  C   UNK d   0      -4.443 -12.267  18.964  0.00  0.00     0.052 C 
BRANCH  43  44
ATOM     44  C   UNK d   0      -4.608 -13.657  19.486  0.00  0.00     0.115 C 
BRANCH  44  45
ATOM     45  C   UNK d   0      -5.233 -13.535  20.829  0.00  0.00     0.139 C 
ATOM     46  O   UNK d   0      -6.390 -13.997  20.987  0.00  0.00    -0.650 OA
BRANCH  45  47
ATOM     47  O   UNK d   0      -4.596 -12.945  21.899  0.00  0.00    -0.776 OA
ATOM     48  H   UNK d   0      -5.054 -12.798  22.812  0.00  0.00     0.167 HD
ENDBRANCH  45  47
ENDBRANCH  44  45
ENDBRANCH  43  44
ENDBRANCH  27  43
BRANCH  24  49
ATOM     49  C   UNK d   0      -2.815  -8.512  22.693  0.00  0.00     0.052 C 
BRANCH  49  50
ATOM     50  C   UNK d   0      -2.977 -10.011  22.691  0.00  0.00     0.115 C 
BRANCH  50  51
ATOM     51  C   UNK d   0      -2.725 -10.709  23.944  0.00  0.00     0.139 C 
ATOM     52  O   UNK d   0      -1.664 -10.565  24.597  0.00  0.00    -0.650 OA
BRANCH  51  53
ATOM     53  O   UNK d   0      -3.682 -11.574  24.452  0.00  0.00    -0.776 OA
ATOM     54  H   UNK d   0      -3.897 -11.522  25.432  0.00  0.00     0.167 HD
ENDBRANCH  51  53
ENDBRANCH  50  51
ENDBRANCH  49  50
ENDBRANCH  24  49
BRANCH  21  55
ATOM     55  C   UNK d   0      -3.331  -5.480  22.402  0.00  0.00     0.151 C 
BRANCH  55  56
ATOM     56  C   UNK d   0      -4.224  -4.533  23.087  0.00  0.00     0.143 C 
ATOM     57  O   UNK d   0      -5.152  -4.900  23.835  0.00  0.00    -0.650 OA
BRANCH  56  58
ATOM     58  O   UNK d   0      -4.007  -3.171  22.880  0.00  0.00    -0.776 OA
ATOM     59  H   UNK d   0      -3.018  -2.906  22.727  0.00  0.00     0.167 HD
ENDBRANCH  56  58
ENDBRANCH  55  56
ENDBRANCH  21  55
BRANCH  18  60
ATOM     60  C   UNK d   0      -8.045  -3.294  21.057  0.00  0.00     0.151 C 
BRANCH  60  61
ATOM     61  C   UNK d   0      -6.962  -2.383  20.659  0.00  0.00     0.143 C 
ATOM     62  O   UNK d   0      -6.178  -1.793  21.403  0.00  0.00    -0.650 OA
BRANCH  61  63
ATOM     63  O   UNK d   0      -6.828  -2.179  19.265  0.00  0.00    -0.776 OA
ATOM     64  H   UNK d   0      -7.485  -1.612  18.758  0.00  0.00     0.167 HD
ENDBRANCH  61  63
ENDBRANCH  60  61
ENDBRANCH  18  60
BRANCH  14  65
ATOM     65  C   UNK d   0     -10.358  -3.704  19.136  0.00  0.00     0.052 C 
BRANCH  65  66
ATOM     66  C   UNK d   0     -10.472  -2.908  17.884  0.00  0.00     0.115 C 
BRANCH  66  67
ATOM     67  C   UNK d   0      -9.759  -1.667  17.763  0.00  0.00     0.139 C 
ATOM     68  O   UNK d   0      -9.380  -1.290  16.593  0.00  0.00    -0.650 OA
BRANCH  67  69
ATOM     69  O   UNK d   0      -9.407  -0.782  18.781  0.00  0.00    -0.776 OA
ATOM     70  H   UNK d   0      -8.596  -1.058  19.353  0.00  0.00     0.167 HD
ENDBRANCH  67  69
ENDBRANCH  66  67
ENDBRANCH  65  66
ENDBRANCH  14  65
ENDBRANCH   6   7
ENDBRANCH   5   6
ENDBRANCH   2   5
TORSDOF 28
ENDMDL
MODEL 14
REMARK VINA RESULT:      -8.8      2.085      7.777
REMARK  28 active torsions:
REMARK  status: ('A' for Active; 'I' for Inactive)
REMARK    1  A    between atoms: C_2  and  O_3 
REMARK    2  A    between atoms: C_2  and  C_4 
REMARK    3  A    between atoms: C_4  and  C_5 
REMARK    4  A    between atoms: C_5  and  C_6 
REMARK    5  A    between atoms: C_7  and  C_8 
REMARK    6  A    between atoms: C_8  and  C_9 
REMARK    7  A    between atoms: C_9  and  O_11 
REMARK    8  A    between atoms: C_28  and  C_29 
REMARK    9  A    between atoms: C_29  and  C_30 
REMARK   10  A    between atoms: C_30  and  O_32 
REMARK   11  A    between atoms: C_33  and  C_34 
REMARK   12  A    between atoms: C_34  and  C_35 
REMARK   13  A    between atoms: C_35  and  C_36 
REMARK   14  A    between atoms: C_36  and  O_38 
REMARK   15  A    between atoms: C_39  and  C_40 
REMARK   16  A    between atoms: C_40  and  C_41 
REMARK   17  A    between atoms: C_41  and  C_42 
REMARK   18  A    between atoms: C_42  and  O_44 
REMARK   19  A    between atoms: C_45  and  C_46 
REMARK   20  A    between atoms: C_46  and  C_47 
REMARK   21  A    between atoms: C_47  and  O_49 
REMARK   22  A    between atoms: C_50  and  C_51 
REMARK   23  A    between atoms: C_51  and  C_52 
REMARK   24  A    between atoms: C_52  and  O_54 
REMARK   25  A    between atoms: C_55  and  C_56 
REMARK   26  A    between atoms: C_56  and  C_57 
REMARK   27  A    between atoms: C_57  and  C_58 
REMARK   28  A    between atoms: C_58  and  O_60 
ROOT
ATOM      1  O   UNK d   0     -12.343  -8.330  15.458  0.00  0.00    -0.650 OA
ATOM      2  C   UNK d   0     -11.587  -9.326  15.473  0.00  0.00     0.139 C 
ENDROOT
BRANCH   2   3
ATOM      3  O   UNK d   0     -11.914 -10.432  14.726  0.00  0.00    -0.776 OA
ATOM      4  H   UNK d   0     -12.739 -10.994  14.948  0.00  0.00     0.167 HD
ENDBRANCH   2   3
BRANCH   2   5
ATOM      5  C   UNK d   0     -10.344  -9.310  16.296  0.00  0.00     0.115 C 
BRANCH   5   6
ATOM      6  C   UNK d   0     -10.645  -8.794  17.677  0.00  0.00     0.052 C 
BRANCH   6   7
ATOM      7  C   UNK d   0      -9.481  -8.046  18.284  0.00  0.00    -0.020 A 
ATOM      8  C   UNK d   0      -9.311  -6.751  18.345  0.00  0.00    -0.011 A 
ATOM      9  C   UNK d   0      -8.042  -6.500  19.010  0.00  0.00     0.067 A 
ATOM     10  C   UNK d   0      -7.308  -5.368  19.396  0.00  0.00     0.062 C 
ATOM     11  N   UNK d   0      -7.505  -7.700  19.313  0.00  0.00    -0.248 NA
ATOM     12  C   UNK d   0      -6.226  -5.322  20.282  0.00  0.00     0.041 A 
ATOM     13  N   UNK d   0      -5.158  -6.130  20.420  0.00  0.00    -0.355 N 
ATOM     14  C   UNK d   0      -6.197  -4.320  21.269  0.00  0.00    -0.022 A 
ATOM     15  C   UNK d   0      -4.456  -5.672  21.473  0.00  0.00     0.042 A 
ATOM     16  H   UNK d   0      -4.895  -6.996  19.773  0.00  0.00     0.166 HD
ATOM     17  C   UNK d   0      -3.259  -6.143  22.048  0.00  0.00     0.062 C 
ATOM     18  C   UNK d   0      -5.077  -4.537  22.032  0.00  0.00    -0.013 A 
ATOM     19  C   UNK d   0      -2.892  -7.431  22.342  0.00  0.00     0.067 A 
ATOM     20  N   UNK d   0      -3.663  -8.406  21.853  0.00  0.00    -0.248 NA
ATOM     21  C   UNK d   0      -1.829  -8.067  23.102  0.00  0.00    -0.011 A 
ATOM     22  C   UNK d   0      -3.182  -9.633  22.240  0.00  0.00     0.066 A 
ATOM     23  C   UNK d   0      -3.870 -10.741  21.769  0.00  0.00     0.062 C 
ATOM     24  C   UNK d   0      -2.007  -9.355  23.042  0.00  0.00    -0.020 A 
ATOM     25  C   UNK d   0      -4.947 -10.766  20.869  0.00  0.00     0.041 A 
ATOM     26  N   UNK d   0      -6.016  -9.972  20.741  0.00  0.00    -0.355 N 
ATOM     27  C   UNK d   0      -4.973 -11.770  19.876  0.00  0.00    -0.022 A 
ATOM     28  C   UNK d   0      -6.723 -10.433  19.697  0.00  0.00     0.042 A 
ATOM     29  H   UNK d   0      -6.285  -9.108  21.398  0.00  0.00     0.166 HD
ATOM     30  C   UNK d   0      -7.920  -9.980  19.120  0.00  0.00     0.062 C 
ATOM     31  C   UNK d   0      -6.093 -11.566  19.130  0.00  0.00    -0.013 A 
ATOM     32  C   UNK d   0      -8.323  -8.671  18.903  0.00  0.00     0.066 A 
BRANCH   8  33
ATOM     33  C   UNK d   0     -10.224  -5.712  17.834  0.00  0.00     0.151 C 
BRANCH  33  34
ATOM     34  C   UNK d   0     -10.084  -5.493  16.383  0.00  0.00     0.143 C 
ATOM     35  O   UNK d   0      -9.012  -5.104  15.899  0.00  0.00    -0.650 OA
BRANCH  34  36
ATOM     36  O   UNK d   0     -11.161  -5.723  15.559  0.00  0.00    -0.776 OA
ATOM     37  H   UNK d   0     -11.047  -6.186  14.647  0.00  0.00     0.167 HD
ENDBRANCH  34  36
ENDBRANCH  33  34
ENDBRANCH   8  33
BRANCH  31  38
ATOM     38  C   UNK d   0      -6.534 -12.388  17.941  0.00  0.00     0.151 C 
BRANCH  38  39
ATOM     39  C   UNK d   0      -5.962 -11.924  16.695  0.00  0.00     0.143 C 
ATOM     40  O   UNK d   0      -5.225 -10.924  16.632  0.00  0.00    -0.650 OA
BRANCH  39  41
ATOM     41  O   UNK d   0      -6.238 -12.614  15.515  0.00  0.00    -0.776 OA
ATOM     42  H   UNK d   0      -5.456 -12.754  14.868  0.00  0.00     0.167 HD
ENDBRANCH  39  41
ENDBRANCH  38  39
ENDBRANCH  31  38
BRANCH  27  43
ATOM     43  C   UNK d   0      -3.996 -12.890  19.620  0.00  0.00     0.052 C 
BRANCH  43  44
ATOM     44  C   UNK d   0      -2.801 -12.463  18.831  0.00  0.00     0.115 C 
BRANCH  44  45
ATOM     45  C   UNK d   0      -1.763 -13.507  19.035  0.00  0.00     0.139 C 
ATOM     46  O   UNK d   0      -1.674 -14.427  18.184  0.00  0.00    -0.650 OA
BRANCH  45  47
ATOM     47  O   UNK d   0      -0.899 -13.502  20.108  0.00  0.00    -0.776 OA
ATOM     48  H   UNK d   0      -1.223 -13.474  21.089  0.00  0.00     0.167 HD
ENDBRANCH  45  47
ENDBRANCH  44  45
ENDBRANCH  43  44
ENDBRANCH  27  43
BRANCH  24  49
ATOM     49  C   UNK d   0      -1.137 -10.381  23.642  0.00  0.00     0.052 C 
BRANCH  49  50
ATOM     50  C   UNK d   0      -1.865 -11.108  24.743  0.00  0.00     0.115 C 
BRANCH  50  51
ATOM     51  C   UNK d   0      -1.217 -11.164  26.046  0.00  0.00     0.139 C 
ATOM     52  O   UNK d   0      -0.015 -11.491  26.190  0.00  0.00    -0.650 OA
BRANCH  51  53
ATOM     53  O   UNK d   0      -1.939 -10.849  27.186  0.00  0.00    -0.776 OA
ATOM     54  H   UNK d   0      -2.052  -9.879  27.425  0.00  0.00     0.167 HD
ENDBRANCH  51  53
ENDBRANCH  50  51
ENDBRANCH  49  50
ENDBRANCH  24  49
BRANCH  21  55
ATOM     55  C   UNK d   0      -0.743  -7.321  23.805  0.00  0.00     0.151 C 
BRANCH  55  56
ATOM     56  C   UNK d   0       0.387  -7.021  22.913  0.00  0.00     0.143 C 
ATOM     57  O   UNK d   0       0.398  -6.040  22.144  0.00  0.00    -0.650 OA
BRANCH  56  58
ATOM     58  O   UNK d   0       1.483  -7.881  22.943  0.00  0.00    -0.776 OA
ATOM     59  H   UNK d   0       2.245  -7.596  23.584  0.00  0.00     0.167 HD
ENDBRANCH  56  58
ENDBRANCH  55  56
ENDBRANCH  21  55
BRANCH  18  60
ATOM     60  C   UNK d   0      -4.659  -3.697  23.213  0.00  0.00     0.151 C 
BRANCH  60  61
ATOM     61  C   UNK d   0      -5.672  -3.931  24.253  0.00  0.00     0.143 C 
ATOM     62  O   UNK d   0      -6.035  -5.018  24.704  0.00  0.00    -0.650 OA
BRANCH  61  63
ATOM     63  O   UNK d   0      -6.278  -2.764  24.777  0.00  0.00    -0.776 OA
ATOM     64  H   UNK d   0      -6.664  -2.063  24.170  0.00  0.00     0.167 HD
ENDBRANCH  61  63
ENDBRANCH  60  61
ENDBRANCH  18  60
BRANCH  14  65
ATOM     65  C   UNK d   0      -7.085  -3.127  21.482  0.00  0.00     0.052 C 
BRANCH  65  66
ATOM     66  C   UNK d   0      -6.498  -1.864  20.957  0.00  0.00     0.115 C 
BRANCH  66  67
ATOM     67  C   UNK d   0      -6.566  -0.666  21.745  0.00  0.00     0.139 C 
ATOM     68  O   UNK d   0      -6.768  -0.775  23.010  0.00  0.00    -0.650 OA
BRANCH  67  69
ATOM     69  O   UNK d   0      -6.438   0.652  21.307  0.00  0.00    -0.776 OA
ATOM     70  H   UNK d   0      -5.567   0.874  20.805  0.00  0.00     0.167 HD
ENDBRANCH  67  69
ENDBRANCH  66  67
ENDBRANCH  65  66
ENDBRANCH  14  65
ENDBRANCH   6   7
ENDBRANCH   5   6
ENDBRANCH   2   5
TORSDOF 28
ENDMDL
MODEL 15
REMARK VINA RESULT:      -8.8      1.652      8.519
REMARK  28 active torsions:
REMARK  status: ('A' for Active; 'I' for Inactive)
REMARK    1  A    between atoms: C_2  and  O_3 
REMARK    2  A    between atoms: C_2  and  C_4 
REMARK    3  A    between atoms: C_4  and  C_5 
REMARK    4  A    between atoms: C_5  and  C_6 
REMARK    5  A    between atoms: C_7  and  C_8 
REMARK    6  A    between atoms: C_8  and  C_9 
REMARK    7  A    between atoms: C_9  and  O_11 
REMARK    8  A    between atoms: C_28  and  C_29 
REMARK    9  A    between atoms: C_29  and  C_30 
REMARK   10  A    between atoms: C_30  and  O_32 
REMARK   11  A    between atoms: C_33  and  C_34 
REMARK   12  A    between atoms: C_34  and  C_35 
REMARK   13  A    between atoms: C_35  and  C_36 
REMARK   14  A    between atoms: C_36  and  O_38 
REMARK   15  A    between atoms: C_39  and  C_40 
REMARK   16  A    between atoms: C_40  and  C_41 
REMARK   17  A    between atoms: C_41  and  C_42 
REMARK   18  A    between atoms: C_42  and  O_44 
REMARK   19  A    between atoms: C_45  and  C_46 
REMARK   20  A    between atoms: C_46  and  C_47 
REMARK   21  A    between atoms: C_47  and  O_49 
REMARK   22  A    between atoms: C_50  and  C_51 
REMARK   23  A    between atoms: C_51  and  C_52 
REMARK   24  A    between atoms: C_52  and  O_54 
REMARK   25  A    between atoms: C_55  and  C_56 
REMARK   26  A    between atoms: C_56  and  C_57 
REMARK   27  A    between atoms: C_57  and  C_58 
REMARK   28  A    between atoms: C_58  and  O_60 
ROOT
ATOM      1  O   UNK d   0      -6.769  -0.870  23.043  0.00  0.00    -0.650 OA
ATOM      2  C   UNK d   0      -6.944  -1.727  23.938  0.00  0.00     0.139 C 
ENDROOT
BRANCH   2   3
ATOM      3  O   UNK d   0      -7.955  -1.550  24.852  0.00  0.00    -0.776 OA
ATOM      4  H   UNK d   0      -7.938  -0.771  25.513  0.00  0.00     0.167 HD
ENDBRANCH   2   3
BRANCH   2   5
ATOM      5  C   UNK d   0      -6.061  -2.926  24.009  0.00  0.00     0.115 C 
BRANCH   5   6
ATOM      6  C   UNK d   0      -5.107  -2.935  22.846  0.00  0.00     0.052 C 
BRANCH   6   7
ATOM      7  C   UNK d   0      -4.847  -4.326  22.319  0.00  0.00    -0.020 A 
ATOM      8  C   UNK d   0      -3.863  -5.129  22.635  0.00  0.00    -0.011 A 
ATOM      9  C   UNK d   0      -4.024  -6.353  21.868  0.00  0.00     0.067 A 
ATOM     10  C   UNK d   0      -3.345  -7.577  21.761  0.00  0.00     0.062 C 
ATOM     11  N   UNK d   0      -5.129  -6.207  21.108  0.00  0.00    -0.248 NA
ATOM     12  C   UNK d   0      -3.812  -8.755  21.168  0.00  0.00     0.041 A 
ATOM     13  N   UNK d   0      -4.484  -8.964  20.020  0.00  0.00    -0.355 N 
ATOM     14  C   UNK d   0      -3.637  -9.974  21.848  0.00  0.00    -0.022 A 
ATOM     15  C   UNK d   0      -4.748 -10.283  19.958  0.00  0.00     0.042 A 
ATOM     16  H   UNK d   0      -4.750  -8.198  19.259  0.00  0.00     0.166 HD
ATOM     17  C   UNK d   0      -5.421 -11.035  18.975  0.00  0.00     0.062 C 
ATOM     18  C   UNK d   0      -4.233 -10.949  21.087  0.00  0.00    -0.013 A 
ATOM     19  C   UNK d   0      -6.597 -10.751  18.327  0.00  0.00     0.067 A 
ATOM     20  N   UNK d   0      -7.091  -9.520  18.482  0.00  0.00    -0.248 NA
ATOM     21  C   UNK d   0      -7.520 -11.478  17.472  0.00  0.00    -0.011 A 
ATOM     22  C   UNK d   0      -8.271  -9.390  17.792  0.00  0.00     0.066 A 
ATOM     23  C   UNK d   0      -8.876  -8.142  17.836  0.00  0.00     0.062 C 
ATOM     24  C   UNK d   0      -8.500 -10.677  17.166  0.00  0.00    -0.020 A 
ATOM     25  C   UNK d   0      -8.385  -6.968  18.427  0.00  0.00     0.041 A 
ATOM     26  N   UNK d   0      -7.729  -6.758  19.575  0.00  0.00    -0.355 N 
ATOM     27  C   UNK d   0      -8.556  -5.745  17.741  0.00  0.00    -0.022 A 
ATOM     28  C   UNK d   0      -7.473  -5.442  19.643  0.00  0.00     0.042 A 
ATOM     29  H   UNK d   0      -7.472  -7.528  20.343  0.00  0.00     0.166 HD
ATOM     30  C   UNK d   0      -6.812  -4.680  20.619  0.00  0.00     0.062 C 
ATOM     31  C   UNK d   0      -7.982  -4.775  18.504  0.00  0.00    -0.013 A 
ATOM     32  C   UNK d   0      -5.671  -5.009  21.333  0.00  0.00     0.066 A 
BRANCH   8  33
ATOM     33  C   UNK d   0      -2.772  -4.858  23.589  0.00  0.00     0.151 C 
BRANCH  33  34
ATOM     34  C   UNK d   0      -1.570  -4.305  22.940  0.00  0.00     0.143 C 
ATOM     35  O   UNK d   0      -1.507  -3.106  22.632  0.00  0.00    -0.650 OA
BRANCH  34  36
ATOM     36  O   UNK d   0      -0.505  -5.133  22.673  0.00  0.00    -0.776 OA
ATOM     37  H   UNK d   0      -0.078  -5.710  23.411  0.00  0.00     0.167 HD
ENDBRANCH  34  36
ENDBRANCH  33  34
ENDBRANCH   8  33
BRANCH  31  38
ATOM     38  C   UNK d   0      -7.907  -3.304  18.166  0.00  0.00     0.151 C 
BRANCH  38  39
ATOM     39  C   UNK d   0      -9.106  -2.582  18.536  0.00  0.00     0.143 C 
ATOM     40  O   UNK d   0      -9.406  -1.487  18.029  0.00  0.00    -0.650 OA
BRANCH  39  41
ATOM     41  O   UNK d   0      -9.964  -3.121  19.495  0.00  0.00    -0.776 OA
ATOM     42  H   UNK d   0     -10.870  -3.463  19.162  0.00  0.00     0.167 HD
ENDBRANCH  39  41
ENDBRANCH  38  39
ENDBRANCH  31  38
BRANCH  27  43
ATOM     43  C   UNK d   0      -9.232  -5.473  16.421  0.00  0.00     0.052 C 
BRANCH  43  44
ATOM     44  C   UNK d   0     -10.644  -5.006  16.565  0.00  0.00     0.115 C 
BRANCH  44  45
ATOM     45  C   UNK d   0     -11.503  -6.215  16.473  0.00  0.00     0.139 C 
ATOM     46  O   UNK d   0     -11.152  -7.132  15.690  0.00  0.00    -0.650 OA
BRANCH  45  47
ATOM     47  O   UNK d   0     -12.657  -6.369  17.210  0.00  0.00    -0.776 OA
ATOM     48  H   UNK d   0     -13.237  -7.223  17.171  0.00  0.00     0.167 HD
ENDBRANCH  45  47
ENDBRANCH  44  45
ENDBRANCH  43  44
ENDBRANCH  27  43
BRANCH  24  49
ATOM     49  C   UNK d   0      -9.638 -10.994  16.286  0.00  0.00     0.052 C 
BRANCH  49  50
ATOM     50  C   UNK d   0      -9.316 -10.627  14.860  0.00  0.00     0.115 C 
BRANCH  50  51
ATOM     51  C   UNK d   0      -9.934 -11.428  13.812  0.00  0.00     0.139 C 
ATOM     52  O   UNK d   0     -11.177 -11.523  13.678  0.00  0.00    -0.650 OA
BRANCH  51  53
ATOM     53  O   UNK d   0      -9.135 -12.124  12.918  0.00  0.00    -0.776 OA
ATOM     54  H   UNK d   0      -9.571 -12.536  12.112  0.00  0.00     0.167 HD
ENDBRANCH  51  53
ENDBRANCH  50  51
ENDBRANCH  49  50
ENDBRANCH  24  49
BRANCH  21  55
ATOM     55  C   UNK d   0      -7.325 -12.895  17.047  0.00  0.00     0.151 C 
BRANCH  55  56
ATOM     56  C   UNK d   0      -7.015 -13.003  15.614  0.00  0.00     0.143 C 
ATOM     57  O   UNK d   0      -6.186 -12.266  15.045  0.00  0.00    -0.650 OA
BRANCH  56  58
ATOM     58  O   UNK d   0      -7.686 -13.977  14.876  0.00  0.00    -0.776 OA
ATOM     59  H   UNK d   0      -7.760 -14.901  15.339  0.00  0.00     0.167 HD
ENDBRANCH  56  58
ENDBRANCH  55  56
ENDBRANCH  21  55
BRANCH  18  60
ATOM     60  C   UNK d   0      -4.289 -12.413  21.447  0.00  0.00     0.151 C 
BRANCH  60  61
ATOM     61  C   UNK d   0      -5.573 -12.610  22.138  0.00  0.00     0.143 C 
ATOM     62  O   UNK d   0      -5.947 -12.067  23.178  0.00  0.00    -0.650 OA
BRANCH  61  63
ATOM     63  O   UNK d   0      -6.456 -13.527  21.519  0.00  0.00    -0.776 OA
ATOM     64  H   UNK d   0      -6.202 -13.998  20.668  0.00  0.00     0.167 HD
ENDBRANCH  61  63
ENDBRANCH  60  61
ENDBRANCH  18  60
BRANCH  14  65
ATOM     65  C   UNK d   0      -2.873 -10.299  23.100  0.00  0.00     0.052 C 
BRANCH  65  66
ATOM     66  C   UNK d   0      -1.530 -10.876  22.829  0.00  0.00     0.115 C 
BRANCH  66  67
ATOM     67  C   UNK d   0      -0.474 -10.702  23.786  0.00  0.00     0.139 C 
ATOM     68  O   UNK d   0       0.736 -10.624  23.357  0.00  0.00    -0.650 OA
BRANCH  67  69
ATOM     69  O   UNK d   0      -0.586 -10.603  25.172  0.00  0.00    -0.776 OA
ATOM     70  H   UNK d   0      -1.033 -11.403  25.644  0.00  0.00     0.167 HD
ENDBRANCH  67  69
ENDBRANCH  66  67
ENDBRANCH  65  66
ENDBRANCH  14  65
ENDBRANCH   6   7
ENDBRANCH   5   6
ENDBRANCH   2   5
TORSDOF 28
ENDMDL
MODEL 16
REMARK VINA RESULT:      -8.7      1.707      2.275
REMARK  28 active torsions:
REMARK  status: ('A' for Active; 'I' for Inactive)
REMARK    1  A    between atoms: C_2  and  O_3 
REMARK    2  A    between atoms: C_2  and  C_4 
REMARK    3  A    between atoms: C_4  and  C_5 
REMARK    4  A    between atoms: C_5  and  C_6 
REMARK    5  A    between atoms: C_7  and  C_8 
REMARK    6  A    between atoms: C_8  and  C_9 
REMARK    7  A    between atoms: C_9  and  O_11 
REMARK    8  A    between atoms: C_28  and  C_29 
REMARK    9  A    between atoms: C_29  and  C_30 
REMARK   10  A    between atoms: C_30  and  O_32 
REMARK   11  A    between atoms: C_33  and  C_34 
REMARK   12  A    between atoms: C_34  and  C_35 
REMARK   13  A    between atoms: C_35  and  C_36 
REMARK   14  A    between atoms: C_36  and  O_38 
REMARK   15  A    between atoms: C_39  and  C_40 
REMARK   16  A    between atoms: C_40  and  C_41 
REMARK   17  A    between atoms: C_41  and  C_42 
REMARK   18  A    between atoms: C_42  and  O_44 
REMARK   19  A    between atoms: C_45  and  C_46 
REMARK   20  A    between atoms: C_46  and  C_47 
REMARK   21  A    between atoms: C_47  and  O_49 
REMARK   22  A    between atoms: C_50  and  C_51 
REMARK   23  A    between atoms: C_51  and  C_52 
REMARK   24  A    between atoms: C_52  and  O_54 
REMARK   25  A    between atoms: C_55  and  C_56 
REMARK   26  A    between atoms: C_56  and  C_57 
REMARK   27  A    between atoms: C_57  and  C_58 
REMARK   28  A    between atoms: C_58  and  O_60 
ROOT
ATOM      1  O   UNK d   0     -10.608  -0.130  18.175  0.00  0.00    -0.650 OA
ATOM      2  C   UNK d   0      -9.441  -0.552  18.338  0.00  0.00     0.139 C 
ENDROOT
BRANCH   2   3
ATOM      3  O   UNK d   0      -8.380   0.251  17.994  0.00  0.00    -0.776 OA
ATOM      4  H   UNK d   0      -7.515  -0.148  17.626  0.00  0.00     0.167 HD
ENDBRANCH   2   3
BRANCH   2   5
ATOM      5  C   UNK d   0      -9.209  -1.912  18.901  0.00  0.00     0.115 C 
BRANCH   5   6
ATOM      6  C   UNK d   0      -9.185  -2.932  17.795  0.00  0.00     0.052 C 
BRANCH   6   7
ATOM      7  C   UNK d   0      -8.991  -4.340  18.307  0.00  0.00    -0.020 A 
ATOM      8  C   UNK d   0      -9.758  -5.378  18.097  0.00  0.00    -0.011 A 
ATOM      9  C   UNK d   0      -9.175  -6.511  18.795  0.00  0.00     0.067 A 
ATOM     10  C   UNK d   0      -9.481  -7.872  18.951  0.00  0.00     0.062 C 
ATOM     11  N   UNK d   0      -8.056  -6.071  19.409  0.00  0.00    -0.248 NA
ATOM     12  C   UNK d   0      -8.641  -8.879  19.439  0.00  0.00     0.041 A 
ATOM     13  N   UNK d   0      -7.789  -8.895  20.481  0.00  0.00    -0.355 N 
ATOM     14  C   UNK d   0      -8.574 -10.103  18.748  0.00  0.00    -0.022 A 
ATOM     15  C   UNK d   0      -7.177 -10.094  20.465  0.00  0.00     0.042 A 
ATOM     16  H   UNK d   0      -7.637  -8.082  21.225  0.00  0.00     0.166 HD
ATOM     17  C   UNK d   0      -6.201 -10.633  21.327  0.00  0.00     0.062 C 
ATOM     18  C   UNK d   0      -7.643 -10.879  19.393  0.00  0.00    -0.013 A 
ATOM     19  C   UNK d   0      -5.068 -10.041  21.824  0.00  0.00     0.067 A 
ATOM     20  N   UNK d   0      -4.946  -8.723  21.645  0.00  0.00    -0.248 NA
ATOM     21  C   UNK d   0      -3.877 -10.490  22.526  0.00  0.00    -0.011 A 
ATOM     22  C   UNK d   0      -3.761  -8.278  22.179  0.00  0.00     0.066 A 
ATOM     23  C   UNK d   0      -3.523  -6.914  22.096  0.00  0.00     0.062 C 
ATOM     24  C   UNK d   0      -3.115  -9.454  22.727  0.00  0.00    -0.020 A 
ATOM     25  C   UNK d   0      -4.385  -5.917  21.614  0.00  0.00     0.041 A 
ATOM     26  N   UNK d   0      -5.221  -5.896  20.569  0.00  0.00    -0.355 N 
ATOM     27  C   UNK d   0      -4.455  -4.691  22.310  0.00  0.00    -0.022 A 
ATOM     28  C   UNK d   0      -5.826  -4.698  20.578  0.00  0.00     0.042 A 
ATOM     29  H   UNK d   0      -5.365  -6.710  19.816  0.00  0.00     0.166 HD
ATOM     30  C   UNK d   0      -6.792  -4.145  19.722  0.00  0.00     0.062 C 
ATOM     31  C   UNK d   0      -5.365  -3.914  21.662  0.00  0.00    -0.013 A 
ATOM     32  C   UNK d   0      -7.890  -4.772  19.154  0.00  0.00     0.066 A 
BRANCH   8  33
ATOM     33  C   UNK d   0     -11.000  -5.415  17.302  0.00  0.00     0.151 C 
BRANCH  33  34
ATOM     34  C   UNK d   0     -12.067  -4.573  17.872  0.00  0.00     0.143 C 
ATOM     35  O   UNK d   0     -12.718  -3.798  17.157  0.00  0.00    -0.650 OA
BRANCH  34  36
ATOM     36  O   UNK d   0     -12.342  -4.650  19.218  0.00  0.00    -0.776 OA
ATOM     37  H   UNK d   0     -13.137  -4.143  19.631  0.00  0.00     0.167 HD
ENDBRANCH  34  36
ENDBRANCH  33  34
ENDBRANCH   8  33
BRANCH  31  38
ATOM     38  C   UNK d   0      -5.783  -2.516  22.053  0.00  0.00     0.151 C 
BRANCH  38  39
ATOM     39  C   UNK d   0      -6.797  -2.501  23.087  0.00  0.00     0.143 C 
ATOM     40  O   UNK d   0      -7.253  -3.545  23.586  0.00  0.00    -0.650 OA
BRANCH  39  41
ATOM     41  O   UNK d   0      -7.287  -1.281  23.550  0.00  0.00    -0.776 OA
ATOM     42  H   UNK d   0      -6.624  -0.500  23.586  0.00  0.00     0.167 HD
ENDBRANCH  39  41
ENDBRANCH  38  39
ENDBRANCH  31  38
BRANCH  27  43
ATOM     43  C   UNK d   0      -3.704  -4.242  23.539  0.00  0.00     0.052 C 
BRANCH  43  44
ATOM     44  C   UNK d   0      -2.413  -3.559  23.226  0.00  0.00     0.115 C 
BRANCH  44  45
ATOM     45  C   UNK d   0      -1.416  -4.065  24.205  0.00  0.00     0.139 C 
ATOM     46  O   UNK d   0      -0.383  -3.380  24.406  0.00  0.00    -0.650 OA
BRANCH  45  47
ATOM     47  O   UNK d   0      -1.583  -5.244  24.898  0.00  0.00    -0.776 OA
ATOM     48  H   UNK d   0      -1.010  -6.085  24.720  0.00  0.00     0.167 HD
ENDBRANCH  45  47
ENDBRANCH  44  45
ENDBRANCH  43  44
ENDBRANCH  27  43
BRANCH  24  49
ATOM     49  C   UNK d   0      -1.826  -9.449  23.440  0.00  0.00     0.052 C 
BRANCH  49  50
ATOM     50  C   UNK d   0      -1.629 -10.750  24.176  0.00  0.00     0.115 C 
BRANCH  50  51
ATOM     51  C   UNK d   0      -0.955 -10.688  25.466  0.00  0.00     0.139 C 
ATOM     52  O   UNK d   0      -0.468 -11.699  26.024  0.00  0.00    -0.650 OA
BRANCH  51  53
ATOM     53  O   UNK d   0      -0.840  -9.472  26.123  0.00  0.00    -0.776 OA
ATOM     54  H   UNK d   0      -0.590  -8.662  25.583  0.00  0.00     0.167 HD
ENDBRANCH  51  53
ENDBRANCH  50  51
ENDBRANCH  49  50
ENDBRANCH  24  49
BRANCH  21  55
ATOM     55  C   UNK d   0      -3.628 -11.906  22.927  0.00  0.00     0.151 C 
BRANCH  55  56
ATOM     56  C   UNK d   0      -4.627 -12.390  23.891  0.00  0.00     0.143 C 
ATOM     57  O   UNK d   0      -4.611 -12.073  25.097  0.00  0.00    -0.650 OA
BRANCH  56  58
ATOM     58  O   UNK d   0      -5.626 -13.240  23.419  0.00  0.00    -0.776 OA
ATOM     59  H   UNK d   0      -5.727 -14.128  23.942  0.00  0.00     0.167 HD
ENDBRANCH  56  58
ENDBRANCH  55  56
ENDBRANCH  21  55
BRANCH  18  60
ATOM     60  C   UNK d   0      -7.247 -12.275  18.981  0.00  0.00     0.151 C 
BRANCH  60  61
ATOM     61  C   UNK d   0      -7.606 -13.147  20.110  0.00  0.00     0.143 C 
ATOM     62  O   UNK d   0      -6.920 -14.041  20.604  0.00  0.00    -0.650 OA
BRANCH  61  63
ATOM     63  O   UNK d   0      -8.885 -12.911  20.670  0.00  0.00    -0.776 OA
ATOM     64  H   UNK d   0      -9.036 -12.975  21.661  0.00  0.00     0.167 HD
ENDBRANCH  61  63
ENDBRANCH  60  61
ENDBRANCH  18  60
BRANCH  14  65
ATOM     65  C   UNK d   0      -9.385 -10.626  17.597  0.00  0.00     0.052 C 
BRANCH  65  66
ATOM     66  C   UNK d   0      -8.781 -10.319  16.273  0.00  0.00     0.115 C 
BRANCH  66  67
ATOM     67  C   UNK d   0      -8.828 -11.300  15.225  0.00  0.00     0.139 C 
ATOM     68  O   UNK d   0      -7.874 -11.322  14.362  0.00  0.00    -0.650 OA
BRANCH  67  69
ATOM     69  O   UNK d   0      -9.806 -12.269  15.006  0.00  0.00    -0.776 OA
ATOM     70  H   UNK d   0     -10.508 -12.373  15.753  0.00  0.00     0.167 HD
ENDBRANCH  67  69
ENDBRANCH  66  67
ENDBRANCH  65  66
ENDBRANCH  14  65
ENDBRANCH   6   7
ENDBRANCH   5   6
ENDBRANCH   2   5
TORSDOF 28
ENDMDL
MODEL 17
REMARK VINA RESULT:      -8.7      1.957      8.901
REMARK  28 active torsions:
REMARK  status: ('A' for Active; 'I' for Inactive)
REMARK    1  A    between atoms: C_2  and  O_3 
REMARK    2  A    between atoms: C_2  and  C_4 
REMARK    3  A    between atoms: C_4  and  C_5 
REMARK    4  A    between atoms: C_5  and  C_6 
REMARK    5  A    between atoms: C_7  and  C_8 
REMARK    6  A    between atoms: C_8  and  C_9 
REMARK    7  A    between atoms: C_9  and  O_11 
REMARK    8  A    between atoms: C_28  and  C_29 
REMARK    9  A    between atoms: C_29  and  C_30 
REMARK   10  A    between atoms: C_30  and  O_32 
REMARK   11  A    between atoms: C_33  and  C_34 
REMARK   12  A    between atoms: C_34  and  C_35 
REMARK   13  A    between atoms: C_35  and  C_36 
REMARK   14  A    between atoms: C_36  and  O_38 
REMARK   15  A    between atoms: C_39  and  C_40 
REMARK   16  A    between atoms: C_40  and  C_41 
REMARK   17  A    between atoms: C_41  and  C_42 
REMARK   18  A    between atoms: C_42  and  O_44 
REMARK   19  A    between atoms: C_45  and  C_46 
REMARK   20  A    between atoms: C_46  and  C_47 
REMARK   21  A    between atoms: C_47  and  O_49 
REMARK   22  A    between atoms: C_50  and  C_51 
REMARK   23  A    between atoms: C_51  and  C_52 
REMARK   24  A    between atoms: C_52  and  O_54 
REMARK   25  A    between atoms: C_55  and  C_56 
REMARK   26  A    between atoms: C_56  and  C_57 
REMARK   27  A    between atoms: C_57  and  C_58 
REMARK   28  A    between atoms: C_58  and  O_60 
ROOT
ATOM      1  O   UNK d   0       0.712  -4.208  22.202  0.00  0.00    -0.650 OA
ATOM      2  C   UNK d   0      -0.513  -4.256  21.953  0.00  0.00     0.139 C 
ENDROOT
BRANCH   2   3
ATOM      3  O   UNK d   0      -1.246  -3.094  21.953  0.00  0.00    -0.776 OA
ATOM      4  H   UNK d   0      -1.436  -2.590  21.085  0.00  0.00     0.167 HD
ENDBRANCH   2   3
BRANCH   2   5
ATOM      5  C   UNK d   0      -1.166  -5.563  21.661  0.00  0.00     0.115 C 
BRANCH   5   6
ATOM      6  C   UNK d   0      -2.318  -5.788  22.602  0.00  0.00     0.052 C 
BRANCH   6   7
ATOM      7  C   UNK d   0      -3.652  -5.803  21.894  0.00  0.00    -0.020 A 
ATOM      8  C   UNK d   0      -4.555  -4.856  21.873  0.00  0.00    -0.011 A 
ATOM      9  C   UNK d   0      -5.673  -5.326  21.072  0.00  0.00     0.067 A 
ATOM     10  C   UNK d   0      -6.908  -4.805  20.653  0.00  0.00     0.062 C 
ATOM     11  N   UNK d   0      -5.369  -6.571  20.650  0.00  0.00    -0.248 NA
ATOM     12  C   UNK d   0      -7.740  -5.305  19.645  0.00  0.00     0.041 A 
ATOM     13  N   UNK d   0      -8.105  -6.565  19.342  0.00  0.00    -0.355 N 
ATOM     14  C   UNK d   0      -8.290  -4.410  18.710  0.00  0.00    -0.022 A 
ATOM     15  C   UNK d   0      -8.867  -6.493  18.234  0.00  0.00     0.042 A 
ATOM     16  H   UNK d   0      -7.847  -7.485  19.911  0.00  0.00     0.166 HD
ATOM     17  C   UNK d   0      -9.506  -7.510  17.497  0.00  0.00     0.062 C 
ATOM     18  C   UNK d   0      -9.005  -5.158  17.808  0.00  0.00    -0.013 A 
ATOM     19  C   UNK d   0      -9.014  -8.727  17.101  0.00  0.00     0.067 A 
ATOM     20  N   UNK d   0      -7.850  -9.111  17.633  0.00  0.00    -0.248 NA
ATOM     21  C   UNK d   0      -9.434  -9.778  16.189  0.00  0.00    -0.011 A 
ATOM     22  C   UNK d   0      -7.479 -10.336  17.134  0.00  0.00     0.066 A 
ATOM     23  C   UNK d   0      -6.302 -10.874  17.633  0.00  0.00     0.062 C 
ATOM     24  C   UNK d   0      -8.530 -10.714  16.209  0.00  0.00    -0.020 A 
ATOM     25  C   UNK d   0      -5.487 -10.361  18.654  0.00  0.00     0.041 A 
ATOM     26  N   UNK d   0      -5.112  -9.111  18.948  0.00  0.00    -0.355 N 
ATOM     27  C   UNK d   0      -4.939 -11.261  19.595  0.00  0.00    -0.022 A 
ATOM     28  C   UNK d   0      -4.345  -9.181  20.047  0.00  0.00     0.042 A 
ATOM     29  H   UNK d   0      -5.364  -8.188  18.369  0.00  0.00     0.166 HD
ATOM     30  C   UNK d   0      -3.696  -8.179  20.785  0.00  0.00     0.062 C 
ATOM     31  C   UNK d   0      -4.215 -10.522  20.480  0.00  0.00    -0.013 A 
ATOM     32  C   UNK d   0      -4.166  -6.916  21.110  0.00  0.00     0.066 A 
BRANCH   8  33
ATOM     33  C   UNK d   0      -4.476  -3.543  22.539  0.00  0.00     0.151 C 
BRANCH  33  34
ATOM     34  C   UNK d   0      -4.669  -3.630  23.998  0.00  0.00     0.143 C 
ATOM     35  O   UNK d   0      -5.643  -4.228  24.476  0.00  0.00    -0.650 OA
BRANCH  34  36
ATOM     36  O   UNK d   0      -3.754  -3.038  24.837  0.00  0.00    -0.776 OA
ATOM     37  H   UNK d   0      -3.450  -2.065  24.694  0.00  0.00     0.167 HD
ENDBRANCH  34  36
ENDBRANCH  33  34
ENDBRANCH   8  33
BRANCH  31  38
ATOM     38  C   UNK d   0      -3.457 -11.053  21.674  0.00  0.00     0.151 C 
BRANCH  38  39
ATOM     39  C   UNK d   0      -4.218 -10.977  22.903  0.00  0.00     0.143 C 
ATOM     40  O   UNK d   0      -3.678 -10.991  24.023  0.00  0.00    -0.650 OA
BRANCH  39  41
ATOM     41  O   UNK d   0      -5.608 -10.883  22.844  0.00  0.00    -0.776 OA
ATOM     42  H   UNK d   0      -6.135 -11.757  22.941  0.00  0.00     0.167 HD
ENDBRANCH  39  41
ENDBRANCH  38  39
ENDBRANCH  31  38
BRANCH  27  43
ATOM     43  C   UNK d   0      -5.074 -12.760  19.679  0.00  0.00     0.052 C 
BRANCH  43  44
ATOM     44  C   UNK d   0      -5.897 -13.216  20.839  0.00  0.00     0.115 C 
BRANCH  44  45
ATOM     45  C   UNK d   0      -7.314 -12.932  20.492  0.00  0.00     0.139 C 
ATOM     46  O   UNK d   0      -7.779 -13.441  19.442  0.00  0.00    -0.650 OA
BRANCH  45  47
ATOM     47  O   UNK d   0      -8.132 -12.145  21.273  0.00  0.00    -0.776 OA
ATOM     48  H   UNK d   0      -8.003 -11.124  21.367  0.00  0.00     0.167 HD
ENDBRANCH  45  47
ENDBRANCH  44  45
ENDBRANCH  43  44
ENDBRANCH  27  43
BRANCH  24  49
ATOM     49  C   UNK d   0      -8.575 -11.982  15.461  0.00  0.00     0.052 C 
BRANCH  49  50
ATOM     50  C   UNK d   0      -8.304 -11.738  13.998  0.00  0.00     0.115 C 
BRANCH  50  51
ATOM     51  C   UNK d   0      -9.185 -12.393  13.041  0.00  0.00     0.139 C 
ATOM     52  O   UNK d   0     -10.305 -11.928  12.723  0.00  0.00    -0.650 OA
BRANCH  51  53
ATOM     53  O   UNK d   0      -8.789 -13.582  12.446  0.00  0.00    -0.776 OA
ATOM     54  H   UNK d   0      -9.499 -14.242  12.183  0.00  0.00     0.167 HD
ENDBRANCH  51  53
ENDBRANCH  50  51
ENDBRANCH  49  50
ENDBRANCH  24  49
BRANCH  21  55
ATOM     55  C   UNK d   0     -10.698  -9.738  15.395  0.00  0.00     0.151 C 
BRANCH  55  56
ATOM     56  C   UNK d   0     -11.713 -10.659  15.928  0.00  0.00     0.143 C 
ATOM     57  O   UNK d   0     -12.122 -10.604  17.105  0.00  0.00    -0.650 OA
BRANCH  56  58
ATOM     58  O   UNK d   0     -12.228 -11.626  15.067  0.00  0.00    -0.776 OA
ATOM     59  H   UNK d   0     -12.120 -11.415  14.059  0.00  0.00     0.167 HD
ENDBRANCH  56  58
ENDBRANCH  55  56
ENDBRANCH  21  55
BRANCH  18  60
ATOM     60  C   UNK d   0      -9.756  -4.599  16.625  0.00  0.00     0.151 C 
BRANCH  60  61
ATOM     61  C   UNK d   0     -11.179  -4.862  16.890  0.00  0.00     0.143 C 
ATOM     62  O   UNK d   0     -11.752  -4.819  17.979  0.00  0.00    -0.650 OA
BRANCH  61  63
ATOM     63  O   UNK d   0     -11.951  -5.200  15.752  0.00  0.00    -0.776 OA
ATOM     64  H   UNK d   0     -12.894  -5.534  15.846  0.00  0.00     0.167 HD
ENDBRANCH  61  63
ENDBRANCH  60  61
ENDBRANCH  18  60
BRANCH  14  65
ATOM     65  C   UNK d   0      -8.273  -2.908  18.663  0.00  0.00     0.052 C 
BRANCH  65  66
ATOM     66  C   UNK d   0      -9.621  -2.305  18.841  0.00  0.00     0.115 C 
BRANCH  66  67
ATOM     67  C   UNK d   0      -9.962  -1.102  18.136  0.00  0.00     0.139 C 
ATOM     68  O   UNK d   0      -9.438  -0.900  16.979  0.00  0.00    -0.650 OA
BRANCH  67  69
ATOM     69  O   UNK d   0     -10.817  -0.082  18.552  0.00  0.00    -0.776 OA
ATOM     70  H   UNK d   0     -10.979   0.673  17.870  0.00  0.00     0.167 HD
ENDBRANCH  67  69
ENDBRANCH  66  67
ENDBRANCH  65  66
ENDBRANCH  14  65
ENDBRANCH   6   7
ENDBRANCH   5   6
ENDBRANCH   2   5
TORSDOF 28
ENDMDL
MODEL 18
REMARK VINA RESULT:      -8.7     28.084     31.072
REMARK  28 active torsions:
REMARK  status: ('A' for Active; 'I' for Inactive)
REMARK    1  A    between atoms: C_2  and  O_3 
REMARK    2  A    between atoms: C_2  and  C_4 
REMARK    3  A    between atoms: C_4  and  C_5 
REMARK    4  A    between atoms: C_5  and  C_6 
REMARK    5  A    between atoms: C_7  and  C_8 
REMARK    6  A    between atoms: C_8  and  C_9 
REMARK    7  A    between atoms: C_9  and  O_11 
REMARK    8  A    between atoms: C_28  and  C_29 
REMARK    9  A    between atoms: C_29  and  C_30 
REMARK   10  A    between atoms: C_30  and  O_32 
REMARK   11  A    between atoms: C_33  and  C_34 
REMARK   12  A    between atoms: C_34  and  C_35 
REMARK   13  A    between atoms: C_35  and  C_36 
REMARK   14  A    between atoms: C_36  and  O_38 
REMARK   15  A    between atoms: C_39  and  C_40 
REMARK   16  A    between atoms: C_40  and  C_41 
REMARK   17  A    between atoms: C_41  and  C_42 
REMARK   18  A    between atoms: C_42  and  O_44 
REMARK   19  A    between atoms: C_45  and  C_46 
REMARK   20  A    between atoms: C_46  and  C_47 
REMARK   21  A    between atoms: C_47  and  O_49 
REMARK   22  A    between atoms: C_50  and  C_51 
REMARK   23  A    between atoms: C_51  and  C_52 
REMARK   24  A    between atoms: C_52  and  O_54 
REMARK   25  A    between atoms: C_55  and  C_56 
REMARK   26  A    between atoms: C_56  and  C_57 
REMARK   27  A    between atoms: C_57  and  C_58 
REMARK   28  A    between atoms: C_58  and  O_60 
ROOT
ATOM      1  O   UNK d   0      14.072  12.801  12.610  0.00  0.00    -0.650 OA
ATOM      2  C   UNK d   0      12.876  12.536  12.862  0.00  0.00     0.139 C 
ENDROOT
BRANCH   2   3
ATOM      3  O   UNK d   0      11.939  13.540  12.814  0.00  0.00    -0.776 OA
ATOM      4  H   UNK d   0      11.885  14.173  12.014  0.00  0.00     0.167 HD
ENDBRANCH   2   3
BRANCH   2   5
ATOM      5  C   UNK d   0      12.475  11.143  13.212  0.00  0.00     0.115 C 
BRANCH   5   6
ATOM      6  C   UNK d   0      11.519  10.606  12.182  0.00  0.00     0.052 C 
BRANCH   6   7
ATOM      7  C   UNK d   0      12.210  10.210  10.899  0.00  0.00    -0.020 A 
ATOM      8  C   UNK d   0      12.785   9.068  10.621  0.00  0.00    -0.011 A 
ATOM      9  C   UNK d   0      13.319   9.155   9.272  0.00  0.00     0.067 A 
ATOM     10  C   UNK d   0      14.007   8.298   8.399  0.00  0.00     0.062 C 
ATOM     11  N   UNK d   0      13.028  10.387   8.805  0.00  0.00    -0.248 NA
ATOM     12  C   UNK d   0      14.196   8.466   7.023  0.00  0.00     0.041 A 
ATOM     13  N   UNK d   0      14.519   9.554   6.298  0.00  0.00    -0.355 N 
ATOM     14  C   UNK d   0      13.980   7.370   6.167  0.00  0.00    -0.022 A 
ATOM     15  C   UNK d   0      14.506   9.179   5.005  0.00  0.00     0.042 A 
ATOM     16  H   UNK d   0      14.771  10.563   6.695  0.00  0.00     0.166 HD
ATOM     17  C   UNK d   0      14.770   9.921   3.837  0.00  0.00     0.062 C 
ATOM     18  C   UNK d   0      14.172   7.817   4.883  0.00  0.00    -0.013 A 
ATOM     19  C   UNK d   0      14.338  11.177   3.495  0.00  0.00     0.067 A 
ATOM     20  N   UNK d   0      13.750  11.895   4.456  0.00  0.00    -0.248 NA
ATOM     21  C   UNK d   0      14.331  11.988   2.290  0.00  0.00    -0.011 A 
ATOM     22  C   UNK d   0      13.358  13.117   3.965  0.00  0.00     0.066 A 
ATOM     23  C   UNK d   0      12.764  13.983   4.870  0.00  0.00     0.062 C 
ATOM     24  C   UNK d   0      13.753  13.120   2.570  0.00  0.00    -0.020 A 
ATOM     25  C   UNK d   0      12.595  13.801   6.251  0.00  0.00     0.041 A 
ATOM     26  N   UNK d   0      12.259  12.723   6.970  0.00  0.00    -0.355 N 
ATOM     27  C   UNK d   0      12.816  14.900   7.110  0.00  0.00    -0.022 A 
ATOM     28  C   UNK d   0      12.263  13.096   8.259  0.00  0.00     0.042 A 
ATOM     29  H   UNK d   0      11.996  11.713   6.569  0.00  0.00     0.166 HD
ATOM     30  C   UNK d   0      11.993  12.372   9.431  0.00  0.00     0.062 C 
ATOM     31  C   UNK d   0      12.609  14.463   8.382  0.00  0.00    -0.013 A 
ATOM     32  C   UNK d   0      12.361  11.071   9.736  0.00  0.00     0.066 A 
BRANCH   8  33
ATOM     33  C   UNK d   0      12.890   7.892  11.505  0.00  0.00     0.151 C 
BRANCH  33  34
ATOM     34  C   UNK d   0      14.230   7.744  12.102  0.00  0.00     0.143 C 
ATOM     35  O   UNK d   0      15.114   7.092  11.528  0.00  0.00    -0.650 OA
BRANCH  34  36
ATOM     36  O   UNK d   0      14.499   8.339  13.313  0.00  0.00    -0.776 OA
ATOM     37  H   UNK d   0      15.339   8.092  13.854  0.00  0.00     0.167 HD
ENDBRANCH  34  36
ENDBRANCH  33  34
ENDBRANCH   8  33
BRANCH  31  38
ATOM     38  C   UNK d   0      12.744  15.288   9.641  0.00  0.00     0.151 C 
BRANCH  38  39
ATOM     39  C   UNK d   0      14.113  15.393  10.099  0.00  0.00     0.143 C 
ATOM     40  O   UNK d   0      14.625  16.479  10.421  0.00  0.00    -0.650 OA
BRANCH  39  41
ATOM     41  O   UNK d   0      14.897  14.243  10.189  0.00  0.00    -0.776 OA
ATOM     42  H   UNK d   0      15.482  14.147  11.024  0.00  0.00     0.167 HD
ENDBRANCH  39  41
ENDBRANCH  38  39
ENDBRANCH  31  38
BRANCH  27  43
ATOM     43  C   UNK d   0      13.206  16.317   6.771  0.00  0.00     0.052 C 
BRANCH  43  44
ATOM     44  C   UNK d   0      12.071  17.284   6.879  0.00  0.00     0.115 C 
BRANCH  44  45
ATOM     45  C   UNK d   0      11.311  17.191   5.605  0.00  0.00     0.139 C 
ATOM     46  O   UNK d   0      11.795  17.744   4.586  0.00  0.00    -0.650 OA
BRANCH  45  47
ATOM     47  O   UNK d   0      10.111  16.522   5.498  0.00  0.00    -0.776 OA
ATOM     48  H   UNK d   0       9.513  16.310   6.312  0.00  0.00     0.167 HD
ENDBRANCH  45  47
ENDBRANCH  44  45
ENDBRANCH  43  44
ENDBRANCH  27  43
BRANCH  24  49
ATOM     49  C   UNK d   0      13.568  14.252   1.646  0.00  0.00     0.052 C 
BRANCH  49  50
ATOM     50  C   UNK d   0      12.109  14.416   1.304  0.00  0.00     0.115 C 
BRANCH  50  51
ATOM     51  C   UNK d   0      11.421  15.573   1.862  0.00  0.00     0.139 C 
ATOM     52  O   UNK d   0      10.407  15.469   2.592  0.00  0.00    -0.650 OA
BRANCH  51  53
ATOM     53  O   UNK d   0      11.887  16.848   1.585  0.00  0.00    -0.776 OA
ATOM     54  H   UNK d   0      12.881  16.992   1.539  0.00  0.00     0.167 HD
ENDBRANCH  51  53
ENDBRANCH  50  51
ENDBRANCH  49  50
ENDBRANCH  24  49
BRANCH  21  55
ATOM     55  C   UNK d   0      14.908  11.549   0.985  0.00  0.00     0.151 C 
BRANCH  55  56
ATOM     56  C   UNK d   0      14.118  10.472   0.368  0.00  0.00     0.143 C 
ATOM     57  O   UNK d   0      14.570   9.733  -0.530  0.00  0.00    -0.650 OA
BRANCH  56  58
ATOM     58  O   UNK d   0      12.813  10.284   0.818  0.00  0.00    -0.776 OA
ATOM     59  H   UNK d   0      12.674  10.445   1.832  0.00  0.00     0.167 HD
ENDBRANCH  56  58
ENDBRANCH  55  56
ENDBRANCH  21  55
BRANCH  18  60
ATOM     60  C   UNK d   0      14.033   6.969   3.643  0.00  0.00     0.151 C 
BRANCH  60  61
ATOM     61  C   UNK d   0      15.396   6.541   3.292  0.00  0.00     0.143 C 
ATOM     62  O   UNK d   0      16.108   5.750   3.912  0.00  0.00    -0.650 OA
BRANCH  61  63
ATOM     63  O   UNK d   0      15.921   7.114   2.109  0.00  0.00    -0.776 OA
ATOM     64  H   UNK d   0      16.838   6.870   1.778  0.00  0.00     0.167 HD
ENDBRANCH  61  63
ENDBRANCH  60  61
ENDBRANCH  18  60
BRANCH  14  65
ATOM     65  C   UNK d   0      13.706   5.925   6.474  0.00  0.00     0.052 C 
BRANCH  65  66
ATOM     66  C   UNK d   0      12.263   5.641   6.694  0.00  0.00     0.115 C 
BRANCH  66  67
ATOM     67  C   UNK d   0      11.492   5.024   5.652  0.00  0.00     0.139 C 
ATOM     68  O   UNK d   0      10.215   5.177   5.661  0.00  0.00    -0.650 OA
BRANCH  67  69
ATOM     69  O   UNK d   0      11.958   4.251   4.589  0.00  0.00    -0.776 OA
ATOM     70  H   UNK d   0      11.241   3.722   4.072  0.00  0.00     0.167 HD
ENDBRANCH  67  69
ENDBRANCH  66  67
ENDBRANCH  65  66
ENDBRANCH  14  65
ENDBRANCH   6   7
ENDBRANCH   5   6
ENDBRANCH   2   5
TORSDOF 28
ENDMDL
MODEL 19
REMARK VINA RESULT:      -8.7     28.458     31.929
REMARK  28 active torsions:
REMARK  status: ('A' for Active; 'I' for Inactive)
REMARK    1  A    between atoms: C_2  and  O_3 
REMARK    2  A    between atoms: C_2  and  C_4 
REMARK    3  A    between atoms: C_4  and  C_5 
REMARK    4  A    between atoms: C_5  and  C_6 
REMARK    5  A    between atoms: C_7  and  C_8 
REMARK    6  A    between atoms: C_8  and  C_9 
REMARK    7  A    between atoms: C_9  and  O_11 
REMARK    8  A    between atoms: C_28  and  C_29 
REMARK    9  A    between atoms: C_29  and  C_30 
REMARK   10  A    between atoms: C_30  and  O_32 
REMARK   11  A    between atoms: C_33  and  C_34 
REMARK   12  A    between atoms: C_34  and  C_35 
REMARK   13  A    between atoms: C_35  and  C_36 
REMARK   14  A    between atoms: C_36  and  O_38 
REMARK   15  A    between atoms: C_39  and  C_40 
REMARK   16  A    between atoms: C_40  and  C_41 
REMARK   17  A    between atoms: C_41  and  C_42 
REMARK   18  A    between atoms: C_42  and  O_44 
REMARK   19  A    between atoms: C_45  and  C_46 
REMARK   20  A    between atoms: C_46  and  C_47 
REMARK   21  A    between atoms: C_47  and  O_49 
REMARK   22  A    between atoms: C_50  and  C_51 
REMARK   23  A    between atoms: C_51  and  C_52 
REMARK   24  A    between atoms: C_52  and  O_54 
REMARK   25  A    between atoms: C_55  and  C_56 
REMARK   26  A    between atoms: C_56  and  C_57 
REMARK   27  A    between atoms: C_57  and  C_58 
REMARK   28  A    between atoms: C_58  and  O_60 
ROOT
ATOM      1  O   UNK d   0      16.770   7.512   1.450  0.00  0.00    -0.650 OA
ATOM      2  C   UNK d   0      16.306   6.373   1.681  0.00  0.00     0.139 C 
ENDROOT
BRANCH   2   3
ATOM      3  O   UNK d   0      15.818   5.620   0.640  0.00  0.00    -0.776 OA
ATOM      4  H   UNK d   0      14.985   5.911   0.124  0.00  0.00     0.167 HD
ENDBRANCH   2   3
BRANCH   2   5
ATOM      5  C   UNK d   0      16.285   5.843   3.074  0.00  0.00     0.115 C 
BRANCH   5   6
ATOM      6  C   UNK d   0      14.866   5.612   3.518  0.00  0.00     0.052 C 
BRANCH   6   7
ATOM      7  C   UNK d   0      14.465   6.504   4.668  0.00  0.00    -0.020 A 
ATOM      8  C   UNK d   0      14.271   6.159   5.916  0.00  0.00    -0.011 A 
ATOM      9  C   UNK d   0      13.890   7.353   6.652  0.00  0.00     0.067 A 
ATOM     10  C   UNK d   0      13.575   7.663   7.985  0.00  0.00     0.062 C 
ATOM     11  N   UNK d   0      13.871   8.377   5.774  0.00  0.00    -0.248 NA
ATOM     12  C   UNK d   0      13.502   8.934   8.564  0.00  0.00     0.041 A 
ATOM     13  N   UNK d   0      12.968  10.085   8.112  0.00  0.00    -0.355 N 
ATOM     14  C   UNK d   0      14.114   9.149   9.813  0.00  0.00    -0.022 A 
ATOM     15  C   UNK d   0      13.232  11.026   9.038  0.00  0.00     0.042 A 
ATOM     16  H   UNK d   0      12.398  10.224   7.167  0.00  0.00     0.166 HD
ATOM     17  C   UNK d   0      12.901  12.396   9.068  0.00  0.00     0.062 C 
ATOM     18  C   UNK d   0      13.949  10.477  10.119  0.00  0.00    -0.013 A 
ATOM     19  C   UNK d   0      12.997  13.328   8.067  0.00  0.00     0.067 A 
ATOM     20  N   UNK d   0      13.245  12.871   6.837  0.00  0.00    -0.248 NA
ATOM     21  C   UNK d   0      12.908  14.776   7.975  0.00  0.00    -0.011 A 
ATOM     22  C   UNK d   0      13.328  13.915   5.948  0.00  0.00     0.066 A 
ATOM     23  C   UNK d   0      13.546  13.578   4.620  0.00  0.00     0.062 C 
ATOM     24  C   UNK d   0      13.107  15.113   6.734  0.00  0.00    -0.020 A 
ATOM     25  C   UNK d   0      13.604  12.294   4.056  0.00  0.00     0.041 A 
ATOM     26  N   UNK d   0      14.148  11.154   4.499  0.00  0.00    -0.355 N 
ATOM     27  C   UNK d   0      12.986  12.078   2.806  0.00  0.00    -0.022 A 
ATOM     28  C   UNK d   0      13.894  10.216   3.573  0.00  0.00     0.042 A 
ATOM     29  H   UNK d   0      14.729  11.018   5.444  0.00  0.00     0.166 HD
ATOM     30  C   UNK d   0      14.224   8.852   3.526  0.00  0.00     0.062 C 
ATOM     31  C   UNK d   0      13.164  10.765   2.493  0.00  0.00    -0.013 A 
ATOM     32  C   UNK d   0      14.208   7.932   4.563  0.00  0.00     0.066 A 
BRANCH   8  33
ATOM     33  C   UNK d   0      14.405   4.809   6.492  0.00  0.00     0.151 C 
BRANCH  33  34
ATOM     34  C   UNK d   0      15.719   4.583   7.119  0.00  0.00     0.143 C 
ATOM     35  O   UNK d   0      15.808   4.255   8.311  0.00  0.00    -0.650 OA
BRANCH  34  36
ATOM     36  O   UNK d   0      16.862   4.741   6.369  0.00  0.00    -0.776 OA
ATOM     37  H   UNK d   0      16.836   5.195   5.446  0.00  0.00     0.167 HD
ENDBRANCH  34  36
ENDBRANCH  33  34
ENDBRANCH   8  33
BRANCH  31  38
ATOM     38  C   UNK d   0      12.660  10.069   1.250  0.00  0.00     0.151 C 
BRANCH  38  39
ATOM     39  C   UNK d   0      13.723   9.732   0.326  0.00  0.00     0.143 C 
ATOM     40  O   UNK d   0      14.629  10.531   0.033  0.00  0.00    -0.650 OA
BRANCH  39  41
ATOM     41  O   UNK d   0      13.743   8.468  -0.264  0.00  0.00    -0.776 OA
ATOM     42  H   UNK d   0      13.493   8.418  -1.256  0.00  0.00     0.167 HD
ENDBRANCH  39  41
ENDBRANCH  38  39
ENDBRANCH  31  38
BRANCH  27  43
ATOM     43  C   UNK d   0      12.252  13.052   1.918  0.00  0.00     0.052 C 
BRANCH  43  44
ATOM     44  C   UNK d   0      13.162  13.967   1.165  0.00  0.00     0.115 C 
BRANCH  44  45
ATOM     45  C   UNK d   0      12.421  15.241   0.974  0.00  0.00     0.139 C 
ATOM     46  O   UNK d   0      11.196  15.260   1.253  0.00  0.00    -0.650 OA
BRANCH  45  47
ATOM     47  O   UNK d   0      13.020  16.392   0.512  0.00  0.00    -0.776 OA
ATOM     48  H   UNK d   0      12.572  17.021  -0.174  0.00  0.00     0.167 HD
ENDBRANCH  45  47
ENDBRANCH  44  45
ENDBRANCH  43  44
ENDBRANCH  27  43
BRANCH  24  49
ATOM     49  C   UNK d   0      13.067  16.481   6.188  0.00  0.00     0.052 C 
BRANCH  49  50
ATOM     50  C   UNK d   0      11.647  16.983   6.134  0.00  0.00     0.115 C 
BRANCH  50  51
ATOM     51  C   UNK d   0      10.711  16.239   5.303  0.00  0.00     0.139 C 
ATOM     52  O   UNK d   0       9.723  15.629   5.776  0.00  0.00    -0.650 OA
BRANCH  51  53
ATOM     53  O   UNK d   0      10.902  16.189   3.930  0.00  0.00    -0.776 OA
ATOM     54  H   UNK d   0      11.205  15.322   3.524  0.00  0.00     0.167 HD
ENDBRANCH  51  53
ENDBRANCH  50  51
ENDBRANCH  49  50
ENDBRANCH  24  49
BRANCH  21  55
ATOM     55  C   UNK d   0      12.630  15.670   9.137  0.00  0.00     0.151 C 
BRANCH  55  56
ATOM     56  C   UNK d   0      13.867  16.124   9.792  0.00  0.00     0.143 C 
ATOM     57  O   UNK d   0      14.353  17.257   9.605  0.00  0.00    -0.650 OA
BRANCH  56  58
ATOM     58  O   UNK d   0      14.508  15.237  10.655  0.00  0.00    -0.776 OA
ATOM     59  H   UNK d   0      15.427  15.558  11.007  0.00  0.00     0.167 HD
ENDBRANCH  56  58
ENDBRANCH  55  56
ENDBRANCH  21  55
BRANCH  18  60
ATOM     60  C   UNK d   0      14.461  11.146  11.371  0.00  0.00     0.151 C 
BRANCH  60  61
ATOM     61  C   UNK d   0      15.648  11.913  10.963  0.00  0.00     0.143 C 
ATOM     62  O   UNK d   0      16.318  11.755   9.942  0.00  0.00    -0.650 OA
BRANCH  61  63
ATOM     63  O   UNK d   0      16.040  12.936  11.859  0.00  0.00    -0.776 OA
ATOM     64  H   UNK d   0      16.704  12.758  12.591  0.00  0.00     0.167 HD
ENDBRANCH  61  63
ENDBRANCH  60  61
ENDBRANCH  18  60
BRANCH  14  65
ATOM     65  C   UNK d   0      14.749   8.185  10.773  0.00  0.00     0.052 C 
BRANCH  65  66
ATOM     66  C   UNK d   0      13.765   7.532  11.678  0.00  0.00     0.115 C 
BRANCH  66  67
ATOM     67  C   UNK d   0      14.169   7.129  12.996  0.00  0.00     0.139 C 
ATOM     68  O   UNK d   0      13.841   5.955  13.406  0.00  0.00    -0.650 OA
BRANCH  67  69
ATOM     69  O   UNK d   0      14.897   7.867  13.928  0.00  0.00    -0.776 OA
ATOM     70  H   UNK d   0      14.777   7.587  14.913  0.00  0.00     0.167 HD
ENDBRANCH  67  69
ENDBRANCH  66  67
ENDBRANCH  65  66
ENDBRANCH  14  65
ENDBRANCH   6   7
ENDBRANCH   5   6
ENDBRANCH   2   5
TORSDOF 28
ENDMDL
MODEL 20
REMARK VINA RESULT:      -8.6     28.101     31.750
REMARK  28 active torsions:
REMARK  status: ('A' for Active; 'I' for Inactive)
REMARK    1  A    between atoms: C_2  and  O_3 
REMARK    2  A    between atoms: C_2  and  C_4 
REMARK    3  A    between atoms: C_4  and  C_5 
REMARK    4  A    between atoms: C_5  and  C_6 
REMARK    5  A    between atoms: C_7  and  C_8 
REMARK    6  A    between atoms: C_8  and  C_9 
REMARK    7  A    between atoms: C_9  and  O_11 
REMARK    8  A    between atoms: C_28  and  C_29 
REMARK    9  A    between atoms: C_29  and  C_30 
REMARK   10  A    between atoms: C_30  and  O_32 
REMARK   11  A    between atoms: C_33  and  C_34 
REMARK   12  A    between atoms: C_34  and  C_35 
REMARK   13  A    between atoms: C_35  and  C_36 
REMARK   14  A    between atoms: C_36  and  O_38 
REMARK   15  A    between atoms: C_39  and  C_40 
REMARK   16  A    between atoms: C_40  and  C_41 
REMARK   17  A    between atoms: C_41  and  C_42 
REMARK   18  A    between atoms: C_42  and  O_44 
REMARK   19  A    between atoms: C_45  and  C_46 
REMARK   20  A    between atoms: C_46  and  C_47 
REMARK   21  A    between atoms: C_47  and  O_49 
REMARK   22  A    between atoms: C_50  and  C_51 
REMARK   23  A    between atoms: C_51  and  C_52 
REMARK   24  A    between atoms: C_52  and  O_54 
REMARK   25  A    between atoms: C_55  and  C_56 
REMARK   26  A    between atoms: C_56  and  C_57 
REMARK   27  A    between atoms: C_57  and  C_58 
REMARK   28  A    between atoms: C_58  and  O_60 
ROOT
ATOM      1  O   UNK d   0      14.828   6.528  11.410  0.00  0.00    -0.650 OA
ATOM      2  C   UNK d   0      13.581   6.627  11.416  0.00  0.00     0.139 C 
ENDROOT
BRANCH   2   3
ATOM      3  O   UNK d   0      12.826   5.655  10.805  0.00  0.00    -0.776 OA
ATOM      4  H   UNK d   0      13.260   4.813  10.422  0.00  0.00     0.167 HD
ENDBRANCH   2   3
BRANCH   2   5
ATOM      5  C   UNK d   0      12.926   7.790  12.078  0.00  0.00     0.115 C 
BRANCH   5   6
ATOM      6  C   UNK d   0      13.854   8.974  12.084  0.00  0.00     0.052 C 
BRANCH   6   7
ATOM      7  C   UNK d   0      13.468  10.020  11.066  0.00  0.00    -0.020 A 
ATOM      8  C   UNK d   0      12.877  11.167  11.285  0.00  0.00    -0.011 A 
ATOM      9  C   UNK d   0      12.703  11.830  10.003  0.00  0.00     0.067 A 
ATOM     10  C   UNK d   0      12.176  13.052   9.559  0.00  0.00     0.062 C 
ATOM     11  N   UNK d   0      13.211  11.012   9.057  0.00  0.00    -0.248 NA
ATOM     12  C   UNK d   0      12.347  13.642   8.302  0.00  0.00     0.041 A 
ATOM     13  N   UNK d   0      12.314  13.114   7.064  0.00  0.00    -0.355 N 
ATOM     14  C   UNK d   0      12.666  15.010   8.230  0.00  0.00    -0.022 A 
ATOM     15  C   UNK d   0      12.611  14.111   6.208  0.00  0.00     0.042 A 
ATOM     16  H   UNK d   0      12.066  12.063   6.798  0.00  0.00     0.166 HD
ATOM     17  C   UNK d   0      12.712  14.109   4.803  0.00  0.00     0.062 C 
ATOM     18  C   UNK d   0      12.839  15.315   6.903  0.00  0.00    -0.013 A 
ATOM     19  C   UNK d   0      13.329  13.197   3.984  0.00  0.00     0.067 A 
ATOM     20  N   UNK d   0      13.726  12.052   4.544  0.00  0.00    -0.248 NA
ATOM     21  C   UNK d   0      13.707  13.141   2.582  0.00  0.00    -0.011 A 
ATOM     22  C   UNK d   0      14.336  11.251   3.611  0.00  0.00     0.066 A 
ATOM     23  C   UNK d   0      14.766  10.008   4.051  0.00  0.00     0.062 C 
ATOM     24  C   UNK d   0      14.299  12.001   2.371  0.00  0.00    -0.020 A 
ATOM     25  C   UNK d   0      14.572   9.429   5.315  0.00  0.00     0.041 A 
ATOM     26  N   UNK d   0      14.620   9.950   6.547  0.00  0.00    -0.355 N 
ATOM     27  C   UNK d   0      14.248   8.056   5.386  0.00  0.00    -0.022 A 
ATOM     28  C   UNK d   0      14.332   8.956   7.402  0.00  0.00     0.042 A 
ATOM     29  H   UNK d   0      14.879  11.004   6.813  0.00  0.00     0.166 HD
ATOM     30  C   UNK d   0      14.238   8.942   8.803  0.00  0.00     0.062 C 
ATOM     31  C   UNK d   0      14.094   7.749   6.703  0.00  0.00    -0.013 A 
ATOM     32  C   UNK d   0      13.688   9.907   9.632  0.00  0.00     0.066 A 
BRANCH   8  33
ATOM     33  C   UNK d   0      12.450  11.708  12.589  0.00  0.00     0.151 C 
BRANCH  33  34
ATOM     34  C   UNK d   0      13.197  12.918  12.977  0.00  0.00     0.143 C 
ATOM     35  O   UNK d   0      12.605  13.976  13.234  0.00  0.00    -0.650 OA
BRANCH  34  36
ATOM     36  O   UNK d   0      14.570  12.869  13.053  0.00  0.00    -0.776 OA
ATOM     37  H   UNK d   0      15.151  12.852  12.204  0.00  0.00     0.167 HD
ENDBRANCH  34  36
ENDBRANCH  33  34
ENDBRANCH   8  33
BRANCH  31  38
ATOM     38  C   UNK d   0      13.729   6.395   7.266  0.00  0.00     0.151 C 
BRANCH  38  39
ATOM     39  C   UNK d   0      12.300   6.170   7.306  0.00  0.00     0.143 C 
ATOM     40  O   UNK d   0      11.584   6.597   8.230  0.00  0.00    -0.650 OA
BRANCH  39  41
ATOM     41  O   UNK d   0      11.689   5.452   6.278  0.00  0.00    -0.776 OA
ATOM     42  H   UNK d   0      10.796   5.000   6.498  0.00  0.00     0.167 HD
ENDBRANCH  39  41
ENDBRANCH  38  39
ENDBRANCH  31  38
BRANCH  27  43
ATOM     43  C   UNK d   0      14.085   7.051   4.274  0.00  0.00     0.052 C 
BRANCH  43  44
ATOM     44  C   UNK d   0      15.360   6.362   3.910  0.00  0.00     0.115 C 
BRANCH  44  45
ATOM     45  C   UNK d   0      15.143   4.912   4.153  0.00  0.00     0.139 C 
ATOM     46  O   UNK d   0      16.143   4.152   4.131  0.00  0.00    -0.650 OA
BRANCH  45  47
ATOM     47  O   UNK d   0      13.899   4.374   4.405  0.00  0.00    -0.776 OA
ATOM     48  H   UNK d   0      13.666   3.387   4.210  0.00  0.00     0.167 HD
ENDBRANCH  45  47
ENDBRANCH  44  45
ENDBRANCH  43  44
ENDBRANCH  27  43
BRANCH  24  49
ATOM     49  C   UNK d   0      14.810  11.514   1.078  0.00  0.00     0.052 C 
BRANCH  49  50
ATOM     50  C   UNK d   0      13.923  10.419   0.542  0.00  0.00     0.115 C 
BRANCH  50  51
ATOM     51  C   UNK d   0      14.534   9.116   0.322  0.00  0.00     0.139 C 
ATOM     52  O   UNK d   0      15.528   8.716   0.975  0.00  0.00    -0.650 OA
BRANCH  51  53
ATOM     53  O   UNK d   0      14.015   8.268  -0.644  0.00  0.00    -0.776 OA
ATOM     54  H   UNK d   0      14.614   7.556  -1.023  0.00  0.00     0.167 HD
ENDBRANCH  51  53
ENDBRANCH  50  51
ENDBRANCH  49  50
ENDBRANCH  24  49
BRANCH  21  55
ATOM     55  C   UNK d   0      13.432  14.230   1.598  0.00  0.00     0.151 C 
BRANCH  55  56
ATOM     56  C   UNK d   0      12.039  14.696   1.667  0.00  0.00     0.143 C 
ATOM     57  O   UNK d   0      11.063  13.932   1.532  0.00  0.00    -0.650 OA
BRANCH  56  58
ATOM     58  O   UNK d   0      11.819  16.054   1.894  0.00  0.00    -0.776 OA
ATOM     59  H   UNK d   0      11.831  16.646   1.044  0.00  0.00     0.167 HD
ENDBRANCH  56  58
ENDBRANCH  55  56
ENDBRANCH  21  55
BRANCH  18  60
ATOM     60  C   UNK d   0      13.200  16.679   6.369  0.00  0.00     0.151 C 
BRANCH  60  61
ATOM     61  C   UNK d   0      11.965  17.226   5.788  0.00  0.00     0.143 C 
ATOM     62  O   UNK d   0      11.695  17.343   4.592  0.00  0.00    -0.650 OA
BRANCH  61  63
ATOM     63  O   UNK d   0      10.997  17.656   6.727  0.00  0.00    -0.776 OA
ATOM     64  H   UNK d   0      10.103  17.202   6.795  0.00  0.00     0.167 HD
ENDBRANCH  61  63
ENDBRANCH  60  61
ENDBRANCH  18  60
BRANCH  14  65
ATOM     65  C   UNK d   0      12.722  16.062   9.301  0.00  0.00     0.052 C 
BRANCH  65  66
ATOM     66  C   UNK d   0      14.106  16.344   9.768  0.00  0.00     0.115 C 
BRANCH  66  67
ATOM     67  C   UNK d   0      14.677  15.553  10.821  0.00  0.00     0.139 C 
ATOM     68  O   UNK d   0      15.224  14.429  10.517  0.00  0.00    -0.650 OA
BRANCH  67  69
ATOM     69  O   UNK d   0      14.720  15.848  12.183  0.00  0.00    -0.776 OA
ATOM     70  H   UNK d   0      15.031  16.800  12.425  0.00  0.00     0.167 HD
ENDBRANCH  67  69
ENDBRANCH  66  67
ENDBRANCH  65  66
ENDBRANCH  14  65
ENDBRANCH   6   7
ENDBRANCH   5   6
ENDBRANCH   2   5
TORSDOF 28
ENDMDL
