MODEL 1
REMARK VINA RESULT:      -8.1      0.000      0.000
REMARK  16 active torsions:
REMARK  status: ('A' for Active; 'I' for Inactive)
REMARK    1  A    between atoms: C_6  and  C_7 
REMARK    2  A    between atoms: C_7  and  C_8 
REMARK    3  A    between atoms: C_8  and  C_9 
REMARK    4  A    between atoms: C_9  and  O_11 
REMARK    5  A    between atoms: C_16  and  C_17 
REMARK    6  A    between atoms: C_17  and  C_18 
REMARK    7  A    between atoms: C_18  and  C_19 
REMARK    8  A    between atoms: C_19  and  O_21 
REMARK    9  A    between atoms: C_28  and  C_29 
REMARK   10  A    between atoms: C_29  and  C_30 
REMARK   11  A    between atoms: C_30  and  C_31 
REMARK   12  A    between atoms: C_31  and  O_33 
REMARK   13  A    between atoms: C_42  and  C_43 
REMARK   14  A    between atoms: C_43  and  C_44 
REMARK   15  A    between atoms: C_44  and  C_45 
REMARK   16  A    between atoms: C_45  and  O_47 
ROOT
HETATM    1  C   UNK     0     -14.702  21.481 -12.294  0.00  0.00     0.051 C 
HETATM    2  C   UNK     0     -13.496  21.699 -11.403  0.00  0.00    -0.031 A 
HETATM    3  C   UNK     0     -12.292  22.322 -11.689  0.00  0.00     0.021 A 
HETATM    4  N   UNK     0     -11.491  22.258 -10.599  0.00  0.00    -0.361 N 
HETATM    5  C   UNK     0     -12.163  21.615  -9.621  0.00  0.00     0.022 A 
HETATM    6  C   UNK     0     -13.419  21.249 -10.091  0.00  0.00    -0.027 A 
HETATM    7  C   UNK     0     -11.766  21.365  -8.200  0.00  0.00     0.115 C 
HETATM    8  C   UNK     0     -11.105  22.517  -7.464  0.00  0.00     0.021 A 
HETATM    9  N   UNK     0     -11.355  23.831  -7.571  0.00  0.00    -0.361 N 
HETATM   10  C   UNK     0     -10.466  24.492  -6.799  0.00  0.00     0.022 A 
HETATM   11  C   UNK     0      -9.627  23.577  -6.170  0.00  0.00    -0.027 A 
HETATM   12  C   UNK     0     -10.024  22.332  -6.584  0.00  0.00    -0.031 A 
HETATM   13  C   UNK     0      -9.397  21.025  -6.150  0.00  0.00     0.051 C 
HETATM   14  C   UNK     0     -10.339  26.007  -6.666  0.00  0.00     0.115 C 
HETATM   15  C   UNK     0     -10.013  26.714  -7.971  0.00  0.00     0.021 A 
HETATM   16  N   UNK     0     -10.724  26.698  -9.114  0.00  0.00    -0.361 N 
HETATM   17  C   UNK     0     -10.066  27.386 -10.050  0.00  0.00     0.022 A 
HETATM   18  C   UNK     0      -8.874  27.884  -9.486  0.00  0.00    -0.027 A 
HETATM   19  C   UNK     0      -8.854  27.457  -8.184  0.00  0.00    -0.031 A 
HETATM   20  C   UNK     0      -7.752  27.805  -7.200  0.00  0.00     0.051 C 
HETATM   21  C   UNK     0     -10.398  27.606 -11.508  0.00  0.00     0.115 C 
HETATM   22  C   UNK     0     -11.096  26.484 -12.241  0.00  0.00     0.022 A 
HETATM   23  N   UNK     0     -10.870  25.167 -12.151  0.00  0.00    -0.361 N 
HETATM   24  C   UNK     0     -11.816  24.525 -12.866  0.00  0.00     0.021 A 
HETATM   25  C   UNK     0     -12.665  25.452 -13.440  0.00  0.00    -0.031 A 
HETATM   26  C   UNK     0     -13.847  25.222 -14.358  0.00  0.00     0.051 C 
HETATM   27  C   UNK     0     -12.224  26.713 -13.055  0.00  0.00    -0.027 A 
HETATM   28  C   UNK     0     -12.030  23.027 -12.991  0.00  0.00     0.115 C 
HETATM   29  H   UNK     0     -10.443  22.632 -10.540  0.00  0.00     0.165 HD
HETATM   30  H   UNK     0     -12.190  24.293  -8.152  0.00  0.00     0.165 HD
HETATM   31  H   UNK     0     -11.734  26.230  -9.251  0.00  0.00     0.165 HD
HETATM   32  H   UNK     0     -10.015  24.679 -11.616  0.00  0.00     0.165 HD
ENDROOT
BRANCH   6  33
HETATM   33  C   UNK     0     -14.537  20.511  -9.399  0.00  0.00     0.051 C 
BRANCH  33  34
HETATM   34  C   UNK     0     -14.061  19.169  -8.895  0.00  0.00     0.114 C 
BRANCH  34  35
HETATM   35  C   UNK     0     -13.888  18.283 -10.082  0.00  0.00     0.139 C 
HETATM   36  O   UNK     0     -14.818  18.169 -10.933  0.00  0.00    -0.650 OA
BRANCH  35  37
HETATM   37  O   UNK     0     -12.726  17.556 -10.312  0.00  0.00    -0.776 OA
HETATM   38  H   UNK     0     -11.943  17.587  -9.679  0.00  0.00     0.167 HD
ENDBRANCH  35  37
ENDBRANCH  34  35
ENDBRANCH  33  34
ENDBRANCH   6  33
BRANCH  27  39
HETATM   39  C   UNK     0     -12.851  27.974 -13.538  0.00  0.00     0.051 C 
BRANCH  39  40
HETATM   40  C   UNK     0     -13.760  28.685 -12.640  0.00  0.00     0.114 C 
BRANCH  40  41
HETATM   41  C   UNK     0     -15.031  28.129 -12.232  0.00  0.00     0.139 C 
HETATM   42  O   UNK     0     -15.182  27.450 -11.207  0.00  0.00    -0.650 OA
BRANCH  41  43
HETATM   43  O   UNK     0     -16.180  28.364 -13.039  0.00  0.00    -0.776 OA
HETATM   44  H   UNK     0     -16.754  29.141 -12.734  0.00  0.00     0.167 HD
ENDBRANCH  41  43
ENDBRANCH  40  41
ENDBRANCH  39  40
ENDBRANCH  27  39
BRANCH  11  45
HETATM   45  C   UNK     0      -8.495  23.842  -5.213  0.00  0.00     0.051 C 
BRANCH  45  46
HETATM   46  C   UNK     0      -8.921  24.426  -3.916  0.00  0.00     0.114 C 
BRANCH  46  47
HETATM   47  C   UNK     0      -9.230  23.290  -3.001  0.00  0.00     0.139 C 
HETATM   48  O   UNK     0      -8.438  22.339  -2.948  0.00  0.00    -0.650 OA
BRANCH  47  49
HETATM   49  O   UNK     0     -10.368  23.296  -2.233  0.00  0.00    -0.776 OA
HETATM   50  H   UNK     0     -11.274  23.603  -2.605  0.00  0.00     0.167 HD
ENDBRANCH  47  49
ENDBRANCH  46  47
ENDBRANCH  45  46
ENDBRANCH  11  45
BRANCH  18  51
HETATM   51  C   UNK     0      -7.823  28.737 -10.147  0.00  0.00     0.051 C 
BRANCH  51  52
HETATM   52  C   UNK     0      -6.758  27.779 -10.661  0.00  0.00     0.114 C 
BRANCH  52  53
HETATM   53  C   UNK     0      -6.865  27.568 -12.118  0.00  0.00     0.139 C 
HETATM   54  O   UNK     0      -6.954  28.542 -12.882  0.00  0.00    -0.650 OA
BRANCH  53  55
HETATM   55  O   UNK     0      -6.870  26.290 -12.620  0.00  0.00    -0.776 OA
HETATM   56  H   UNK     0      -7.575  25.607 -12.473  0.00  0.00     0.167 HD
ENDBRANCH  53  55
ENDBRANCH  52  53
ENDBRANCH  51  52
ENDBRANCH  18  51
TORSDOF 16
ENDMDL
MODEL 2
REMARK VINA RESULT:      -8.0     20.588     24.405
REMARK  16 active torsions:
REMARK  status: ('A' for Active; 'I' for Inactive)
REMARK    1  A    between atoms: C_6  and  C_7 
REMARK    2  A    between atoms: C_7  and  C_8 
REMARK    3  A    between atoms: C_8  and  C_9 
REMARK    4  A    between atoms: C_9  and  O_11 
REMARK    5  A    between atoms: C_16  and  C_17 
REMARK    6  A    between atoms: C_17  and  C_18 
REMARK    7  A    between atoms: C_18  and  C_19 
REMARK    8  A    between atoms: C_19  and  O_21 
REMARK    9  A    between atoms: C_28  and  C_29 
REMARK   10  A    between atoms: C_29  and  C_30 
REMARK   11  A    between atoms: C_30  and  C_31 
REMARK   12  A    between atoms: C_31  and  O_33 
REMARK   13  A    between atoms: C_42  and  C_43 
REMARK   14  A    between atoms: C_43  and  C_44 
REMARK   15  A    between atoms: C_44  and  C_45 
REMARK   16  A    between atoms: C_45  and  O_47 
ROOT
HETATM    1  C   UNK     0      13.071  19.119  -4.888  0.00  0.00     0.051 C 
HETATM    2  C   UNK     0      11.918  18.801  -5.819  0.00  0.00    -0.031 A 
HETATM    3  C   UNK     0      11.918  18.094  -7.011  0.00  0.00     0.021 A 
HETATM    4  N   UNK     0      10.663  18.086  -7.520  0.00  0.00    -0.361 N 
HETATM    5  C   UNK     0       9.862  18.765  -6.674  0.00  0.00     0.022 A 
HETATM    6  C   UNK     0      10.614  19.229  -5.600  0.00  0.00    -0.027 A 
HETATM    7  C   UNK     0       8.379  18.969  -6.724  0.00  0.00     0.115 C 
HETATM    8  C   UNK     0       7.538  17.762  -7.102  0.00  0.00     0.021 A 
HETATM    9  N   UNK     0       7.743  16.471  -6.796  0.00  0.00    -0.361 N 
HETATM   10  C   UNK     0       6.796  15.738  -7.420  0.00  0.00     0.022 A 
HETATM   11  C   UNK     0       5.953  16.580  -8.139  0.00  0.00    -0.027 A 
HETATM   12  C   UNK     0       6.415  17.857  -7.943  0.00  0.00    -0.031 A 
HETATM   13  C   UNK     0       5.803  19.108  -8.531  0.00  0.00     0.051 C 
HETATM   14  C   UNK     0       6.681  14.216  -7.406  0.00  0.00     0.115 C 
HETATM   15  C   UNK     0       7.887  13.502  -7.994  0.00  0.00     0.021 A 
HETATM   16  N   UNK     0       9.168  13.585  -7.590  0.00  0.00    -0.361 N 
HETATM   17  C   UNK     0       9.934  12.861  -8.410  0.00  0.00     0.022 A 
HETATM   18  C   UNK     0       9.111  12.270  -9.389  0.00  0.00    -0.027 A 
HETATM   19  C   UNK     0       7.831  12.678  -9.116  0.00  0.00    -0.031 A 
HETATM   20  C   UNK     0       6.617  12.238  -9.915  0.00  0.00     0.051 C 
HETATM   21  C   UNK     0      11.435  12.684  -8.433  0.00  0.00     0.115 C 
HETATM   22  C   UNK     0      12.284  13.862  -8.017  0.00  0.00     0.022 A 
HETATM   23  N   UNK     0      12.101  15.158  -8.303  0.00  0.00    -0.361 N 
HETATM   24  C   UNK     0      13.008  15.876  -7.610  0.00  0.00     0.021 A 
HETATM   25  C   UNK     0      13.799  15.021  -6.867  0.00  0.00    -0.031 A 
HETATM   26  C   UNK     0      14.972  15.349  -5.966  0.00  0.00     0.051 C 
HETATM   27  C   UNK     0      13.355  13.727  -7.111  0.00  0.00    -0.027 A 
HETATM   28  C   UNK     0      13.136  17.388  -7.536  0.00  0.00     0.115 C 
HETATM   29  H   UNK     0      10.361  17.635  -8.493  0.00  0.00     0.165 HD
HETATM   30  H   UNK     0       8.525  16.079  -6.101  0.00  0.00     0.165 HD
HETATM   31  H   UNK     0       9.535  14.127  -6.680  0.00  0.00     0.165 HD
HETATM   32  H   UNK     0      11.358  15.575  -9.032  0.00  0.00     0.165 HD
ENDROOT
BRANCH   6  33
HETATM   33  C   UNK     0      10.196  20.039  -4.399  0.00  0.00     0.051 C 
BRANCH  33  34
HETATM   34  C   UNK     0       9.825  19.135  -3.247  0.00  0.00     0.114 C 
BRANCH  34  35
HETATM   35  C   UNK     0       8.439  19.492  -2.827  0.00  0.00     0.139 C 
HETATM   36  O   UNK     0       7.763  20.322  -3.502  0.00  0.00    -0.650 OA
BRANCH  35  37
HETATM   37  O   UNK     0       7.832  18.945  -1.704  0.00  0.00    -0.776 OA
HETATM   38  H   UNK     0       8.294  18.911  -0.809  0.00  0.00     0.167 HD
ENDBRANCH  35  37
ENDBRANCH  34  35
ENDBRANCH  33  34
ENDBRANCH   6  33
BRANCH  27  39
HETATM   39  C   UNK     0      14.014  12.522  -6.538  0.00  0.00     0.051 C 
BRANCH  39  40
HETATM   40  C   UNK     0      14.834  11.693  -7.422  0.00  0.00     0.114 C 
BRANCH  40  41
HETATM   41  C   UNK     0      14.522  10.306  -7.685  0.00  0.00     0.139 C 
HETATM   42  O   UNK     0      14.917   9.370  -6.977  0.00  0.00    -0.650 OA
BRANCH  41  43
HETATM   43  O   UNK     0      13.719   9.981  -8.815  0.00  0.00    -0.776 OA
HETATM   44  H   UNK     0      13.285  10.778  -9.264  0.00  0.00     0.167 HD
ENDBRANCH  41  43
ENDBRANCH  40  41
ENDBRANCH  39  40
ENDBRANCH  27  39
BRANCH  11  45
HETATM   45  C   UNK     0       4.757  16.222  -8.979  0.00  0.00     0.051 C 
BRANCH  45  46
HETATM   46  C   UNK     0       3.504  16.039  -8.202  0.00  0.00     0.114 C 
BRANCH  46  47
HETATM   47  C   UNK     0       2.802  14.852  -8.770  0.00  0.00     0.139 C 
HETATM   48  O   UNK     0       1.573  14.902  -8.910  0.00  0.00    -0.650 OA
BRANCH  47  49
HETATM   49  O   UNK     0       3.502  13.727  -9.128  0.00  0.00    -0.776 OA
HETATM   50  H   UNK     0       4.019  13.665 -10.013  0.00  0.00     0.167 HD
ENDBRANCH  47  49
ENDBRANCH  46  47
ENDBRANCH  45  46
ENDBRANCH  11  45
BRANCH  18  51
HETATM   51  C   UNK     0       9.519  11.349 -10.509  0.00  0.00     0.051 C 
BRANCH  51  52
HETATM   52  C   UNK     0       9.812  12.240 -11.707  0.00  0.00     0.114 C 
BRANCH  52  53
HETATM   53  C   UNK     0       9.033  11.838 -12.895  0.00  0.00     0.139 C 
HETATM   54  O   UNK     0       8.029  12.487 -13.228  0.00  0.00    -0.650 OA
BRANCH  53  55
HETATM   55  O   UNK     0       9.423  10.741 -13.624  0.00  0.00    -0.776 OA
HETATM   56  H   UNK     0       8.922  10.332 -14.377  0.00  0.00     0.167 HD
ENDBRANCH  53  55
ENDBRANCH  52  53
ENDBRANCH  51  52
ENDBRANCH  18  51
TORSDOF 16
ENDMDL
MODEL 3
REMARK VINA RESULT:      -7.8     21.209     25.122
REMARK  16 active torsions:
REMARK  status: ('A' for Active; 'I' for Inactive)
REMARK    1  A    between atoms: C_6  and  C_7 
REMARK    2  A    between atoms: C_7  and  C_8 
REMARK    3  A    between atoms: C_8  and  C_9 
REMARK    4  A    between atoms: C_9  and  O_11 
REMARK    5  A    between atoms: C_16  and  C_17 
REMARK    6  A    between atoms: C_17  and  C_18 
REMARK    7  A    between atoms: C_18  and  C_19 
REMARK    8  A    between atoms: C_19  and  O_21 
REMARK    9  A    between atoms: C_28  and  C_29 
REMARK   10  A    between atoms: C_29  and  C_30 
REMARK   11  A    between atoms: C_30  and  C_31 
REMARK   12  A    between atoms: C_31  and  O_33 
REMARK   13  A    between atoms: C_42  and  C_43 
REMARK   14  A    between atoms: C_43  and  C_44 
REMARK   15  A    between atoms: C_44  and  C_45 
REMARK   16  A    between atoms: C_45  and  O_47 
ROOT
HETATM    1  C   UNK     0      -5.346   1.526 -22.454  0.00  0.00     0.051 C 
HETATM    2  C   UNK     0      -5.034   2.265 -21.169  0.00  0.00    -0.031 A 
HETATM    3  C   UNK     0      -4.146   1.934 -20.158  0.00  0.00     0.021 A 
HETATM    4  N   UNK     0      -4.220   2.871 -19.182  0.00  0.00    -0.361 N 
HETATM    5  C   UNK     0      -5.128   3.796 -19.554  0.00  0.00     0.022 A 
HETATM    6  C   UNK     0      -5.660   3.446 -20.791  0.00  0.00    -0.027 A 
HETATM    7  C   UNK     0      -5.514   5.076 -18.881  0.00  0.00     0.115 C 
HETATM    8  C   UNK     0      -4.382   5.914 -18.312  0.00  0.00     0.021 A 
HETATM    9  N   UNK     0      -3.144   6.089 -18.799  0.00  0.00    -0.361 N 
HETATM   10  C   UNK     0      -2.449   6.839 -17.917  0.00  0.00     0.022 A 
HETATM   11  C   UNK     0      -3.265   7.163 -16.837  0.00  0.00    -0.027 A 
HETATM   12  C   UNK     0      -4.484   6.584 -17.079  0.00  0.00    -0.031 A 
HETATM   13  C   UNK     0      -5.690   6.675 -16.172  0.00  0.00     0.051 C 
HETATM   14  C   UNK     0      -0.979   7.233 -18.032  0.00  0.00     0.115 C 
HETATM   15  C   UNK     0      -0.025   6.050 -18.063  0.00  0.00     0.021 A 
HETATM   16  N   UNK     0      -0.004   5.034 -18.946  0.00  0.00    -0.361 N 
HETATM   17  C   UNK     0       0.939   4.161 -18.588  0.00  0.00     0.022 A 
HETATM   18  C   UNK     0       1.570   4.635 -17.421  0.00  0.00    -0.027 A 
HETATM   19  C   UNK     0       0.958   5.819 -17.103  0.00  0.00    -0.031 A 
HETATM   20  C   UNK     0       1.360   6.687 -15.924  0.00  0.00     0.051 C 
HETATM   21  C   UNK     0       1.314   2.830 -19.199  0.00  0.00     0.115 C 
HETATM   22  C   UNK     0       0.204   2.005 -19.809  0.00  0.00     0.022 A 
HETATM   23  N   UNK     0      -1.039   1.817 -19.348  0.00  0.00    -0.361 N 
HETATM   24  C   UNK     0      -1.736   1.133 -20.278  0.00  0.00     0.021 A 
HETATM   25  C   UNK     0      -0.919   0.867 -21.360  0.00  0.00    -0.031 A 
HETATM   26  C   UNK     0      -1.234   0.097 -22.626  0.00  0.00     0.051 C 
HETATM   27  C   UNK     0       0.328   1.415 -21.083  0.00  0.00    -0.027 A 
HETATM   28  C   UNK     0      -3.209   0.764 -20.250  0.00  0.00     0.115 C 
HETATM   29  H   UNK     0      -3.657   2.851 -18.220  0.00  0.00     0.165 HD
HETATM   30  H   UNK     0      -2.773   5.727 -19.789  0.00  0.00     0.165 HD
HETATM   31  H   UNK     0      -0.636   4.955 -19.869  0.00  0.00     0.165 HD
HETATM   32  H   UNK     0      -1.424   2.127 -18.342  0.00  0.00     0.165 HD
ENDROOT
BRANCH   6  33
HETATM   33  C   UNK     0      -6.705   4.139 -21.629  0.00  0.00     0.051 C 
BRANCH  33  34
HETATM   34  C   UNK     0      -8.082   3.933 -21.044  0.00  0.00     0.114 C 
BRANCH  34  35
HETATM   35  C   UNK     0      -8.961   3.430 -22.139  0.00  0.00     0.139 C 
HETATM   36  O   UNK     0      -9.550   4.245 -22.907  0.00  0.00    -0.650 OA
BRANCH  35  37
HETATM   37  O   UNK     0      -9.172   2.076 -22.368  0.00  0.00    -0.776 OA
HETATM   38  H   UNK     0      -9.279   1.702 -23.298  0.00  0.00     0.167 HD
ENDBRANCH  35  37
ENDBRANCH  34  35
ENDBRANCH  33  34
ENDBRANCH   6  33
BRANCH  27  39
HETATM   39  C   UNK     0       1.498   1.268 -21.991  0.00  0.00     0.051 C 
BRANCH  39  40
HETATM   40  C   UNK     0       2.503   0.255 -21.669  0.00  0.00     0.114 C 
BRANCH  40  41
HETATM   41  C   UNK     0       3.755   0.589 -21.027  0.00  0.00     0.139 C 
HETATM   42  O   UNK     0       4.791   0.860 -21.648  0.00  0.00    -0.650 OA
BRANCH  41  43
HETATM   43  O   UNK     0       3.817   0.611 -19.604  0.00  0.00    -0.776 OA
HETATM   44  H   UNK     0       4.741   0.450 -19.223  0.00  0.00     0.167 HD
ENDBRANCH  41  43
ENDBRANCH  40  41
ENDBRANCH  39  40
ENDBRANCH  27  39
BRANCH  11  45
HETATM   45  C   UNK     0      -2.933   7.984 -15.620  0.00  0.00     0.051 C 
BRANCH  45  46
HETATM   46  C   UNK     0      -3.305   9.417 -15.736  0.00  0.00     0.114 C 
BRANCH  46  47
HETATM   47  C   UNK     0      -3.892   9.828 -14.428  0.00  0.00     0.139 C 
HETATM   48  O   UNK     0      -5.122   9.951 -14.344  0.00  0.00    -0.650 OA
BRANCH  47  49
HETATM   49  O   UNK     0      -3.089  10.068 -13.342  0.00  0.00    -0.776 OA
HETATM   50  H   UNK     0      -2.112  10.369 -13.441  0.00  0.00     0.167 HD
ENDBRANCH  47  49
ENDBRANCH  46  47
ENDBRANCH  45  46
ENDBRANCH  11  45
BRANCH  18  51
HETATM   51  C   UNK     0       2.709   4.004 -16.662  0.00  0.00     0.051 C 
BRANCH  51  52
HETATM   52  C   UNK     0       2.075   3.066 -15.645  0.00  0.00     0.114 C 
BRANCH  52  53
HETATM   53  C   UNK     0       2.481   1.664 -15.864  0.00  0.00     0.139 C 
HETATM   54  O   UNK     0       3.426   1.401 -16.624  0.00  0.00    -0.650 OA
BRANCH  53  55
HETATM   55  O   UNK     0       1.804   0.653 -15.225  0.00  0.00    -0.776 OA
HETATM   56  H   UNK     0       0.872   0.698 -14.885  0.00  0.00     0.167 HD
ENDBRANCH  53  55
ENDBRANCH  52  53
ENDBRANCH  51  52
ENDBRANCH  18  51
TORSDOF 16
ENDMDL
MODEL 4
REMARK VINA RESULT:      -7.8      1.913      2.248
REMARK  16 active torsions:
REMARK  status: ('A' for Active; 'I' for Inactive)
REMARK    1  A    between atoms: C_6  and  C_7 
REMARK    2  A    between atoms: C_7  and  C_8 
REMARK    3  A    between atoms: C_8  and  C_9 
REMARK    4  A    between atoms: C_9  and  O_11 
REMARK    5  A    between atoms: C_16  and  C_17 
REMARK    6  A    between atoms: C_17  and  C_18 
REMARK    7  A    between atoms: C_18  and  C_19 
REMARK    8  A    between atoms: C_19  and  O_21 
REMARK    9  A    between atoms: C_28  and  C_29 
REMARK   10  A    between atoms: C_29  and  C_30 
REMARK   11  A    between atoms: C_30  and  C_31 
REMARK   12  A    between atoms: C_31  and  O_33 
REMARK   13  A    between atoms: C_42  and  C_43 
REMARK   14  A    between atoms: C_43  and  C_44 
REMARK   15  A    between atoms: C_44  and  C_45 
REMARK   16  A    between atoms: C_45  and  O_47 
ROOT
HETATM    1  C   UNK     0     -14.959  20.851 -10.439  0.00  0.00     0.051 C 
HETATM    2  C   UNK     0     -13.550  21.134  -9.958  0.00  0.00    -0.031 A 
HETATM    3  C   UNK     0     -12.494  21.728 -10.631  0.00  0.00     0.021 A 
HETATM    4  N   UNK     0     -11.409  21.746  -9.821  0.00  0.00    -0.361 N 
HETATM    5  C   UNK     0     -11.753  21.185  -8.643  0.00  0.00     0.022 A 
HETATM    6  C   UNK     0     -13.085  20.788  -8.696  0.00  0.00    -0.027 A 
HETATM    7  C   UNK     0     -10.954  21.046  -7.385  0.00  0.00     0.115 C 
HETATM    8  C   UNK     0     -10.130  22.250  -6.965  0.00  0.00     0.021 A 
HETATM    9  N   UNK     0     -10.425  23.552  -7.095  0.00  0.00    -0.361 N 
HETATM   10  C   UNK     0      -9.363  24.268  -6.669  0.00  0.00     0.022 A 
HETATM   11  C   UNK     0      -8.359  23.403  -6.245  0.00  0.00    -0.027 A 
HETATM   12  C   UNK     0      -8.835  22.130  -6.428  0.00  0.00    -0.031 A 
HETATM   13  C   UNK     0      -8.084  20.859  -6.099  0.00  0.00     0.051 C 
HETATM   14  C   UNK     0      -9.231  25.788  -6.695  0.00  0.00     0.115 C 
HETATM   15  C   UNK     0      -9.314  26.390  -8.088  0.00  0.00     0.021 A 
HETATM   16  N   UNK     0     -10.327  26.286  -8.969  0.00  0.00    -0.361 N 
HETATM   17  C   UNK     0      -9.985  26.896 -10.105  0.00  0.00     0.022 A 
HETATM   18  C   UNK     0      -8.690  27.432  -9.955  0.00  0.00    -0.027 A 
HETATM   19  C   UNK     0      -8.282  27.109  -8.687  0.00  0.00    -0.031 A 
HETATM   20  C   UNK     0      -6.948  27.529  -8.097  0.00  0.00     0.051 C 
HETATM   21  C   UNK     0     -10.732  27.002 -11.415  0.00  0.00     0.115 C 
HETATM   22  C   UNK     0     -11.591  25.829 -11.825  0.00  0.00     0.022 A 
HETATM   23  N   UNK     0     -11.324  24.522 -11.704  0.00  0.00    -0.361 N 
HETATM   24  C   UNK     0     -12.425  23.830 -12.060  0.00  0.00     0.021 A 
HETATM   25  C   UNK     0     -13.422  24.712 -12.430  0.00  0.00    -0.031 A 
HETATM   26  C   UNK     0     -14.816  24.415 -12.941  0.00  0.00     0.051 C 
HETATM   27  C   UNK     0     -12.912  25.998 -12.287  0.00  0.00    -0.027 A 
HETATM   28  C   UNK     0     -12.637  22.327 -12.002  0.00  0.00     0.115 C 
HETATM   29  H   UNK     0     -10.397  22.120 -10.100  0.00  0.00     0.165 HD
HETATM   30  H   UNK     0     -11.403  23.971  -7.440  0.00  0.00     0.165 HD
HETATM   31  H   UNK     0     -11.324  25.813  -8.769  0.00  0.00     0.165 HD
HETATM   32  H   UNK     0     -10.340  24.074 -11.407  0.00  0.00     0.165 HD
ENDROOT
BRANCH   6  33
HETATM   33  C   UNK     0     -13.938  20.111  -7.653  0.00  0.00     0.051 C 
BRANCH  33  34
HETATM   34  C   UNK     0     -14.161  18.659  -8.003  0.00  0.00     0.114 C 
BRANCH  34  35
HETATM   35  C   UNK     0     -12.868  17.946  -7.795  0.00  0.00     0.139 C 
HETATM   36  O   UNK     0     -12.441  17.730  -6.624  0.00  0.00    -0.650 OA
BRANCH  35  37
HETATM   37  O   UNK     0     -12.086  17.490  -8.849  0.00  0.00    -0.776 OA
HETATM   38  H   UNK     0     -11.893  18.060  -9.657  0.00  0.00     0.167 HD
ENDBRANCH  35  37
ENDBRANCH  34  35
ENDBRANCH  33  34
ENDBRANCH   6  33
BRANCH  27  39
HETATM   39  C   UNK     0     -13.677  27.219 -12.661  0.00  0.00     0.051 C 
BRANCH  39  40
HETATM   40  C   UNK     0     -14.596  27.790 -11.677  0.00  0.00     0.114 C 
BRANCH  40  41
HETATM   41  C   UNK     0     -15.964  28.123 -12.003  0.00  0.00     0.139 C 
HETATM   42  O   UNK     0     -16.670  28.869 -11.311  0.00  0.00    -0.650 OA
BRANCH  41  43
HETATM   43  O   UNK     0     -16.548  27.572 -13.179  0.00  0.00    -0.776 OA
HETATM   44  H   UNK     0     -16.902  26.629 -13.069  0.00  0.00     0.167 HD
ENDBRANCH  41  43
ENDBRANCH  40  41
ENDBRANCH  39  40
ENDBRANCH  27  39
BRANCH  11  45
HETATM   45  C   UNK     0      -7.002  23.737  -5.684  0.00  0.00     0.051 C 
BRANCH  45  46
HETATM   46  C   UNK     0      -6.106  24.433  -6.642  0.00  0.00     0.114 C 
BRANCH  46  47
HETATM   47  C   UNK     0      -5.916  23.525  -7.809  0.00  0.00     0.139 C 
HETATM   48  O   UNK     0      -5.279  22.474  -7.645  0.00  0.00    -0.650 OA
BRANCH  47  49
HETATM   49  O   UNK     0      -6.432  23.844  -9.040  0.00  0.00    -0.776 OA
HETATM   50  H   UNK     0      -5.833  23.994  -9.860  0.00  0.00     0.167 HD
ENDBRANCH  47  49
ENDBRANCH  46  47
ENDBRANCH  45  46
ENDBRANCH  11  45
BRANCH  18  51
HETATM   51  C   UNK     0      -7.894  28.226 -10.958  0.00  0.00     0.051 C 
BRANCH  51  52
HETATM   52  C   UNK     0      -6.972  27.235 -11.652  0.00  0.00     0.114 C 
BRANCH  52  53
HETATM   53  C   UNK     0      -7.425  26.929 -13.022  0.00  0.00     0.139 C 
HETATM   54  O   UNK     0      -7.274  27.764 -13.928  0.00  0.00    -0.650 OA
BRANCH  53  55
HETATM   55  O   UNK     0      -8.017  25.718 -13.288  0.00  0.00    -0.776 OA
HETATM   56  H   UNK     0      -8.896  25.409 -12.943  0.00  0.00     0.167 HD
ENDBRANCH  53  55
ENDBRANCH  52  53
ENDBRANCH  51  52
ENDBRANCH  18  51
TORSDOF 16
ENDMDL
MODEL 5
REMARK VINA RESULT:      -7.7     18.580     22.907
REMARK  16 active torsions:
REMARK  status: ('A' for Active; 'I' for Inactive)
REMARK    1  A    between atoms: C_6  and  C_7 
REMARK    2  A    between atoms: C_7  and  C_8 
REMARK    3  A    between atoms: C_8  and  C_9 
REMARK    4  A    between atoms: C_9  and  O_11 
REMARK    5  A    between atoms: C_16  and  C_17 
REMARK    6  A    between atoms: C_17  and  C_18 
REMARK    7  A    between atoms: C_18  and  C_19 
REMARK    8  A    between atoms: C_19  and  O_21 
REMARK    9  A    between atoms: C_28  and  C_29 
REMARK   10  A    between atoms: C_29  and  C_30 
REMARK   11  A    between atoms: C_30  and  C_31 
REMARK   12  A    between atoms: C_31  and  O_33 
REMARK   13  A    between atoms: C_42  and  C_43 
REMARK   14  A    between atoms: C_43  and  C_44 
REMARK   15  A    between atoms: C_44  and  C_45 
REMARK   16  A    between atoms: C_45  and  O_47 
ROOT
HETATM    1  C   UNK     0       2.209   4.680 -18.006  0.00  0.00     0.051 C 
HETATM    2  C   UNK     0       1.108   5.702 -17.812  0.00  0.00    -0.031 A 
HETATM    3  C   UNK     0       0.214   6.218 -18.737  0.00  0.00     0.021 A 
HETATM    4  N   UNK     0      -0.575   7.133 -18.125  0.00  0.00    -0.361 N 
HETATM    5  C   UNK     0      -0.209   7.205 -16.829  0.00  0.00     0.022 A 
HETATM    6  C   UNK     0       0.844   6.325 -16.599  0.00  0.00    -0.027 A 
HETATM    7  C   UNK     0      -0.820   7.987 -15.709  0.00  0.00     0.115 C 
HETATM    8  C   UNK     0      -2.337   8.008 -15.640  0.00  0.00     0.021 A 
HETATM    9  N   UNK     0      -3.201   7.027 -15.945  0.00  0.00    -0.361 N 
HETATM   10  C   UNK     0      -4.453   7.518 -15.824  0.00  0.00     0.022 A 
HETATM   11  C   UNK     0      -4.393   8.849 -15.421  0.00  0.00    -0.027 A 
HETATM   12  C   UNK     0      -3.063   9.164 -15.303  0.00  0.00    -0.031 A 
HETATM   13  C   UNK     0      -2.518  10.510 -14.882  0.00  0.00     0.051 C 
HETATM   14  C   UNK     0      -5.748   6.773 -16.134  0.00  0.00     0.115 C 
HETATM   15  C   UNK     0      -5.865   6.317 -17.580  0.00  0.00     0.021 A 
HETATM   16  N   UNK     0      -5.030   5.508 -18.256  0.00  0.00    -0.361 N 
HETATM   17  C   UNK     0      -5.444   5.408 -19.521  0.00  0.00     0.022 A 
HETATM   18  C   UNK     0      -6.611   6.183 -19.674  0.00  0.00    -0.027 A 
HETATM   19  C   UNK     0      -6.865   6.746 -18.450  0.00  0.00    -0.031 A 
HETATM   20  C   UNK     0      -8.062   7.634 -18.162  0.00  0.00     0.051 C 
HETATM   21  C   UNK     0      -4.821   4.686 -20.694  0.00  0.00     0.115 C 
HETATM   22  C   UNK     0      -3.313   4.620 -20.752  0.00  0.00     0.022 A 
HETATM   23  N   UNK     0      -2.428   5.579 -20.450  0.00  0.00    -0.361 N 
HETATM   24  C   UNK     0      -1.191   5.045 -20.502  0.00  0.00     0.021 A 
HETATM   25  C   UNK     0      -1.281   3.712 -20.855  0.00  0.00    -0.031 A 
HETATM   26  C   UNK     0      -0.169   2.708 -21.080  0.00  0.00     0.051 C 
HETATM   27  C   UNK     0      -2.629   3.417 -21.021  0.00  0.00    -0.027 A 
HETATM   28  C   UNK     0       0.126   5.715 -20.150  0.00  0.00     0.115 C 
HETATM   29  H   UNK     0      -1.359   7.750 -18.622  0.00  0.00     0.165 HD
HETATM   30  H   UNK     0      -2.932   5.972 -16.198  0.00  0.00     0.165 HD
HETATM   31  H   UNK     0      -4.156   4.956 -17.821  0.00  0.00     0.165 HD
HETATM   32  H   UNK     0      -2.666   6.654 -20.240  0.00  0.00     0.165 HD
ENDROOT
BRANCH   6  33
HETATM   33  C   UNK     0       1.608   6.036 -15.332  0.00  0.00     0.051 C 
BRANCH  33  34
HETATM   34  C   UNK     0       2.659   7.093 -15.089  0.00  0.00     0.114 C 
BRANCH  34  35
HETATM   35  C   UNK     0       3.949   6.390 -14.830  0.00  0.00     0.139 C 
HETATM   36  O   UNK     0       4.696   6.053 -15.794  0.00  0.00    -0.650 OA
BRANCH  35  37
HETATM   37  O   UNK     0       4.387   6.078 -13.549  0.00  0.00    -0.776 OA
HETATM   38  H   UNK     0       5.233   5.556 -13.386  0.00  0.00     0.167 HD
ENDBRANCH  35  37
ENDBRANCH  34  35
ENDBRANCH  33  34
ENDBRANCH   6  33
BRANCH  27  39
HETATM   39  C   UNK     0      -3.118   2.086 -21.474  0.00  0.00     0.051 C 
BRANCH  39  40
HETATM   40  C   UNK     0      -3.917   1.287 -20.546  0.00  0.00     0.114 C 
BRANCH  40  41
HETATM   41  C   UNK     0      -3.625   1.228 -19.131  0.00  0.00     0.139 C 
HETATM   42  O   UNK     0      -4.248   1.874 -18.278  0.00  0.00    -0.650 OA
BRANCH  41  43
HETATM   43  O   UNK     0      -2.569   0.388 -18.678  0.00  0.00    -0.776 OA
HETATM   44  H   UNK     0      -2.877  -0.478 -18.250  0.00  0.00     0.167 HD
ENDBRANCH  41  43
ENDBRANCH  40  41
ENDBRANCH  39  40
ENDBRANCH  27  39
BRANCH  11  45
HETATM   45  C   UNK     0      -5.526   9.803 -15.150  0.00  0.00     0.051 C 
BRANCH  45  46
HETATM   46  C   UNK     0      -6.161   9.626 -13.819  0.00  0.00     0.114 C 
BRANCH  46  47
HETATM   47  C   UNK     0      -5.678  10.736 -12.949  0.00  0.00     0.139 C 
HETATM   48  O   UNK     0      -5.523  11.858 -13.451  0.00  0.00    -0.650 OA
BRANCH  47  49
HETATM   49  O   UNK     0      -5.410  10.521 -11.621  0.00  0.00    -0.776 OA
HETATM   50  H   UNK     0      -6.093  10.086 -10.990  0.00  0.00     0.167 HD
ENDBRANCH  47  49
ENDBRANCH  46  47
ENDBRANCH  45  46
ENDBRANCH  11  45
BRANCH  18  51
HETATM   51  C   UNK     0      -7.450   6.360 -20.913  0.00  0.00     0.051 C 
BRANCH  51  52
HETATM   52  C   UNK     0      -8.435   5.200 -20.930  0.00  0.00     0.114 C 
BRANCH  52  53
HETATM   53  C   UNK     0      -9.828   5.664 -21.076  0.00  0.00     0.139 C 
HETATM   54  O   UNK     0     -10.508   5.916 -20.068  0.00  0.00    -0.650 OA
BRANCH  53  55
HETATM   55  O   UNK     0     -10.367   5.810 -22.331  0.00  0.00    -0.776 OA
HETATM   56  H   UNK     0     -10.161   6.537 -22.974  0.00  0.00     0.167 HD
ENDBRANCH  53  55
ENDBRANCH  52  53
ENDBRANCH  51  52
ENDBRANCH  18  51
TORSDOF 16
ENDMDL
MODEL 6
REMARK VINA RESULT:      -7.7     20.953     24.792
REMARK  16 active torsions:
REMARK  status: ('A' for Active; 'I' for Inactive)
REMARK    1  A    between atoms: C_6  and  C_7 
REMARK    2  A    between atoms: C_7  and  C_8 
REMARK    3  A    between atoms: C_8  and  C_9 
REMARK    4  A    between atoms: C_9  and  O_11 
REMARK    5  A    between atoms: C_16  and  C_17 
REMARK    6  A    between atoms: C_17  and  C_18 
REMARK    7  A    between atoms: C_18  and  C_19 
REMARK    8  A    between atoms: C_19  and  O_21 
REMARK    9  A    between atoms: C_28  and  C_29 
REMARK   10  A    between atoms: C_29  and  C_30 
REMARK   11  A    between atoms: C_30  and  C_31 
REMARK   12  A    between atoms: C_31  and  O_33 
REMARK   13  A    between atoms: C_42  and  C_43 
REMARK   14  A    between atoms: C_43  and  C_44 
REMARK   15  A    between atoms: C_44  and  C_45 
REMARK   16  A    between atoms: C_45  and  O_47 
ROOT
HETATM    1  C   UNK     0      -5.656   1.697 -22.397  0.00  0.00     0.051 C 
HETATM    2  C   UNK     0      -5.272   2.410 -21.117  0.00  0.00    -0.031 A 
HETATM    3  C   UNK     0      -4.381   2.024 -20.128  0.00  0.00     0.021 A 
HETATM    4  N   UNK     0      -4.377   2.958 -19.148  0.00  0.00    -0.361 N 
HETATM    5  C   UNK     0      -5.240   3.936 -19.494  0.00  0.00     0.022 A 
HETATM    6  C   UNK     0      -5.820   3.623 -20.719  0.00  0.00    -0.027 A 
HETATM    7  C   UNK     0      -5.535   5.233 -18.808  0.00  0.00     0.115 C 
HETATM    8  C   UNK     0      -4.345   6.002 -18.263  0.00  0.00     0.021 A 
HETATM    9  N   UNK     0      -3.111   6.108 -18.779  0.00  0.00    -0.361 N 
HETATM   10  C   UNK     0      -2.353   6.813 -17.912  0.00  0.00     0.022 A 
HETATM   11  C   UNK     0      -3.123   7.178 -16.811  0.00  0.00    -0.027 A 
HETATM   12  C   UNK     0      -4.379   6.670 -17.026  0.00  0.00    -0.031 A 
HETATM   13  C   UNK     0      -5.556   6.825 -16.089  0.00  0.00     0.051 C 
HETATM   14  C   UNK     0      -0.866   7.123 -18.060  0.00  0.00     0.115 C 
HETATM   15  C   UNK     0       0.018   5.887 -18.118  0.00  0.00     0.021 A 
HETATM   16  N   UNK     0      -0.041   4.877 -19.006  0.00  0.00    -0.361 N 
HETATM   17  C   UNK     0       0.860   3.949 -18.673  0.00  0.00     0.022 A 
HETATM   18  C   UNK     0       1.545   4.380 -17.520  0.00  0.00    -0.027 A 
HETATM   19  C   UNK     0       1.009   5.596 -17.183  0.00  0.00    -0.031 A 
HETATM   20  C   UNK     0       1.487   6.434 -16.011  0.00  0.00     0.051 C 
HETATM   21  C   UNK     0       1.143   2.602 -19.298  0.00  0.00     0.115 C 
HETATM   22  C   UNK     0      -0.026   1.845 -19.884  0.00  0.00     0.022 A 
HETATM   23  N   UNK     0      -1.266   1.725 -19.394  0.00  0.00    -0.361 N 
HETATM   24  C   UNK     0      -2.024   1.088 -20.310  0.00  0.00     0.021 A 
HETATM   25  C   UNK     0      -1.249   0.780 -21.412  0.00  0.00    -0.031 A 
HETATM   26  C   UNK     0      -1.637   0.036 -22.672  0.00  0.00     0.051 C 
HETATM   27  C   UNK     0       0.034   1.255 -21.163  0.00  0.00    -0.027 A 
HETATM   28  C   UNK     0      -3.514   0.802 -20.247  0.00  0.00     0.115 C 
HETATM   29  H   UNK     0      -3.794   2.902 -18.200  0.00  0.00     0.165 HD
HETATM   30  H   UNK     0      -2.784   5.730 -19.779  0.00  0.00     0.165 HD
HETATM   31  H   UNK     0      -0.698   4.838 -19.913  0.00  0.00     0.165 HD
HETATM   32  H   UNK     0      -1.609   2.052 -18.378  0.00  0.00     0.165 HD
ENDROOT
BRANCH   6  33
HETATM   33  C   UNK     0      -6.843   4.378 -21.529  0.00  0.00     0.051 C 
BRANCH  33  34
HETATM   34  C   UNK     0      -8.238   4.108 -21.015  0.00  0.00     0.114 C 
BRANCH  34  35
HETATM   35  C   UNK     0      -9.024   3.527 -22.142  0.00  0.00     0.139 C 
HETATM   36  O   UNK     0      -9.600   4.287 -22.974  0.00  0.00    -0.650 OA
BRANCH  35  37
HETATM   37  O   UNK     0      -9.159   2.158 -22.334  0.00  0.00    -0.776 OA
HETATM   38  H   UNK     0      -8.741   1.684 -23.118  0.00  0.00     0.167 HD
ENDBRANCH  35  37
ENDBRANCH  34  35
ENDBRANCH  33  34
ENDBRANCH   6  33
BRANCH  27  39
HETATM   39  C   UNK     0       1.171   1.046 -22.099  0.00  0.00     0.051 C 
BRANCH  39  40
HETATM   40  C   UNK     0       1.668   2.195 -22.856  0.00  0.00     0.114 C 
BRANCH  40  41
HETATM   41  C   UNK     0       0.904   3.414 -22.995  0.00  0.00     0.139 C 
HETATM   42  O   UNK     0       1.027   4.388 -22.240  0.00  0.00    -0.650 OA
BRANCH  41  43
HETATM   43  O   UNK     0      -0.046   3.518 -24.051  0.00  0.00    -0.776 OA
HETATM   44  H   UNK     0      -0.097   2.703 -24.651  0.00  0.00     0.167 HD
ENDBRANCH  41  43
ENDBRANCH  40  41
ENDBRANCH  39  40
ENDBRANCH  27  39
BRANCH  11  45
HETATM   45  C   UNK     0      -2.716   7.972 -15.599  0.00  0.00     0.051 C 
BRANCH  45  46
HETATM   46  C   UNK     0      -2.974   9.430 -15.716  0.00  0.00     0.114 C 
BRANCH  46  47
HETATM   47  C   UNK     0      -3.687   9.853 -14.476  0.00  0.00     0.139 C 
HETATM   48  O   UNK     0      -4.917  10.001 -14.522  0.00  0.00    -0.650 OA
BRANCH  47  49
HETATM   49  O   UNK     0      -2.999  10.075 -13.310  0.00  0.00    -0.776 OA
HETATM   50  H   UNK     0      -3.350  10.708 -12.582  0.00  0.00     0.167 HD
ENDBRANCH  47  49
ENDBRANCH  46  47
ENDBRANCH  45  46
ENDBRANCH  11  45
BRANCH  18  51
HETATM   51  C   UNK     0       2.663   3.682 -16.791  0.00  0.00     0.051 C 
BRANCH  51  52
HETATM   52  C   UNK     0       2.010   2.883 -15.673  0.00  0.00     0.114 C 
BRANCH  52  53
HETATM   53  C   UNK     0       2.441   1.472 -15.681  0.00  0.00     0.139 C 
HETATM   54  O   UNK     0       1.750   0.607 -15.121  0.00  0.00    -0.650 OA
BRANCH  53  55
HETATM   55  O   UNK     0       3.613   1.123 -16.308  0.00  0.00    -0.776 OA
HETATM   56  H   UNK     0       4.085   0.254 -16.223  0.00  0.00     0.167 HD
ENDBRANCH  53  55
ENDBRANCH  52  53
ENDBRANCH  51  52
ENDBRANCH  18  51
TORSDOF 16
ENDMDL
MODEL 7
REMARK VINA RESULT:      -7.6     21.018     25.766
REMARK  16 active torsions:
REMARK  status: ('A' for Active; 'I' for Inactive)
REMARK    1  A    between atoms: C_6  and  C_7 
REMARK    2  A    between atoms: C_7  and  C_8 
REMARK    3  A    between atoms: C_8  and  C_9 
REMARK    4  A    between atoms: C_9  and  O_11 
REMARK    5  A    between atoms: C_16  and  C_17 
REMARK    6  A    between atoms: C_17  and  C_18 
REMARK    7  A    between atoms: C_18  and  C_19 
REMARK    8  A    between atoms: C_19  and  O_21 
REMARK    9  A    between atoms: C_28  and  C_29 
REMARK   10  A    between atoms: C_29  and  C_30 
REMARK   11  A    between atoms: C_30  and  C_31 
REMARK   12  A    between atoms: C_31  and  O_33 
REMARK   13  A    between atoms: C_42  and  C_43 
REMARK   14  A    between atoms: C_43  and  C_44 
REMARK   15  A    between atoms: C_44  and  C_45 
REMARK   16  A    between atoms: C_45  and  O_47 
ROOT
HETATM    1  C   UNK     0      -2.180   8.039 -15.131  0.00  0.00     0.051 C 
HETATM    2  C   UNK     0      -2.780   7.406 -16.371  0.00  0.00    -0.031 A 
HETATM    3  C   UNK     0      -2.174   7.082 -17.574  0.00  0.00     0.021 A 
HETATM    4  N   UNK     0      -3.103   6.563 -18.411  0.00  0.00    -0.361 N 
HETATM    5  C   UNK     0      -4.287   6.541 -17.764  0.00  0.00     0.022 A 
HETATM    6  C   UNK     0      -4.121   7.064 -16.486  0.00  0.00    -0.027 A 
HETATM    7  C   UNK     0      -5.603   5.982 -18.206  0.00  0.00     0.115 C 
HETATM    8  C   UNK     0      -5.571   4.637 -18.910  0.00  0.00     0.021 A 
HETATM    9  N   UNK     0      -4.764   3.591 -18.677  0.00  0.00    -0.361 N 
HETATM   10  C   UNK     0      -5.028   2.644 -19.603  0.00  0.00     0.022 A 
HETATM   11  C   UNK     0      -6.039   3.089 -20.449  0.00  0.00    -0.027 A 
HETATM   12  C   UNK     0      -6.386   4.344 -20.018  0.00  0.00    -0.031 A 
HETATM   13  C   UNK     0      -7.453   5.217 -20.639  0.00  0.00     0.051 C 
HETATM   14  C   UNK     0      -4.304   1.310 -19.759  0.00  0.00     0.115 C 
HETATM   15  C   UNK     0      -2.818   1.446 -20.050  0.00  0.00     0.021 A 
HETATM   16  N   UNK     0      -1.887   2.064 -19.300  0.00  0.00    -0.361 N 
HETATM   17  C   UNK     0      -0.714   2.024 -19.935  0.00  0.00     0.022 A 
HETATM   18  C   UNK     0      -0.886   1.338 -21.154  0.00  0.00    -0.027 A 
HETATM   19  C   UNK     0      -2.208   0.980 -21.213  0.00  0.00    -0.031 A 
HETATM   20  C   UNK     0      -2.817   0.185 -22.354  0.00  0.00     0.051 C 
HETATM   21  C   UNK     0       0.618   2.631 -19.556  0.00  0.00     0.115 C 
HETATM   22  C   UNK     0       0.600   3.948 -18.816  0.00  0.00     0.022 A 
HETATM   23  N   UNK     0      -0.195   5.005 -19.024  0.00  0.00    -0.361 N 
HETATM   24  C   UNK     0       0.030   5.903 -18.043  0.00  0.00     0.021 A 
HETATM   25  C   UNK     0       1.001   5.417 -17.190  0.00  0.00    -0.031 A 
HETATM   26  C   UNK     0       1.618   6.074 -15.973  0.00  0.00     0.051 C 
HETATM   27  C   UNK     0       1.382   4.166 -17.664  0.00  0.00    -0.027 A 
HETATM   28  C   UNK     0      -0.694   7.216 -17.801  0.00  0.00     0.115 C 
HETATM   29  H   UNK     0      -2.925   6.252 -19.466  0.00  0.00     0.165 HD
HETATM   30  H   UNK     0      -4.041   3.497 -17.830  0.00  0.00     0.165 HD
HETATM   31  H   UNK     0      -2.050   2.497 -18.278  0.00  0.00     0.165 HD
HETATM   32  H   UNK     0      -0.893   5.147 -19.889  0.00  0.00     0.165 HD
ENDROOT
BRANCH   6  33
HETATM   33  C   UNK     0      -5.128   7.264 -15.381  0.00  0.00     0.051 C 
BRANCH  33  34
HETATM   34  C   UNK     0      -5.929   8.524 -15.608  0.00  0.00     0.114 C 
BRANCH  34  35
HETATM   35  C   UNK     0      -7.149   8.437 -14.755  0.00  0.00     0.139 C 
HETATM   36  O   UNK     0      -7.633   7.309 -14.448  0.00  0.00    -0.650 OA
BRANCH  35  37
HETATM   37  O   UNK     0      -7.801   9.562 -14.263  0.00  0.00    -0.776 OA
HETATM   38  H   UNK     0      -8.766   9.755 -14.475  0.00  0.00     0.167 HD
ENDBRANCH  35  37
ENDBRANCH  34  35
ENDBRANCH  33  34
ENDBRANCH   6  33
BRANCH  27  39
HETATM   39  C   UNK     0       2.465   3.358 -17.041  0.00  0.00     0.051 C 
BRANCH  39  40
HETATM   40  C   UNK     0       2.174   2.649 -15.796  0.00  0.00     0.114 C 
BRANCH  40  41
HETATM   41  C   UNK     0       2.448   1.239 -15.630  0.00  0.00     0.139 C 
HETATM   42  O   UNK     0       3.453   0.679 -16.089  0.00  0.00    -0.650 OA
BRANCH  41  43
HETATM   43  O   UNK     0       1.524   0.436 -14.902  0.00  0.00    -0.776 OA
HETATM   44  H   UNK     0       0.617   0.337 -15.343  0.00  0.00     0.167 HD
ENDBRANCH  41  43
ENDBRANCH  40  41
ENDBRANCH  39  40
ENDBRANCH  27  39
BRANCH  11  45
HETATM   45  C   UNK     0      -6.669   2.380 -21.617  0.00  0.00     0.051 C 
BRANCH  45  46
HETATM   46  C   UNK     0      -5.877   2.457 -22.872  0.00  0.00     0.114 C 
BRANCH  46  47
HETATM   47  C   UNK     0      -6.828   2.777 -23.975  0.00  0.00     0.139 C 
HETATM   48  O   UNK     0      -7.463   3.840 -23.920  0.00  0.00    -0.650 OA
BRANCH  47  49
HETATM   49  O   UNK     0      -6.998   1.914 -25.028  0.00  0.00    -0.776 OA
HETATM   50  H   UNK     0      -7.793   1.992 -25.674  0.00  0.00     0.167 HD
ENDBRANCH  47  49
ENDBRANCH  46  47
ENDBRANCH  45  46
ENDBRANCH  11  45
BRANCH  18  51
HETATM   51  C   UNK     0       0.156   1.022 -22.195  0.00  0.00     0.051 C 
BRANCH  51  52
HETATM   52  C   UNK     0       0.770  -0.310 -21.793  0.00  0.00     0.114 C 
BRANCH  52  53
HETATM   53  C   UNK     0       2.245  -0.269 -21.827  0.00  0.00     0.139 C 
HETATM   54  O   UNK     0       2.872   0.267 -20.899  0.00  0.00    -0.650 OA
BRANCH  53  55
HETATM   55  O   UNK     0       2.916  -0.822 -22.890  0.00  0.00    -0.776 OA
HETATM   56  H   UNK     0       3.507  -0.337 -23.524  0.00  0.00     0.167 HD
ENDBRANCH  53  55
ENDBRANCH  52  53
ENDBRANCH  51  52
ENDBRANCH  18  51
TORSDOF 16
ENDMDL
MODEL 8
REMARK VINA RESULT:      -7.6     28.673     32.513
REMARK  16 active torsions:
REMARK  status: ('A' for Active; 'I' for Inactive)
REMARK    1  A    between atoms: C_6  and  C_7 
REMARK    2  A    between atoms: C_7  and  C_8 
REMARK    3  A    between atoms: C_8  and  C_9 
REMARK    4  A    between atoms: C_9  and  O_11 
REMARK    5  A    between atoms: C_16  and  C_17 
REMARK    6  A    between atoms: C_17  and  C_18 
REMARK    7  A    between atoms: C_18  and  C_19 
REMARK    8  A    between atoms: C_19  and  O_21 
REMARK    9  A    between atoms: C_28  and  C_29 
REMARK   10  A    between atoms: C_29  and  C_30 
REMARK   11  A    between atoms: C_30  and  C_31 
REMARK   12  A    between atoms: C_31  and  O_33 
REMARK   13  A    between atoms: C_42  and  C_43 
REMARK   14  A    between atoms: C_43  and  C_44 
REMARK   15  A    between atoms: C_44  and  C_45 
REMARK   16  A    between atoms: C_45  and  O_47 
ROOT
HETATM    1  C   UNK     0      19.511   7.111 -11.923  0.00  0.00     0.051 C 
HETATM    2  C   UNK     0      18.245   7.780 -11.427  0.00  0.00    -0.031 A 
HETATM    3  C   UNK     0      17.046   7.209 -11.030  0.00  0.00     0.021 A 
HETATM    4  N   UNK     0      16.179   8.194 -10.694  0.00  0.00    -0.361 N 
HETATM    5  C   UNK     0      16.802   9.379 -10.860  0.00  0.00     0.022 A 
HETATM    6  C   UNK     0      18.096   9.157 -11.321  0.00  0.00    -0.027 A 
HETATM    7  C   UNK     0      16.321  10.760 -10.542  0.00  0.00     0.115 C 
HETATM    8  C   UNK     0      15.585  10.940  -9.227  0.00  0.00     0.021 A 
HETATM    9  N   UNK     0      15.808  10.327  -8.053  0.00  0.00    -0.361 N 
HETATM   10  C   UNK     0      14.854  10.725  -7.185  0.00  0.00     0.022 A 
HETATM   11  C   UNK     0      14.000  11.627  -7.813  0.00  0.00    -0.027 A 
HETATM   12  C   UNK     0      14.454  11.766  -9.099  0.00  0.00    -0.031 A 
HETATM   13  C   UNK     0      13.835  12.655 -10.154  0.00  0.00     0.051 C 
HETATM   14  C   UNK     0      14.679  10.234  -5.751  0.00  0.00     0.115 C 
HETATM   15  C   UNK     0      14.420   8.741  -5.638  0.00  0.00     0.021 A 
HETATM   16  N   UNK     0      15.204   7.736  -6.074  0.00  0.00    -0.361 N 
HETATM   17  C   UNK     0      14.590   6.572  -5.849  0.00  0.00     0.022 A 
HETATM   18  C   UNK     0      13.352   6.830  -5.228  0.00  0.00    -0.027 A 
HETATM   19  C   UNK     0      13.258   8.192  -5.100  0.00  0.00    -0.031 A 
HETATM   20  C   UNK     0      12.087   8.899  -4.444  0.00  0.00     0.051 C 
HETATM   21  C   UNK     0      15.010   5.166  -6.212  0.00  0.00     0.115 C 
HETATM   22  C   UNK     0      15.782   4.979  -7.497  0.00  0.00     0.022 A 
HETATM   23  N   UNK     0      15.585   5.578  -8.679  0.00  0.00    -0.361 N 
HETATM   24  C   UNK     0      16.591   5.227  -9.505  0.00  0.00     0.021 A 
HETATM   25  C   UNK     0      17.451   4.372  -8.842  0.00  0.00    -0.031 A 
HETATM   26  C   UNK     0      18.696   3.682  -9.360  0.00  0.00     0.051 C 
HETATM   27  C   UNK     0      16.954   4.198  -7.556  0.00  0.00    -0.027 A 
HETATM   28  C   UNK     0      16.852   5.724 -10.916  0.00  0.00     0.115 C 
HETATM   29  H   UNK     0      15.120   8.046 -10.380  0.00  0.00     0.165 HD
HETATM   30  H   UNK     0      16.666   9.651  -7.820  0.00  0.00     0.165 HD
HETATM   31  H   UNK     0      16.232   7.847  -6.507  0.00  0.00     0.165 HD
HETATM   32  H   UNK     0      14.709   6.222  -8.955  0.00  0.00     0.165 HD
ENDROOT
BRANCH   6  33
HETATM   33  C   UNK     0      19.185  10.140 -11.665  0.00  0.00     0.051 C 
BRANCH  33  34
HETATM   34  C   UNK     0      18.939  10.758 -13.021  0.00  0.00     0.114 C 
BRANCH  34  35
HETATM   35  C   UNK     0      19.268  12.209 -12.917  0.00  0.00     0.139 C 
HETATM   36  O   UNK     0      20.006  12.759 -13.786  0.00  0.00    -0.650 OA
BRANCH  35  37
HETATM   37  O   UNK     0      18.793  13.013 -11.889  0.00  0.00    -0.776 OA
HETATM   38  H   UNK     0      19.361  13.726 -11.461  0.00  0.00     0.167 HD
ENDBRANCH  35  37
ENDBRANCH  34  35
ENDBRANCH  33  34
ENDBRANCH   6  33
BRANCH  27  39
HETATM   39  C   UNK     0      17.578   3.281  -6.563  0.00  0.00     0.051 C 
BRANCH  39  40
HETATM   40  C   UNK     0      17.240   1.860  -6.623  0.00  0.00     0.114 C 
BRANCH  40  41
HETATM   41  C   UNK     0      15.900   1.375  -6.378  0.00  0.00     0.139 C 
HETATM   42  O   UNK     0      15.333   0.542  -7.099  0.00  0.00    -0.650 OA
BRANCH  41  43
HETATM   43  O   UNK     0      15.181   1.870  -5.254  0.00  0.00    -0.776 OA
HETATM   44  H   UNK     0      14.283   2.282  -5.479  0.00  0.00     0.167 HD
ENDBRANCH  41  43
ENDBRANCH  40  41
ENDBRANCH  39  40
ENDBRANCH  27  39
BRANCH  11  45
HETATM   45  C   UNK     0      12.802  12.340  -7.246  0.00  0.00     0.051 C 
BRANCH  45  46
HETATM   46  C   UNK     0      11.528  11.590  -7.383  0.00  0.00     0.114 C 
BRANCH  46  47
HETATM   47  C   UNK     0      10.585  12.456  -8.147  0.00  0.00     0.139 C 
HETATM   48  O   UNK     0      10.593  13.676  -7.930  0.00  0.00    -0.650 OA
BRANCH  47  49
HETATM   49  O   UNK     0       9.724  11.916  -9.069  0.00  0.00    -0.776 OA
HETATM   50  H   UNK     0       8.747  11.699  -8.841  0.00  0.00     0.167 HD
ENDBRANCH  47  49
ENDBRANCH  46  47
ENDBRANCH  45  46
ENDBRANCH  11  45
BRANCH  18  51
HETATM   51  C   UNK     0      12.324   5.832  -4.761  0.00  0.00     0.051 C 
BRANCH  51  52
HETATM   52  C   UNK     0      12.611   5.581  -3.288  0.00  0.00     0.114 C 
BRANCH  52  53
HETATM   53  C   UNK     0      11.649   4.633  -2.695  0.00  0.00     0.139 C 
HETATM   54  O   UNK     0      10.696   5.054  -2.020  0.00  0.00    -0.650 OA
BRANCH  53  55
HETATM   55  O   UNK     0      11.816   3.283  -2.890  0.00  0.00    -0.776 OA
HETATM   56  H   UNK     0      12.085   2.845  -3.740  0.00  0.00     0.167 HD
ENDBRANCH  53  55
ENDBRANCH  52  53
ENDBRANCH  51  52
ENDBRANCH  18  51
TORSDOF 16
ENDMDL
MODEL 9
REMARK VINA RESULT:      -7.5     19.110     23.269
REMARK  16 active torsions:
REMARK  status: ('A' for Active; 'I' for Inactive)
REMARK    1  A    between atoms: C_6  and  C_7 
REMARK    2  A    between atoms: C_7  and  C_8 
REMARK    3  A    between atoms: C_8  and  C_9 
REMARK    4  A    between atoms: C_9  and  O_11 
REMARK    5  A    between atoms: C_16  and  C_17 
REMARK    6  A    between atoms: C_17  and  C_18 
REMARK    7  A    between atoms: C_18  and  C_19 
REMARK    8  A    between atoms: C_19  and  O_21 
REMARK    9  A    between atoms: C_28  and  C_29 
REMARK   10  A    between atoms: C_29  and  C_30 
REMARK   11  A    between atoms: C_30  and  C_31 
REMARK   12  A    between atoms: C_31  and  O_33 
REMARK   13  A    between atoms: C_42  and  C_43 
REMARK   14  A    between atoms: C_43  and  C_44 
REMARK   15  A    between atoms: C_44  and  C_45 
REMARK   16  A    between atoms: C_45  and  O_47 
ROOT
HETATM    1  C   UNK     0      -5.960  10.277 -16.380  0.00  0.00     0.051 C 
HETATM    2  C   UNK     0      -4.828   9.288 -16.193  0.00  0.00    -0.031 A 
HETATM    3  C   UNK     0      -4.867   7.903 -16.152  0.00  0.00     0.021 A 
HETATM    4  N   UNK     0      -3.617   7.432 -15.933  0.00  0.00    -0.361 N 
HETATM    5  C   UNK     0      -2.780   8.486 -15.842  0.00  0.00     0.022 A 
HETATM    6  C   UNK     0      -3.505   9.663 -15.997  0.00  0.00    -0.027 A 
HETATM    7  C   UNK     0      -1.290   8.509 -15.699  0.00  0.00     0.115 C 
HETATM    8  C   UNK     0      -0.508   7.521 -16.546  0.00  0.00     0.021 A 
HETATM    9  N   UNK     0      -0.772   7.096 -17.792  0.00  0.00    -0.361 N 
HETATM   10  C   UNK     0       0.137   6.150 -18.113  0.00  0.00     0.022 A 
HETATM   11  C   UNK     0       1.015   5.968 -17.048  0.00  0.00    -0.027 A 
HETATM   12  C   UNK     0       0.614   6.828 -16.058  0.00  0.00    -0.031 A 
HETATM   13  C   UNK     0       1.282   6.981 -14.710  0.00  0.00     0.051 C 
HETATM   14  C   UNK     0       0.181   5.346 -19.409  0.00  0.00     0.115 C 
HETATM   15  C   UNK     0      -1.060   4.502 -19.653  0.00  0.00     0.021 A 
HETATM   16  N   UNK     0      -2.335   4.925 -19.751  0.00  0.00    -0.361 N 
HETATM   17  C   UNK     0      -3.137   3.868 -19.896  0.00  0.00     0.022 A 
HETATM   18  C   UNK     0      -2.347   2.702 -19.902  0.00  0.00    -0.027 A 
HETATM   19  C   UNK     0      -1.048   3.112 -19.750  0.00  0.00    -0.031 A 
HETATM   20  C   UNK     0       0.140   2.168 -19.739  0.00  0.00     0.051 C 
HETATM   21  C   UNK     0      -4.645   3.797 -19.977  0.00  0.00     0.115 C 
HETATM   22  C   UNK     0      -5.435   4.803 -19.173  0.00  0.00     0.022 A 
HETATM   23  N   UNK     0      -5.194   5.248 -17.933  0.00  0.00    -0.361 N 
HETATM   24  C   UNK     0      -6.062   6.244 -17.664  0.00  0.00     0.021 A 
HETATM   25  C   UNK     0      -6.889   6.438 -18.754  0.00  0.00    -0.031 A 
HETATM   26  C   UNK     0      -8.041   7.408 -18.915  0.00  0.00     0.051 C 
HETATM   27  C   UNK     0      -6.508   5.527 -19.732  0.00  0.00    -0.027 A 
HETATM   28  C   UNK     0      -6.119   7.117 -16.423  0.00  0.00     0.115 C 
HETATM   29  H   UNK     0      -3.340   6.360 -15.805  0.00  0.00     0.165 HD
HETATM   30  H   UNK     0      -1.567   7.497 -18.466  0.00  0.00     0.165 HD
HETATM   31  H   UNK     0      -2.671   5.994 -19.767  0.00  0.00     0.165 HD
HETATM   32  H   UNK     0      -4.436   4.834 -17.219  0.00  0.00     0.165 HD
ENDROOT
BRANCH   6  33
HETATM   33  C   UNK     0      -3.043  11.098 -15.971  0.00  0.00     0.051 C 
BRANCH  33  34
HETATM   34  C   UNK     0      -3.536  11.796 -14.726  0.00  0.00     0.114 C 
BRANCH  34  35
HETATM   35  C   UNK     0      -2.622  11.417 -13.610  0.00  0.00     0.139 C 
HETATM   36  O   UNK     0      -1.512  12.007 -13.467  0.00  0.00    -0.650 OA
BRANCH  35  37
HETATM   37  O   UNK     0      -2.935  10.423 -12.690  0.00  0.00    -0.776 OA
HETATM   38  H   UNK     0      -3.755  10.473 -12.107  0.00  0.00     0.167 HD
ENDBRANCH  35  37
ENDBRANCH  34  35
ENDBRANCH  33  34
ENDBRANCH   6  33
BRANCH  27  39
HETATM   39  C   UNK     0      -7.220   5.387 -21.031  0.00  0.00     0.051 C 
BRANCH  39  40
HETATM   40  C   UNK     0      -8.235   4.342 -21.157  0.00  0.00     0.114 C 
BRANCH  40  41
HETATM   41  C   UNK     0      -8.076   3.217 -22.052  0.00  0.00     0.139 C 
HETATM   42  O   UNK     0      -8.932   2.334 -22.198  0.00  0.00    -0.650 OA
BRANCH  41  43
HETATM   43  O   UNK     0      -6.878   3.103 -22.813  0.00  0.00    -0.776 OA
HETATM   44  H   UNK     0      -6.977   3.351 -23.790  0.00  0.00     0.167 HD
ENDBRANCH  41  43
ENDBRANCH  40  41
ENDBRANCH  39  40
ENDBRANCH  27  39
BRANCH  11  45
HETATM   45  C   UNK     0       2.189   5.032 -16.946  0.00  0.00     0.051 C 
BRANCH  45  46
HETATM   46  C   UNK     0       3.322   5.381 -17.840  0.00  0.00     0.114 C 
BRANCH  46  47
HETATM   47  C   UNK     0       4.193   6.336 -17.097  0.00  0.00     0.139 C 
HETATM   48  O   UNK     0       4.665   5.982 -16.007  0.00  0.00    -0.650 OA
BRANCH  47  49
HETATM   49  O   UNK     0       4.467   7.580 -17.606  0.00  0.00    -0.776 OA
HETATM   50  H   UNK     0       3.853   8.036 -18.292  0.00  0.00     0.167 HD
ENDBRANCH  47  49
ENDBRANCH  46  47
ENDBRANCH  45  46
ENDBRANCH  11  45
BRANCH  18  51
HETATM   51  C   UNK     0      -2.803   1.275 -20.065  0.00  0.00     0.051 C 
BRANCH  51  52
HETATM   52  C   UNK     0      -2.765   0.983 -21.557  0.00  0.00     0.114 C 
BRANCH  52  53
HETATM   53  C   UNK     0      -4.003   0.329 -22.022  0.00  0.00     0.139 C 
HETATM   54  O   UNK     0      -3.949  -0.779 -22.580  0.00  0.00    -0.650 OA
BRANCH  53  55
HETATM   55  O   UNK     0      -5.212   0.953 -21.835  0.00  0.00    -0.776 OA
HETATM   56  H   UNK     0      -5.372   1.933 -21.849  0.00  0.00     0.167 HD
ENDBRANCH  53  55
ENDBRANCH  52  53
ENDBRANCH  51  52
ENDBRANCH  18  51
TORSDOF 16
ENDMDL
MODEL 10
REMARK VINA RESULT:      -7.5     18.204     22.486
REMARK  16 active torsions:
REMARK  status: ('A' for Active; 'I' for Inactive)
REMARK    1  A    between atoms: C_6  and  C_7 
REMARK    2  A    between atoms: C_7  and  C_8 
REMARK    3  A    between atoms: C_8  and  C_9 
REMARK    4  A    between atoms: C_9  and  O_11 
REMARK    5  A    between atoms: C_16  and  C_17 
REMARK    6  A    between atoms: C_17  and  C_18 
REMARK    7  A    between atoms: C_18  and  C_19 
REMARK    8  A    between atoms: C_19  and  O_21 
REMARK    9  A    between atoms: C_28  and  C_29 
REMARK   10  A    between atoms: C_29  and  C_30 
REMARK   11  A    between atoms: C_30  and  C_31 
REMARK   12  A    between atoms: C_31  and  O_33 
REMARK   13  A    between atoms: C_42  and  C_43 
REMARK   14  A    between atoms: C_43  and  C_44 
REMARK   15  A    between atoms: C_44  and  C_45 
REMARK   16  A    between atoms: C_45  and  O_47 
ROOT
HETATM    1  C   UNK     0       1.584   4.106 -17.690  0.00  0.00     0.051 C 
HETATM    2  C   UNK     0       0.705   5.337 -17.598  0.00  0.00    -0.031 A 
HETATM    3  C   UNK     0      -0.170   5.865 -18.534  0.00  0.00     0.021 A 
HETATM    4  N   UNK     0      -0.721   6.996 -18.034  0.00  0.00    -0.361 N 
HETATM    5  C   UNK     0      -0.223   7.197 -16.797  0.00  0.00     0.022 A 
HETATM    6  C   UNK     0       0.675   6.179 -16.494  0.00  0.00    -0.027 A 
HETATM    7  C   UNK     0      -0.573   8.245 -15.787  0.00  0.00     0.115 C 
HETATM    8  C   UNK     0      -2.048   8.564 -15.620  0.00  0.00     0.021 A 
HETATM    9  N   UNK     0      -3.098   7.731 -15.694  0.00  0.00    -0.361 N 
HETATM   10  C   UNK     0      -4.224   8.464 -15.574  0.00  0.00     0.022 A 
HETATM   11  C   UNK     0      -3.892   9.805 -15.408  0.00  0.00    -0.027 A 
HETATM   12  C   UNK     0      -2.522   9.875 -15.436  0.00  0.00    -0.031 A 
HETATM   13  C   UNK     0      -1.709  11.141 -15.288  0.00  0.00     0.051 C 
HETATM   14  C   UNK     0      -5.655   7.939 -15.663  0.00  0.00     0.115 C 
HETATM   15  C   UNK     0      -5.993   7.297 -16.999  0.00  0.00     0.021 A 
HETATM   16  N   UNK     0      -5.384   6.248 -17.583  0.00  0.00    -0.361 N 
HETATM   17  C   UNK     0      -5.932   6.035 -18.782  0.00  0.00     0.022 A 
HETATM   18  C   UNK     0      -6.953   6.985 -18.984  0.00  0.00    -0.027 A 
HETATM   19  C   UNK     0      -6.982   7.768 -17.860  0.00  0.00    -0.031 A 
HETATM   20  C   UNK     0      -7.969   8.901 -17.646  0.00  0.00     0.051 C 
HETATM   21  C   UNK     0      -5.565   5.035 -19.854  0.00  0.00     0.115 C 
HETATM   22  C   UNK     0      -4.105   4.675 -20.002  0.00  0.00     0.022 A 
HETATM   23  N   UNK     0      -3.040   5.483 -19.929  0.00  0.00    -0.361 N 
HETATM   24  C   UNK     0      -1.927   4.722 -19.974  0.00  0.00     0.021 A 
HETATM   25  C   UNK     0      -2.286   3.392 -20.088  0.00  0.00    -0.031 A 
HETATM   26  C   UNK     0      -1.396   2.173 -20.214  0.00  0.00     0.051 C 
HETATM   27  C   UNK     0      -3.674   3.337 -20.109  0.00  0.00    -0.027 A 
HETATM   28  C   UNK     0      -0.485   5.176 -19.832  0.00  0.00     0.115 C 
HETATM   29  H   UNK     0      -1.429   7.667 -18.575  0.00  0.00     0.165 HD
HETATM   30  H   UNK     0      -3.045   6.618 -15.782  0.00  0.00     0.165 HD
HETATM   31  H   UNK     0      -4.583   5.614 -17.121  0.00  0.00     0.165 HD
HETATM   32  H   UNK     0      -3.062   6.603 -19.889  0.00  0.00     0.165 HD
ENDROOT
BRANCH   6  33
HETATM   33  C   UNK     0       1.498   5.949 -15.251  0.00  0.00     0.051 C 
BRANCH  33  34
HETATM   34  C   UNK     0       2.675   6.895 -15.207  0.00  0.00     0.114 C 
BRANCH  34  35
HETATM   35  C   UNK     0       3.871   6.100 -14.805  0.00  0.00     0.139 C 
HETATM   36  O   UNK     0       4.484   5.396 -15.658  0.00  0.00    -0.650 OA
BRANCH  35  37
HETATM   37  O   UNK     0       4.364   6.094 -13.506  0.00  0.00    -0.776 OA
HETATM   38  H   UNK     0       5.015   6.789 -13.177  0.00  0.00     0.167 HD
ENDBRANCH  35  37
ENDBRANCH  34  35
ENDBRANCH  33  34
ENDBRANCH   6  33
BRANCH  27  39
HETATM   39  C   UNK     0      -4.432   2.070 -20.295  0.00  0.00     0.051 C 
BRANCH  39  40
HETATM   40  C   UNK     0      -4.825   1.688 -21.651  0.00  0.00     0.114 C 
BRANCH  40  41
HETATM   41  C   UNK     0      -5.970   2.270 -22.314  0.00  0.00     0.139 C 
HETATM   42  O   UNK     0      -5.913   2.819 -23.423  0.00  0.00    -0.650 OA
BRANCH  41  43
HETATM   43  O   UNK     0      -7.240   2.218 -21.673  0.00  0.00    -0.776 OA
HETATM   44  H   UNK     0      -7.883   1.544 -22.071  0.00  0.00     0.167 HD
ENDBRANCH  41  43
ENDBRANCH  40  41
ENDBRANCH  39  40
ENDBRANCH  27  39
BRANCH  11  45
HETATM   45  C   UNK     0      -4.806  10.987 -15.227  0.00  0.00     0.051 C 
BRANCH  45  46
HETATM   46  C   UNK     0      -5.064  11.341 -13.808  0.00  0.00     0.114 C 
BRANCH  46  47
HETATM   47  C   UNK     0      -6.475  10.964 -13.507  0.00  0.00     0.139 C 
HETATM   48  O   UNK     0      -7.277  10.876 -14.447  0.00  0.00    -0.650 OA
BRANCH  47  49
HETATM   49  O   UNK     0      -6.878  10.722 -12.219  0.00  0.00    -0.776 OA
HETATM   50  H   UNK     0      -6.413  10.027 -11.623  0.00  0.00     0.167 HD
ENDBRANCH  47  49
ENDBRANCH  46  47
ENDBRANCH  45  46
ENDBRANCH  11  45
BRANCH  18  51
HETATM   51  C   UNK     0      -7.866   7.125 -20.175  0.00  0.00     0.051 C 
BRANCH  51  52
HETATM   52  C   UNK     0      -9.121   6.330 -19.845  0.00  0.00     0.114 C 
BRANCH  52  53
HETATM   53  C   UNK     0      -9.423   5.325 -20.883  0.00  0.00     0.139 C 
HETATM   54  O   UNK     0     -10.563   4.841 -20.965  0.00  0.00    -0.650 OA
BRANCH  53  55
HETATM   55  O   UNK     0      -8.436   4.927 -21.751  0.00  0.00    -0.776 OA
HETATM   56  H   UNK     0      -8.446   4.107 -22.311  0.00  0.00     0.167 HD
ENDBRANCH  53  55
ENDBRANCH  52  53
ENDBRANCH  51  52
ENDBRANCH  18  51
TORSDOF 16
ENDMDL
MODEL 11
REMARK VINA RESULT:      -7.4     14.470     19.642
REMARK  16 active torsions:
REMARK  status: ('A' for Active; 'I' for Inactive)
REMARK    1  A    between atoms: C_6  and  C_7 
REMARK    2  A    between atoms: C_7  and  C_8 
REMARK    3  A    between atoms: C_8  and  C_9 
REMARK    4  A    between atoms: C_9  and  O_11 
REMARK    5  A    between atoms: C_16  and  C_17 
REMARK    6  A    between atoms: C_17  and  C_18 
REMARK    7  A    between atoms: C_18  and  C_19 
REMARK    8  A    between atoms: C_19  and  O_21 
REMARK    9  A    between atoms: C_28  and  C_29 
REMARK   10  A    between atoms: C_29  and  C_30 
REMARK   11  A    between atoms: C_30  and  C_31 
REMARK   12  A    between atoms: C_31  and  O_33 
REMARK   13  A    between atoms: C_42  and  C_43 
REMARK   14  A    between atoms: C_43  and  C_44 
REMARK   15  A    between atoms: C_44  and  C_45 
REMARK   16  A    between atoms: C_45  and  O_47 
ROOT
HETATM    1  C   UNK     0     -14.244  17.798   0.936  0.00  0.00     0.051 C 
HETATM    2  C   UNK     0     -14.208  16.535   1.773  0.00  0.00    -0.031 A 
HETATM    3  C   UNK     0     -13.656  16.326   3.026  0.00  0.00     0.021 A 
HETATM    4  N   UNK     0     -13.832  15.029   3.375  0.00  0.00    -0.361 N 
HETATM    5  C   UNK     0     -14.492  14.410   2.375  0.00  0.00     0.022 A 
HETATM    6  C   UNK     0     -14.741  15.322   1.355  0.00  0.00    -0.027 A 
HETATM    7  C   UNK     0     -15.012  13.008   2.302  0.00  0.00     0.115 C 
HETATM    8  C   UNK     0     -15.687  12.465   3.549  0.00  0.00     0.021 A 
HETATM    9  N   UNK     0     -16.456  13.118   4.435  0.00  0.00    -0.361 N 
HETATM   10  C   UNK     0     -16.763  12.263   5.433  0.00  0.00     0.022 A 
HETATM   11  C   UNK     0     -16.185  11.023   5.179  0.00  0.00    -0.027 A 
HETATM   12  C   UNK     0     -15.505  11.144   3.994  0.00  0.00    -0.031 A 
HETATM   13  C   UNK     0     -14.724  10.039   3.318  0.00  0.00     0.051 C 
HETATM   14  C   UNK     0     -17.567  12.594   6.688  0.00  0.00     0.115 C 
HETATM   15  C   UNK     0     -16.938  13.674   7.554  0.00  0.00     0.021 A 
HETATM   16  N   UNK     0     -16.635  14.937   7.201  0.00  0.00    -0.361 N 
HETATM   17  C   UNK     0     -16.032  15.546   8.225  0.00  0.00     0.022 A 
HETATM   18  C   UNK     0     -15.948  14.639   9.300  0.00  0.00    -0.027 A 
HETATM   19  C   UNK     0     -16.520  13.471   8.868  0.00  0.00    -0.031 A 
HETATM   20  C   UNK     0     -16.671  12.234   9.734  0.00  0.00     0.051 C 
HETATM   21  C   UNK     0     -15.436  16.932   8.317  0.00  0.00     0.115 C 
HETATM   22  C   UNK     0     -14.800  17.502   7.071  0.00  0.00     0.022 A 
HETATM   23  N   UNK     0     -14.033  16.875   6.170  0.00  0.00    -0.361 N 
HETATM   24  C   UNK     0     -13.804  17.722   5.146  0.00  0.00     0.021 A 
HETATM   25  C   UNK     0     -14.430  18.927   5.400  0.00  0.00    -0.031 A 
HETATM   26  C   UNK     0     -14.429  20.195   4.570  0.00  0.00     0.051 C 
HETATM   27  C   UNK     0     -15.073  18.811   6.626  0.00  0.00    -0.027 A 
HETATM   28  C   UNK     0     -13.066  17.435   3.850  0.00  0.00     0.115 C 
HETATM   29  H   UNK     0     -13.453  14.551   4.308  0.00  0.00     0.165 HD
HETATM   30  H   UNK     0     -16.825  14.168   4.333  0.00  0.00     0.165 HD
HETATM   31  H   UNK     0     -16.893  15.425   6.226  0.00  0.00     0.165 HD
HETATM   32  H   UNK     0     -13.610  15.841   6.268  0.00  0.00     0.165 HD
ENDROOT
BRANCH   6  33
HETATM   33  C   UNK     0     -15.435  15.131   0.031  0.00  0.00     0.051 C 
BRANCH  33  34
HETATM   34  C   UNK     0     -16.835  15.696   0.074  0.00  0.00     0.114 C 
BRANCH  34  35
HETATM   35  C   UNK     0     -17.330  15.771  -1.331  0.00  0.00     0.139 C 
HETATM   36  O   UNK     0     -16.535  16.062  -2.272  0.00  0.00    -0.650 OA
BRANCH  35  37
HETATM   37  O   UNK     0     -18.655  15.528  -1.673  0.00  0.00    -0.776 OA
HETATM   38  H   UNK     0     -18.938  14.691  -2.156  0.00  0.00     0.167 HD
ENDBRANCH  35  37
ENDBRANCH  34  35
ENDBRANCH  33  34
ENDBRANCH   6  33
BRANCH  27  39
HETATM   39  C   UNK     0     -15.800  19.939   7.270  0.00  0.00     0.051 C 
BRANCH  39  40
HETATM   40  C   UNK     0     -17.254  20.002   7.122  0.00  0.00     0.114 C 
BRANCH  40  41
HETATM   41  C   UNK     0     -18.155  19.564   8.164  0.00  0.00     0.139 C 
HETATM   42  O   UNK     0     -18.312  20.171   9.232  0.00  0.00    -0.650 OA
BRANCH  41  43
HETATM   43  O   UNK     0     -18.909  18.372   7.969  0.00  0.00    -0.776 OA
HETATM   44  H   UNK     0     -18.720  17.641   8.644  0.00  0.00     0.167 HD
ENDBRANCH  41  43
ENDBRANCH  40  41
ENDBRANCH  39  40
ENDBRANCH  27  39
BRANCH  11  45
HETATM   45  C   UNK     0     -16.256   9.764   6.001  0.00  0.00     0.051 C 
BRANCH  45  46
HETATM   46  C   UNK     0     -15.369   9.767   7.192  0.00  0.00     0.114 C 
BRANCH  46  47
HETATM   47  C   UNK     0     -16.047   8.962   8.249  0.00  0.00     0.139 C 
HETATM   48  O   UNK     0     -15.357   8.224   8.966  0.00  0.00    -0.650 OA
BRANCH  47  49
HETATM   49  O   UNK     0     -17.406   9.036   8.425  0.00  0.00    -0.776 OA
HETATM   50  H   UNK     0     -17.833   9.660   9.120  0.00  0.00     0.167 HD
ENDBRANCH  47  49
ENDBRANCH  46  47
ENDBRANCH  45  46
ENDBRANCH  11  45
BRANCH  18  51
HETATM   51  C   UNK     0     -15.373  14.879  10.672  0.00  0.00     0.051 C 
BRANCH  51  52
HETATM   52  C   UNK     0     -13.903  14.496  10.591  0.00  0.00     0.114 C 
BRANCH  52  53
HETATM   53  C   UNK     0     -13.020  15.626  10.938  0.00  0.00     0.139 C 
HETATM   54  O   UNK     0     -12.493  16.302  10.040  0.00  0.00    -0.650 OA
BRANCH  53  55
HETATM   55  O   UNK     0     -12.783  15.922  12.259  0.00  0.00    -0.776 OA
HETATM   56  H   UNK     0     -11.891  16.014  12.686  0.00  0.00     0.167 HD
ENDBRANCH  53  55
ENDBRANCH  52  53
ENDBRANCH  51  52
ENDBRANCH  18  51
TORSDOF 16
ENDMDL
MODEL 12
REMARK VINA RESULT:      -7.3     34.617     38.574
REMARK  16 active torsions:
REMARK  status: ('A' for Active; 'I' for Inactive)
REMARK    1  A    between atoms: C_6  and  C_7 
REMARK    2  A    between atoms: C_7  and  C_8 
REMARK    3  A    between atoms: C_8  and  C_9 
REMARK    4  A    between atoms: C_9  and  O_11 
REMARK    5  A    between atoms: C_16  and  C_17 
REMARK    6  A    between atoms: C_17  and  C_18 
REMARK    7  A    between atoms: C_18  and  C_19 
REMARK    8  A    between atoms: C_19  and  O_21 
REMARK    9  A    between atoms: C_28  and  C_29 
REMARK   10  A    between atoms: C_29  and  C_30 
REMARK   11  A    between atoms: C_30  and  C_31 
REMARK   12  A    between atoms: C_31  and  O_33 
REMARK   13  A    between atoms: C_42  and  C_43 
REMARK   14  A    between atoms: C_43  and  C_44 
REMARK   15  A    between atoms: C_44  and  C_45 
REMARK   16  A    between atoms: C_45  and  O_47 
ROOT
HETATM    1  C   UNK     0       0.907  -8.981  13.092  0.00  0.00     0.051 C 
HETATM    2  C   UNK     0      -0.479  -8.630  12.591  0.00  0.00    -0.031 A 
HETATM    3  C   UNK     0      -1.588  -8.199  13.302  0.00  0.00     0.021 A 
HETATM    4  N   UNK     0      -2.625  -8.035  12.446  0.00  0.00    -0.361 N 
HETATM    5  C   UNK     0      -2.198  -8.344  11.204  0.00  0.00     0.022 A 
HETATM    6  C   UNK     0      -0.861  -8.723  11.259  0.00  0.00    -0.027 A 
HETATM    7  C   UNK     0      -2.919  -8.240   9.897  0.00  0.00     0.115 C 
HETATM    8  C   UNK     0      -3.751  -6.990   9.675  0.00  0.00     0.021 A 
HETATM    9  N   UNK     0      -3.500  -5.735  10.079  0.00  0.00    -0.361 N 
HETATM   10  C   UNK     0      -4.555  -4.965   9.740  0.00  0.00     0.022 A 
HETATM   11  C   UNK     0      -5.509  -5.744   9.091  0.00  0.00    -0.027 A 
HETATM   12  C   UNK     0      -5.009  -7.020   9.046  0.00  0.00    -0.031 A 
HETATM   13  C   UNK     0      -5.705  -8.210   8.424  0.00  0.00     0.051 C 
HETATM   14  C   UNK     0      -4.730  -3.484  10.060  0.00  0.00     0.115 C 
HETATM   15  C   UNK     0      -4.744  -3.172  11.548  0.00  0.00     0.021 A 
HETATM   16  N   UNK     0      -3.781  -3.435  12.451  0.00  0.00    -0.361 N 
HETATM   17  C   UNK     0      -4.205  -3.070  13.663  0.00  0.00     0.022 A 
HETATM   18  C   UNK     0      -5.503  -2.536  13.543  0.00  0.00    -0.027 A 
HETATM   19  C   UNK     0      -5.828  -2.604  12.213  0.00  0.00    -0.031 A 
HETATM   20  C   UNK     0      -7.138  -2.096  11.637  0.00  0.00     0.051 C 
HETATM   21  C   UNK     0      -3.537  -3.218  15.011  0.00  0.00     0.115 C 
HETATM   22  C   UNK     0      -2.670  -4.436  15.231  0.00  0.00     0.022 A 
HETATM   23  N   UNK     0      -2.894  -5.696  14.836  0.00  0.00    -0.361 N 
HETATM   24  C   UNK     0      -1.797  -6.428  15.115  0.00  0.00     0.021 A 
HETATM   25  C   UNK     0      -0.848  -5.622  15.713  0.00  0.00    -0.031 A 
HETATM   26  C   UNK     0       0.523  -5.994  16.240  0.00  0.00     0.051 C 
HETATM   27  C   UNK     0      -1.384  -4.342  15.799  0.00  0.00    -0.027 A 
HETATM   28  C   UNK     0      -1.540  -7.885  14.771  0.00  0.00     0.115 C 
HETATM   29  H   UNK     0      -3.661  -7.741  12.732  0.00  0.00     0.165 HD
HETATM   30  H   UNK     0      -2.556  -5.379  10.560  0.00  0.00     0.165 HD
HETATM   31  H   UNK     0      -2.761  -3.842  12.222  0.00  0.00     0.165 HD
HETATM   32  H   UNK     0      -3.847  -6.090  14.395  0.00  0.00     0.165 HD
ENDROOT
BRANCH   6  33
HETATM   33  C   UNK     0       0.069  -9.163  10.157  0.00  0.00     0.051 C 
BRANCH  33  34
HETATM   34  C   UNK     0      -0.139 -10.624   9.833  0.00  0.00     0.114 C 
BRANCH  34  35
HETATM   35  C   UNK     0       1.030 -11.072   9.022  0.00  0.00     0.139 C 
HETATM   36  O   UNK     0       1.761 -10.222   8.434  0.00  0.00    -0.650 OA
BRANCH  35  37
HETATM   37  O   UNK     0       1.371 -12.411   8.876  0.00  0.00    -0.776 OA
HETATM   38  H   UNK     0       1.462 -12.843   7.971  0.00  0.00     0.167 HD
ENDBRANCH  35  37
ENDBRANCH  34  35
ENDBRANCH  33  34
ENDBRANCH   6  33
BRANCH  27  39
HETATM   39  C   UNK     0      -0.676  -3.209  16.454  0.00  0.00     0.051 C 
BRANCH  39  40
HETATM   40  C   UNK     0      -0.110  -2.160  15.606  0.00  0.00     0.114 C 
BRANCH  40  41
HETATM   41  C   UNK     0       0.906  -2.435  14.616  0.00  0.00     0.139 C 
HETATM   42  O   UNK     0       0.653  -2.719  13.437  0.00  0.00    -0.650 OA
BRANCH  41  43
HETATM   43  O   UNK     0       2.277  -2.379  14.998  0.00  0.00    -0.776 OA
HETATM   44  H   UNK     0       2.585  -3.159  15.567  0.00  0.00     0.167 HD
ENDBRANCH  41  43
ENDBRANCH  40  41
ENDBRANCH  39  40
ENDBRANCH  27  39
BRANCH  11  45
HETATM   45  C   UNK     0      -6.840  -5.325   8.525  0.00  0.00     0.051 C 
BRANCH  45  46
HETATM   46  C   UNK     0      -7.927  -5.240   9.534  0.00  0.00     0.114 C 
BRANCH  46  47
HETATM   47  C   UNK     0      -9.091  -4.581   8.874  0.00  0.00     0.139 C 
HETATM   48  O   UNK     0      -9.332  -3.397   9.145  0.00  0.00    -0.650 OA
BRANCH  47  49
HETATM   49  O   UNK     0      -9.879  -5.271   7.988  0.00  0.00    -0.776 OA
HETATM   50  H   UNK     0     -10.537  -4.795   7.359  0.00  0.00     0.167 HD
ENDBRANCH  47  49
ENDBRANCH  46  47
ENDBRANCH  45  46
ENDBRANCH  11  45
BRANCH  18  51
HETATM   51  C   UNK     0      -6.377  -1.971  14.632  0.00  0.00     0.051 C 
BRANCH  51  52
HETATM   52  C   UNK     0      -5.980  -0.510  14.782  0.00  0.00     0.114 C 
BRANCH  52  53
HETATM   53  C   UNK     0      -7.158   0.367  14.932  0.00  0.00     0.139 C 
HETATM   54  O   UNK     0      -7.800   0.722  13.930  0.00  0.00    -0.650 OA
BRANCH  53  55
HETATM   55  O   UNK     0      -7.536   0.789  16.183  0.00  0.00    -0.776 OA
HETATM   56  H   UNK     0      -8.176   0.328  16.786  0.00  0.00     0.167 HD
ENDBRANCH  53  55
ENDBRANCH  52  53
ENDBRANCH  51  52
ENDBRANCH  18  51
TORSDOF 16
ENDMDL
MODEL 13
REMARK VINA RESULT:      -7.2     16.228     20.742
REMARK  16 active torsions:
REMARK  status: ('A' for Active; 'I' for Inactive)
REMARK    1  A    between atoms: C_6  and  C_7 
REMARK    2  A    between atoms: C_7  and  C_8 
REMARK    3  A    between atoms: C_8  and  C_9 
REMARK    4  A    between atoms: C_9  and  O_11 
REMARK    5  A    between atoms: C_16  and  C_17 
REMARK    6  A    between atoms: C_17  and  C_18 
REMARK    7  A    between atoms: C_18  and  C_19 
REMARK    8  A    between atoms: C_19  and  O_21 
REMARK    9  A    between atoms: C_28  and  C_29 
REMARK   10  A    between atoms: C_29  and  C_30 
REMARK   11  A    between atoms: C_30  and  C_31 
REMARK   12  A    between atoms: C_31  and  O_33 
REMARK   13  A    between atoms: C_42  and  C_43 
REMARK   14  A    between atoms: C_43  and  C_44 
REMARK   15  A    between atoms: C_44  and  C_45 
REMARK   16  A    between atoms: C_45  and  O_47 
ROOT
HETATM    1  C   UNK     0      -5.063  11.510 -14.831  0.00  0.00     0.051 C 
HETATM    2  C   UNK     0      -5.519  10.179 -15.393  0.00  0.00    -0.031 A 
HETATM    3  C   UNK     0      -6.701   9.857 -16.042  0.00  0.00     0.021 A 
HETATM    4  N   UNK     0      -6.694   8.537 -16.343  0.00  0.00    -0.361 N 
HETATM    5  C   UNK     0      -5.530   8.012 -15.907  0.00  0.00     0.022 A 
HETATM    6  C   UNK     0      -4.772   9.011 -15.306  0.00  0.00    -0.027 A 
HETATM    7  C   UNK     0      -4.989   6.626 -16.073  0.00  0.00     0.115 C 
HETATM    8  C   UNK     0      -5.168   5.983 -17.437  0.00  0.00     0.021 A 
HETATM    9  N   UNK     0      -5.126   6.563 -18.647  0.00  0.00    -0.361 N 
HETATM   10  C   UNK     0      -5.431   5.628 -19.571  0.00  0.00     0.022 A 
HETATM   11  C   UNK     0      -5.666   4.409 -18.940  0.00  0.00    -0.027 A 
HETATM   12  C   UNK     0      -5.502   4.626 -17.596  0.00  0.00    -0.031 A 
HETATM   13  C   UNK     0      -5.655   3.578 -16.517  0.00  0.00     0.051 C 
HETATM   14  C   UNK     0      -5.564   5.855 -21.074  0.00  0.00     0.115 C 
HETATM   15  C   UNK     0      -6.649   6.851 -21.452  0.00  0.00     0.021 A 
HETATM   16  N   UNK     0      -6.753   8.137 -21.070  0.00  0.00    -0.361 N 
HETATM   17  C   UNK     0      -7.884   8.650 -21.558  0.00  0.00     0.022 A 
HETATM   18  C   UNK     0      -8.544   7.652 -22.304  0.00  0.00    -0.027 A 
HETATM   19  C   UNK     0      -7.760   6.531 -22.231  0.00  0.00    -0.031 A 
HETATM   20  C   UNK     0      -8.087   5.225 -22.931  0.00  0.00     0.051 C 
HETATM   21  C   UNK     0      -8.497  10.018 -21.361  0.00  0.00     0.115 C 
HETATM   22  C   UNK     0      -8.289  10.688 -20.023  0.00  0.00     0.022 A 
HETATM   23  N   UNK     0      -8.321  10.135 -18.803  0.00  0.00    -0.361 N 
HETATM   24  C   UNK     0      -7.939  11.066 -17.906  0.00  0.00     0.021 A 
HETATM   25  C   UNK     0      -7.663  12.250 -18.562  0.00  0.00    -0.031 A 
HETATM   26  C   UNK     0      -7.240  13.584 -17.984  0.00  0.00     0.051 C 
HETATM   27  C   UNK     0      -7.881  12.033 -19.918  0.00  0.00    -0.027 A 
HETATM   28  C   UNK     0      -7.731  10.886 -16.412  0.00  0.00     0.115 C 
HETATM   29  H   UNK     0      -7.528   7.976 -16.825  0.00  0.00     0.165 HD
HETATM   30  H   UNK     0      -4.833   7.621 -18.856  0.00  0.00     0.165 HD
HETATM   31  H   UNK     0      -5.990   8.710 -20.482  0.00  0.00     0.165 HD
HETATM   32  H   UNK     0      -8.656   9.093 -18.560  0.00  0.00     0.165 HD
ENDROOT
BRANCH   6  33
HETATM   33  C   UNK     0      -3.412   8.941 -14.660  0.00  0.00     0.051 C 
BRANCH  33  34
HETATM   34  C   UNK     0      -2.325   9.231 -15.669  0.00  0.00     0.114 C 
BRANCH  34  35
HETATM   35  C   UNK     0      -1.560   7.968 -15.875  0.00  0.00     0.139 C 
HETATM   36  O   UNK     0      -1.673   7.324 -16.959  0.00  0.00    -0.650 OA
BRANCH  35  37
HETATM   37  O   UNK     0      -0.702   7.446 -14.914  0.00  0.00    -0.776 OA
HETATM   38  H   UNK     0       0.106   7.951 -14.588  0.00  0.00     0.167 HD
ENDBRANCH  35  37
ENDBRANCH  34  35
ENDBRANCH  33  34
ENDBRANCH   6  33
BRANCH  27  39
HETATM   39  C   UNK     0      -7.755  13.107 -20.941  0.00  0.00     0.051 C 
BRANCH  39  40
HETATM   40  C   UNK     0      -6.630  13.047 -21.875  0.00  0.00     0.114 C 
BRANCH  40  41
HETATM   41  C   UNK     0      -5.265  13.265 -21.452  0.00  0.00     0.139 C 
HETATM   42  O   UNK     0      -4.941  14.087 -20.584  0.00  0.00    -0.650 OA
BRANCH  41  43
HETATM   43  O   UNK     0      -4.225  12.502 -22.055  0.00  0.00    -0.776 OA
HETATM   44  H   UNK     0      -3.438  12.311 -21.446  0.00  0.00     0.167 HD
ENDBRANCH  41  43
ENDBRANCH  40  41
ENDBRANCH  39  40
ENDBRANCH  27  39
BRANCH  11  45
HETATM   45  C   UNK     0      -6.029   3.085 -19.556  0.00  0.00     0.051 C 
BRANCH  45  46
HETATM   46  C   UNK     0      -4.917   2.436 -20.297  0.00  0.00     0.114 C 
BRANCH  46  47
HETATM   47  C   UNK     0      -4.269   1.469 -19.364  0.00  0.00     0.139 C 
HETATM   48  O   UNK     0      -3.032   1.410 -19.337  0.00  0.00    -0.650 OA
BRANCH  47  49
HETATM   49  O   UNK     0      -5.026   0.662 -18.553  0.00  0.00    -0.776 OA
HETATM   50  H   UNK     0      -4.608   0.097 -17.804  0.00  0.00     0.167 HD
ENDBRANCH  47  49
ENDBRANCH  46  47
ENDBRANCH  45  46
ENDBRANCH  11  45
BRANCH  18  51
HETATM   51  C   UNK     0      -9.841   7.768 -23.062  0.00  0.00     0.051 C 
BRANCH  51  52
HETATM   52  C   UNK     0     -10.884   7.028 -22.237  0.00  0.00     0.114 C 
BRANCH  52  53
HETATM   53  C   UNK     0     -12.169   7.753 -22.199  0.00  0.00     0.139 C 
HETATM   54  O   UNK     0     -12.326   8.777 -22.882  0.00  0.00    -0.650 OA
BRANCH  53  55
HETATM   55  O   UNK     0     -13.187   7.289 -21.400  0.00  0.00    -0.776 OA
HETATM   56  H   UNK     0     -13.496   6.348 -21.335  0.00  0.00     0.167 HD
ENDBRANCH  53  55
ENDBRANCH  52  53
ENDBRANCH  51  52
ENDBRANCH  18  51
TORSDOF 16
ENDMDL
MODEL 14
REMARK VINA RESULT:      -7.2     15.948     19.066
REMARK  16 active torsions:
REMARK  status: ('A' for Active; 'I' for Inactive)
REMARK    1  A    between atoms: C_6  and  C_7 
REMARK    2  A    between atoms: C_7  and  C_8 
REMARK    3  A    between atoms: C_8  and  C_9 
REMARK    4  A    between atoms: C_9  and  O_11 
REMARK    5  A    between atoms: C_16  and  C_17 
REMARK    6  A    between atoms: C_17  and  C_18 
REMARK    7  A    between atoms: C_18  and  C_19 
REMARK    8  A    between atoms: C_19  and  O_21 
REMARK    9  A    between atoms: C_28  and  C_29 
REMARK   10  A    between atoms: C_29  and  C_30 
REMARK   11  A    between atoms: C_30  and  C_31 
REMARK   12  A    between atoms: C_31  and  O_33 
REMARK   13  A    between atoms: C_42  and  C_43 
REMARK   14  A    between atoms: C_43  and  C_44 
REMARK   15  A    between atoms: C_44  and  C_45 
REMARK   16  A    between atoms: C_45  and  O_47 
ROOT
HETATM    1  C   UNK     0       3.812  14.931  -8.504  0.00  0.00     0.051 C 
HETATM    2  C   UNK     0       4.843  15.934  -8.027  0.00  0.00    -0.031 A 
HETATM    3  C   UNK     0       4.746  17.312  -7.918  0.00  0.00     0.021 A 
HETATM    4  N   UNK     0       5.927  17.804  -7.474  0.00  0.00    -0.361 N 
HETATM    5  C   UNK     0       6.772  16.769  -7.290  0.00  0.00     0.022 A 
HETATM    6  C   UNK     0       6.127  15.584  -7.629  0.00  0.00    -0.027 A 
HETATM    7  C   UNK     0       8.159  16.761  -6.727  0.00  0.00     0.115 C 
HETATM    8  C   UNK     0       8.403  17.627  -5.504  0.00  0.00     0.021 A 
HETATM    9  N   UNK     0       7.571  17.886  -4.483  0.00  0.00    -0.361 N 
HETATM   10  C   UNK     0       8.173  18.779  -3.669  0.00  0.00     0.022 A 
HETATM   11  C   UNK     0       9.430  19.097  -4.174  0.00  0.00    -0.027 A 
HETATM   12  C   UNK     0       9.581  18.375  -5.330  0.00  0.00    -0.031 A 
HETATM   13  C   UNK     0      10.802  18.398  -6.222  0.00  0.00     0.051 C 
HETATM   14  C   UNK     0       7.568  19.406  -2.416  0.00  0.00     0.115 C 
HETATM   15  C   UNK     0       6.307  20.214  -2.679  0.00  0.00     0.021 A 
HETATM   16  N   UNK     0       5.158  19.785  -3.233  0.00  0.00    -0.361 N 
HETATM   17  C   UNK     0       4.318  20.816  -3.355  0.00  0.00     0.022 A 
HETATM   18  C   UNK     0       4.947  21.970  -2.846  0.00  0.00    -0.027 A 
HETATM   19  C   UNK     0       6.192  21.579  -2.425  0.00  0.00    -0.031 A 
HETATM   20  C   UNK     0       7.193  22.514  -1.772  0.00  0.00     0.051 C 
HETATM   21  C   UNK     0       2.941  20.880  -3.975  0.00  0.00     0.115 C 
HETATM   22  C   UNK     0       2.670  19.990  -5.165  0.00  0.00     0.022 A 
HETATM   23  N   UNK     0       3.481  19.711  -6.194  0.00  0.00    -0.361 N 
HETATM   24  C   UNK     0       2.894  18.761  -6.950  0.00  0.00     0.021 A 
HETATM   25  C   UNK     0       1.671  18.428  -6.400  0.00  0.00    -0.031 A 
HETATM   26  C   UNK     0       0.633  17.448  -6.907  0.00  0.00     0.051 C 
HETATM   27  C   UNK     0       1.505  19.202  -5.257  0.00  0.00    -0.027 A 
HETATM   28  C   UNK     0       3.466  18.058  -8.169  0.00  0.00     0.115 C 
HETATM   29  H   UNK     0       6.168  18.883  -7.333  0.00  0.00     0.165 HD
HETATM   30  H   UNK     0       6.580  17.402  -4.307  0.00  0.00     0.165 HD
HETATM   31  H   UNK     0       4.915  18.724  -3.501  0.00  0.00     0.165 HD
HETATM   32  H   UNK     0       4.457  20.214  -6.421  0.00  0.00     0.165 HD
ENDROOT
BRANCH   6  33
HETATM   33  C   UNK     0       6.632  14.163  -7.605  0.00  0.00     0.051 C 
BRANCH  33  34
HETATM   34  C   UNK     0       7.420  13.855  -8.856  0.00  0.00     0.114 C 
BRANCH  34  35
HETATM   35  C   UNK     0       8.504  12.904  -8.478  0.00  0.00     0.139 C 
HETATM   36  O   UNK     0       9.051  12.981  -7.340  0.00  0.00    -0.650 OA
BRANCH  35  37
HETATM   37  O   UNK     0       8.958  11.907  -9.333  0.00  0.00    -0.776 OA
HETATM   38  H   UNK     0       9.776  12.027  -9.908  0.00  0.00     0.167 HD
ENDBRANCH  35  37
ENDBRANCH  34  35
ENDBRANCH  33  34
ENDBRANCH   6  33
BRANCH  27  39
HETATM   39  C   UNK     0       0.268  19.172  -4.431  0.00  0.00     0.051 C 
BRANCH  39  40
HETATM   40  C   UNK     0      -0.049  17.945  -3.700  0.00  0.00     0.114 C 
BRANCH  40  41
HETATM   41  C   UNK     0      -0.566  17.964  -2.350  0.00  0.00     0.139 C 
HETATM   42  O   UNK     0      -1.614  18.540  -2.028  0.00  0.00    -0.650 OA
BRANCH  41  43
HETATM   43  O   UNK     0       0.154  17.290  -1.324  0.00  0.00    -0.776 OA
HETATM   44  H   UNK     0       0.789  16.574  -1.659  0.00  0.00     0.167 HD
ENDBRANCH  41  43
ENDBRANCH  40  41
ENDBRANCH  39  40
ENDBRANCH  27  39
BRANCH  11  45
HETATM   45  C   UNK     0      10.462  20.036  -3.609  0.00  0.00     0.051 C 
BRANCH  45  46
HETATM   46  C   UNK     0      10.234  21.463  -3.949  0.00  0.00     0.114 C 
BRANCH  46  47
HETATM   47  C   UNK     0      11.131  22.274  -3.076  0.00  0.00     0.139 C 
HETATM   48  O   UNK     0      10.621  22.972  -2.188  0.00  0.00    -0.650 OA
BRANCH  47  49
HETATM   49  O   UNK     0      12.491  22.249  -3.251  0.00  0.00    -0.776 OA
HETATM   50  H   UNK     0      13.124  22.829  -2.687  0.00  0.00     0.167 HD
ENDBRANCH  47  49
ENDBRANCH  46  47
ENDBRANCH  45  46
ENDBRANCH  11  45
BRANCH  18  51
HETATM   51  C   UNK     0       4.385  23.364  -2.747  0.00  0.00     0.051 C 
BRANCH  51  52
HETATM   52  C   UNK     0       4.758  24.067  -4.044  0.00  0.00     0.114 C 
BRANCH  52  53
HETATM   53  C   UNK     0       5.543  25.293  -3.798  0.00  0.00     0.139 C 
HETATM   54  O   UNK     0       5.775  25.659  -2.635  0.00  0.00    -0.650 OA
BRANCH  53  55
HETATM   55  O   UNK     0       6.010  26.025  -4.863  0.00  0.00    -0.776 OA
HETATM   56  H   UNK     0       5.453  26.492  -5.540  0.00  0.00     0.167 HD
ENDBRANCH  53  55
ENDBRANCH  52  53
ENDBRANCH  51  52
ENDBRANCH  18  51
TORSDOF 16
ENDMDL
MODEL 15
REMARK VINA RESULT:      -7.1     34.867     38.787
REMARK  16 active torsions:
REMARK  status: ('A' for Active; 'I' for Inactive)
REMARK    1  A    between atoms: C_6  and  C_7 
REMARK    2  A    between atoms: C_7  and  C_8 
REMARK    3  A    between atoms: C_8  and  C_9 
REMARK    4  A    between atoms: C_9  and  O_11 
REMARK    5  A    between atoms: C_16  and  C_17 
REMARK    6  A    between atoms: C_17  and  C_18 
REMARK    7  A    between atoms: C_18  and  C_19 
REMARK    8  A    between atoms: C_19  and  O_21 
REMARK    9  A    between atoms: C_28  and  C_29 
REMARK   10  A    between atoms: C_29  and  C_30 
REMARK   11  A    between atoms: C_30  and  C_31 
REMARK   12  A    between atoms: C_31  and  O_33 
REMARK   13  A    between atoms: C_42  and  C_43 
REMARK   14  A    between atoms: C_43  and  C_44 
REMARK   15  A    between atoms: C_44  and  C_45 
REMARK   16  A    between atoms: C_45  and  O_47 
ROOT
HETATM    1  C   UNK     0      -7.490  -4.275  13.744  0.00  0.00     0.051 C 
HETATM    2  C   UNK     0      -6.054  -4.558  14.134  0.00  0.00    -0.031 A 
HETATM    3  C   UNK     0      -5.292  -5.696  13.921  0.00  0.00     0.021 A 
HETATM    4  N   UNK     0      -4.067  -5.517  14.469  0.00  0.00    -0.361 N 
HETATM    5  C   UNK     0      -4.028  -4.286  15.019  0.00  0.00     0.022 A 
HETATM    6  C   UNK     0      -5.256  -3.659  14.830  0.00  0.00    -0.027 A 
HETATM    7  C   UNK     0      -2.885  -3.566  15.663  0.00  0.00     0.115 C 
HETATM    8  C   UNK     0      -1.535  -3.680  14.977  0.00  0.00     0.021 A 
HETATM    9  N   UNK     0      -1.267  -3.736  13.663  0.00  0.00    -0.361 N 
HETATM   10  C   UNK     0       0.061  -3.928  13.514  0.00  0.00     0.022 A 
HETATM   11  C   UNK     0       0.667  -3.987  14.766  0.00  0.00    -0.027 A 
HETATM   12  C   UNK     0      -0.333  -3.831  15.692  0.00  0.00    -0.031 A 
HETATM   13  C   UNK     0      -0.142  -3.823  17.192  0.00  0.00     0.051 C 
HETATM   14  C   UNK     0       0.802  -4.115  12.194  0.00  0.00     0.115 C 
HETATM   15  C   UNK     0       0.349  -5.331  11.401  0.00  0.00     0.021 A 
HETATM   16  N   UNK     0      -0.889  -5.601  10.948  0.00  0.00    -0.361 N 
HETATM   17  C   UNK     0      -0.889  -6.799  10.359  0.00  0.00     0.022 A 
HETATM   18  C   UNK     0       0.414  -7.331  10.423  0.00  0.00    -0.027 A 
HETATM   19  C   UNK     0       1.180  -6.401  11.077  0.00  0.00    -0.031 A 
HETATM   20  C   UNK     0       2.668  -6.562  11.330  0.00  0.00     0.051 C 
HETATM   21  C   UNK     0      -2.032  -7.586   9.758  0.00  0.00     0.115 C 
HETATM   22  C   UNK     0      -3.390  -7.448  10.404  0.00  0.00     0.022 A 
HETATM   23  N   UNK     0      -3.686  -7.385  11.708  0.00  0.00    -0.361 N 
HETATM   24  C   UNK     0      -5.002  -7.117  11.832  0.00  0.00     0.021 A 
HETATM   25  C   UNK     0      -5.568  -7.014  10.576  0.00  0.00    -0.031 A 
HETATM   26  C   UNK     0      -7.014  -6.765  10.200  0.00  0.00     0.051 C 
HETATM   27  C   UNK     0      -4.557  -7.223   9.645  0.00  0.00    -0.027 A 
HETATM   28  C   UNK     0      -5.783  -6.862  13.109  0.00  0.00     0.115 C 
HETATM   29  H   UNK     0      -3.251  -6.276  14.498  0.00  0.00     0.165 HD
HETATM   30  H   UNK     0      -2.005  -3.592  12.838  0.00  0.00     0.165 HD
HETATM   31  H   UNK     0      -1.772  -4.912  11.002  0.00  0.00     0.165 HD
HETATM   32  H   UNK     0      -2.977  -7.573  12.556  0.00  0.00     0.165 HD
ENDROOT
BRANCH   6  33
HETATM   33  C   UNK     0      -5.723  -2.291  15.258  0.00  0.00     0.051 C 
BRANCH  33  34
HETATM   34  C   UNK     0      -5.300  -1.244  14.254  0.00  0.00     0.114 C 
BRANCH  34  35
HETATM   35  C   UNK     0      -6.104  -0.017  14.524  0.00  0.00     0.139 C 
HETATM   36  O   UNK     0      -6.564   0.667  13.564  0.00  0.00    -0.650 OA
BRANCH  35  37
HETATM   37  O   UNK     0      -6.386   0.426  15.810  0.00  0.00    -0.776 OA
HETATM   38  H   UNK     0      -5.770   0.243  16.586  0.00  0.00     0.167 HD
ENDBRANCH  35  37
ENDBRANCH  34  35
ENDBRANCH  33  34
ENDBRANCH   6  33
BRANCH  27  39
HETATM   39  C   UNK     0      -4.800  -7.260   8.178  0.00  0.00     0.051 C 
BRANCH  39  40
HETATM   40  C   UNK     0      -4.545  -6.046   7.401  0.00  0.00     0.114 C 
BRANCH  40  41
HETATM   41  C   UNK     0      -5.345  -4.852   7.554  0.00  0.00     0.139 C 
HETATM   42  O   UNK     0      -6.481  -4.724   7.077  0.00  0.00    -0.650 OA
BRANCH  41  43
HETATM   43  O   UNK     0      -4.814  -3.754   8.288  0.00  0.00    -0.776 OA
HETATM   44  H   UNK     0      -5.138  -3.694   9.246  0.00  0.00     0.167 HD
ENDBRANCH  41  43
ENDBRANCH  40  41
ENDBRANCH  39  40
ENDBRANCH  27  39
BRANCH  11  45
HETATM   45  C   UNK     0       2.122  -4.178  15.101  0.00  0.00     0.051 C 
BRANCH  45  46
HETATM   46  C   UNK     0       2.549  -5.599  15.159  0.00  0.00     0.114 C 
BRANCH  46  47
HETATM   47  C   UNK     0       3.400  -5.756  16.373  0.00  0.00     0.139 C 
HETATM   48  O   UNK     0       3.614  -6.898  16.803  0.00  0.00    -0.650 OA
BRANCH  47  49
HETATM   49  O   UNK     0       3.933  -4.660  17.003  0.00  0.00    -0.776 OA
HETATM   50  H   UNK     0       4.929  -4.601  17.244  0.00  0.00     0.167 HD
ENDBRANCH  47  49
ENDBRANCH  46  47
ENDBRANCH  45  46
ENDBRANCH  11  45
BRANCH  18  51
HETATM   51  C   UNK     0       0.906  -8.644   9.873  0.00  0.00     0.051 C 
BRANCH  51  52
HETATM   52  C   UNK     0       0.332  -9.726  10.775  0.00  0.00     0.114 C 
BRANCH  52  53
HETATM   53  C   UNK     0       1.054  -9.812  12.059  0.00  0.00     0.139 C 
HETATM   54  O   UNK     0       0.445  -9.647  13.127  0.00  0.00    -0.650 OA
BRANCH  53  55
HETATM   55  O   UNK     0       2.403 -10.072  12.063  0.00  0.00    -0.776 OA
HETATM   56  H   UNK     0       3.100  -9.532  12.520  0.00  0.00     0.167 HD
ENDBRANCH  53  55
ENDBRANCH  52  53
ENDBRANCH  51  52
ENDBRANCH  18  51
TORSDOF 16
ENDMDL
MODEL 16
REMARK VINA RESULT:      -7.1     36.016     41.087
REMARK  16 active torsions:
REMARK  status: ('A' for Active; 'I' for Inactive)
REMARK    1  A    between atoms: C_6  and  C_7 
REMARK    2  A    between atoms: C_7  and  C_8 
REMARK    3  A    between atoms: C_8  and  C_9 
REMARK    4  A    between atoms: C_9  and  O_11 
REMARK    5  A    between atoms: C_16  and  C_17 
REMARK    6  A    between atoms: C_17  and  C_18 
REMARK    7  A    between atoms: C_18  and  C_19 
REMARK    8  A    between atoms: C_19  and  O_21 
REMARK    9  A    between atoms: C_28  and  C_29 
REMARK   10  A    between atoms: C_29  and  C_30 
REMARK   11  A    between atoms: C_30  and  C_31 
REMARK   12  A    between atoms: C_31  and  O_33 
REMARK   13  A    between atoms: C_42  and  C_43 
REMARK   14  A    between atoms: C_43  and  C_44 
REMARK   15  A    between atoms: C_44  and  C_45 
REMARK   16  A    between atoms: C_45  and  O_47 
ROOT
HETATM    1  C   UNK     0      -6.455 -10.091   8.270  0.00  0.00     0.051 C 
HETATM    2  C   UNK     0      -5.583  -9.345   9.260  0.00  0.00    -0.031 A 
HETATM    3  C   UNK     0      -4.971  -9.807  10.415  0.00  0.00     0.021 A 
HETATM    4  N   UNK     0      -4.313  -8.781  11.006  0.00  0.00    -0.361 N 
HETATM    5  C   UNK     0      -4.486  -7.678  10.248  0.00  0.00     0.022 A 
HETATM    6  C   UNK     0      -5.278  -7.995   9.150  0.00  0.00    -0.027 A 
HETATM    7  C   UNK     0      -3.895  -6.312  10.407  0.00  0.00     0.115 C 
HETATM    8  C   UNK     0      -2.426  -6.244  10.784  0.00  0.00     0.021 A 
HETATM    9  N   UNK     0      -1.427  -7.057  10.405  0.00  0.00    -0.361 N 
HETATM   10  C   UNK     0      -0.307  -6.676  11.055  0.00  0.00     0.022 A 
HETATM   11  C   UNK     0      -0.590  -5.583  11.868  0.00  0.00    -0.027 A 
HETATM   12  C   UNK     0      -1.923  -5.305  11.701  0.00  0.00    -0.031 A 
HETATM   13  C   UNK     0      -2.675  -4.187  12.388  0.00  0.00     0.051 C 
HETATM   14  C   UNK     0       1.056  -7.358  10.977  0.00  0.00     0.115 C 
HETATM   15  C   UNK     0       1.049  -8.804  11.449  0.00  0.00     0.021 A 
HETATM   16  N   UNK     0       0.314  -9.822  10.964  0.00  0.00    -0.361 N 
HETATM   17  C   UNK     0       0.545 -10.915  11.695  0.00  0.00     0.022 A 
HETATM   18  C   UNK     0       1.481 -10.596  12.698  0.00  0.00    -0.027 A 
HETATM   19  C   UNK     0       1.790  -9.271  12.532  0.00  0.00    -0.031 A 
HETATM   20  C   UNK     0       2.798  -8.525  13.388  0.00  0.00     0.051 C 
HETATM   21  C   UNK     0      -0.078 -12.290  11.610  0.00  0.00     0.115 C 
HETATM   22  C   UNK     0      -1.528 -12.375  11.194  0.00  0.00     0.022 A 
HETATM   23  N   UNK     0      -2.542 -11.577  11.552  0.00  0.00    -0.361 N 
HETATM   24  C   UNK     0      -3.629 -11.925  10.834  0.00  0.00     0.021 A 
HETATM   25  C   UNK     0      -3.309 -12.980  10.001  0.00  0.00    -0.031 A 
HETATM   26  C   UNK     0      -4.200 -13.739   9.040  0.00  0.00     0.051 C 
HETATM   27  C   UNK     0      -1.970 -13.286  10.213  0.00  0.00    -0.027 A 
HETATM   28  C   UNK     0      -4.991 -11.252  10.823  0.00  0.00     0.115 C 
HETATM   29  H   UNK     0      -3.765  -8.834  11.975  0.00  0.00     0.165 HD
HETATM   30  H   UNK     0      -1.499  -7.869   9.640  0.00  0.00     0.165 HD
HETATM   31  H   UNK     0      -0.344  -9.783  10.058  0.00  0.00     0.165 HD
HETATM   32  H   UNK     0      -2.512 -10.788  12.348  0.00  0.00     0.165 HD
ENDROOT
BRANCH   6  33
HETATM   33  C   UNK     0      -5.763  -7.123   8.019  0.00  0.00     0.051 C 
BRANCH  33  34
HETATM   34  C   UNK     0      -4.608  -6.676   7.155  0.00  0.00     0.114 C 
BRANCH  34  35
HETATM   35  C   UNK     0      -4.831  -5.241   6.817  0.00  0.00     0.139 C 
HETATM   36  O   UNK     0      -4.687  -4.837   5.627  0.00  0.00    -0.650 OA
BRANCH  35  37
HETATM   37  O   UNK     0      -5.201  -4.297   7.767  0.00  0.00    -0.776 OA
HETATM   38  H   UNK     0      -5.677  -3.445   7.517  0.00  0.00     0.167 HD
ENDBRANCH  35  37
ENDBRANCH  34  35
ENDBRANCH  33  34
ENDBRANCH   6  33
BRANCH  27  39
HETATM   39  C   UNK     0      -1.281 -14.421   9.541  0.00  0.00     0.051 C 
BRANCH  39  40
HETATM   40  C   UNK     0      -0.578 -14.161   8.285  0.00  0.00     0.114 C 
BRANCH  40  41
HETATM   41  C   UNK     0       0.542 -13.250   8.203  0.00  0.00     0.139 C 
HETATM   42  O   UNK     0       0.418 -12.023   8.088  0.00  0.00    -0.650 OA
BRANCH  41  43
HETATM   43  O   UNK     0       1.864 -13.775   8.256  0.00  0.00    -0.776 OA
HETATM   44  H   UNK     0       2.424 -13.586   7.433  0.00  0.00     0.167 HD
ENDBRANCH  41  43
ENDBRANCH  40  41
ENDBRANCH  39  40
ENDBRANCH  27  39
BRANCH  11  45
HETATM   45  C   UNK     0       0.339  -4.814  12.768  0.00  0.00     0.051 C 
BRANCH  45  46
HETATM   46  C   UNK     0       1.093  -3.733  12.082  0.00  0.00     0.114 C 
BRANCH  46  47
HETATM   47  C   UNK     0       1.574  -2.793  13.134  0.00  0.00     0.139 C 
HETATM   48  O   UNK     0       0.740  -2.272  13.889  0.00  0.00    -0.650 OA
BRANCH  47  49
HETATM   49  O   UNK     0       2.909  -2.508  13.264  0.00  0.00    -0.776 OA
HETATM   50  H   UNK     0       3.436  -2.741  14.114  0.00  0.00     0.167 HD
ENDBRANCH  47  49
ENDBRANCH  46  47
ENDBRANCH  45  46
ENDBRANCH  11  45
BRANCH  18  51
HETATM   51  C   UNK     0       2.066 -11.509  13.745  0.00  0.00     0.051 C 
BRANCH  51  52
HETATM   52  C   UNK     0       3.199 -12.264  13.066  0.00  0.00     0.114 C 
BRANCH  52  53
HETATM   53  C   UNK     0       4.470 -12.126  13.802  0.00  0.00     0.139 C 
HETATM   54  O   UNK     0       4.486 -12.227  15.039  0.00  0.00    -0.650 OA
BRANCH  53  55
HETATM   55  O   UNK     0       5.632 -11.882  13.111  0.00  0.00    -0.776 OA
HETATM   56  H   UNK     0       5.886 -12.278  12.237  0.00  0.00     0.167 HD
ENDBRANCH  53  55
ENDBRANCH  52  53
ENDBRANCH  51  52
ENDBRANCH  18  51
TORSDOF 16
ENDMDL
MODEL 17
REMARK VINA RESULT:      -7.0     20.826     23.980
REMARK  16 active torsions:
REMARK  status: ('A' for Active; 'I' for Inactive)
REMARK    1  A    between atoms: C_6  and  C_7 
REMARK    2  A    between atoms: C_7  and  C_8 
REMARK    3  A    between atoms: C_8  and  C_9 
REMARK    4  A    between atoms: C_9  and  O_11 
REMARK    5  A    between atoms: C_16  and  C_17 
REMARK    6  A    between atoms: C_17  and  C_18 
REMARK    7  A    between atoms: C_18  and  C_19 
REMARK    8  A    between atoms: C_19  and  O_21 
REMARK    9  A    between atoms: C_28  and  C_29 
REMARK   10  A    between atoms: C_29  and  C_30 
REMARK   11  A    between atoms: C_30  and  C_31 
REMARK   12  A    between atoms: C_31  and  O_33 
REMARK   13  A    between atoms: C_42  and  C_43 
REMARK   14  A    between atoms: C_43  and  C_44 
REMARK   15  A    between atoms: C_44  and  C_45 
REMARK   16  A    between atoms: C_45  and  O_47 
ROOT
HETATM    1  C   UNK     0       4.790  15.827  -8.669  0.00  0.00     0.051 C 
HETATM    2  C   UNK     0       5.968  16.114  -7.761  0.00  0.00    -0.031 A 
HETATM    3  C   UNK     0       6.856  15.231  -7.165  0.00  0.00     0.021 A 
HETATM    4  N   UNK     0       7.734  15.932  -6.409  0.00  0.00    -0.361 N 
HETATM    5  C   UNK     0       7.431  17.242  -6.516  0.00  0.00     0.022 A 
HETATM    6  C   UNK     0       6.329  17.391  -7.352  0.00  0.00    -0.027 A 
HETATM    7  C   UNK     0       8.145  18.433  -5.957  0.00  0.00     0.115 C 
HETATM    8  C   UNK     0       9.661  18.422  -6.044  0.00  0.00     0.021 A 
HETATM    9  N   UNK     0      10.439  17.925  -7.018  0.00  0.00    -0.361 N 
HETATM   10  C   UNK     0      11.726  18.051  -6.632  0.00  0.00     0.022 A 
HETATM   11  C   UNK     0      11.779  18.654  -5.379  0.00  0.00    -0.027 A 
HETATM   12  C   UNK     0      10.481  18.891  -5.003  0.00  0.00    -0.031 A 
HETATM   13  C   UNK     0      10.051  19.540  -3.707  0.00  0.00     0.051 C 
HETATM   14  C   UNK     0      12.950  17.562  -7.401  0.00  0.00     0.115 C 
HETATM   15  C   UNK     0      12.972  16.060  -7.633  0.00  0.00     0.021 A 
HETATM   16  N   UNK     0      12.052  15.314  -8.274  0.00  0.00    -0.361 N 
HETATM   17  C   UNK     0      12.402  14.028  -8.201  0.00  0.00     0.022 A 
HETATM   18  C   UNK     0      13.614  13.932  -7.488  0.00  0.00    -0.027 A 
HETATM   19  C   UNK     0      13.960  15.212  -7.139  0.00  0.00    -0.031 A 
HETATM   20  C   UNK     0      15.229  15.567  -6.385  0.00  0.00     0.051 C 
HETATM   21  C   UNK     0      11.679  12.795  -8.692  0.00  0.00     0.115 C 
HETATM   22  C   UNK     0      10.169  12.809  -8.653  0.00  0.00     0.022 A 
HETATM   23  N   UNK     0       9.369  13.301  -7.698  0.00  0.00    -0.361 N 
HETATM   24  C   UNK     0       8.096  13.235  -8.137  0.00  0.00     0.021 A 
HETATM   25  C   UNK     0       8.075  12.679  -9.402  0.00  0.00    -0.031 A 
HETATM   26  C   UNK     0       6.886  12.366 -10.286  0.00  0.00     0.051 C 
HETATM   27  C   UNK     0       9.390  12.398  -9.753  0.00  0.00    -0.027 A 
HETATM   28  C   UNK     0       6.846  13.755  -7.447  0.00  0.00     0.115 C 
HETATM   29  H   UNK     0       8.537  15.492  -5.773  0.00  0.00     0.165 HD
HETATM   30  H   UNK     0      10.084  17.530  -8.002  0.00  0.00     0.165 HD
HETATM   31  H   UNK     0      11.161  15.707  -8.829  0.00  0.00     0.165 HD
HETATM   32  H   UNK     0       9.691  13.659  -6.685  0.00  0.00     0.165 HD
ENDROOT
BRANCH   6  33
HETATM   33  C   UNK     0       5.602  18.639  -7.785  0.00  0.00     0.051 C 
BRANCH  33  34
HETATM   34  C   UNK     0       4.504  18.985  -6.807  0.00  0.00     0.114 C 
BRANCH  34  35
HETATM   35  C   UNK     0       4.939  20.199  -6.058  0.00  0.00     0.139 C 
HETATM   36  O   UNK     0       5.190  20.128  -4.820  0.00  0.00    -0.650 OA
BRANCH  35  37
HETATM   37  O   UNK     0       5.090  21.439  -6.665  0.00  0.00    -0.776 OA
HETATM   38  H   UNK     0       4.468  22.208  -6.473  0.00  0.00     0.167 HD
ENDBRANCH  35  37
ENDBRANCH  34  35
ENDBRANCH  33  34
ENDBRANCH   6  33
BRANCH  27  39
HETATM   39  C   UNK     0       9.763  11.722 -11.026  0.00  0.00     0.051 C 
BRANCH  39  40
HETATM   40  C   UNK     0      10.047  12.553 -12.195  0.00  0.00     0.114 C 
BRANCH  40  41
HETATM   41  C   UNK     0      10.079  13.996 -12.126  0.00  0.00     0.139 C 
HETATM   42  O   UNK     0       9.106  14.715 -12.392  0.00  0.00    -0.650 OA
BRANCH  41  43
HETATM   43  O   UNK     0      11.285  14.643 -11.732  0.00  0.00    -0.776 OA
HETATM   44  H   UNK     0      11.228  15.133 -10.847  0.00  0.00     0.167 HD
ENDBRANCH  41  43
ENDBRANCH  40  41
ENDBRANCH  39  40
ENDBRANCH  27  39
BRANCH  11  45
HETATM   45  C   UNK     0      12.987  19.005  -4.553  0.00  0.00     0.051 C 
BRANCH  45  46
HETATM   46  C   UNK     0      13.631  20.288  -4.936  0.00  0.00     0.114 C 
BRANCH  46  47
HETATM   47  C   UNK     0      13.626  21.162  -3.728  0.00  0.00     0.139 C 
HETATM   48  O   UNK     0      12.588  21.775  -3.444  0.00  0.00    -0.650 OA
BRANCH  47  49
HETATM   49  O   UNK     0      14.748  21.288  -2.948  0.00  0.00    -0.776 OA
HETATM   50  H   UNK     0      14.925  22.125  -2.379  0.00  0.00     0.167 HD
ENDBRANCH  47  49
ENDBRANCH  46  47
ENDBRANCH  45  46
ENDBRANCH  11  45
BRANCH  18  51
HETATM   51  C   UNK     0      14.409  12.691  -7.175  0.00  0.00     0.051 C 
BRANCH  51  52
HETATM   52  C   UNK     0      13.760  12.068  -5.948  0.00  0.00     0.114 C 
BRANCH  52  53
HETATM   53  C   UNK     0      13.336  10.677  -6.197  0.00  0.00     0.139 C 
HETATM   54  O   UNK     0      13.970   9.968  -6.996  0.00  0.00    -0.650 OA
BRANCH  53  55
HETATM   55  O   UNK     0      12.238  10.173  -5.544  0.00  0.00    -0.776 OA
HETATM   56  H   UNK     0      11.812  10.559  -4.734  0.00  0.00     0.167 HD
ENDBRANCH  53  55
ENDBRANCH  52  53
ENDBRANCH  51  52
ENDBRANCH  18  51
TORSDOF 16
ENDMDL
MODEL 18
REMARK VINA RESULT:      -7.0     34.432     38.936
REMARK  16 active torsions:
REMARK  status: ('A' for Active; 'I' for Inactive)
REMARK    1  A    between atoms: C_6  and  C_7 
REMARK    2  A    between atoms: C_7  and  C_8 
REMARK    3  A    between atoms: C_8  and  C_9 
REMARK    4  A    between atoms: C_9  and  O_11 
REMARK    5  A    between atoms: C_16  and  C_17 
REMARK    6  A    between atoms: C_17  and  C_18 
REMARK    7  A    between atoms: C_18  and  C_19 
REMARK    8  A    between atoms: C_19  and  O_21 
REMARK    9  A    between atoms: C_28  and  C_29 
REMARK   10  A    between atoms: C_29  and  C_30 
REMARK   11  A    between atoms: C_30  and  C_31 
REMARK   12  A    between atoms: C_31  and  O_33 
REMARK   13  A    between atoms: C_42  and  C_43 
REMARK   14  A    between atoms: C_43  and  C_44 
REMARK   15  A    between atoms: C_44  and  C_45 
REMARK   16  A    between atoms: C_45  and  O_47 
ROOT
HETATM    1  C   UNK     0       2.117  -5.492  14.652  0.00  0.00     0.051 C 
HETATM    2  C   UNK     0       0.807  -4.910  14.159  0.00  0.00    -0.031 A 
HETATM    3  C   UNK     0       0.346  -4.756  12.861  0.00  0.00     0.021 A 
HETATM    4  N   UNK     0      -0.869  -4.159  12.892  0.00  0.00    -0.361 N 
HETATM    5  C   UNK     0      -1.196  -3.936  14.182  0.00  0.00     0.022 A 
HETATM    6  C   UNK     0      -0.168  -4.391  15.001  0.00  0.00    -0.027 A 
HETATM    7  C   UNK     0      -2.462  -3.389  14.763  0.00  0.00     0.115 C 
HETATM    8  C   UNK     0      -3.762  -3.895  14.161  0.00  0.00     0.021 A 
HETATM    9  N   UNK     0      -4.046  -5.120  13.694  0.00  0.00    -0.361 N 
HETATM   10  C   UNK     0      -5.289  -5.090  13.168  0.00  0.00     0.022 A 
HETATM   11  C   UNK     0      -5.823  -3.813  13.308  0.00  0.00    -0.027 A 
HETATM   12  C   UNK     0      -4.866  -3.055  13.933  0.00  0.00    -0.031 A 
HETATM   13  C   UNK     0      -5.009  -1.594  14.298  0.00  0.00     0.051 C 
HETATM   14  C   UNK     0      -5.999  -6.245  12.467  0.00  0.00     0.115 C 
HETATM   15  C   UNK     0      -5.282  -6.745  11.223  0.00  0.00     0.021 A 
HETATM   16  N   UNK     0      -4.029  -7.230  11.136  0.00  0.00    -0.361 N 
HETATM   17  C   UNK     0      -3.749  -7.494   9.857  0.00  0.00     0.022 A 
HETATM   18  C   UNK     0      -4.877  -7.175   9.075  0.00  0.00    -0.027 A 
HETATM   19  C   UNK     0      -5.831  -6.709   9.943  0.00  0.00    -0.031 A 
HETATM   20  C   UNK     0      -7.224  -6.284   9.516  0.00  0.00     0.051 C 
HETATM   21  C   UNK     0      -2.466  -7.982   9.224  0.00  0.00     0.115 C 
HETATM   22  C   UNK     0      -1.165  -7.522   9.841  0.00  0.00     0.022 A 
HETATM   23  N   UNK     0      -0.856  -6.309  10.317  0.00  0.00    -0.361 N 
HETATM   24  C   UNK     0       0.355  -6.382  10.906  0.00  0.00     0.021 A 
HETATM   25  C   UNK     0       0.841  -7.671  10.797  0.00  0.00    -0.031 A 
HETATM   26  C   UNK     0       2.168  -8.232  11.264  0.00  0.00     0.051 C 
HETATM   27  C   UNK     0      -0.114  -8.419  10.118  0.00  0.00    -0.027 A 
HETATM   28  C   UNK     0       1.086  -5.290  11.667  0.00  0.00     0.115 C 
HETATM   29  H   UNK     0      -1.470  -3.862  12.001  0.00  0.00     0.165 HD
HETATM   30  H   UNK     0      -3.391  -6.022  13.779  0.00  0.00     0.165 HD
HETATM   31  H   UNK     0      -3.344  -7.434  11.999  0.00  0.00     0.165 HD
HETATM   32  H   UNK     0      -1.471  -5.379  10.205  0.00  0.00     0.165 HD
ENDROOT
BRANCH   6  33
HETATM   33  C   UNK     0      -0.042  -4.369  16.504  0.00  0.00     0.051 C 
BRANCH  33  34
HETATM   34  C   UNK     0       0.329  -2.988  16.989  0.00  0.00     0.114 C 
BRANCH  34  35
HETATM   35  C   UNK     0       1.797  -2.823  16.787  0.00  0.00     0.139 C 
HETATM   36  O   UNK     0       2.615  -3.347  17.598  0.00  0.00    -0.650 OA
BRANCH  35  37
HETATM   37  O   UNK     0       2.331  -2.107  15.722  0.00  0.00    -0.776 OA
HETATM   38  H   UNK     0       3.237  -2.320  15.335  0.00  0.00     0.167 HD
ENDBRANCH  35  37
ENDBRANCH  34  35
ENDBRANCH  33  34
ENDBRANCH   6  33
BRANCH  27  39
HETATM   39  C   UNK     0       0.087  -9.846   9.747  0.00  0.00     0.051 C 
BRANCH  39  40
HETATM   40  C   UNK     0      -0.348 -10.876  10.690  0.00  0.00     0.114 C 
BRANCH  40  41
HETATM   41  C   UNK     0       0.526 -11.403  11.714  0.00  0.00     0.139 C 
HETATM   42  O   UNK     0       0.215 -11.467  12.911  0.00  0.00    -0.650 OA
BRANCH  41  43
HETATM   43  O   UNK     0       1.816 -11.879  11.344  0.00  0.00    -0.776 OA
HETATM   44  H   UNK     0       1.820 -12.809  10.944  0.00  0.00     0.167 HD
ENDBRANCH  41  43
ENDBRANCH  40  41
ENDBRANCH  39  40
ENDBRANCH  27  39
BRANCH  11  45
HETATM   45  C   UNK     0      -7.175  -3.306  12.882  0.00  0.00     0.051 C 
BRANCH  45  46
HETATM   46  C   UNK     0      -7.381  -3.292  11.411  0.00  0.00     0.114 C 
BRANCH  46  47
HETATM   47  C   UNK     0      -6.778  -2.031  10.892  0.00  0.00     0.139 C 
HETATM   48  O   UNK     0      -6.065  -2.088   9.880  0.00  0.00    -0.650 OA
BRANCH  47  49
HETATM   49  O   UNK     0      -7.004  -0.833  11.521  0.00  0.00    -0.776 OA
HETATM   50  H   UNK     0      -6.650  -0.637  12.465  0.00  0.00     0.167 HD
ENDBRANCH  47  49
ENDBRANCH  46  47
ENDBRANCH  45  46
ENDBRANCH  11  45
BRANCH  18  51
HETATM   51  C   UNK     0      -5.045  -7.328   7.586  0.00  0.00     0.051 C 
BRANCH  51  52
HETATM   52  C   UNK     0      -4.359  -6.125   6.955  0.00  0.00     0.114 C 
BRANCH  52  53
HETATM   53  C   UNK     0      -5.145  -4.888   7.132  0.00  0.00     0.139 C 
HETATM   54  O   UNK     0      -6.157  -4.691   6.441  0.00  0.00    -0.650 OA
BRANCH  53  55
HETATM   55  O   UNK     0      -4.749  -3.959   8.063  0.00  0.00    -0.776 OA
HETATM   56  H   UNK     0      -5.203  -3.763   8.923  0.00  0.00     0.167 HD
ENDBRANCH  53  55
ENDBRANCH  52  53
ENDBRANCH  51  52
ENDBRANCH  18  51
TORSDOF 16
ENDMDL
MODEL 19
REMARK VINA RESULT:      -7.0     36.046     40.306
REMARK  16 active torsions:
REMARK  status: ('A' for Active; 'I' for Inactive)
REMARK    1  A    between atoms: C_6  and  C_7 
REMARK    2  A    between atoms: C_7  and  C_8 
REMARK    3  A    between atoms: C_8  and  C_9 
REMARK    4  A    between atoms: C_9  and  O_11 
REMARK    5  A    between atoms: C_16  and  C_17 
REMARK    6  A    between atoms: C_17  and  C_18 
REMARK    7  A    between atoms: C_18  and  C_19 
REMARK    8  A    between atoms: C_19  and  O_21 
REMARK    9  A    between atoms: C_28  and  C_29 
REMARK   10  A    between atoms: C_29  and  C_30 
REMARK   11  A    between atoms: C_30  and  C_31 
REMARK   12  A    between atoms: C_31  and  O_33 
REMARK   13  A    between atoms: C_42  and  C_43 
REMARK   14  A    between atoms: C_43  and  C_44 
REMARK   15  A    between atoms: C_44  and  C_45 
REMARK   16  A    between atoms: C_45  and  O_47 
ROOT
HETATM    1  C   UNK     0       7.288 -10.266 -13.912  0.00  0.00     0.051 C 
HETATM    2  C   UNK     0       7.130  -9.537 -12.593  0.00  0.00    -0.031 A 
HETATM    3  C   UNK     0       6.563  -9.977 -11.408  0.00  0.00     0.021 A 
HETATM    4  N   UNK     0       6.610  -8.975 -10.497  0.00  0.00    -0.361 N 
HETATM    5  C   UNK     0       7.202  -7.910 -11.074  0.00  0.00     0.022 A 
HETATM    6  C   UNK     0       7.538  -8.226 -12.387  0.00  0.00    -0.027 A 
HETATM    7  C   UNK     0       7.579  -6.590 -10.476  0.00  0.00     0.115 C 
HETATM    8  C   UNK     0       8.201  -6.622  -9.091  0.00  0.00     0.021 A 
HETATM    9  N   UNK     0       9.034  -7.537  -8.570  0.00  0.00    -0.361 N 
HETATM   10  C   UNK     0       9.257  -7.212  -7.279  0.00  0.00     0.022 A 
HETATM   11  C   UNK     0       8.557  -6.051  -6.963  0.00  0.00    -0.027 A 
HETATM   12  C   UNK     0       7.890  -5.674  -8.100  0.00  0.00    -0.031 A 
HETATM   13  C   UNK     0       6.999  -4.459  -8.229  0.00  0.00     0.051 C 
HETATM   14  C   UNK     0      10.093  -8.008  -6.281  0.00  0.00     0.115 C 
HETATM   15  C   UNK     0       9.579  -9.416  -6.032  0.00  0.00     0.021 A 
HETATM   16  N   UNK     0       9.401 -10.398  -6.936  0.00  0.00    -0.361 N 
HETATM   17  C   UNK     0       8.866 -11.460  -6.330  0.00  0.00     0.022 A 
HETATM   18  C   UNK     0       8.695 -11.160  -4.964  0.00  0.00    -0.027 A 
HETATM   19  C   UNK     0       9.146  -9.877  -4.790  0.00  0.00    -0.031 A 
HETATM   20  C   UNK     0       9.175  -9.168  -3.449  0.00  0.00     0.051 C 
HETATM   21  C   UNK     0       8.411 -12.782  -6.907  0.00  0.00     0.115 C 
HETATM   22  C   UNK     0       7.831 -12.771  -8.302  0.00  0.00     0.022 A 
HETATM   23  N   UNK     0       7.003 -11.871  -8.849  0.00  0.00    -0.361 N 
HETATM   24  C   UNK     0       6.856 -12.171 -10.156  0.00  0.00     0.021 A 
HETATM   25  C   UNK     0       7.600 -13.296 -10.455  0.00  0.00    -0.031 A 
HETATM   26  C   UNK     0       7.723 -14.036 -11.771  0.00  0.00     0.051 C 
HETATM   27  C   UNK     0       8.232 -13.699  -9.284  0.00  0.00    -0.027 A 
HETATM   28  C   UNK     0       6.089 -11.389 -11.208  0.00  0.00     0.115 C 
HETATM   29  H   UNK     0       6.188  -9.015  -9.466  0.00  0.00     0.165 HD
HETATM   30  H   UNK     0       9.505  -8.385  -9.124  0.00  0.00     0.165 HD
HETATM   31  H   UNK     0       9.704 -10.358  -8.014  0.00  0.00     0.165 HD
HETATM   32  H   UNK     0       6.479 -11.041  -8.308  0.00  0.00     0.165 HD
ENDROOT
BRANCH   6  33
HETATM   33  C   UNK     0       8.205  -7.386 -13.446  0.00  0.00     0.051 C 
BRANCH  33  34
HETATM   34  C   UNK     0       9.580  -6.950 -12.996  0.00  0.00     0.114 C 
BRANCH  34  35
HETATM   35  C   UNK     0      10.422  -8.175 -12.882  0.00  0.00     0.139 C 
HETATM   36  O   UNK     0      10.925  -8.500 -11.768  0.00  0.00    -0.650 OA
BRANCH  35  37
HETATM   37  O   UNK     0      10.688  -9.005 -13.964  0.00  0.00    -0.776 OA
HETATM   38  H   UNK     0      10.266  -8.858 -14.867  0.00  0.00     0.167 HD
ENDBRANCH  35  37
ENDBRANCH  34  35
ENDBRANCH  33  34
ENDBRANCH   6  33
BRANCH  27  39
HETATM   39  C   UNK     0       9.070 -14.926  -9.196  0.00  0.00     0.051 C 
BRANCH  39  40
HETATM   40  C   UNK     0      10.510 -14.770  -8.992  0.00  0.00     0.114 C 
BRANCH  40  41
HETATM   41  C   UNK     0      11.340 -14.017  -9.906  0.00  0.00     0.139 C 
HETATM   42  O   UNK     0      11.130 -13.950 -11.124  0.00  0.00    -0.650 OA
BRANCH  41  43
HETATM   43  O   UNK     0      12.464 -13.308  -9.394  0.00  0.00    -0.776 OA
HETATM   44  H   UNK     0      13.124 -13.004 -10.099  0.00  0.00     0.167 HD
ENDBRANCH  41  43
ENDBRANCH  40  41
ENDBRANCH  39  40
ENDBRANCH  27  39
BRANCH  11  45
HETATM   45  C   UNK     0       8.505  -5.309  -5.654  0.00  0.00     0.051 C 
BRANCH  45  46
HETATM   46  C   UNK     0       7.702  -5.986  -4.605  0.00  0.00     0.114 C 
BRANCH  46  47
HETATM   47  C   UNK     0       6.265  -5.791  -4.954  0.00  0.00     0.139 C 
HETATM   48  O   UNK     0       5.795  -4.646  -4.908  0.00  0.00    -0.650 OA
BRANCH  47  49
HETATM   49  O   UNK     0       5.480  -6.855  -5.318  0.00  0.00    -0.776 OA
HETATM   50  H   UNK     0       4.461  -6.851  -5.188  0.00  0.00     0.167 HD
ENDBRANCH  47  49
ENDBRANCH  46  47
ENDBRANCH  45  46
ENDBRANCH  11  45
BRANCH  18  51
HETATM   51  C   UNK     0       8.151 -12.053  -3.880  0.00  0.00     0.051 C 
BRANCH  51  52
HETATM   52  C   UNK     0       9.220 -12.113  -2.800  0.00  0.00     0.114 C 
BRANCH  52  53
HETATM   53  C   UNK     0       9.016 -13.253  -1.886  0.00  0.00     0.139 C 
HETATM   54  O   UNK     0       8.150 -14.106  -2.140  0.00  0.00    -0.650 OA
BRANCH  53  55
HETATM   55  O   UNK     0       9.785 -13.363  -0.753  0.00  0.00    -0.776 OA
HETATM   56  H   UNK     0       9.743 -12.769   0.041  0.00  0.00     0.167 HD
ENDBRANCH  53  55
ENDBRANCH  52  53
ENDBRANCH  51  52
ENDBRANCH  18  51
TORSDOF 16
ENDMDL
MODEL 20
REMARK VINA RESULT:      -6.9     16.664     20.969
REMARK  16 active torsions:
REMARK  status: ('A' for Active; 'I' for Inactive)
REMARK    1  A    between atoms: C_6  and  C_7 
REMARK    2  A    between atoms: C_7  and  C_8 
REMARK    3  A    between atoms: C_8  and  C_9 
REMARK    4  A    between atoms: C_9  and  O_11 
REMARK    5  A    between atoms: C_16  and  C_17 
REMARK    6  A    between atoms: C_17  and  C_18 
REMARK    7  A    between atoms: C_18  and  C_19 
REMARK    8  A    between atoms: C_19  and  O_21 
REMARK    9  A    between atoms: C_28  and  C_29 
REMARK   10  A    between atoms: C_29  and  C_30 
REMARK   11  A    between atoms: C_30  and  C_31 
REMARK   12  A    between atoms: C_31  and  O_33 
REMARK   13  A    between atoms: C_42  and  C_43 
REMARK   14  A    between atoms: C_43  and  C_44 
REMARK   15  A    between atoms: C_44  and  C_45 
REMARK   16  A    between atoms: C_45  and  O_47 
ROOT
HETATM    1  C   UNK     0      -6.795  11.860 -15.271  0.00  0.00     0.051 C 
HETATM    2  C   UNK     0      -6.854  10.449 -15.820  0.00  0.00    -0.031 A 
HETATM    3  C   UNK     0      -7.566   9.954 -16.901  0.00  0.00     0.021 A 
HETATM    4  N   UNK     0      -7.343   8.623 -17.005  0.00  0.00    -0.361 N 
HETATM    5  C   UNK     0      -6.497   8.260 -16.019  0.00  0.00     0.022 A 
HETATM    6  C   UNK     0      -6.174   9.377 -15.257  0.00  0.00    -0.027 A 
HETATM    7  C   UNK     0      -5.865   6.930 -15.748  0.00  0.00     0.115 C 
HETATM    8  C   UNK     0      -5.339   6.168 -16.952  0.00  0.00     0.021 A 
HETATM    9  N   UNK     0      -4.761   6.653 -18.062  0.00  0.00    -0.361 N 
HETATM   10  C   UNK     0      -4.537   5.622 -18.903  0.00  0.00     0.022 A 
HETATM   11  C   UNK     0      -4.974   4.438 -18.316  0.00  0.00    -0.027 A 
HETATM   12  C   UNK     0      -5.480   4.775 -17.086  0.00  0.00    -0.031 A 
HETATM   13  C   UNK     0      -6.067   3.804 -16.087  0.00  0.00     0.051 C 
HETATM   14  C   UNK     0      -3.954   5.717 -20.310  0.00  0.00     0.115 C 
HETATM   15  C   UNK     0      -4.784   6.560 -21.265  0.00  0.00     0.021 A 
HETATM   16  N   UNK     0      -5.130   7.854 -21.130  0.00  0.00    -0.361 N 
HETATM   17  C   UNK     0      -5.921   8.204 -22.147  0.00  0.00     0.022 A 
HETATM   18  C   UNK     0      -6.091   7.088 -22.990  0.00  0.00    -0.027 A 
HETATM   19  C   UNK     0      -5.373   6.065 -22.427  0.00  0.00    -0.031 A 
HETATM   20  C   UNK     0      -5.254   4.681 -23.039  0.00  0.00     0.051 C 
HETATM   21  C   UNK     0      -6.630   9.511 -22.420  0.00  0.00     0.115 C 
HETATM   22  C   UNK     0      -7.120  10.301 -21.230  0.00  0.00     0.022 A 
HETATM   23  N   UNK     0      -7.696   9.844 -20.110  0.00  0.00    -0.361 N 
HETATM   24  C   UNK     0      -7.838  10.877 -19.255  0.00  0.00     0.021 A 
HETATM   25  C   UNK     0      -7.352  12.029 -19.843  0.00  0.00    -0.031 A 
HETATM   26  C   UNK     0      -7.330  13.442 -19.296  0.00  0.00     0.051 C 
HETATM   27  C   UNK     0      -6.887  11.686 -21.107  0.00  0.00    -0.027 A 
HETATM   28  C   UNK     0      -8.355  10.837 -17.827  0.00  0.00     0.115 C 
HETATM   29  H   UNK     0      -7.815   7.942 -17.751  0.00  0.00     0.165 HD
HETATM   30  H   UNK     0      -4.464   7.717 -18.233  0.00  0.00     0.165 HD
HETATM   31  H   UNK     0      -4.771   8.548 -20.327  0.00  0.00     0.165 HD
HETATM   32  H   UNK     0      -8.047   8.795 -19.929  0.00  0.00     0.165 HD
ENDROOT
BRANCH   6  33
HETATM   33  C   UNK     0      -5.281   9.502 -14.048  0.00  0.00     0.051 C 
BRANCH  33  34
HETATM   34  C   UNK     0      -3.840   9.682 -14.464  0.00  0.00     0.114 C 
BRANCH  34  35
HETATM   35  C   UNK     0      -3.278  10.802 -13.655  0.00  0.00     0.139 C 
HETATM   36  O   UNK     0      -3.269  11.979 -14.118  0.00  0.00    -0.650 OA
BRANCH  35  37
HETATM   37  O   UNK     0      -2.751  10.616 -12.383  0.00  0.00    -0.776 OA
HETATM   38  H   UNK     0      -3.308  10.732 -11.552  0.00  0.00     0.167 HD
ENDBRANCH  35  37
ENDBRANCH  34  35
ENDBRANCH  33  34
ENDBRANCH   6  33
BRANCH  27  39
HETATM   39  C   UNK     0      -6.352  12.685 -22.072  0.00  0.00     0.051 C 
BRANCH  39  40
HETATM   40  C   UNK     0      -4.902  12.787 -22.232  0.00  0.00     0.114 C 
BRANCH  40  41
HETATM   41  C   UNK     0      -4.033  13.177 -21.145  0.00  0.00     0.139 C 
HETATM   42  O   UNK     0      -4.161  14.234 -20.512  0.00  0.00    -0.650 OA
BRANCH  41  43
HETATM   43  O   UNK     0      -2.966  12.313 -20.768  0.00  0.00    -0.776 OA
HETATM   44  H   UNK     0      -3.043  11.937 -19.830  0.00  0.00     0.167 HD
ENDBRANCH  41  43
ENDBRANCH  40  41
ENDBRANCH  39  40
ENDBRANCH  27  39
BRANCH  11  45
HETATM   45  C   UNK     0      -4.926   3.039 -18.868  0.00  0.00     0.051 C 
BRANCH  45  46
HETATM   46  C   UNK     0      -3.586   2.628 -19.361  0.00  0.00     0.114 C 
BRANCH  46  47
HETATM   47  C   UNK     0      -3.468   1.158 -19.143  0.00  0.00     0.139 C 
HETATM   48  O   UNK     0      -2.339   0.671 -18.988  0.00  0.00    -0.650 OA
BRANCH  47  49
HETATM   49  O   UNK     0      -4.583   0.359 -19.117  0.00  0.00    -0.776 OA
HETATM   50  H   UNK     0      -5.167   0.267 -18.278  0.00  0.00     0.167 HD
ENDBRANCH  47  49
ENDBRANCH  46  47
ENDBRANCH  45  46
ENDBRANCH  11  45
BRANCH  18  51
HETATM   51  C   UNK     0      -6.877   7.007 -24.272  0.00  0.00     0.051 C 
BRANCH  51  52
HETATM   52  C   UNK     0      -8.320   6.738 -23.871  0.00  0.00     0.114 C 
BRANCH  52  53
HETATM   53  C   UNK     0      -8.724   5.350 -24.168  0.00  0.00     0.139 C 
HETATM   54  O   UNK     0      -8.157   4.718 -25.074  0.00  0.00    -0.650 OA
BRANCH  53  55
HETATM   55  O   UNK     0      -9.731   4.765 -23.440  0.00  0.00    -0.776 OA
HETATM   56  H   UNK     0      -9.643   4.373 -22.532  0.00  0.00     0.167 HD
ENDBRANCH  53  55
ENDBRANCH  52  53
ENDBRANCH  51  52
ENDBRANCH  18  51
TORSDOF 16
ENDMDL
