MODEL 1
REMARK VINA RESULT:     -10.2      0.000      0.000
REMARK  16 active torsions:
REMARK  status: ('A' for Active; 'I' for Inactive)
REMARK    1  A    between atoms: C_6  and  C_7 
REMARK    2  A    between atoms: C_7  and  C_8 
REMARK    3  A    between atoms: C_8  and  C_9 
REMARK    4  A    between atoms: C_9  and  O_11 
REMARK    5  A    between atoms: C_16  and  C_17 
REMARK    6  A    between atoms: C_17  and  C_18 
REMARK    7  A    between atoms: C_18  and  C_19 
REMARK    8  A    between atoms: C_19  and  O_21 
REMARK    9  A    between atoms: C_28  and  C_29 
REMARK   10  A    between atoms: C_29  and  C_30 
REMARK   11  A    between atoms: C_30  and  C_31 
REMARK   12  A    between atoms: C_31  and  O_33 
REMARK   13  A    between atoms: C_42  and  C_43 
REMARK   14  A    between atoms: C_43  and  C_44 
REMARK   15  A    between atoms: C_44  and  C_45 
REMARK   16  A    between atoms: C_45  and  O_47 
ROOT
HETATM    1  C   UNK     0      13.622  -7.132  -2.393  0.00  0.00     0.051 C 
HETATM    2  C   UNK     0      12.716  -8.327  -2.175  0.00  0.00    -0.031 A 
HETATM    3  C   UNK     0      11.581  -8.709  -2.872  0.00  0.00     0.021 A 
HETATM    4  N   UNK     0      11.072  -9.829  -2.306  0.00  0.00    -0.361 N 
HETATM    5  C   UNK     0      11.863 -10.174  -1.269  0.00  0.00     0.022 A 
HETATM    6  C   UNK     0      12.900  -9.254  -1.157  0.00  0.00    -0.027 A 
HETATM    7  C   UNK     0      11.796 -11.375  -0.378  0.00  0.00     0.115 C 
HETATM    8  C   UNK     0      11.509 -12.706  -1.050  0.00  0.00     0.021 A 
HETATM    9  N   UNK     0      11.911 -13.139  -2.255  0.00  0.00    -0.361 N 
HETATM   10  C   UNK     0      11.343 -14.343  -2.479  0.00  0.00     0.022 A 
HETATM   11  C   UNK     0      10.561 -14.700  -1.385  0.00  0.00    -0.027 A 
HETATM   12  C   UNK     0      10.661 -13.674  -0.480  0.00  0.00    -0.031 A 
HETATM   13  C   UNK     0       9.979 -13.627   0.868  0.00  0.00     0.051 C 
HETATM   14  C   UNK     0      11.471 -15.178  -3.751  0.00  0.00     0.115 C 
HETATM   15  C   UNK     0      10.940 -14.487  -4.997  0.00  0.00     0.021 A 
HETATM   16  N   UNK     0      11.339 -13.311  -5.517  0.00  0.00    -0.361 N 
HETATM   17  C   UNK     0      10.578 -13.019  -6.574  0.00  0.00     0.022 A 
HETATM   18  C   UNK     0       9.645 -14.059  -6.757  0.00  0.00    -0.027 A 
HETATM   19  C   UNK     0       9.883 -14.973  -5.763  0.00  0.00    -0.031 A 
HETATM   20  C   UNK     0       9.118 -16.275  -5.614  0.00  0.00     0.051 C 
HETATM   21  C   UNK     0      10.570 -11.791  -7.456  0.00  0.00     0.115 C 
HETATM   22  C   UNK     0      10.897 -10.465  -6.809  0.00  0.00     0.022 A 
HETATM   23  N   UNK     0      10.514 -10.010  -5.609  0.00  0.00    -0.361 N 
HETATM   24  C   UNK     0      11.153  -8.846  -5.374  0.00  0.00     0.021 A 
HETATM   25  C   UNK     0      11.959  -8.539  -6.454  0.00  0.00    -0.031 A 
HETATM   26  C   UNK     0      12.835  -7.323  -6.674  0.00  0.00     0.051 C 
HETATM   27  C   UNK     0      11.812  -9.561  -7.385  0.00  0.00    -0.027 A 
HETATM   28  C   UNK     0      11.113  -8.002  -4.112  0.00  0.00     0.115 C 
HETATM   29  H   UNK     0      10.135 -10.346  -2.619  0.00  0.00     0.165 HD
HETATM   30  H   UNK     0      12.635 -12.620  -2.929  0.00  0.00     0.165 HD
HETATM   31  H   UNK     0      12.206 -12.697  -5.160  0.00  0.00     0.165 HD
HETATM   32  H   UNK     0       9.755 -10.485  -4.935  0.00  0.00     0.165 HD
ENDROOT
BRANCH   6  33
HETATM   33  C   UNK     0      14.036  -9.188  -0.167  0.00  0.00     0.051 C 
BRANCH  33  34
HETATM   34  C   UNK     0      13.562  -8.634   1.155  0.00  0.00     0.114 C 
BRANCH  34  35
HETATM   35  C   UNK     0      14.068  -9.540   2.226  0.00  0.00     0.139 C 
HETATM   36  O   UNK     0      13.451 -10.611   2.498  0.00  0.00    -0.650 OA
BRANCH  35  37
HETATM   37  O   UNK     0      15.215  -9.265   2.960  0.00  0.00    -0.776 OA
HETATM   38  H   UNK     0      16.083  -9.007   2.519  0.00  0.00     0.167 HD
ENDBRANCH  35  37
ENDBRANCH  34  35
ENDBRANCH  33  34
ENDBRANCH   6  33
BRANCH  27  39
HETATM   39  C   UNK     0      12.475  -9.545  -8.717  0.00  0.00     0.051 C 
BRANCH  39  40
HETATM   40  C   UNK     0      11.632  -9.535  -9.912  0.00  0.00     0.114 C 
BRANCH  40  41
HETATM   41  C   UNK     0      11.254 -10.749 -10.599  0.00  0.00     0.139 C 
HETATM   42  O   UNK     0      10.122 -10.951 -11.058  0.00  0.00    -0.650 OA
BRANCH  41  43
HETATM   43  O   UNK     0      12.223 -11.779 -10.765  0.00  0.00    -0.776 OA
HETATM   44  H   UNK     0      13.165 -11.446 -10.928  0.00  0.00     0.167 HD
ENDBRANCH  41  43
ENDBRANCH  40  41
ENDBRANCH  39  40
ENDBRANCH  27  39
BRANCH  11  45
HETATM   45  C   UNK     0       9.749 -15.950  -1.175  0.00  0.00     0.051 C 
BRANCH  45  46
HETATM   46  C   UNK     0      10.371 -17.178  -1.731  0.00  0.00     0.114 C 
BRANCH  46  47
HETATM   47  C   UNK     0       9.280 -18.174  -1.932  0.00  0.00     0.139 C 
HETATM   48  O   UNK     0       8.448 -18.332  -1.028  0.00  0.00    -0.650 OA
BRANCH  47  49
HETATM   49  O   UNK     0       9.198 -18.902  -3.093  0.00  0.00    -0.776 OA
HETATM   50  H   UNK     0       9.880 -19.634  -3.326  0.00  0.00     0.167 HD
ENDBRANCH  47  49
ENDBRANCH  46  47
ENDBRANCH  45  46
ENDBRANCH  11  45
BRANCH  18  51
HETATM   51  C   UNK     0       8.597 -14.185  -7.832  0.00  0.00     0.051 C 
BRANCH  51  52
HETATM   52  C   UNK     0       7.251 -14.089  -7.130  0.00  0.00     0.114 C 
BRANCH  52  53
HETATM   53  C   UNK     0       6.368 -15.219  -7.478  0.00  0.00     0.139 C 
HETATM   54  O   UNK     0       5.389 -15.486  -6.763  0.00  0.00    -0.650 OA
BRANCH  53  55
HETATM   55  O   UNK     0       6.638 -15.973  -8.594  0.00  0.00    -0.776 OA
HETATM   56  H   UNK     0       5.979 -16.505  -9.113  0.00  0.00     0.167 HD
ENDBRANCH  53  55
ENDBRANCH  52  53
ENDBRANCH  51  52
ENDBRANCH  18  51
TORSDOF 16
ENDMDL
MODEL 2
REMARK VINA RESULT:      -9.5      4.274      6.706
REMARK  16 active torsions:
REMARK  status: ('A' for Active; 'I' for Inactive)
REMARK    1  A    between atoms: C_6  and  C_7 
REMARK    2  A    between atoms: C_7  and  C_8 
REMARK    3  A    between atoms: C_8  and  C_9 
REMARK    4  A    between atoms: C_9  and  O_11 
REMARK    5  A    between atoms: C_16  and  C_17 
REMARK    6  A    between atoms: C_17  and  C_18 
REMARK    7  A    between atoms: C_18  and  C_19 
REMARK    8  A    between atoms: C_19  and  O_21 
REMARK    9  A    between atoms: C_28  and  C_29 
REMARK   10  A    between atoms: C_29  and  C_30 
REMARK   11  A    between atoms: C_30  and  C_31 
REMARK   12  A    between atoms: C_31  and  O_33 
REMARK   13  A    between atoms: C_42  and  C_43 
REMARK   14  A    between atoms: C_43  and  C_44 
REMARK   15  A    between atoms: C_44  and  C_45 
REMARK   16  A    between atoms: C_45  and  O_47 
ROOT
HETATM    1  C   UNK     0      11.945 -14.174  -4.099  0.00  0.00     0.051 C 
HETATM    2  C   UNK     0      10.680 -14.988  -4.281  0.00  0.00    -0.031 A 
HETATM    3  C   UNK     0       9.473 -14.622  -4.856  0.00  0.00     0.021 A 
HETATM    4  N   UNK     0       8.612 -15.664  -4.773  0.00  0.00    -0.361 N 
HETATM    5  C   UNK     0       9.246 -16.688  -4.166  0.00  0.00     0.022 A 
HETATM    6  C   UNK     0      10.542 -16.299  -3.843  0.00  0.00    -0.027 A 
HETATM    7  C   UNK     0       8.774 -18.087  -3.917  0.00  0.00     0.115 C 
HETATM    8  C   UNK     0       8.028 -18.766  -5.051  0.00  0.00     0.021 A 
HETATM    9  N   UNK     0       8.235 -18.657  -6.373  0.00  0.00    -0.361 N 
HETATM   10  C   UNK     0       7.277 -19.366  -7.007  0.00  0.00     0.022 A 
HETATM   11  C   UNK     0       6.436 -19.956  -6.069  0.00  0.00    -0.027 A 
HETATM   12  C   UNK     0       6.903 -19.582  -4.834  0.00  0.00    -0.031 A 
HETATM   13  C   UNK     0       6.300 -19.995  -3.510  0.00  0.00     0.051 C 
HETATM   14  C   UNK     0       7.086 -19.472  -8.518  0.00  0.00     0.115 C 
HETATM   15  C   UNK     0       6.813 -18.140  -9.199  0.00  0.00     0.021 A 
HETATM   16  N   UNK     0       7.592 -17.042  -9.196  0.00  0.00    -0.361 N 
HETATM   17  C   UNK     0       6.967 -16.060  -9.849  0.00  0.00     0.022 A 
HETATM   18  C   UNK     0       5.725 -16.544 -10.307  0.00  0.00    -0.027 A 
HETATM   19  C   UNK     0       5.642 -17.849  -9.895  0.00  0.00    -0.031 A 
HETATM   20  C   UNK     0       4.471 -18.761 -10.211  0.00  0.00     0.051 C 
HETATM   21  C   UNK     0       7.378 -14.621 -10.065  0.00  0.00     0.115 C 
HETATM   22  C   UNK     0       8.159 -13.945  -8.963  0.00  0.00     0.022 A 
HETATM   23  N   UNK     0       7.978 -14.039  -7.639  0.00  0.00    -0.361 N 
HETATM   24  C   UNK     0       8.988 -13.390  -7.026  0.00  0.00     0.021 A 
HETATM   25  C   UNK     0       9.835 -12.856  -7.978  0.00  0.00    -0.031 A 
HETATM   26  C   UNK     0      11.078 -12.014  -7.783  0.00  0.00     0.051 C 
HETATM   27  C   UNK     0       9.325 -13.198  -9.226  0.00  0.00    -0.027 A 
HETATM   28  C   UNK     0       9.265 -13.299  -5.536  0.00  0.00     0.115 C 
HETATM   29  H   UNK     0       7.549 -15.654  -5.108  0.00  0.00     0.165 HD
HETATM   30  H   UNK     0       9.086 -18.121  -6.860  0.00  0.00     0.165 HD
HETATM   31  H   UNK     0       8.625 -16.971  -8.766  0.00  0.00     0.165 HD
HETATM   32  H   UNK     0       7.110 -14.529  -7.125  0.00  0.00     0.165 HD
ENDROOT
BRANCH   6  33
HETATM   33  C   UNK     0      11.642 -17.067  -3.156  0.00  0.00     0.051 C 
BRANCH  33  34
HETATM   34  C   UNK     0      11.483 -17.002  -1.655  0.00  0.00     0.114 C 
BRANCH  34  35
HETATM   35  C   UNK     0      12.760 -16.477  -1.093  0.00  0.00     0.139 C 
HETATM   36  O   UNK     0      13.356 -15.513  -1.656  0.00  0.00    -0.650 OA
BRANCH  35  37
HETATM   37  O   UNK     0      13.348 -17.004   0.051  0.00  0.00    -0.776 OA
HETATM   38  H   UNK     0      13.637 -16.421   0.820  0.00  0.00     0.167 HD
ENDBRANCH  35  37
ENDBRANCH  34  35
ENDBRANCH  33  34
ENDBRANCH   6  33
BRANCH  27  39
HETATM   39  C   UNK     0       9.933 -12.737 -10.504  0.00  0.00     0.051 C 
BRANCH  39  40
HETATM   40  C   UNK     0       9.834 -11.319 -10.847  0.00  0.00     0.114 C 
BRANCH  40  41
HETATM   41  C   UNK     0      10.984 -10.442 -10.835  0.00  0.00     0.139 C 
HETATM   42  O   UNK     0      12.153 -10.848 -10.817  0.00  0.00    -0.650 OA
BRANCH  41  43
HETATM   43  O   UNK     0      10.778  -9.033 -10.844  0.00  0.00    -0.776 OA
HETATM   44  H   UNK     0      11.572  -8.491 -10.525  0.00  0.00     0.167 HD
ENDBRANCH  41  43
ENDBRANCH  40  41
ENDBRANCH  39  40
ENDBRANCH  27  39
BRANCH  11  45
HETATM   45  C   UNK     0       5.239 -20.839  -6.300  0.00  0.00     0.051 C 
BRANCH  45  46
HETATM   46  C   UNK     0       4.061 -20.129  -6.860  0.00  0.00     0.114 C 
BRANCH  46  47
HETATM   47  C   UNK     0       3.310 -19.546  -5.712  0.00  0.00     0.139 C 
HETATM   48  O   UNK     0       3.634 -18.423  -5.301  0.00  0.00    -0.650 OA
BRANCH  47  49
HETATM   49  O   UNK     0       2.282 -20.237  -5.121  0.00  0.00    -0.776 OA
HETATM   50  H   UNK     0       2.396 -21.201  -4.786  0.00  0.00     0.167 HD
ENDBRANCH  47  49
ENDBRANCH  46  47
ENDBRANCH  45  46
ENDBRANCH  11  45
BRANCH  18  51
HETATM   51  C   UNK     0       4.685 -15.810 -11.113  0.00  0.00     0.051 C 
BRANCH  51  52
HETATM   52  C   UNK     0       4.970 -16.134 -12.572  0.00  0.00     0.114 C 
BRANCH  52  53
HETATM   53  C   UNK     0       5.178 -14.914 -13.375  0.00  0.00     0.139 C 
HETATM   54  O   UNK     0       5.184 -14.979 -14.615  0.00  0.00    -0.650 OA
BRANCH  53  55
HETATM   55  O   UNK     0       5.369 -13.709 -12.744  0.00  0.00    -0.776 OA
HETATM   56  H   UNK     0       6.016 -13.005 -13.010  0.00  0.00     0.167 HD
ENDBRANCH  53  55
ENDBRANCH  52  53
ENDBRANCH  51  52
ENDBRANCH  18  51
TORSDOF 16
ENDMDL
MODEL 3
REMARK VINA RESULT:      -9.3      2.872      8.154
REMARK  16 active torsions:
REMARK  status: ('A' for Active; 'I' for Inactive)
REMARK    1  A    between atoms: C_6  and  C_7 
REMARK    2  A    between atoms: C_7  and  C_8 
REMARK    3  A    between atoms: C_8  and  C_9 
REMARK    4  A    between atoms: C_9  and  O_11 
REMARK    5  A    between atoms: C_16  and  C_17 
REMARK    6  A    between atoms: C_17  and  C_18 
REMARK    7  A    between atoms: C_18  and  C_19 
REMARK    8  A    between atoms: C_19  and  O_21 
REMARK    9  A    between atoms: C_28  and  C_29 
REMARK   10  A    between atoms: C_29  and  C_30 
REMARK   11  A    between atoms: C_30  and  C_31 
REMARK   12  A    between atoms: C_31  and  O_33 
REMARK   13  A    between atoms: C_42  and  C_43 
REMARK   14  A    between atoms: C_43  and  C_44 
REMARK   15  A    between atoms: C_44  and  C_45 
REMARK   16  A    between atoms: C_45  and  O_47 
ROOT
HETATM    1  C   UNK     0      10.736 -14.426  -1.008  0.00  0.00     0.051 C 
HETATM    2  C   UNK     0      10.167 -13.954  -2.330  0.00  0.00    -0.031 A 
HETATM    3  C   UNK     0       9.709 -12.697  -2.692  0.00  0.00     0.021 A 
HETATM    4  N   UNK     0       9.259 -12.742  -3.969  0.00  0.00    -0.361 N 
HETATM    5  C   UNK     0       9.428 -13.998  -4.431  0.00  0.00     0.022 A 
HETATM    6  C   UNK     0       9.992 -14.783  -3.431  0.00  0.00    -0.027 A 
HETATM    7  C   UNK     0       9.182 -14.550  -5.800  0.00  0.00     0.115 C 
HETATM    8  C   UNK     0       9.623 -13.689  -6.971  0.00  0.00     0.021 A 
HETATM    9  N   UNK     0      10.696 -12.888  -7.063  0.00  0.00    -0.361 N 
HETATM   10  C   UNK     0      10.640 -12.247  -8.250  0.00  0.00     0.022 A 
HETATM   11  C   UNK     0       9.505 -12.653  -8.945  0.00  0.00    -0.027 A 
HETATM   12  C   UNK     0       8.860 -13.562  -8.146  0.00  0.00    -0.031 A 
HETATM   13  C   UNK     0       7.575 -14.277  -8.496  0.00  0.00     0.051 C 
HETATM   14  C   UNK     0      11.621 -11.190  -8.751  0.00  0.00     0.115 C 
HETATM   15  C   UNK     0      11.692  -9.951  -7.873  0.00  0.00     0.021 A 
HETATM   16  N   UNK     0      12.015  -9.886  -6.568  0.00  0.00    -0.361 N 
HETATM   17  C   UNK     0      11.893  -8.625  -6.148  0.00  0.00     0.022 A 
HETATM   18  C   UNK     0      11.480  -7.828  -7.234  0.00  0.00    -0.027 A 
HETATM   19  C   UNK     0      11.359  -8.670  -8.309  0.00  0.00    -0.031 A 
HETATM   20  C   UNK     0      10.967  -8.210  -9.701  0.00  0.00     0.051 C 
HETATM   21  C   UNK     0      12.067  -8.041  -4.764  0.00  0.00     0.115 C 
HETATM   22  C   UNK     0      11.674  -8.903  -3.588  0.00  0.00     0.022 A 
HETATM   23  N   UNK     0      10.614  -9.713  -3.471  0.00  0.00    -0.361 N 
HETATM   24  C   UNK     0      10.731 -10.399  -2.316  0.00  0.00     0.021 A 
HETATM   25  C   UNK     0      11.890 -10.013  -1.669  0.00  0.00    -0.031 A 
HETATM   26  C   UNK     0      12.430 -10.469  -0.329  0.00  0.00     0.051 C 
HETATM   27  C   UNK     0      12.510  -9.056  -2.464  0.00  0.00    -0.027 A 
HETATM   28  C   UNK     0       9.824 -11.499  -1.792  0.00  0.00     0.115 C 
HETATM   29  H   UNK     0       8.788 -11.896  -4.521  0.00  0.00     0.165 HD
HETATM   30  H   UNK     0      11.521 -12.810  -6.313  0.00  0.00     0.165 HD
HETATM   31  H   UNK     0      12.383 -10.740  -5.940  0.00  0.00     0.165 HD
HETATM   32  H   UNK     0       9.750  -9.777  -4.182  0.00  0.00     0.165 HD
ENDROOT
BRANCH   6  33
HETATM   33  C   UNK     0      10.369 -16.243  -3.440  0.00  0.00     0.051 C 
BRANCH  33  34
HETATM   34  C   UNK     0      11.783 -16.427  -3.938  0.00  0.00     0.114 C 
BRANCH  34  35
HETATM   35  C   UNK     0      12.434 -17.446  -3.066  0.00  0.00     0.139 C 
HETATM   36  O   UNK     0      12.541 -17.246  -1.821  0.00  0.00    -0.650 OA
BRANCH  35  37
HETATM   37  O   UNK     0      12.943 -18.641  -3.562  0.00  0.00    -0.776 OA
HETATM   38  H   UNK     0      12.603 -19.053  -4.416  0.00  0.00     0.167 HD
ENDBRANCH  35  37
ENDBRANCH  34  35
ENDBRANCH  33  34
ENDBRANCH   6  33
BRANCH  27  39
HETATM   39  C   UNK     0      13.756  -8.351  -2.059  0.00  0.00     0.051 C 
BRANCH  39  40
HETATM   40  C   UNK     0      13.685  -6.915  -1.791  0.00  0.00     0.114 C 
BRANCH  40  41
HETATM   41  C   UNK     0      14.385  -5.944  -2.601  0.00  0.00     0.139 C 
HETATM   42  O   UNK     0      13.815  -5.144  -3.356  0.00  0.00    -0.650 OA
BRANCH  41  43
HETATM   43  O   UNK     0      15.807  -5.890  -2.541  0.00  0.00    -0.776 OA
HETATM   44  H   UNK     0      16.277  -6.556  -3.142  0.00  0.00     0.167 HD
ENDBRANCH  41  43
ENDBRANCH  40  41
ENDBRANCH  39  40
ENDBRANCH  27  39
BRANCH  11  45
HETATM   45  C   UNK     0       9.029 -12.221 -10.306  0.00  0.00     0.051 C 
BRANCH  45  46
HETATM   46  C   UNK     0       9.483 -13.100 -11.414  0.00  0.00     0.114 C 
BRANCH  46  47
HETATM   47  C   UNK     0       8.261 -13.636 -12.081  0.00  0.00     0.139 C 
HETATM   48  O   UNK     0       7.152 -13.280 -11.659  0.00  0.00    -0.650 OA
BRANCH  47  49
HETATM   49  O   UNK     0       8.361 -14.506 -13.137  0.00  0.00    -0.776 OA
HETATM   50  H   UNK     0       8.069 -15.488 -13.064  0.00  0.00     0.167 HD
ENDBRANCH  47  49
ENDBRANCH  46  47
ENDBRANCH  45  46
ENDBRANCH  11  45
BRANCH  18  51
HETATM   51  C   UNK     0      11.235  -6.342  -7.251  0.00  0.00     0.051 C 
BRANCH  51  52
HETATM   52  C   UNK     0      12.547  -5.698  -7.673  0.00  0.00     0.114 C 
BRANCH  52  53
HETATM   53  C   UNK     0      12.360  -4.743  -8.782  0.00  0.00     0.139 C 
HETATM   54  O   UNK     0      11.469  -4.936  -9.625  0.00  0.00    -0.650 OA
BRANCH  53  55
HETATM   55  O   UNK     0      13.178  -3.644  -8.878  0.00  0.00    -0.776 OA
HETATM   56  H   UNK     0      14.144  -3.653  -9.105  0.00  0.00     0.167 HD
ENDBRANCH  53  55
ENDBRANCH  52  53
ENDBRANCH  51  52
ENDBRANCH  18  51
TORSDOF 16
ENDMDL
MODEL 4
REMARK VINA RESULT:      -9.1      2.498      8.525
REMARK  16 active torsions:
REMARK  status: ('A' for Active; 'I' for Inactive)
REMARK    1  A    between atoms: C_6  and  C_7 
REMARK    2  A    between atoms: C_7  and  C_8 
REMARK    3  A    between atoms: C_8  and  C_9 
REMARK    4  A    between atoms: C_9  and  O_11 
REMARK    5  A    between atoms: C_16  and  C_17 
REMARK    6  A    between atoms: C_17  and  C_18 
REMARK    7  A    between atoms: C_18  and  C_19 
REMARK    8  A    between atoms: C_19  and  O_21 
REMARK    9  A    between atoms: C_28  and  C_29 
REMARK   10  A    between atoms: C_29  and  C_30 
REMARK   11  A    between atoms: C_30  and  C_31 
REMARK   12  A    between atoms: C_31  and  O_33 
REMARK   13  A    between atoms: C_42  and  C_43 
REMARK   14  A    between atoms: C_43  and  C_44 
REMARK   15  A    between atoms: C_44  and  C_45 
REMARK   16  A    between atoms: C_45  and  O_47 
ROOT
HETATM    1  C   UNK     0      10.503 -15.148  -1.030  0.00  0.00     0.051 C 
HETATM    2  C   UNK     0       9.970 -14.600  -2.339  0.00  0.00    -0.031 A 
HETATM    3  C   UNK     0       9.489 -13.334  -2.632  0.00  0.00     0.021 A 
HETATM    4  N   UNK     0       9.089 -13.303  -3.926  0.00  0.00    -0.361 N 
HETATM    5  C   UNK     0       9.313 -14.519  -4.465  0.00  0.00     0.022 A 
HETATM    6  C   UNK     0       9.861 -15.356  -3.499  0.00  0.00    -0.027 A 
HETATM    7  C   UNK     0       9.135 -14.981  -5.878  0.00  0.00     0.115 C 
HETATM    8  C   UNK     0       9.593 -14.030  -6.969  0.00  0.00     0.021 A 
HETATM    9  N   UNK     0      10.645 -13.195  -6.963  0.00  0.00    -0.361 N 
HETATM   10  C   UNK     0      10.614 -12.475  -8.105  0.00  0.00     0.022 A 
HETATM   11  C   UNK     0       9.519 -12.863  -8.871  0.00  0.00    -0.027 A 
HETATM   12  C   UNK     0       8.872 -13.842  -8.161  0.00  0.00    -0.031 A 
HETATM   13  C   UNK     0       7.622 -14.566  -8.610  0.00  0.00     0.051 C 
HETATM   14  C   UNK     0      11.582 -11.361  -8.493  0.00  0.00     0.115 C 
HETATM   15  C   UNK     0      11.583 -10.184  -7.531  0.00  0.00     0.021 A 
HETATM   16  N   UNK     0      11.855 -10.201  -6.213  0.00  0.00    -0.361 N 
HETATM   17  C   UNK     0      11.680  -8.976  -5.713  0.00  0.00     0.022 A 
HETATM   18  C   UNK     0      11.284  -8.117  -6.757  0.00  0.00    -0.027 A 
HETATM   19  C   UNK     0      11.229  -8.885  -7.891  0.00  0.00    -0.031 A 
HETATM   20  C   UNK     0      10.876  -8.341  -9.263  0.00  0.00     0.051 C 
HETATM   21  C   UNK     0      11.784  -8.484  -4.287  0.00  0.00     0.115 C 
HETATM   22  C   UNK     0      11.373  -9.436  -3.189  0.00  0.00     0.022 A 
HETATM   23  N   UNK     0      10.333 -10.281  -3.169  0.00  0.00    -0.361 N 
HETATM   24  C   UNK     0      10.428 -11.042  -2.060  0.00  0.00     0.021 A 
HETATM   25  C   UNK     0      11.549 -10.670  -1.343  0.00  0.00    -0.031 A 
HETATM   26  C   UNK     0      12.052 -11.203  -0.017  0.00  0.00     0.051 C 
HETATM   27  C   UNK     0      12.170  -9.644  -2.045  0.00  0.00    -0.027 A 
HETATM   28  C   UNK     0       9.535 -12.200  -1.648  0.00  0.00     0.115 C 
HETATM   29  H   UNK     0       8.614 -12.434  -4.437  0.00  0.00     0.165 HD
HETATM   30  H   UNK     0      11.438 -13.147  -6.178  0.00  0.00     0.165 HD
HETATM   31  H   UNK     0      12.224 -11.086  -5.631  0.00  0.00     0.165 HD
HETATM   32  H   UNK     0       9.499 -10.319  -3.917  0.00  0.00     0.165 HD
ENDROOT
BRANCH   6  33
HETATM   33  C   UNK     0      10.282 -16.801  -3.593  0.00  0.00     0.051 C 
BRANCH  33  34
HETATM   34  C   UNK     0       9.097 -17.717  -3.396  0.00  0.00     0.114 C 
BRANCH  34  35
HETATM   35  C   UNK     0       8.939 -18.518  -4.644  0.00  0.00     0.139 C 
HETATM   36  O   UNK     0       7.787 -18.734  -5.121  0.00  0.00    -0.650 OA
BRANCH  35  37
HETATM   37  O   UNK     0      10.021 -19.053  -5.332  0.00  0.00    -0.776 OA
HETATM   38  H   UNK     0      10.646 -18.479  -5.875  0.00  0.00     0.167 HD
ENDBRANCH  35  37
ENDBRANCH  34  35
ENDBRANCH  33  34
ENDBRANCH   6  33
BRANCH  27  39
HETATM   39  C   UNK     0      13.379  -8.935  -1.544  0.00  0.00     0.051 C 
BRANCH  39  40
HETATM   40  C   UNK     0      14.693  -9.462  -1.909  0.00  0.00     0.114 C 
BRANCH  40  41
HETATM   41  C   UNK     0      15.479 -10.269  -1.002  0.00  0.00     0.139 C 
HETATM   42  O   UNK     0      15.523 -10.076   0.221  0.00  0.00    -0.650 OA
BRANCH  41  43
HETATM   43  O   UNK     0      16.248 -11.347  -1.525  0.00  0.00    -0.776 OA
HETATM   44  H   UNK     0      16.955 -11.070  -2.195  0.00  0.00     0.167 HD
ENDBRANCH  41  43
ENDBRANCH  40  41
ENDBRANCH  39  40
ENDBRANCH  27  39
BRANCH  11  45
HETATM   45  C   UNK     0       9.082 -12.351 -10.217  0.00  0.00     0.051 C 
BRANCH  45  46
HETATM   46  C   UNK     0       9.488 -13.214 -11.355  0.00  0.00     0.114 C 
BRANCH  46  47
HETATM   47  C   UNK     0       8.240 -13.649 -12.046  0.00  0.00     0.139 C 
HETATM   48  O   UNK     0       7.153 -13.228 -11.626  0.00  0.00    -0.650 OA
BRANCH  47  49
HETATM   49  O   UNK     0       8.293 -14.499 -13.122  0.00  0.00    -0.776 OA
HETATM   50  H   UNK     0       9.104 -15.103 -13.301  0.00  0.00     0.167 HD
ENDBRANCH  47  49
ENDBRANCH  46  47
ENDBRANCH  45  46
ENDBRANCH  11  45
BRANCH  18  51
HETATM   51  C   UNK     0      10.996  -6.640  -6.683  0.00  0.00     0.051 C 
BRANCH  51  52
HETATM   52  C   UNK     0      12.257  -5.935  -7.158  0.00  0.00     0.114 C 
BRANCH  52  53
HETATM   53  C   UNK     0      11.988  -5.033  -8.295  0.00  0.00     0.139 C 
HETATM   54  O   UNK     0      10.930  -5.140  -8.936  0.00  0.00    -0.650 OA
BRANCH  53  55
HETATM   55  O   UNK     0      12.915  -4.081  -8.641  0.00  0.00    -0.776 OA
HETATM   56  H   UNK     0      12.718  -3.151  -8.928  0.00  0.00     0.167 HD
ENDBRANCH  53  55
ENDBRANCH  52  53
ENDBRANCH  51  52
ENDBRANCH  18  51
TORSDOF 16
ENDMDL
MODEL 5
REMARK VINA RESULT:      -9.0      3.545      8.631
REMARK  16 active torsions:
REMARK  status: ('A' for Active; 'I' for Inactive)
REMARK    1  A    between atoms: C_6  and  C_7 
REMARK    2  A    between atoms: C_7  and  C_8 
REMARK    3  A    between atoms: C_8  and  C_9 
REMARK    4  A    between atoms: C_9  and  O_11 
REMARK    5  A    between atoms: C_16  and  C_17 
REMARK    6  A    between atoms: C_17  and  C_18 
REMARK    7  A    between atoms: C_18  and  C_19 
REMARK    8  A    between atoms: C_19  and  O_21 
REMARK    9  A    between atoms: C_28  and  C_29 
REMARK   10  A    between atoms: C_29  and  C_30 
REMARK   11  A    between atoms: C_30  and  C_31 
REMARK   12  A    between atoms: C_31  and  O_33 
REMARK   13  A    between atoms: C_42  and  C_43 
REMARK   14  A    between atoms: C_43  and  C_44 
REMARK   15  A    between atoms: C_44  and  C_45 
REMARK   16  A    between atoms: C_45  and  O_47 
ROOT
HETATM    1  C   UNK     0       7.934 -13.973 -10.734  0.00  0.00     0.051 C 
HETATM    2  C   UNK     0       8.126 -13.887  -9.234  0.00  0.00    -0.031 A 
HETATM    3  C   UNK     0       7.318 -14.366  -8.214  0.00  0.00     0.021 A 
HETATM    4  N   UNK     0       7.868 -14.033  -7.022  0.00  0.00    -0.361 N 
HETATM    5  C   UNK     0       9.013 -13.361  -7.260  0.00  0.00     0.022 A 
HETATM    6  C   UNK     0       9.204 -13.249  -8.633  0.00  0.00    -0.027 A 
HETATM    7  C   UNK     0      10.039 -12.857  -6.293  0.00  0.00     0.115 C 
HETATM    8  C   UNK     0      10.415 -13.786  -5.153  0.00  0.00     0.021 A 
HETATM    9  N   UNK     0      10.516 -15.124  -5.163  0.00  0.00    -0.361 N 
HETATM   10  C   UNK     0      10.785 -15.533  -3.905  0.00  0.00     0.022 A 
HETATM   11  C   UNK     0      10.869 -14.428  -3.063  0.00  0.00    -0.027 A 
HETATM   12  C   UNK     0      10.637 -13.324  -3.843  0.00  0.00    -0.031 A 
HETATM   13  C   UNK     0      10.634 -11.893  -3.353  0.00  0.00     0.051 C 
HETATM   14  C   UNK     0      10.920 -16.980  -3.437  0.00  0.00     0.115 C 
HETATM   15  C   UNK     0       9.664 -17.812  -3.639  0.00  0.00     0.021 A 
HETATM   16  N   UNK     0       9.020 -18.060  -4.795  0.00  0.00    -0.361 N 
HETATM   17  C   UNK     0       7.920 -18.773  -4.541  0.00  0.00     0.022 A 
HETATM   18  C   UNK     0       7.850 -19.009  -3.153  0.00  0.00    -0.027 A 
HETATM   19  C   UNK     0       8.948 -18.403  -2.600  0.00  0.00    -0.031 A 
HETATM   20  C   UNK     0       9.279 -18.446  -1.120  0.00  0.00     0.051 C 
HETATM   21  C   UNK     0       6.829 -19.243  -5.475  0.00  0.00     0.115 C 
HETATM   22  C   UNK     0       6.475 -18.349  -6.640  0.00  0.00     0.022 A 
HETATM   23  N   UNK     0       6.371 -17.014  -6.660  0.00  0.00    -0.361 N 
HETATM   24  C   UNK     0       6.180 -16.623  -7.936  0.00  0.00     0.021 A 
HETATM   25  C   UNK     0       6.150 -17.734  -8.757  0.00  0.00    -0.031 A 
HETATM   26  C   UNK     0       5.923 -17.809 -10.252  0.00  0.00     0.051 C 
HETATM   27  C   UNK     0       6.336 -18.851  -7.950  0.00  0.00    -0.027 A 
HETATM   28  C   UNK     0       6.097 -15.203  -8.471  0.00  0.00     0.115 C 
HETATM   29  H   UNK     0       7.423 -14.241  -6.022  0.00  0.00     0.165 HD
HETATM   30  H   UNK     0      10.447 -15.779  -6.065  0.00  0.00     0.165 HD
HETATM   31  H   UNK     0       9.372 -17.767  -5.818  0.00  0.00     0.165 HD
HETATM   32  H   UNK     0       6.388 -16.337  -5.766  0.00  0.00     0.165 HD
ENDROOT
BRANCH   6  33
HETATM   33  C   UNK     0      10.316 -12.588  -9.408  0.00  0.00     0.051 C 
BRANCH  33  34
HETATM   34  C   UNK     0       9.948 -11.168  -9.766  0.00  0.00     0.114 C 
BRANCH  34  35
HETATM   35  C   UNK     0      10.939 -10.270  -9.107  0.00  0.00     0.139 C 
HETATM   36  O   UNK     0      11.873 -10.758  -8.405  0.00  0.00    -0.650 OA
BRANCH  35  37
HETATM   37  O   UNK     0      10.893  -8.887  -9.226  0.00  0.00    -0.776 OA
HETATM   38  H   UNK     0      11.167  -8.275  -8.474  0.00  0.00     0.167 HD
ENDBRANCH  35  37
ENDBRANCH  34  35
ENDBRANCH  33  34
ENDBRANCH   6  33
BRANCH  27  39
HETATM   39  C   UNK     0       6.293 -20.244  -8.472  0.00  0.00     0.051 C 
BRANCH  39  40
HETATM   40  C   UNK     0       5.015 -20.955  -8.447  0.00  0.00     0.114 C 
BRANCH  40  41
HETATM   41  C   UNK     0       4.777 -22.139  -9.241  0.00  0.00     0.139 C 
HETATM   42  O   UNK     0       4.280 -23.178  -8.787  0.00  0.00    -0.650 OA
BRANCH  41  43
HETATM   43  O   UNK     0       5.128 -22.128 -10.621  0.00  0.00    -0.776 OA
HETATM   44  H   UNK     0       6.119 -22.023 -10.801  0.00  0.00     0.167 HD
ENDBRANCH  41  43
ENDBRANCH  40  41
ENDBRANCH  39  40
ENDBRANCH  27  39
BRANCH  11  45
HETATM   45  C   UNK     0      11.156 -14.388  -1.586  0.00  0.00     0.051 C 
BRANCH  45  46
HETATM   46  C   UNK     0       9.956 -14.566  -0.730  0.00  0.00     0.114 C 
BRANCH  46  47
HETATM   47  C   UNK     0       9.868 -13.374   0.161  0.00  0.00     0.139 C 
HETATM   48  O   UNK     0       8.952 -12.561  -0.025  0.00  0.00    -0.650 OA
BRANCH  47  49
HETATM   49  O   UNK     0      10.783 -13.178   1.165  0.00  0.00    -0.776 OA
HETATM   50  H   UNK     0      10.674 -12.434   1.864  0.00  0.00     0.167 HD
ENDBRANCH  47  49
ENDBRANCH  46  47
ENDBRANCH  45  46
ENDBRANCH  11  45
BRANCH  18  51
HETATM   51  C   UNK     0       6.804 -19.788  -2.398  0.00  0.00     0.051 C 
BRANCH  51  52
HETATM   52  C   UNK     0       5.670 -20.043  -3.381  0.00  0.00     0.114 C 
BRANCH  52  53
HETATM   53  C   UNK     0       4.433 -20.464  -2.695  0.00  0.00     0.139 C 
HETATM   54  O   UNK     0       3.443 -19.715  -2.683  0.00  0.00    -0.650 OA
BRANCH  53  55
HETATM   55  O   UNK     0       4.386 -21.686  -2.070  0.00  0.00    -0.776 OA
HETATM   56  H   UNK     0       4.889 -21.945  -1.254  0.00  0.00     0.167 HD
ENDBRANCH  53  55
ENDBRANCH  52  53
ENDBRANCH  51  52
ENDBRANCH  18  51
TORSDOF 16
ENDMDL
MODEL 6
REMARK VINA RESULT:      -8.8      3.976      8.992
REMARK  16 active torsions:
REMARK  status: ('A' for Active; 'I' for Inactive)
REMARK    1  A    between atoms: C_6  and  C_7 
REMARK    2  A    between atoms: C_7  and  C_8 
REMARK    3  A    between atoms: C_8  and  C_9 
REMARK    4  A    between atoms: C_9  and  O_11 
REMARK    5  A    between atoms: C_16  and  C_17 
REMARK    6  A    between atoms: C_17  and  C_18 
REMARK    7  A    between atoms: C_18  and  C_19 
REMARK    8  A    between atoms: C_19  and  O_21 
REMARK    9  A    between atoms: C_28  and  C_29 
REMARK   10  A    between atoms: C_29  and  C_30 
REMARK   11  A    between atoms: C_30  and  C_31 
REMARK   12  A    between atoms: C_31  and  O_33 
REMARK   13  A    between atoms: C_42  and  C_43 
REMARK   14  A    between atoms: C_43  and  C_44 
REMARK   15  A    between atoms: C_44  and  C_45 
REMARK   16  A    between atoms: C_45  and  O_47 
ROOT
HETATM    1  C   UNK     0      10.156 -14.692  -1.060  0.00  0.00     0.051 C 
HETATM    2  C   UNK     0      10.162 -14.748  -2.574  0.00  0.00    -0.031 A 
HETATM    3  C   UNK     0      10.288 -15.843  -3.414  0.00  0.00     0.021 A 
HETATM    4  N   UNK     0      10.270 -15.418  -4.699  0.00  0.00    -0.361 N 
HETATM    5  C   UNK     0      10.126 -14.077  -4.697  0.00  0.00     0.022 A 
HETATM    6  C   UNK     0      10.058 -13.624  -3.384  0.00  0.00    -0.027 A 
HETATM    7  C   UNK     0       9.956 -13.136  -5.849  0.00  0.00     0.115 C 
HETATM    8  C   UNK     0       9.023 -13.581  -6.961  0.00  0.00     0.021 A 
HETATM    9  N   UNK     0       7.886 -14.287  -6.866  0.00  0.00    -0.361 N 
HETATM   10  C   UNK     0       7.438 -14.531  -8.116  0.00  0.00     0.022 A 
HETATM   11  C   UNK     0       8.307 -13.960  -9.041  0.00  0.00    -0.027 A 
HETATM   12  C   UNK     0       9.307 -13.359  -8.321  0.00  0.00    -0.031 A 
HETATM   13  C   UNK     0      10.477 -12.604  -8.910  0.00  0.00     0.051 C 
HETATM   14  C   UNK     0       6.209 -15.356  -8.488  0.00  0.00     0.115 C 
HETATM   15  C   UNK     0       6.276 -16.803  -8.028  0.00  0.00     0.021 A 
HETATM   16  N   UNK     0       6.419 -17.259  -6.769  0.00  0.00    -0.361 N 
HETATM   17  C   UNK     0       6.504 -18.591  -6.793  0.00  0.00     0.022 A 
HETATM   18  C   UNK     0       6.402 -19.024  -8.129  0.00  0.00    -0.027 A 
HETATM   19  C   UNK     0       6.258 -17.895  -8.893  0.00  0.00    -0.031 A 
HETATM   20  C   UNK     0       6.076 -17.913 -10.400  0.00  0.00     0.051 C 
HETATM   21  C   UNK     0       6.741 -19.569  -5.665  0.00  0.00     0.115 C 
HETATM   22  C   UNK     0       7.632 -19.123  -4.529  0.00  0.00     0.022 A 
HETATM   23  N   UNK     0       8.768 -18.416  -4.594  0.00  0.00    -0.361 N 
HETATM   24  C   UNK     0       9.154 -18.117  -3.337  0.00  0.00     0.021 A 
HETATM   25  C   UNK     0       8.249 -18.654  -2.441  0.00  0.00    -0.031 A 
HETATM   26  C   UNK     0       8.274 -18.620  -0.927  0.00  0.00     0.051 C 
HETATM   27  C   UNK     0       7.267 -19.302  -3.180  0.00  0.00    -0.027 A 
HETATM   28  C   UNK     0      10.328 -17.257  -2.905  0.00  0.00     0.115 C 
HETATM   29  H   UNK     0      10.399 -16.064  -5.598  0.00  0.00     0.165 HD
HETATM   30  H   UNK     0       7.369 -14.571  -5.917  0.00  0.00     0.165 HD
HETATM   31  H   UNK     0       6.413 -16.632  -5.840  0.00  0.00     0.165 HD
HETATM   32  H   UNK     0       9.332 -18.158  -5.528  0.00  0.00     0.165 HD
ENDROOT
BRANCH   6  33
HETATM   33  C   UNK     0       9.905 -12.224  -2.847  0.00  0.00     0.051 C 
BRANCH  33  34
HETATM   34  C   UNK     0      11.253 -11.631  -2.508  0.00  0.00     0.114 C 
BRANCH  34  35
HETATM   35  C   UNK     0      11.654 -10.755  -3.646  0.00  0.00     0.139 C 
HETATM   36  O   UNK     0      10.883  -9.834  -4.044  0.00  0.00    -0.650 OA
BRANCH  35  37
HETATM   37  O   UNK     0      12.866 -10.899  -4.311  0.00  0.00    -0.776 OA
HETATM   38  H   UNK     0      12.919 -10.990  -5.313  0.00  0.00     0.167 HD
ENDBRANCH  35  37
ENDBRANCH  34  35
ENDBRANCH  33  34
ENDBRANCH   6  33
BRANCH  27  39
HETATM   39  C   UNK     0       6.153 -20.066  -2.554  0.00  0.00     0.051 C 
BRANCH  39  40
HETATM   40  C   UNK     0       5.058 -20.523  -3.409  0.00  0.00     0.114 C 
BRANCH  40  41
HETATM   41  C   UNK     0       3.748 -19.913  -3.376  0.00  0.00     0.139 C 
HETATM   42  O   UNK     0       3.046 -19.746  -4.383  0.00  0.00    -0.650 OA
BRANCH  41  43
HETATM   43  O   UNK     0       3.221 -19.475  -2.128  0.00  0.00    -0.776 OA
HETATM   44  H   UNK     0       3.906 -19.064  -1.505  0.00  0.00     0.167 HD
ENDBRANCH  41  43
ENDBRANCH  40  41
ENDBRANCH  39  40
ENDBRANCH  27  39
BRANCH  11  45
HETATM   45  C   UNK     0       8.217 -13.963 -10.544  0.00  0.00     0.051 C 
BRANCH  45  46
HETATM   46  C   UNK     0       6.990 -13.321 -11.079  0.00  0.00     0.114 C 
BRANCH  46  47
HETATM   47  C   UNK     0       6.583 -14.088 -12.291  0.00  0.00     0.139 C 
HETATM   48  O   UNK     0       5.377 -14.165 -12.566  0.00  0.00    -0.650 OA
BRANCH  47  49
HETATM   49  O   UNK     0       7.521 -14.697 -13.085  0.00  0.00    -0.776 OA
HETATM   50  H   UNK     0       7.783 -14.322 -14.005  0.00  0.00     0.167 HD
ENDBRANCH  47  49
ENDBRANCH  46  47
ENDBRANCH  45  46
ENDBRANCH  11  45
BRANCH  18  51
HETATM   51  C   UNK     0       6.418 -20.439  -8.648  0.00  0.00     0.051 C 
BRANCH  51  52
HETATM   52  C   UNK     0       4.984 -20.940  -8.566  0.00  0.00     0.114 C 
BRANCH  52  53
HETATM   53  C   UNK     0       4.772 -22.137  -9.402  0.00  0.00     0.139 C 
HETATM   54  O   UNK     0       4.316 -23.175  -8.896  0.00  0.00    -0.650 OA
BRANCH  53  55
HETATM   55  O   UNK     0       5.084 -22.097 -10.739  0.00  0.00    -0.776 OA
HETATM   56  H   UNK     0       5.001 -21.307 -11.334  0.00  0.00     0.167 HD
ENDBRANCH  53  55
ENDBRANCH  52  53
ENDBRANCH  51  52
ENDBRANCH  18  51
TORSDOF 16
ENDMDL
MODEL 7
REMARK VINA RESULT:      -8.4     20.920     22.910
REMARK  16 active torsions:
REMARK  status: ('A' for Active; 'I' for Inactive)
REMARK    1  A    between atoms: C_6  and  C_7 
REMARK    2  A    between atoms: C_7  and  C_8 
REMARK    3  A    between atoms: C_8  and  C_9 
REMARK    4  A    between atoms: C_9  and  O_11 
REMARK    5  A    between atoms: C_16  and  C_17 
REMARK    6  A    between atoms: C_17  and  C_18 
REMARK    7  A    between atoms: C_18  and  C_19 
REMARK    8  A    between atoms: C_19  and  O_21 
REMARK    9  A    between atoms: C_28  and  C_29 
REMARK   10  A    between atoms: C_29  and  C_30 
REMARK   11  A    between atoms: C_30  and  C_31 
REMARK   12  A    between atoms: C_31  and  O_33 
REMARK   13  A    between atoms: C_42  and  C_43 
REMARK   14  A    between atoms: C_43  and  C_44 
REMARK   15  A    between atoms: C_44  and  C_45 
REMARK   16  A    between atoms: C_45  and  O_47 
ROOT
HETATM    1  C   UNK     0      -6.442  -4.870   5.724  0.00  0.00     0.051 C 
HETATM    2  C   UNK     0      -7.616  -4.390   4.894  0.00  0.00    -0.031 A 
HETATM    3  C   UNK     0      -7.619  -3.693   3.697  0.00  0.00     0.021 A 
HETATM    4  N   UNK     0      -8.900  -3.447   3.333  0.00  0.00    -0.361 N 
HETATM    5  C   UNK     0      -9.713  -3.980   4.268  0.00  0.00     0.022 A 
HETATM    6  C   UNK     0      -8.942  -4.576   5.261  0.00  0.00    -0.027 A 
HETATM    7  C   UNK     0     -11.207  -4.067   4.293  0.00  0.00     0.115 C 
HETATM    8  C   UNK     0     -11.890  -4.441   2.989  0.00  0.00     0.021 A 
HETATM    9  N   UNK     0     -11.468  -5.288   2.037  0.00  0.00    -0.361 N 
HETATM   10  C   UNK     0     -12.348  -5.240   1.014  0.00  0.00     0.022 A 
HETATM   11  C   UNK     0     -13.370  -4.346   1.320  0.00  0.00    -0.027 A 
HETATM   12  C   UNK     0     -13.088  -3.839   2.563  0.00  0.00    -0.031 A 
HETATM   13  C   UNK     0     -13.931  -2.828   3.307  0.00  0.00     0.051 C 
HETATM   14  C   UNK     0     -12.234  -5.993  -0.309  0.00  0.00     0.115 C 
HETATM   15  C   UNK     0     -10.994  -5.638  -1.114  0.00  0.00     0.021 A 
HETATM   16  N   UNK     0      -9.708  -5.753  -0.734  0.00  0.00    -0.361 N 
HETATM   17  C   UNK     0      -8.921  -5.269  -1.698  0.00  0.00     0.022 A 
HETATM   18  C   UNK     0      -9.734  -4.827  -2.761  0.00  0.00    -0.027 A 
HETATM   19  C   UNK     0     -11.030  -5.065  -2.383  0.00  0.00    -0.031 A 
HETATM   20  C   UNK     0     -12.232  -4.768  -3.260  0.00  0.00     0.051 C 
HETATM   21  C   UNK     0      -7.419  -5.103  -1.735  0.00  0.00     0.115 C 
HETATM   22  C   UNK     0      -6.721  -4.775  -0.436  0.00  0.00     0.022 A 
HETATM   23  N   UNK     0      -7.120  -3.939   0.532  0.00  0.00    -0.361 N 
HETATM   24  C   UNK     0      -6.271  -4.061   1.572  0.00  0.00     0.021 A 
HETATM   25  C   UNK     0      -5.296  -4.989   1.263  0.00  0.00    -0.031 A 
HETATM   26  C   UNK     0      -4.107  -5.435   2.089  0.00  0.00     0.051 C 
HETATM   27  C   UNK     0      -5.563  -5.460  -0.018  0.00  0.00    -0.027 A 
HETATM   28  C   UNK     0      -6.363  -3.387   2.930  0.00  0.00     0.115 C 
HETATM   29  H   UNK     0      -9.220  -2.865   2.438  0.00  0.00     0.165 HD
HETATM   30  H   UNK     0     -10.576  -5.957   2.105  0.00  0.00     0.165 HD
HETATM   31  H   UNK     0      -9.344  -6.228   0.214  0.00  0.00     0.165 HD
HETATM   32  H   UNK     0      -7.981  -3.223   0.473  0.00  0.00     0.165 HD
ENDROOT
BRANCH   6  33
HETATM   33  C   UNK     0      -9.365  -5.296   6.516  0.00  0.00     0.051 C 
BRANCH  33  34
HETATM   34  C   UNK     0      -9.384  -4.351   7.694  0.00  0.00     0.114 C 
BRANCH  34  35
HETATM   35  C   UNK     0     -10.771  -4.349   8.243  0.00  0.00     0.139 C 
HETATM   36  O   UNK     0     -11.697  -4.961   7.635  0.00  0.00    -0.650 OA
BRANCH  35  37
HETATM   37  O   UNK     0     -11.110  -3.694   9.420  0.00  0.00    -0.776 OA
HETATM   38  H   UNK     0     -12.064  -3.625   9.738  0.00  0.00     0.167 HD
ENDBRANCH  35  37
ENDBRANCH  34  35
ENDBRANCH  33  34
ENDBRANCH   6  33
BRANCH  27  39
HETATM   39  C   UNK     0      -4.681  -6.428  -0.725  0.00  0.00     0.051 C 
BRANCH  39  40
HETATM   40  C   UNK     0      -3.901  -5.951  -1.867  0.00  0.00     0.114 C 
BRANCH  40  41
HETATM   41  C   UNK     0      -4.086  -6.477  -3.201  0.00  0.00     0.139 C 
HETATM   42  O   UNK     0      -4.045  -7.685  -3.471  0.00  0.00    -0.650 OA
BRANCH  41  43
HETATM   43  O   UNK     0      -4.329  -5.572  -4.273  0.00  0.00    -0.776 OA
HETATM   44  H   UNK     0      -3.839  -5.797  -5.130  0.00  0.00     0.167 HD
ENDBRANCH  41  43
ENDBRANCH  40  41
ENDBRANCH  39  40
ENDBRANCH  27  39
BRANCH  11  45
HETATM   45  C   UNK     0     -14.571  -3.971   0.495  0.00  0.00     0.051 C 
BRANCH  45  46
HETATM   46  C   UNK     0     -14.262  -3.094  -0.663  0.00  0.00     0.114 C 
BRANCH  46  47
HETATM   47  C   UNK     0     -15.533  -2.423  -1.061  0.00  0.00     0.139 C 
HETATM   48  O   UNK     0     -15.469  -1.391  -1.743  0.00  0.00    -0.650 OA
BRANCH  47  49
HETATM   49  O   UNK     0     -16.747  -2.934  -0.678  0.00  0.00    -0.776 OA
HETATM   50  H   UNK     0     -16.840  -3.875  -0.277  0.00  0.00     0.167 HD
ENDBRANCH  47  49
ENDBRANCH  46  47
ENDBRANCH  45  46
ENDBRANCH  11  45
BRANCH  18  51
HETATM   51  C   UNK     0      -9.298  -4.231  -4.075  0.00  0.00     0.051 C 
BRANCH  51  52
HETATM   52  C   UNK     0      -8.500  -5.312  -4.790  0.00  0.00     0.114 C 
BRANCH  52  53
HETATM   53  C   UNK     0      -7.363  -4.749  -5.542  0.00  0.00     0.139 C 
HETATM   54  O   UNK     0      -7.027  -5.248  -6.628  0.00  0.00    -0.650 OA
BRANCH  53  55
HETATM   55  O   UNK     0      -6.676  -3.674  -5.032  0.00  0.00    -0.776 OA
HETATM   56  H   UNK     0      -7.063  -2.787  -4.808  0.00  0.00     0.167 HD
ENDBRANCH  53  55
ENDBRANCH  52  53
ENDBRANCH  51  52
ENDBRANCH  18  51
TORSDOF 16
ENDMDL
MODEL 8
REMARK VINA RESULT:      -7.9     22.793     24.885
REMARK  16 active torsions:
REMARK  status: ('A' for Active; 'I' for Inactive)
REMARK    1  A    between atoms: C_6  and  C_7 
REMARK    2  A    between atoms: C_7  and  C_8 
REMARK    3  A    between atoms: C_8  and  C_9 
REMARK    4  A    between atoms: C_9  and  O_11 
REMARK    5  A    between atoms: C_16  and  C_17 
REMARK    6  A    between atoms: C_17  and  C_18 
REMARK    7  A    between atoms: C_18  and  C_19 
REMARK    8  A    between atoms: C_19  and  O_21 
REMARK    9  A    between atoms: C_28  and  C_29 
REMARK   10  A    between atoms: C_29  and  C_30 
REMARK   11  A    between atoms: C_30  and  C_31 
REMARK   12  A    between atoms: C_31  and  O_33 
REMARK   13  A    between atoms: C_42  and  C_43 
REMARK   14  A    between atoms: C_43  and  C_44 
REMARK   15  A    between atoms: C_44  and  C_45 
REMARK   16  A    between atoms: C_45  and  O_47 
ROOT
HETATM    1  C   UNK     0     -12.875  -5.343   9.095  0.00  0.00     0.051 C 
HETATM    2  C   UNK     0     -11.716  -5.573   8.147  0.00  0.00    -0.031 A 
HETATM    3  C   UNK     0     -11.704  -6.192   6.906  0.00  0.00     0.021 A 
HETATM    4  N   UNK     0     -10.437  -6.200   6.429  0.00  0.00    -0.361 N 
HETATM    5  C   UNK     0      -9.643  -5.592   7.335  0.00  0.00     0.022 A 
HETATM    6  C   UNK     0     -10.410  -5.190   8.423  0.00  0.00    -0.027 A 
HETATM    7  C   UNK     0      -8.185  -5.259   7.251  0.00  0.00     0.115 C 
HETATM    8  C   UNK     0      -7.688  -4.704   5.928  0.00  0.00     0.021 A 
HETATM    9  N   UNK     0      -8.322  -3.888   5.072  0.00  0.00    -0.361 N 
HETATM   10  C   UNK     0      -7.538  -3.731   3.984  0.00  0.00     0.022 A 
HETATM   11  C   UNK     0      -6.363  -4.458   4.148  0.00  0.00    -0.027 A 
HETATM   12  C   UNK     0      -6.451  -5.074   5.370  0.00  0.00    -0.031 A 
HETATM   13  C   UNK     0      -5.394  -5.970   5.976  0.00  0.00     0.051 C 
HETATM   14  C   UNK     0      -7.887  -2.935   2.729  0.00  0.00     0.115 C 
HETATM   15  C   UNK     0      -9.119  -3.446   1.999  0.00  0.00     0.021 A 
HETATM   16  N   UNK     0     -10.369  -3.568   2.483  0.00  0.00    -0.361 N 
HETATM   17  C   UNK     0     -11.148  -4.121   1.550  0.00  0.00     0.022 A 
HETATM   18  C   UNK     0     -10.370  -4.361   0.400  0.00  0.00    -0.027 A 
HETATM   19  C   UNK     0      -9.102  -3.933   0.694  0.00  0.00    -0.031 A 
HETATM   20  C   UNK     0      -7.947  -3.976  -0.291  0.00  0.00     0.051 C 
HETATM   21  C   UNK     0     -12.601  -4.533   1.617  0.00  0.00     0.115 C 
HETATM   22  C   UNK     0     -13.121  -5.045   2.940  0.00  0.00     0.022 A 
HETATM   23  N   UNK     0     -12.510  -5.855   3.814  0.00  0.00    -0.361 N 
HETATM   24  C   UNK     0     -13.274  -5.935   4.922  0.00  0.00     0.021 A 
HETATM   25  C   UNK     0     -14.409  -5.166   4.754  0.00  0.00    -0.031 A 
HETATM   26  C   UNK     0     -15.577  -4.972   5.697  0.00  0.00     0.051 C 
HETATM   27  C   UNK     0     -14.334  -4.587   3.492  0.00  0.00    -0.027 A 
HETATM   28  C   UNK     0     -12.956  -6.659   6.219  0.00  0.00     0.115 C 
HETATM   29  H   UNK     0     -10.106  -6.670   5.475  0.00  0.00     0.165 HD
HETATM   30  H   UNK     0      -9.301  -3.381   5.254  0.00  0.00     0.165 HD
HETATM   31  H   UNK     0     -10.721  -3.214   3.487  0.00  0.00     0.165 HD
HETATM   32  H   UNK     0     -11.553  -6.413   3.640  0.00  0.00     0.165 HD
ENDROOT
BRANCH   6  33
HETATM   33  C   UNK     0     -10.002  -4.481   9.689  0.00  0.00     0.051 C 
BRANCH  33  34
HETATM   34  C   UNK     0      -9.978  -2.985   9.481  0.00  0.00     0.114 C 
BRANCH  34  35
HETATM   35  C   UNK     0     -10.004  -2.346  10.828  0.00  0.00     0.139 C 
HETATM   36  O   UNK     0     -10.379  -3.008  11.839  0.00  0.00    -0.650 OA
BRANCH  35  37
HETATM   37  O   UNK     0      -9.625  -1.026  11.039  0.00  0.00    -0.776 OA
HETATM   38  H   UNK     0     -10.194  -0.252  10.736  0.00  0.00     0.167 HD
ENDBRANCH  35  37
ENDBRANCH  34  35
ENDBRANCH  33  34
ENDBRANCH   6  33
BRANCH  27  39
HETATM   39  C   UNK     0     -15.418  -3.741   2.923  0.00  0.00     0.051 C 
BRANCH  39  40
HETATM   40  C   UNK     0     -16.205  -4.275   1.812  0.00  0.00     0.114 C 
BRANCH  40  41
HETATM   41  C   UNK     0     -15.914  -3.948   0.434  0.00  0.00     0.139 C 
HETATM   42  O   UNK     0     -16.102  -4.729  -0.508  0.00  0.00    -0.650 OA
BRANCH  41  43
HETATM   43  O   UNK     0     -15.384  -2.662   0.127  0.00  0.00    -0.776 OA
HETATM   44  H   UNK     0     -14.697  -2.323   0.789  0.00  0.00     0.167 HD
ENDBRANCH  41  43
ENDBRANCH  40  41
ENDBRANCH  39  40
ENDBRANCH  27  39
BRANCH  11  45
HETATM   45  C   UNK     0      -5.193  -4.581   3.209  0.00  0.00     0.051 C 
BRANCH  45  46
HETATM   46  C   UNK     0      -4.171  -3.515   3.372  0.00  0.00     0.114 C 
BRANCH  46  47
HETATM   47  C   UNK     0      -2.902  -4.180   3.785  0.00  0.00     0.139 C 
HETATM   48  O   UNK     0      -2.052  -3.511   4.389  0.00  0.00    -0.650 OA
BRANCH  47  49
HETATM   49  O   UNK     0      -2.678  -5.504   3.503  0.00  0.00    -0.776 OA
HETATM   50  H   UNK     0      -1.738  -5.869   3.312  0.00  0.00     0.167 HD
ENDBRANCH  47  49
ENDBRANCH  46  47
ENDBRANCH  45  46
ENDBRANCH  11  45
BRANCH  18  51
HETATM   51  C   UNK     0     -10.817  -4.948  -0.914  0.00  0.00     0.051 C 
BRANCH  51  52
HETATM   52  C   UNK     0     -11.422  -3.800  -1.709  0.00  0.00     0.114 C 
BRANCH  52  53
HETATM   53  C   UNK     0     -12.862  -4.004  -1.959  0.00  0.00     0.139 C 
HETATM   54  O   UNK     0     -13.566  -3.057  -2.345  0.00  0.00    -0.650 OA
BRANCH  53  55
HETATM   55  O   UNK     0     -13.417  -5.244  -1.758  0.00  0.00    -0.776 OA
HETATM   56  H   UNK     0     -14.373  -5.432  -1.564  0.00  0.00     0.167 HD
ENDBRANCH  53  55
ENDBRANCH  52  53
ENDBRANCH  51  52
ENDBRANCH  18  51
TORSDOF 16
ENDMDL
MODEL 9
REMARK VINA RESULT:      -7.9      2.520      4.755
REMARK  16 active torsions:
REMARK  status: ('A' for Active; 'I' for Inactive)
REMARK    1  A    between atoms: C_6  and  C_7 
REMARK    2  A    between atoms: C_7  and  C_8 
REMARK    3  A    between atoms: C_8  and  C_9 
REMARK    4  A    between atoms: C_9  and  O_11 
REMARK    5  A    between atoms: C_16  and  C_17 
REMARK    6  A    between atoms: C_17  and  C_18 
REMARK    7  A    between atoms: C_18  and  C_19 
REMARK    8  A    between atoms: C_19  and  O_21 
REMARK    9  A    between atoms: C_28  and  C_29 
REMARK   10  A    between atoms: C_29  and  C_30 
REMARK   11  A    between atoms: C_30  and  C_31 
REMARK   12  A    between atoms: C_31  and  O_33 
REMARK   13  A    between atoms: C_42  and  C_43 
REMARK   14  A    between atoms: C_43  and  C_44 
REMARK   15  A    between atoms: C_44  and  C_45 
REMARK   16  A    between atoms: C_45  and  O_47 
ROOT
HETATM    1  C   UNK     0      13.364  -5.381  -6.582  0.00  0.00     0.051 C 
HETATM    2  C   UNK     0      13.007  -6.160  -5.333  0.00  0.00    -0.031 A 
HETATM    3  C   UNK     0      11.917  -6.980  -5.089  0.00  0.00     0.021 A 
HETATM    4  N   UNK     0      11.990  -7.445  -3.819  0.00  0.00    -0.361 N 
HETATM    5  C   UNK     0      13.107  -6.946  -3.251  0.00  0.00     0.022 A 
HETATM    6  C   UNK     0      13.766  -6.135  -4.170  0.00  0.00    -0.027 A 
HETATM    7  C   UNK     0      13.695  -7.223  -1.903  0.00  0.00     0.115 C 
HETATM    8  C   UNK     0      13.691  -8.670  -1.442  0.00  0.00     0.021 A 
HETATM    9  N   UNK     0      13.860  -9.781  -2.175  0.00  0.00    -0.361 N 
HETATM   10  C   UNK     0      13.686 -10.847  -1.365  0.00  0.00     0.022 A 
HETATM   11  C   UNK     0      13.408 -10.411  -0.073  0.00  0.00    -0.027 A 
HETATM   12  C   UNK     0      13.409  -9.040  -0.115  0.00  0.00    -0.031 A 
HETATM   13  C   UNK     0      13.157  -8.129   1.066  0.00  0.00     0.051 C 
HETATM   14  C   UNK     0      13.724 -12.314  -1.786  0.00  0.00     0.115 C 
HETATM   15  C   UNK     0      12.667 -12.687  -2.813  0.00  0.00     0.021 A 
HETATM   16  N   UNK     0      12.489 -12.157  -4.038  0.00  0.00    -0.361 N 
HETATM   17  C   UNK     0      11.410 -12.706  -4.600  0.00  0.00     0.022 A 
HETATM   18  C   UNK     0      10.865 -13.646  -3.703  0.00  0.00    -0.027 A 
HETATM   19  C   UNK     0      11.662 -13.625  -2.588  0.00  0.00    -0.031 A 
HETATM   20  C   UNK     0      11.449 -14.521  -1.382  0.00  0.00     0.051 C 
HETATM   21  C   UNK     0      10.748 -12.408  -5.926  0.00  0.00     0.115 C 
HETATM   22  C   UNK     0      10.783 -10.980  -6.418  0.00  0.00     0.022 A 
HETATM   23  N   UNK     0      10.622  -9.855  -5.711  0.00  0.00    -0.361 N 
HETATM   24  C   UNK     0      10.876  -8.806  -6.520  0.00  0.00     0.021 A 
HETATM   25  C   UNK     0      11.198  -9.268  -7.781  0.00  0.00    -0.031 A 
HETATM   26  C   UNK     0      11.520  -8.477  -9.032  0.00  0.00     0.051 C 
HETATM   27  C   UNK     0      11.145 -10.656  -7.742  0.00  0.00    -0.027 A 
HETATM   28  C   UNK     0      10.913  -7.334  -6.149  0.00  0.00     0.115 C 
HETATM   29  H   UNK     0      11.230  -8.090  -3.320  0.00  0.00     0.165 HD
HETATM   30  H   UNK     0      14.151  -9.817  -3.253  0.00  0.00     0.165 HD
HETATM   31  H   UNK     0      13.166 -11.414  -4.535  0.00  0.00     0.165 HD
HETATM   32  H   UNK     0      10.285  -9.788  -4.644  0.00  0.00     0.165 HD
ENDROOT
BRANCH   6  33
HETATM   33  C   UNK     0      15.044  -5.348  -4.027  0.00  0.00     0.051 C 
BRANCH  33  34
HETATM   34  C   UNK     0      15.410  -5.182  -2.571  0.00  0.00     0.114 C 
BRANCH  34  35
HETATM   35  C   UNK     0      16.825  -4.714  -2.518  0.00  0.00     0.139 C 
HETATM   36  O   UNK     0      17.085  -3.482  -2.396  0.00  0.00    -0.650 OA
BRANCH  35  37
HETATM   37  O   UNK     0      17.906  -5.585  -2.595  0.00  0.00    -0.776 OA
HETATM   38  H   UNK     0      18.338  -5.975  -1.773  0.00  0.00     0.167 HD
ENDBRANCH  35  37
ENDBRANCH  34  35
ENDBRANCH  33  34
ENDBRANCH   6  33
BRANCH  27  39
HETATM   39  C   UNK     0      11.364 -11.511  -8.940  0.00  0.00     0.051 C 
BRANCH  39  40
HETATM   40  C   UNK     0      10.265 -11.666  -9.892  0.00  0.00     0.114 C 
BRANCH  40  41
HETATM   41  C   UNK     0       9.134 -12.527  -9.630  0.00  0.00     0.139 C 
HETATM   42  O   UNK     0       7.977 -12.263  -9.984  0.00  0.00    -0.650 OA
BRANCH  41  43
HETATM   43  O   UNK     0       9.343 -13.749  -8.929  0.00  0.00    -0.776 OA
HETATM   44  H   UNK     0      10.154 -13.749  -8.322  0.00  0.00     0.167 HD
ENDBRANCH  41  43
ENDBRANCH  40  41
ENDBRANCH  39  40
ENDBRANCH  27  39
BRANCH  11  45
HETATM   45  C   UNK     0      13.150 -11.230   1.163  0.00  0.00     0.051 C 
BRANCH  45  46
HETATM   46  C   UNK     0      11.712 -11.483   1.433  0.00  0.00     0.114 C 
BRANCH  46  47
HETATM   47  C   UNK     0      11.543 -11.529   2.914  0.00  0.00     0.139 C 
HETATM   48  O   UNK     0      11.828 -12.577   3.511  0.00  0.00    -0.650 OA
BRANCH  47  49
HETATM   49  O   UNK     0      11.079 -10.436   3.603  0.00  0.00    -0.776 OA
HETATM   50  H   UNK     0      10.548 -10.528   4.477  0.00  0.00     0.167 HD
ENDBRANCH  47  49
ENDBRANCH  46  47
ENDBRANCH  45  46
ENDBRANCH  11  45
BRANCH  18  51
HETATM   51  C   UNK     0       9.663 -14.531  -3.907  0.00  0.00     0.051 C 
BRANCH  51  52
HETATM   52  C   UNK     0      10.171 -15.789  -4.595  0.00  0.00     0.114 C 
BRANCH  52  53
HETATM   53  C   UNK     0       9.199 -16.309  -5.576  0.00  0.00     0.139 C 
HETATM   54  O   UNK     0       8.362 -17.159  -5.232  0.00  0.00    -0.650 OA
BRANCH  53  55
HETATM   55  O   UNK     0       9.228 -15.850  -6.871  0.00  0.00    -0.776 OA
HETATM   56  H   UNK     0       8.887 -16.333  -7.669  0.00  0.00     0.167 HD
ENDBRANCH  53  55
ENDBRANCH  52  53
ENDBRANCH  51  52
ENDBRANCH  18  51
TORSDOF 16
ENDMDL
MODEL 10
REMARK VINA RESULT:      -7.8     20.696     22.866
REMARK  16 active torsions:
REMARK  status: ('A' for Active; 'I' for Inactive)
REMARK    1  A    between atoms: C_6  and  C_7 
REMARK    2  A    between atoms: C_7  and  C_8 
REMARK    3  A    between atoms: C_8  and  C_9 
REMARK    4  A    between atoms: C_9  and  O_11 
REMARK    5  A    between atoms: C_16  and  C_17 
REMARK    6  A    between atoms: C_17  and  C_18 
REMARK    7  A    between atoms: C_18  and  C_19 
REMARK    8  A    between atoms: C_19  and  O_21 
REMARK    9  A    between atoms: C_28  and  C_29 
REMARK   10  A    between atoms: C_29  and  C_30 
REMARK   11  A    between atoms: C_30  and  C_31 
REMARK   12  A    between atoms: C_31  and  O_33 
REMARK   13  A    between atoms: C_42  and  C_43 
REMARK   14  A    between atoms: C_43  and  C_44 
REMARK   15  A    between atoms: C_44  and  C_45 
REMARK   16  A    between atoms: C_45  and  O_47 
ROOT
HETATM    1  C   UNK     0     -14.795  -4.078   0.083  0.00  0.00     0.051 C 
HETATM    2  C   UNK     0     -13.618  -4.465   0.955  0.00  0.00    -0.031 A 
HETATM    3  C   UNK     0     -12.664  -5.451   0.759  0.00  0.00     0.021 A 
HETATM    4  N   UNK     0     -11.815  -5.461   1.814  0.00  0.00    -0.361 N 
HETATM    5  C   UNK     0     -12.202  -4.496   2.675  0.00  0.00     0.022 A 
HETATM    6  C   UNK     0     -13.329  -3.855   2.169  0.00  0.00    -0.027 A 
HETATM    7  C   UNK     0     -11.553  -4.034   3.941  0.00  0.00     0.115 C 
HETATM    8  C   UNK     0     -10.041  -3.890   3.919  0.00  0.00     0.021 A 
HETATM    9  N   UNK     0      -9.255  -3.485   2.910  0.00  0.00    -0.361 N 
HETATM   10  C   UNK     0      -7.970  -3.600   3.307  0.00  0.00     0.022 A 
HETATM   11  C   UNK     0      -7.928  -4.083   4.612  0.00  0.00    -0.027 A 
HETATM   12  C   UNK     0      -9.229  -4.268   5.003  0.00  0.00    -0.031 A 
HETATM   13  C   UNK     0      -9.671  -4.778   6.356  0.00  0.00     0.051 C 
HETATM   14  C   UNK     0      -6.735  -3.311   2.459  0.00  0.00     0.115 C 
HETATM   15  C   UNK     0      -6.624  -4.180   1.217  0.00  0.00     0.021 A 
HETATM   16  N   UNK     0      -7.508  -4.288   0.208  0.00  0.00    -0.361 N 
HETATM   17  C   UNK     0      -7.076  -5.208  -0.658  0.00  0.00     0.022 A 
HETATM   18  C   UNK     0      -5.846  -5.717  -0.196  0.00  0.00    -0.027 A 
HETATM   19  C   UNK     0      -5.573  -5.064   0.978  0.00  0.00    -0.031 A 
HETATM   20  C   UNK     0      -4.314  -5.288   1.795  0.00  0.00     0.051 C 
HETATM   21  C   UNK     0      -7.731  -5.749  -1.908  0.00  0.00     0.115 C 
HETATM   22  C   UNK     0      -9.238  -5.857  -1.916  0.00  0.00     0.022 A 
HETATM   23  N   UNK     0     -10.047  -6.253  -0.925  0.00  0.00    -0.361 N 
HETATM   24  C   UNK     0     -11.323  -6.056  -1.315  0.00  0.00     0.021 A 
HETATM   25  C   UNK     0     -11.336  -5.530  -2.592  0.00  0.00    -0.031 A 
HETATM   26  C   UNK     0     -12.522  -5.180  -3.467  0.00  0.00     0.051 C 
HETATM   27  C   UNK     0     -10.013  -5.394  -2.999  0.00  0.00    -0.027 A 
HETATM   28  C   UNK     0     -12.587  -6.268  -0.500  0.00  0.00     0.115 C 
HETATM   29  H   UNK     0     -10.973  -6.175   1.963  0.00  0.00     0.165 HD
HETATM   30  H   UNK     0      -9.605  -3.070   1.933  0.00  0.00     0.165 HD
HETATM   31  H   UNK     0      -8.434  -3.669   0.079  0.00  0.00     0.165 HD
HETATM   32  H   UNK     0      -9.726  -6.716   0.044  0.00  0.00     0.165 HD
ENDROOT
BRANCH   6  33
HETATM   33  C   UNK     0     -14.142  -2.725   2.747  0.00  0.00     0.051 C 
BRANCH  33  34
HETATM   34  C   UNK     0     -14.879  -3.174   3.986  0.00  0.00     0.114 C 
BRANCH  34  35
HETATM   35  C   UNK     0     -16.020  -4.026   3.544  0.00  0.00     0.139 C 
HETATM   36  O   UNK     0     -16.079  -5.241   3.891  0.00  0.00    -0.650 OA
BRANCH  35  37
HETATM   37  O   UNK     0     -17.052  -3.542   2.749  0.00  0.00    -0.776 OA
HETATM   38  H   UNK     0     -17.433  -4.075   1.985  0.00  0.00     0.167 HD
ENDBRANCH  35  37
ENDBRANCH  34  35
ENDBRANCH  33  34
ENDBRANCH   6  33
BRANCH  27  39
HETATM   39  C   UNK     0      -9.627  -4.922  -4.356  0.00  0.00     0.051 C 
BRANCH  39  40
HETATM   40  C   UNK     0      -8.476  -4.027  -4.478  0.00  0.00     0.114 C 
BRANCH  40  41
HETATM   41  C   UNK     0      -7.292  -4.392  -5.224  0.00  0.00     0.139 C 
HETATM   42  O   UNK     0      -7.084  -5.533  -5.660  0.00  0.00    -0.650 OA
BRANCH  41  43
HETATM   43  O   UNK     0      -6.303  -3.400  -5.480  0.00  0.00    -0.776 OA
HETATM   44  H   UNK     0      -6.189  -3.165  -6.458  0.00  0.00     0.167 HD
ENDBRANCH  41  43
ENDBRANCH  40  41
ENDBRANCH  39  40
ENDBRANCH  27  39
BRANCH  11  45
HETATM   45  C   UNK     0      -6.726  -4.365   5.473  0.00  0.00     0.051 C 
BRANCH  45  46
HETATM   46  C   UNK     0      -6.046  -5.648   5.165  0.00  0.00     0.114 C 
BRANCH  46  47
HETATM   47  C   UNK     0      -6.029  -6.452   6.421  0.00  0.00     0.139 C 
HETATM   48  O   UNK     0      -5.504  -7.574   6.399  0.00  0.00    -0.650 OA
BRANCH  47  49
HETATM   49  O   UNK     0      -6.583  -5.962   7.576  0.00  0.00    -0.776 OA
HETATM   50  H   UNK     0      -7.530  -6.220   7.878  0.00  0.00     0.167 HD
ENDBRANCH  47  49
ENDBRANCH  46  47
ENDBRANCH  45  46
ENDBRANCH  11  45
BRANCH  18  51
HETATM   51  C   UNK     0      -4.969  -6.753  -0.849  0.00  0.00     0.051 C 
BRANCH  51  52
HETATM   52  C   UNK     0      -4.076  -6.002  -1.825  0.00  0.00     0.114 C 
BRANCH  52  53
HETATM   53  C   UNK     0      -4.187  -6.538  -3.196  0.00  0.00     0.139 C 
HETATM   54  O   UNK     0      -4.143  -7.764  -3.389  0.00  0.00    -0.650 OA
BRANCH  53  55
HETATM   55  O   UNK     0      -4.336  -5.675  -4.254  0.00  0.00    -0.776 OA
HETATM   56  H   UNK     0      -3.681  -5.530  -4.986  0.00  0.00     0.167 HD
ENDBRANCH  53  55
ENDBRANCH  52  53
ENDBRANCH  51  52
ENDBRANCH  18  51
TORSDOF 16
ENDMDL
MODEL 11
REMARK VINA RESULT:      -7.7     27.707     32.339
REMARK  16 active torsions:
REMARK  status: ('A' for Active; 'I' for Inactive)
REMARK    1  A    between atoms: C_6  and  C_7 
REMARK    2  A    between atoms: C_7  and  C_8 
REMARK    3  A    between atoms: C_8  and  C_9 
REMARK    4  A    between atoms: C_9  and  O_11 
REMARK    5  A    between atoms: C_16  and  C_17 
REMARK    6  A    between atoms: C_17  and  C_18 
REMARK    7  A    between atoms: C_18  and  C_19 
REMARK    8  A    between atoms: C_19  and  O_21 
REMARK    9  A    between atoms: C_28  and  C_29 
REMARK   10  A    between atoms: C_29  and  C_30 
REMARK   11  A    between atoms: C_30  and  C_31 
REMARK   12  A    between atoms: C_31  and  O_33 
REMARK   13  A    between atoms: C_42  and  C_43 
REMARK   14  A    between atoms: C_43  and  C_44 
REMARK   15  A    between atoms: C_44  and  C_45 
REMARK   16  A    between atoms: C_45  and  O_47 
ROOT
HETATM    1  C   UNK     0      20.193  15.526  -6.170  0.00  0.00     0.051 C 
HETATM    2  C   UNK     0      18.839  16.204  -6.221  0.00  0.00    -0.031 A 
HETATM    3  C   UNK     0      18.531  17.536  -6.450  0.00  0.00     0.021 A 
HETATM    4  N   UNK     0      17.188  17.697  -6.373  0.00  0.00    -0.361 N 
HETATM    5  C   UNK     0      16.634  16.496  -6.109  0.00  0.00     0.022 A 
HETATM    6  C   UNK     0      17.639  15.540  -6.004  0.00  0.00    -0.027 A 
HETATM    7  C   UNK     0      15.190  16.113  -6.018  0.00  0.00     0.115 C 
HETATM    8  C   UNK     0      14.263  16.696  -7.070  0.00  0.00     0.021 A 
HETATM    9  N   UNK     0      14.518  16.944  -8.364  0.00  0.00    -0.361 N 
HETATM   10  C   UNK     0      13.435  17.549  -8.896  0.00  0.00     0.022 A 
HETATM   11  C   UNK     0      12.451  17.684  -7.921  0.00  0.00    -0.027 A 
HETATM   12  C   UNK     0      12.967  17.149  -6.768  0.00  0.00    -0.031 A 
HETATM   13  C   UNK     0      12.245  17.072  -5.441  0.00  0.00     0.051 C 
HETATM   14  C   UNK     0      13.303  18.068 -10.325  0.00  0.00     0.115 C 
HETATM   15  C   UNK     0      14.313  19.147 -10.683  0.00  0.00     0.021 A 
HETATM   16  N   UNK     0      15.656  19.059 -10.651  0.00  0.00    -0.361 N 
HETATM   17  C   UNK     0      16.180  20.244 -10.969  0.00  0.00     0.022 A 
HETATM   18  C   UNK     0      15.129  21.145 -11.232  0.00  0.00    -0.027 A 
HETATM   19  C   UNK     0      13.965  20.445 -11.050  0.00  0.00    -0.031 A 
HETATM   20  C   UNK     0      12.583  21.035 -11.268  0.00  0.00     0.051 C 
HETATM   21  C   UNK     0      17.625  20.689 -11.008  0.00  0.00     0.115 C 
HETATM   22  C   UNK     0      18.568  20.083  -9.995  0.00  0.00     0.022 A 
HETATM   23  N   UNK     0      18.340  19.821  -8.701  0.00  0.00    -0.361 N 
HETATM   24  C   UNK     0      19.402  19.149  -8.212  0.00  0.00     0.021 A 
HETATM   25  C   UNK     0      20.341  18.985  -9.211  0.00  0.00    -0.031 A 
HETATM   26  C   UNK     0      21.707  18.334  -9.138  0.00  0.00     0.051 C 
HETATM   27  C   UNK     0      19.830  19.574 -10.362  0.00  0.00    -0.027 A 
HETATM   28  C   UNK     0      19.567  18.558  -6.822  0.00  0.00     0.115 C 
HETATM   29  H   UNK     0      16.645  18.666  -6.467  0.00  0.00     0.165 HD
HETATM   30  H   UNK     0      15.443  16.649  -8.918  0.00  0.00     0.165 HD
HETATM   31  H   UNK     0      16.247  18.129 -10.445  0.00  0.00     0.165 HD
HETATM   32  H   UNK     0      17.444  20.145  -8.110  0.00  0.00     0.165 HD
ENDROOT
BRANCH   6  33
HETATM   33  C   UNK     0      17.547  14.063  -5.716  0.00  0.00     0.051 C 
BRANCH  33  34
HETATM   34  C   UNK     0      17.304  13.283  -6.987  0.00  0.00     0.114 C 
BRANCH  34  35
HETATM   35  C   UNK     0      16.728  11.964  -6.598  0.00  0.00     0.139 C 
HETATM   36  O   UNK     0      16.836  11.547  -5.408  0.00  0.00    -0.650 OA
BRANCH  35  37
HETATM   37  O   UNK     0      16.056  11.146  -7.498  0.00  0.00    -0.776 OA
HETATM   38  H   UNK     0      16.510  10.375  -7.961  0.00  0.00     0.167 HD
ENDBRANCH  35  37
ENDBRANCH  34  35
ENDBRANCH  33  34
ENDBRANCH   6  33
BRANCH  27  39
HETATM   39  C   UNK     0      20.594  19.659 -11.637  0.00  0.00     0.051 C 
BRANCH  39  40
HETATM   40  C   UNK     0      21.399  20.855 -11.885  0.00  0.00     0.114 C 
BRANCH  40  41
HETATM   41  C   UNK     0      22.841  20.847 -11.785  0.00  0.00     0.139 C 
HETATM   42  O   UNK     0      23.458  21.211 -10.774  0.00  0.00    -0.650 OA
BRANCH  41  43
HETATM   43  O   UNK     0      23.609  20.402 -12.897  0.00  0.00    -0.776 OA
HETATM   44  H   UNK     0      23.658  21.062 -13.664  0.00  0.00     0.167 HD
ENDBRANCH  41  43
ENDBRANCH  40  41
ENDBRANCH  39  40
ENDBRANCH  27  39
BRANCH  11  45
HETATM   45  C   UNK     0      11.077  18.286  -8.046  0.00  0.00     0.051 C 
BRANCH  45  46
HETATM   46  C   UNK     0      11.049  19.765  -7.916  0.00  0.00     0.114 C 
BRANCH  46  47
HETATM   47  C   UNK     0       9.848  20.114  -7.104  0.00  0.00     0.139 C 
HETATM   48  O   UNK     0       9.961  20.167  -5.872  0.00  0.00    -0.650 OA
BRANCH  47  49
HETATM   49  O   UNK     0       8.643  20.371  -7.708  0.00  0.00    -0.776 OA
HETATM   50  H   UNK     0       7.748  20.188  -7.238  0.00  0.00     0.167 HD
ENDBRANCH  47  49
ENDBRANCH  46  47
ENDBRANCH  45  46
ENDBRANCH  11  45
BRANCH  18  51
HETATM   51  C   UNK     0      15.230  22.588 -11.653  0.00  0.00     0.051 C 
BRANCH  51  52
HETATM   52  C   UNK     0      15.255  23.406 -10.370  0.00  0.00     0.114 C 
BRANCH  52  53
HETATM   53  C   UNK     0      14.099  24.318 -10.277  0.00  0.00     0.139 C 
HETATM   54  O   UNK     0      13.183  24.081  -9.473  0.00  0.00    -0.650 OA
BRANCH  53  55
HETATM   55  O   UNK     0      14.042  25.427 -11.085  0.00  0.00    -0.776 OA
HETATM   56  H   UNK     0      14.040  26.372 -10.781  0.00  0.00     0.167 HD
ENDBRANCH  53  55
ENDBRANCH  52  53
ENDBRANCH  51  52
ENDBRANCH  18  51
TORSDOF 16
ENDMDL
MODEL 12
REMARK VINA RESULT:      -7.6     34.556     37.705
REMARK  16 active torsions:
REMARK  status: ('A' for Active; 'I' for Inactive)
REMARK    1  A    between atoms: C_6  and  C_7 
REMARK    2  A    between atoms: C_7  and  C_8 
REMARK    3  A    between atoms: C_8  and  C_9 
REMARK    4  A    between atoms: C_9  and  O_11 
REMARK    5  A    between atoms: C_16  and  C_17 
REMARK    6  A    between atoms: C_17  and  C_18 
REMARK    7  A    between atoms: C_18  and  C_19 
REMARK    8  A    between atoms: C_19  and  O_21 
REMARK    9  A    between atoms: C_28  and  C_29 
REMARK   10  A    between atoms: C_29  and  C_30 
REMARK   11  A    between atoms: C_30  and  C_31 
REMARK   12  A    between atoms: C_31  and  O_33 
REMARK   13  A    between atoms: C_42  and  C_43 
REMARK   14  A    between atoms: C_43  and  C_44 
REMARK   15  A    between atoms: C_44  and  C_45 
REMARK   16  A    between atoms: C_45  and  O_47 
ROOT
HETATM    1  C   UNK     0     -24.836  -7.879  -1.754  0.00  0.00     0.051 C 
HETATM    2  C   UNK     0     -23.961  -6.832  -1.095  0.00  0.00    -0.031 A 
HETATM    3  C   UNK     0     -23.935  -5.460  -1.287  0.00  0.00     0.021 A 
HETATM    4  N   UNK     0     -22.968  -4.923  -0.505  0.00  0.00    -0.361 N 
HETATM    5  C   UNK     0     -22.384  -5.923   0.188  0.00  0.00     0.022 A 
HETATM    6  C   UNK     0     -22.979  -7.131  -0.159  0.00  0.00    -0.027 A 
HETATM    7  C   UNK     0     -21.331  -5.856   1.250  0.00  0.00     0.115 C 
HETATM    8  C   UNK     0     -21.480  -4.758   2.289  0.00  0.00     0.021 A 
HETATM    9  N   UNK     0     -22.605  -4.261   2.826  0.00  0.00    -0.361 N 
HETATM   10  C   UNK     0     -22.266  -3.236   3.635  0.00  0.00     0.022 A 
HETATM   11  C   UNK     0     -20.884  -3.073   3.627  0.00  0.00    -0.027 A 
HETATM   12  C   UNK     0     -20.382  -4.029   2.781  0.00  0.00    -0.031 A 
HETATM   13  C   UNK     0     -18.918  -4.235   2.465  0.00  0.00     0.051 C 
HETATM   14  C   UNK     0     -23.231  -2.337   4.404  0.00  0.00     0.115 C 
HETATM   15  C   UNK     0     -24.192  -1.564   3.516  0.00  0.00     0.021 A 
HETATM   16  N   UNK     0     -25.080  -2.063   2.635  0.00  0.00    -0.361 N 
HETATM   17  C   UNK     0     -25.684  -1.054   2.003  0.00  0.00     0.022 A 
HETATM   18  C   UNK     0     -25.172   0.160   2.502  0.00  0.00    -0.027 A 
HETATM   19  C   UNK     0     -24.240  -0.173   3.450  0.00  0.00    -0.031 A 
HETATM   20  C   UNK     0     -23.467   0.846   4.267  0.00  0.00     0.051 C 
HETATM   21  C   UNK     0     -26.699  -1.079   0.882  0.00  0.00     0.115 C 
HETATM   22  C   UNK     0     -26.590  -2.192  -0.133  0.00  0.00     0.022 A 
HETATM   23  N   UNK     0     -25.483  -2.709  -0.682  0.00  0.00    -0.361 N 
HETATM   24  C   UNK     0     -25.837  -3.778  -1.423  0.00  0.00     0.021 A 
HETATM   25  C   UNK     0     -27.207  -3.947  -1.359  0.00  0.00    -0.031 A 
HETATM   26  C   UNK     0     -28.074  -4.978  -2.051  0.00  0.00     0.051 C 
HETATM   27  C   UNK     0     -27.711  -2.944  -0.539  0.00  0.00    -0.027 A 
HETATM   28  C   UNK     0     -24.924  -4.742  -2.161  0.00  0.00     0.115 C 
HETATM   29  H   UNK     0     -22.678  -3.847  -0.477  0.00  0.00     0.165 HD
HETATM   30  H   UNK     0     -23.636  -4.664   2.674  0.00  0.00     0.165 HD
HETATM   31  H   UNK     0     -25.320  -3.148   2.491  0.00  0.00     0.165 HD
HETATM   32  H   UNK     0     -24.444  -2.298  -0.586  0.00  0.00     0.165 HD
ENDROOT
BRANCH   6  33
HETATM   33  C   UNK     0     -22.687  -8.530   0.322  0.00  0.00     0.051 C 
BRANCH  33  34
HETATM   34  C   UNK     0     -21.348  -9.004  -0.190  0.00  0.00     0.114 C 
BRANCH  34  35
HETATM   35  C   UNK     0     -21.546  -9.467  -1.594  0.00  0.00     0.139 C 
HETATM   36  O   UNK     0     -21.221  -8.721  -2.563  0.00  0.00    -0.650 OA
BRANCH  35  37
HETATM   37  O   UNK     0     -22.081 -10.712  -1.903  0.00  0.00    -0.776 OA
HETATM   38  H   UNK     0     -21.532 -11.555  -1.863  0.00  0.00     0.167 HD
ENDBRANCH  35  37
ENDBRANCH  34  35
ENDBRANCH  33  34
ENDBRANCH   6  33
BRANCH  27  39
HETATM   39  C   UNK     0     -29.166  -2.757  -0.287  0.00  0.00     0.051 C 
BRANCH  39  40
HETATM   40  C   UNK     0     -29.664  -2.948   1.075  0.00  0.00     0.114 C 
BRANCH  40  41
HETATM   41  C   UNK     0     -30.486  -1.962   1.740  0.00  0.00     0.139 C 
HETATM   42  O   UNK     0     -31.710  -1.871   1.578  0.00  0.00    -0.650 OA
BRANCH  41  43
HETATM   43  O   UNK     0     -29.871  -1.038   2.632  0.00  0.00    -0.776 OA
HETATM   44  H   UNK     0     -30.065  -0.066   2.428  0.00  0.00     0.167 HD
ENDBRANCH  41  43
ENDBRANCH  40  41
ENDBRANCH  39  40
ENDBRANCH  27  39
BRANCH  11  45
HETATM   45  C   UNK     0     -20.049  -2.071   4.377  0.00  0.00     0.051 C 
BRANCH  45  46
HETATM   46  C   UNK     0     -19.645  -2.514   5.736  0.00  0.00     0.114 C 
BRANCH  46  47
HETATM   47  C   UNK     0     -19.750  -1.330   6.636  0.00  0.00     0.139 C 
HETATM   48  O   UNK     0     -18.741  -0.964   7.254  0.00  0.00    -0.650 OA
BRANCH  47  49
HETATM   49  O   UNK     0     -20.939  -0.659   6.779  0.00  0.00    -0.776 OA
HETATM   50  H   UNK     0     -21.105  -0.002   7.551  0.00  0.00     0.167 HD
ENDBRANCH  47  49
ENDBRANCH  46  47
ENDBRANCH  45  46
ENDBRANCH  11  45
BRANCH  18  51
HETATM   51  C   UNK     0     -25.566   1.561   2.111  0.00  0.00     0.051 C 
BRANCH  51  52
HETATM   52  C   UNK     0     -26.413   2.100   3.255  0.00  0.00     0.114 C 
BRANCH  52  53
HETATM   53  C   UNK     0     -27.750   1.475   3.290  0.00  0.00     0.139 C 
HETATM   54  O   UNK     0     -28.507   1.573   2.311  0.00  0.00    -0.650 OA
BRANCH  53  55
HETATM   55  O   UNK     0     -28.151   0.790   4.411  0.00  0.00    -0.776 OA
HETATM   56  H   UNK     0     -28.670   1.165   5.169  0.00  0.00     0.167 HD
ENDBRANCH  53  55
ENDBRANCH  52  53
ENDBRANCH  51  52
ENDBRANCH  18  51
TORSDOF 16
ENDMDL
MODEL 13
REMARK VINA RESULT:      -7.6     11.254     15.917
REMARK  16 active torsions:
REMARK  status: ('A' for Active; 'I' for Inactive)
REMARK    1  A    between atoms: C_6  and  C_7 
REMARK    2  A    between atoms: C_7  and  C_8 
REMARK    3  A    between atoms: C_8  and  C_9 
REMARK    4  A    between atoms: C_9  and  O_11 
REMARK    5  A    between atoms: C_16  and  C_17 
REMARK    6  A    between atoms: C_17  and  C_18 
REMARK    7  A    between atoms: C_18  and  C_19 
REMARK    8  A    between atoms: C_19  and  O_21 
REMARK    9  A    between atoms: C_28  and  C_29 
REMARK   10  A    between atoms: C_29  and  C_30 
REMARK   11  A    between atoms: C_30  and  C_31 
REMARK   12  A    between atoms: C_31  and  O_33 
REMARK   13  A    between atoms: C_42  and  C_43 
REMARK   14  A    between atoms: C_43  and  C_44 
REMARK   15  A    between atoms: C_44  and  C_45 
REMARK   16  A    between atoms: C_45  and  O_47 
ROOT
HETATM    1  C   UNK     0       2.425 -15.738 -11.151  0.00  0.00     0.051 C 
HETATM    2  C   UNK     0       2.455 -14.959 -12.450  0.00  0.00    -0.031 A 
HETATM    3  C   UNK     0       1.428 -14.292 -13.099  0.00  0.00     0.021 A 
HETATM    4  N   UNK     0       1.905 -13.760 -14.250  0.00  0.00    -0.361 N 
HETATM    5  C   UNK     0       3.215 -14.066 -14.344  0.00  0.00     0.022 A 
HETATM    6  C   UNK     0       3.591 -14.818 -13.236  0.00  0.00    -0.027 A 
HETATM    7  C   UNK     0       4.221 -13.642 -15.368  0.00  0.00     0.115 C 
HETATM    8  C   UNK     0       4.174 -12.190 -15.809  0.00  0.00     0.021 A 
HETATM    9  N   UNK     0       3.883 -11.103 -15.078  0.00  0.00    -0.361 N 
HETATM   10  C   UNK     0       3.871 -10.034 -15.902  0.00  0.00     0.022 A 
HETATM   11  C   UNK     0       4.170 -10.443 -17.199  0.00  0.00    -0.027 A 
HETATM   12  C   UNK     0       4.363 -11.800 -17.147  0.00  0.00    -0.031 A 
HETATM   13  C   UNK     0       4.716 -12.678 -18.326  0.00  0.00     0.051 C 
HETATM   14  C   UNK     0       3.525  -8.600 -15.513  0.00  0.00     0.115 C 
HETATM   15  C   UNK     0       2.115  -8.432 -14.970  0.00  0.00     0.021 A 
HETATM   16  N   UNK     0       1.569  -9.041 -13.901  0.00  0.00    -0.361 N 
HETATM   17  C   UNK     0       0.288  -8.679 -13.797  0.00  0.00     0.022 A 
HETATM   18  C   UNK     0      -0.012  -7.784 -14.843  0.00  0.00    -0.027 A 
HETATM   19  C   UNK     0       1.141  -7.636 -15.569  0.00  0.00    -0.031 A 
HETATM   20  C   UNK     0       1.267  -6.722 -16.775  0.00  0.00     0.051 C 
HETATM   21  C   UNK     0      -0.774  -9.133 -12.821  0.00  0.00     0.115 C 
HETATM   22  C   UNK     0      -0.713 -10.564 -12.340  0.00  0.00     0.022 A 
HETATM   23  N   UNK     0      -0.423 -11.665 -13.044  0.00  0.00    -0.361 N 
HETATM   24  C   UNK     0      -0.339 -12.705 -12.190  0.00  0.00     0.021 A 
HETATM   25  C   UNK     0      -0.592 -12.264 -10.905  0.00  0.00    -0.031 A 
HETATM   26  C   UNK     0      -0.652 -13.061  -9.619  0.00  0.00     0.051 C 
HETATM   27  C   UNK     0      -0.834 -10.897 -10.975  0.00  0.00    -0.027 A 
HETATM   28  C   UNK     0       0.056 -14.137 -12.505  0.00  0.00     0.115 C 
HETATM   29  H   UNK     0       1.303 -13.205 -15.007  0.00  0.00     0.165 HD
HETATM   30  H   UNK     0       3.736 -11.079 -13.970  0.00  0.00     0.165 HD
HETATM   31  H   UNK     0       2.110  -9.703 -13.176  0.00  0.00     0.165 HD
HETATM   32  H   UNK     0      -0.317 -11.727 -14.159  0.00  0.00     0.165 HD
ENDROOT
BRANCH   6  33
HETATM   33  C   UNK     0       4.931 -15.407 -12.873  0.00  0.00     0.051 C 
BRANCH  33  34
HETATM   34  C   UNK     0       5.841 -14.351 -12.292  0.00  0.00     0.114 C 
BRANCH  34  35
HETATM   35  C   UNK     0       7.156 -14.464 -12.986  0.00  0.00     0.139 C 
HETATM   36  O   UNK     0       7.211 -14.865 -14.185  0.00  0.00    -0.650 OA
BRANCH  35  37
HETATM   37  O   UNK     0       8.359 -14.141 -12.370  0.00  0.00    -0.776 OA
HETATM   38  H   UNK     0       9.226 -14.587 -12.622  0.00  0.00     0.167 HD
ENDBRANCH  35  37
ENDBRANCH  34  35
ENDBRANCH  33  34
ENDBRANCH   6  33
BRANCH  27  39
HETATM   39  C   UNK     0      -1.216 -10.080  -9.792  0.00  0.00     0.051 C 
BRANCH  39  40
HETATM   40  C   UNK     0      -0.537  -8.802  -9.583  0.00  0.00     0.114 C 
BRANCH  40  41
HETATM   41  C   UNK     0       0.905  -8.687  -9.575  0.00  0.00     0.139 C 
HETATM   42  O   UNK     0       1.665  -9.615  -9.880  0.00  0.00    -0.650 OA
BRANCH  41  43
HETATM   43  O   UNK     0       1.497  -7.448  -9.201  0.00  0.00    -0.776 OA
HETATM   44  H   UNK     0       0.953  -6.905  -8.541  0.00  0.00     0.167 HD
ENDBRANCH  41  43
ENDBRANCH  40  41
ENDBRANCH  39  40
ENDBRANCH  27  39
BRANCH  11  45
HETATM   45  C   UNK     0       4.280  -9.609 -18.447  0.00  0.00     0.051 C 
BRANCH  45  46
HETATM   46  C   UNK     0       2.977  -9.112 -18.960  0.00  0.00     0.114 C 
BRANCH  46  47
HETATM   47  C   UNK     0       3.176  -7.691 -19.366  0.00  0.00     0.139 C 
HETATM   48  O   UNK     0       2.323  -7.157 -20.089  0.00  0.00    -0.650 OA
BRANCH  47  49
HETATM   49  O   UNK     0       4.279  -6.989 -18.951  0.00  0.00    -0.776 OA
HETATM   50  H   UNK     0       4.915  -7.350 -18.230  0.00  0.00     0.167 HD
ENDBRANCH  47  49
ENDBRANCH  46  47
ENDBRANCH  45  46
ENDBRANCH  11  45
BRANCH  18  51
HETATM   51  C   UNK     0      -1.320  -7.091 -15.122  0.00  0.00     0.051 C 
BRANCH  51  52
HETATM   52  C   UNK     0      -1.239  -5.735 -14.436  0.00  0.00     0.114 C 
BRANCH  52  53
HETATM   53  C   UNK     0      -1.738  -4.650 -15.303  0.00  0.00     0.139 C 
HETATM   54  O   UNK     0      -1.831  -4.826 -16.528  0.00  0.00    -0.650 OA
BRANCH  53  55
HETATM   55  O   UNK     0      -2.095  -3.445 -14.747  0.00  0.00    -0.776 OA
HETATM   56  H   UNK     0      -3.004  -3.190 -14.440  0.00  0.00     0.167 HD
ENDBRANCH  53  55
ENDBRANCH  52  53
ENDBRANCH  51  52
ENDBRANCH  18  51
TORSDOF 16
ENDMDL
MODEL 14
REMARK VINA RESULT:      -7.6     23.841     26.100
REMARK  16 active torsions:
REMARK  status: ('A' for Active; 'I' for Inactive)
REMARK    1  A    between atoms: C_6  and  C_7 
REMARK    2  A    between atoms: C_7  and  C_8 
REMARK    3  A    between atoms: C_8  and  C_9 
REMARK    4  A    between atoms: C_9  and  O_11 
REMARK    5  A    between atoms: C_16  and  C_17 
REMARK    6  A    between atoms: C_17  and  C_18 
REMARK    7  A    between atoms: C_18  and  C_19 
REMARK    8  A    between atoms: C_19  and  O_21 
REMARK    9  A    between atoms: C_28  and  C_29 
REMARK   10  A    between atoms: C_29  and  C_30 
REMARK   11  A    between atoms: C_30  and  C_31 
REMARK   12  A    between atoms: C_31  and  O_33 
REMARK   13  A    between atoms: C_42  and  C_43 
REMARK   14  A    between atoms: C_43  and  C_44 
REMARK   15  A    between atoms: C_44  and  C_45 
REMARK   16  A    between atoms: C_45  and  O_47 
ROOT
HETATM    1  C   UNK     0     -18.001  -4.513   2.840  0.00  0.00     0.051 C 
HETATM    2  C   UNK     0     -16.566  -4.967   3.007  0.00  0.00    -0.031 A 
HETATM    3  C   UNK     0     -15.753  -5.658   2.122  0.00  0.00     0.021 A 
HETATM    4  N   UNK     0     -14.552  -5.879   2.706  0.00  0.00    -0.361 N 
HETATM    5  C   UNK     0     -14.578  -5.336   3.941  0.00  0.00     0.022 A 
HETATM    6  C   UNK     0     -15.824  -4.759   4.163  0.00  0.00    -0.027 A 
HETATM    7  C   UNK     0     -13.482  -5.222   4.954  0.00  0.00     0.115 C 
HETATM    8  C   UNK     0     -12.110  -4.829   4.434  0.00  0.00     0.021 A 
HETATM    9  N   UNK     0     -11.804  -3.986   3.436  0.00  0.00    -0.361 N 
HETATM   10  C   UNK     0     -10.466  -4.012   3.260  0.00  0.00     0.022 A 
HETATM   11  C   UNK     0      -9.894  -4.890   4.176  0.00  0.00    -0.027 A 
HETATM   12  C   UNK     0     -10.924  -5.408   4.919  0.00  0.00    -0.031 A 
HETATM   13  C   UNK     0     -10.773  -6.406   6.044  0.00  0.00     0.051 C 
HETATM   14  C   UNK     0      -9.683  -3.256   2.191  0.00  0.00     0.115 C 
HETATM   15  C   UNK     0     -10.065  -3.629   0.768  0.00  0.00     0.021 A 
HETATM   16  N   UNK     0     -11.279  -3.540   0.192  0.00  0.00    -0.361 N 
HETATM   17  C   UNK     0     -11.214  -4.032  -1.046  0.00  0.00     0.022 A 
HETATM   18  C   UNK     0      -9.893  -4.454  -1.294  0.00  0.00    -0.027 A 
HETATM   19  C   UNK     0      -9.183  -4.195  -0.151  0.00  0.00    -0.031 A 
HETATM   20  C   UNK     0      -7.697  -4.467  -0.000  0.00  0.00     0.051 C 
HETATM   21  C   UNK     0     -12.307  -4.225  -2.073  0.00  0.00     0.115 C 
HETATM   22  C   UNK     0     -13.687  -4.573  -1.567  0.00  0.00     0.022 A 
HETATM   23  N   UNK     0     -14.021  -5.406  -0.572  0.00  0.00    -0.361 N 
HETATM   24  C   UNK     0     -15.349  -5.305  -0.363  0.00  0.00     0.021 A 
HETATM   25  C   UNK     0     -15.885  -4.392  -1.252  0.00  0.00    -0.031 A 
HETATM   26  C   UNK     0     -17.329  -3.972  -1.431  0.00  0.00     0.051 C 
HETATM   27  C   UNK     0     -14.841  -3.911  -2.033  0.00  0.00    -0.027 A 
HETATM   28  C   UNK     0     -16.174  -5.983   0.717  0.00  0.00     0.115 C 
HETATM   29  H   UNK     0     -13.707  -6.451   2.258  0.00  0.00     0.165 HD
HETATM   30  H   UNK     0     -12.526  -3.333   2.886  0.00  0.00     0.165 HD
HETATM   31  H   UNK     0     -12.189  -3.076   0.653  0.00  0.00     0.165 HD
HETATM   32  H   UNK     0     -13.328  -6.106  -0.037  0.00  0.00     0.165 HD
ENDROOT
BRANCH   6  33
HETATM   33  C   UNK     0     -16.357  -4.038   5.374  0.00  0.00     0.051 C 
BRANCH  33  34
HETATM   34  C   UNK     0     -16.429  -2.550   5.123  0.00  0.00     0.114 C 
BRANCH  34  35
HETATM   35  C   UNK     0     -17.576  -2.019   5.914  0.00  0.00     0.139 C 
HETATM   36  O   UNK     0     -18.719  -1.904   5.382  0.00  0.00    -0.650 OA
BRANCH  35  37
HETATM   37  O   UNK     0     -17.455  -1.634   7.244  0.00  0.00    -0.776 OA
HETATM   38  H   UNK     0     -17.799  -0.748   7.577  0.00  0.00     0.167 HD
ENDBRANCH  35  37
ENDBRANCH  34  35
ENDBRANCH  33  34
ENDBRANCH   6  33
BRANCH  27  39
HETATM   39  C   UNK     0     -15.042  -2.955  -3.156  0.00  0.00     0.051 C 
BRANCH  39  40
HETATM   40  C   UNK     0     -15.629  -3.458  -4.398  0.00  0.00     0.114 C 
BRANCH  40  41
HETATM   41  C   UNK     0     -15.650  -4.866  -4.726  0.00  0.00     0.139 C 
HETATM   42  O   UNK     0     -14.655  -5.491  -5.117  0.00  0.00    -0.650 OA
BRANCH  41  43
HETATM   43  O   UNK     0     -16.871  -5.587  -4.598  0.00  0.00    -0.776 OA
HETATM   44  H   UNK     0     -16.914  -6.438  -5.145  0.00  0.00     0.167 HD
ENDBRANCH  41  43
ENDBRANCH  40  41
ENDBRANCH  39  40
ENDBRANCH  27  39
BRANCH  11  45
HETATM   45  C   UNK     0      -8.442  -5.239   4.365  0.00  0.00     0.051 C 
BRANCH  45  46
HETATM   46  C   UNK     0      -7.719  -4.340   5.300  0.00  0.00     0.114 C 
BRANCH  46  47
HETATM   47  C   UNK     0      -6.362  -4.106   4.727  0.00  0.00     0.139 C 
HETATM   48  O   UNK     0      -6.204  -4.235   3.505  0.00  0.00    -0.650 OA
BRANCH  47  49
HETATM   49  O   UNK     0      -5.309  -3.757   5.535  0.00  0.00    -0.776 OA
HETATM   50  H   UNK     0      -4.892  -4.416   6.202  0.00  0.00     0.167 HD
ENDBRANCH  47  49
ENDBRANCH  46  47
ENDBRANCH  45  46
ENDBRANCH  11  45
BRANCH  18  51
HETATM   51  C   UNK     0      -9.333  -5.052  -2.559  0.00  0.00     0.051 C 
BRANCH  51  52
HETATM   52  C   UNK     0      -8.764  -3.893  -3.363  0.00  0.00     0.114 C 
BRANCH  52  53
HETATM   53  C   UNK     0      -7.381  -4.156  -3.805  0.00  0.00     0.139 C 
HETATM   54  O   UNK     0      -6.714  -5.050  -3.260  0.00  0.00    -0.650 OA
BRANCH  53  55
HETATM   55  O   UNK     0      -6.837  -3.406  -4.818  0.00  0.00    -0.776 OA
HETATM   56  H   UNK     0      -6.864  -3.624  -5.786  0.00  0.00     0.167 HD
ENDBRANCH  53  55
ENDBRANCH  52  53
ENDBRANCH  51  52
ENDBRANCH  18  51
TORSDOF 16
ENDMDL
MODEL 15
REMARK VINA RESULT:      -7.6     20.814     23.690
REMARK  16 active torsions:
REMARK  status: ('A' for Active; 'I' for Inactive)
REMARK    1  A    between atoms: C_6  and  C_7 
REMARK    2  A    between atoms: C_7  and  C_8 
REMARK    3  A    between atoms: C_8  and  C_9 
REMARK    4  A    between atoms: C_9  and  O_11 
REMARK    5  A    between atoms: C_16  and  C_17 
REMARK    6  A    between atoms: C_17  and  C_18 
REMARK    7  A    between atoms: C_18  and  C_19 
REMARK    8  A    between atoms: C_19  and  O_21 
REMARK    9  A    between atoms: C_28  and  C_29 
REMARK   10  A    between atoms: C_29  and  C_30 
REMARK   11  A    between atoms: C_30  and  C_31 
REMARK   12  A    between atoms: C_31  and  O_33 
REMARK   13  A    between atoms: C_42  and  C_43 
REMARK   14  A    between atoms: C_43  and  C_44 
REMARK   15  A    between atoms: C_44  and  C_45 
REMARK   16  A    between atoms: C_45  and  O_47 
ROOT
HETATM    1  C   UNK     0     -15.166  -6.175  -4.522  0.00  0.00     0.051 C 
HETATM    2  C   UNK     0     -14.408  -6.095  -3.212  0.00  0.00    -0.031 A 
HETATM    3  C   UNK     0     -13.337  -6.854  -2.768  0.00  0.00     0.021 A 
HETATM    4  N   UNK     0     -13.000  -6.454  -1.519  0.00  0.00    -0.361 N 
HETATM    5  C   UNK     0     -13.828  -5.451  -1.161  0.00  0.00     0.022 A 
HETATM    6  C   UNK     0     -14.724  -5.203  -2.196  0.00  0.00    -0.027 A 
HETATM    7  C   UNK     0     -13.820  -4.605   0.074  0.00  0.00     0.115 C 
HETATM    8  C   UNK     0     -12.465  -4.124   0.562  0.00  0.00     0.021 A 
HETATM    9  N   UNK     0     -11.396  -3.762  -0.164  0.00  0.00    -0.361 N 
HETATM   10  C   UNK     0     -10.382  -3.495   0.687  0.00  0.00     0.022 A 
HETATM   11  C   UNK     0     -10.814  -3.681   1.997  0.00  0.00    -0.027 A 
HETATM   12  C   UNK     0     -12.125  -4.077   1.925  0.00  0.00    -0.031 A 
HETATM   13  C   UNK     0     -13.009  -4.391   3.111  0.00  0.00     0.051 C 
HETATM   14  C   UNK     0      -8.958  -3.107   0.300  0.00  0.00     0.115 C 
HETATM   15  C   UNK     0      -8.236  -4.160  -0.525  0.00  0.00     0.021 A 
HETATM   16  N   UNK     0      -8.609  -4.671  -1.713  0.00  0.00    -0.361 N 
HETATM   17  C   UNK     0      -7.744  -5.622  -2.072  0.00  0.00     0.022 A 
HETATM   18  C   UNK     0      -6.754  -5.730  -1.075  0.00  0.00    -0.027 A 
HETATM   19  C   UNK     0      -7.073  -4.808  -0.112  0.00  0.00    -0.031 A 
HETATM   20  C   UNK     0      -6.240  -4.565   1.133  0.00  0.00     0.051 C 
HETATM   21  C   UNK     0      -7.753  -6.541  -3.273  0.00  0.00     0.115 C 
HETATM   22  C   UNK     0      -9.096  -6.993  -3.796  0.00  0.00     0.022 A 
HETATM   23  N   UNK     0     -10.180  -7.355  -3.097  0.00  0.00    -0.361 N 
HETATM   24  C   UNK     0     -11.198  -7.541  -3.960  0.00  0.00     0.021 A 
HETATM   25  C   UNK     0     -10.757  -7.302  -5.248  0.00  0.00    -0.031 A 
HETATM   26  C   UNK     0     -11.517  -7.419  -6.553  0.00  0.00     0.051 C 
HETATM   27  C   UNK     0      -9.415  -6.950  -5.168  0.00  0.00    -0.027 A 
HETATM   28  C   UNK     0     -12.645  -7.868  -3.635  0.00  0.00     0.115 C 
HETATM   29  H   UNK     0     -12.206  -6.910  -0.884  0.00  0.00     0.165 HD
HETATM   30  H   UNK     0     -11.367  -3.645  -1.275  0.00  0.00     0.165 HD
HETATM   31  H   UNK     0      -9.473  -4.321  -2.335  0.00  0.00     0.165 HD
HETATM   32  H   UNK     0     -10.225  -7.526  -1.990  0.00  0.00     0.165 HD
ENDROOT
BRANCH   6  33
HETATM   33  C   UNK     0     -15.843  -4.197  -2.290  0.00  0.00     0.051 C 
BRANCH  33  34
HETATM   34  C   UNK     0     -17.117  -4.757  -1.703  0.00  0.00     0.114 C 
BRANCH  34  35
HETATM   35  C   UNK     0     -18.239  -4.340  -2.592  0.00  0.00     0.139 C 
HETATM   36  O   UNK     0     -18.001  -3.732  -3.675  0.00  0.00    -0.650 OA
BRANCH  35  37
HETATM   37  O   UNK     0     -19.571  -4.593  -2.286  0.00  0.00    -0.776 OA
HETATM   38  H   UNK     0     -20.068  -4.067  -1.586  0.00  0.00     0.167 HD
ENDBRANCH  35  37
ENDBRANCH  34  35
ENDBRANCH  33  34
ENDBRANCH   6  33
BRANCH  27  39
HETATM   39  C   UNK     0      -8.574  -6.686  -6.367  0.00  0.00     0.051 C 
BRANCH  39  40
HETATM   40  C   UNK     0      -8.099  -5.322  -6.596  0.00  0.00     0.114 C 
BRANCH  40  41
HETATM   41  C   UNK     0      -6.747  -4.913  -6.286  0.00  0.00     0.139 C 
HETATM   42  O   UNK     0      -5.743  -5.524  -6.677  0.00  0.00    -0.650 OA
BRANCH  41  43
HETATM   43  O   UNK     0      -6.541  -3.750  -5.491  0.00  0.00    -0.776 OA
HETATM   44  H   UNK     0      -6.562  -2.880  -6.009  0.00  0.00     0.167 HD
ENDBRANCH  41  43
ENDBRANCH  40  41
ENDBRANCH  39  40
ENDBRANCH  27  39
BRANCH  11  45
HETATM   45  C   UNK     0     -10.044  -3.498   3.277  0.00  0.00     0.051 C 
BRANCH  45  46
HETATM   46  C   UNK     0      -9.031  -4.554   3.532  0.00  0.00     0.114 C 
BRANCH  46  47
HETATM   47  C   UNK     0      -7.872  -3.901   4.205  0.00  0.00     0.139 C 
HETATM   48  O   UNK     0      -7.021  -4.619   4.749  0.00  0.00    -0.650 OA
BRANCH  47  49
HETATM   49  O   UNK     0      -7.748  -2.535   4.223  0.00  0.00    -0.776 OA
HETATM   50  H   UNK     0      -6.995  -2.049   3.722  0.00  0.00     0.167 HD
ENDBRANCH  47  49
ENDBRANCH  46  47
ENDBRANCH  45  46
ENDBRANCH  11  45
BRANCH  18  51
HETATM   51  C   UNK     0      -5.559  -6.646  -1.051  0.00  0.00     0.051 C 
BRANCH  51  52
HETATM   52  C   UNK     0      -4.429  -5.890  -1.734  0.00  0.00     0.114 C 
BRANCH  52  53
HETATM   53  C   UNK     0      -4.192  -6.379  -3.106  0.00  0.00     0.139 C 
HETATM   54  O   UNK     0      -3.998  -7.588  -3.310  0.00  0.00    -0.650 OA
BRANCH  53  55
HETATM   55  O   UNK     0      -4.183  -5.490  -4.153  0.00  0.00    -0.776 OA
HETATM   56  H   UNK     0      -4.960  -4.967  -4.482  0.00  0.00     0.167 HD
ENDBRANCH  53  55
ENDBRANCH  52  53
ENDBRANCH  51  52
ENDBRANCH  18  51
TORSDOF 16
ENDMDL
MODEL 16
REMARK VINA RESULT:      -7.5     20.640     22.964
REMARK  16 active torsions:
REMARK  status: ('A' for Active; 'I' for Inactive)
REMARK    1  A    between atoms: C_6  and  C_7 
REMARK    2  A    between atoms: C_7  and  C_8 
REMARK    3  A    between atoms: C_8  and  C_9 
REMARK    4  A    between atoms: C_9  and  O_11 
REMARK    5  A    between atoms: C_16  and  C_17 
REMARK    6  A    between atoms: C_17  and  C_18 
REMARK    7  A    between atoms: C_18  and  C_19 
REMARK    8  A    between atoms: C_19  and  O_21 
REMARK    9  A    between atoms: C_28  and  C_29 
REMARK   10  A    between atoms: C_29  and  C_30 
REMARK   11  A    between atoms: C_30  and  C_31 
REMARK   12  A    between atoms: C_31  and  O_33 
REMARK   13  A    between atoms: C_42  and  C_43 
REMARK   14  A    between atoms: C_43  and  C_44 
REMARK   15  A    between atoms: C_44  and  C_45 
REMARK   16  A    between atoms: C_45  and  O_47 
ROOT
HETATM    1  C   UNK     0      -8.013  -3.574   4.544  0.00  0.00     0.051 C 
HETATM    2  C   UNK     0      -7.811  -4.335   3.250  0.00  0.00    -0.031 A 
HETATM    3  C   UNK     0      -8.622  -5.286   2.652  0.00  0.00     0.021 A 
HETATM    4  N   UNK     0      -8.028  -5.723   1.516  0.00  0.00    -0.361 N 
HETATM    5  C   UNK     0      -6.860  -5.064   1.372  0.00  0.00     0.022 A 
HETATM    6  C   UNK     0      -6.691  -4.190   2.441  0.00  0.00    -0.027 A 
HETATM    7  C   UNK     0      -5.874  -5.108   0.246  0.00  0.00     0.115 C 
HETATM    8  C   UNK     0      -6.446  -5.107  -1.160  0.00  0.00     0.021 A 
HETATM    9  N   UNK     0      -7.532  -4.467  -1.621  0.00  0.00    -0.361 N 
HETATM   10  C   UNK     0      -7.716  -4.827  -2.909  0.00  0.00     0.022 A 
HETATM   11  C   UNK     0      -6.715  -5.715  -3.291  0.00  0.00    -0.027 A 
HETATM   12  C   UNK     0      -5.911  -5.895  -2.195  0.00  0.00    -0.031 A 
HETATM   13  C   UNK     0      -4.686  -6.780  -2.145  0.00  0.00     0.051 C 
HETATM   14  C   UNK     0      -8.868  -4.391  -3.811  0.00  0.00     0.115 C 
HETATM   15  C   UNK     0     -10.239  -4.809  -3.304  0.00  0.00     0.021 A 
HETATM   16  N   UNK     0     -10.809  -4.495  -2.126  0.00  0.00    -0.361 N 
HETATM   17  C   UNK     0     -11.988  -5.115  -2.031  0.00  0.00     0.022 A 
HETATM   18  C   UNK     0     -12.200  -5.860  -3.208  0.00  0.00    -0.027 A 
HETATM   19  C   UNK     0     -11.098  -5.659  -3.997  0.00  0.00    -0.031 A 
HETATM   20  C   UNK     0     -10.932  -6.257  -5.383  0.00  0.00     0.051 C 
HETATM   21  C   UNK     0     -12.979  -5.149  -0.889  0.00  0.00     0.115 C 
HETATM   22  C   UNK     0     -12.425  -5.107   0.516  0.00  0.00     0.022 A 
HETATM   23  N   UNK     0     -11.343  -5.730   1.001  0.00  0.00    -0.361 N 
HETATM   24  C   UNK     0     -11.135  -5.297   2.261  0.00  0.00     0.021 A 
HETATM   25  C   UNK     0     -12.112  -4.381   2.599  0.00  0.00    -0.031 A 
HETATM   26  C   UNK     0     -12.324  -3.652   3.910  0.00  0.00     0.051 C 
HETATM   27  C   UNK     0     -12.950  -4.243   1.498  0.00  0.00    -0.027 A 
HETATM   28  C   UNK     0      -9.981  -5.646   3.185  0.00  0.00     0.115 C 
HETATM   29  H   UNK     0      -8.420  -6.522   0.844  0.00  0.00     0.165 HD
HETATM   30  H   UNK     0      -8.143  -3.723  -1.054  0.00  0.00     0.165 HD
HETATM   31  H   UNK     0     -10.394  -3.784  -1.365  0.00  0.00     0.165 HD
HETATM   32  H   UNK     0     -10.741  -6.514   0.473  0.00  0.00     0.165 HD
ENDROOT
BRANCH   6  33
HETATM   33  C   UNK     0      -5.560  -3.242   2.749  0.00  0.00     0.051 C 
BRANCH  33  34
HETATM   34  C   UNK     0      -4.270  -3.998   2.963  0.00  0.00     0.114 C 
BRANCH  34  35
HETATM   35  C   UNK     0      -3.833  -3.748   4.366  0.00  0.00     0.139 C 
HETATM   36  O   UNK     0      -2.600  -3.713   4.653  0.00  0.00    -0.650 OA
BRANCH  35  37
HETATM   37  O   UNK     0      -4.731  -3.541   5.406  0.00  0.00    -0.776 OA
HETATM   38  H   UNK     0      -4.695  -2.720   5.988  0.00  0.00     0.167 HD
ENDBRANCH  35  37
ENDBRANCH  34  35
ENDBRANCH  33  34
ENDBRANCH   6  33
BRANCH  27  39
HETATM   39  C   UNK     0     -14.168  -3.388   1.509  0.00  0.00     0.051 C 
BRANCH  39  40
HETATM   40  C   UNK     0     -15.476  -4.043   1.525  0.00  0.00     0.114 C 
BRANCH  40  41
HETATM   41  C   UNK     0     -16.401  -3.944   0.419  0.00  0.00     0.139 C 
HETATM   42  O   UNK     0     -17.373  -4.698   0.271  0.00  0.00    -0.650 OA
BRANCH  41  43
HETATM   43  O   UNK     0     -16.199  -2.933  -0.563  0.00  0.00    -0.776 OA
HETATM   44  H   UNK     0     -16.815  -2.998  -1.364  0.00  0.00     0.167 HD
ENDBRANCH  41  43
ENDBRANCH  40  41
ENDBRANCH  39  40
ENDBRANCH  27  39
BRANCH  11  45
HETATM   45  C   UNK     0      -6.502  -6.375  -4.627  0.00  0.00     0.051 C 
BRANCH  45  46
HETATM   46  C   UNK     0      -6.575  -5.445  -5.782  0.00  0.00     0.114 C 
BRANCH  46  47
HETATM   47  C   UNK     0      -5.539  -5.877  -6.764  0.00  0.00     0.139 C 
HETATM   48  O   UNK     0      -4.374  -5.487  -6.605  0.00  0.00    -0.650 OA
BRANCH  47  49
HETATM   49  O   UNK     0      -5.868  -6.687  -7.821  0.00  0.00    -0.776 OA
HETATM   50  H   UNK     0      -5.837  -6.355  -8.792  0.00  0.00     0.167 HD
ENDBRANCH  47  49
ENDBRANCH  46  47
ENDBRANCH  45  46
ENDBRANCH  11  45
BRANCH  18  51
HETATM   51  C   UNK     0     -13.397  -6.700  -3.569  0.00  0.00     0.051 C 
BRANCH  51  52
HETATM   52  C   UNK     0     -14.350  -5.783  -4.321  0.00  0.00     0.114 C 
BRANCH  52  53
HETATM   53  C   UNK     0     -15.055  -6.494  -5.405  0.00  0.00     0.139 C 
HETATM   54  O   UNK     0     -15.188  -7.727  -5.357  0.00  0.00    -0.650 OA
BRANCH  53  55
HETATM   55  O   UNK     0     -15.560  -5.784  -6.467  0.00  0.00    -0.776 OA
HETATM   56  H   UNK     0     -15.040  -5.201  -7.080  0.00  0.00     0.167 HD
ENDBRANCH  53  55
ENDBRANCH  52  53
ENDBRANCH  51  52
ENDBRANCH  18  51
TORSDOF 16
ENDMDL
MODEL 17
REMARK VINA RESULT:      -7.5     27.141     29.892
REMARK  16 active torsions:
REMARK  status: ('A' for Active; 'I' for Inactive)
REMARK    1  A    between atoms: C_6  and  C_7 
REMARK    2  A    between atoms: C_7  and  C_8 
REMARK    3  A    between atoms: C_8  and  C_9 
REMARK    4  A    between atoms: C_9  and  O_11 
REMARK    5  A    between atoms: C_16  and  C_17 
REMARK    6  A    between atoms: C_17  and  C_18 
REMARK    7  A    between atoms: C_18  and  C_19 
REMARK    8  A    between atoms: C_19  and  O_21 
REMARK    9  A    between atoms: C_28  and  C_29 
REMARK   10  A    between atoms: C_29  and  C_30 
REMARK   11  A    between atoms: C_30  and  C_31 
REMARK   12  A    between atoms: C_31  and  O_33 
REMARK   13  A    between atoms: C_42  and  C_43 
REMARK   14  A    between atoms: C_43  and  C_44 
REMARK   15  A    between atoms: C_44  and  C_45 
REMARK   16  A    between atoms: C_45  and  O_47 
ROOT
HETATM    1  C   UNK     0      21.303  18.872 -10.280  0.00  0.00     0.051 C 
HETATM    2  C   UNK     0      21.122  18.366  -8.863  0.00  0.00    -0.031 A 
HETATM    3  C   UNK     0      20.202  18.753  -7.902  0.00  0.00     0.021 A 
HETATM    4  N   UNK     0      20.429  18.052  -6.766  0.00  0.00    -0.361 N 
HETATM    5  C   UNK     0      21.468  17.220  -6.985  0.00  0.00     0.022 A 
HETATM    6  C   UNK     0      21.927  17.392  -8.287  0.00  0.00    -0.027 A 
HETATM    7  C   UNK     0      22.054  16.172  -6.091  0.00  0.00     0.115 C 
HETATM    8  C   UNK     0      21.072  15.304  -5.324  0.00  0.00     0.021 A 
HETATM    9  N   UNK     0      19.872  14.850  -5.718  0.00  0.00    -0.361 N 
HETATM   10  C   UNK     0      19.310  14.195  -4.680  0.00  0.00     0.022 A 
HETATM   11  C   UNK     0      20.176  14.219  -3.591  0.00  0.00    -0.027 A 
HETATM   12  C   UNK     0      21.288  14.916  -3.990  0.00  0.00    -0.031 A 
HETATM   13  C   UNK     0      22.501  15.191  -3.130  0.00  0.00     0.051 C 
HETATM   14  C   UNK     0      17.919  13.568  -4.657  0.00  0.00     0.115 C 
HETATM   15  C   UNK     0      16.792  14.564  -4.881  0.00  0.00     0.021 A 
HETATM   16  N   UNK     0      16.605  15.368  -5.945  0.00  0.00    -0.361 N 
HETATM   17  C   UNK     0      15.540  16.142  -5.727  0.00  0.00     0.022 A 
HETATM   18  C   UNK     0      15.001  15.821  -4.466  0.00  0.00    -0.027 A 
HETATM   19  C   UNK     0      15.793  14.830  -3.947  0.00  0.00    -0.031 A 
HETATM   20  C   UNK     0      15.542  14.163  -2.606  0.00  0.00     0.051 C 
HETATM   21  C   UNK     0      14.957  17.252  -6.572  0.00  0.00     0.115 C 
HETATM   22  C   UNK     0      15.919  18.097  -7.374  0.00  0.00     0.022 A 
HETATM   23  N   UNK     0      17.121  18.559  -7.009  0.00  0.00    -0.361 N 
HETATM   24  C   UNK     0      17.695  19.141  -8.081  0.00  0.00     0.021 A 
HETATM   25  C   UNK     0      16.837  19.060  -9.161  0.00  0.00    -0.031 A 
HETATM   26  C   UNK     0      17.017  19.601 -10.564  0.00  0.00     0.051 C 
HETATM   27  C   UNK     0      15.693  18.396  -8.733  0.00  0.00    -0.027 A 
HETATM   28  C   UNK     0      19.093  19.727  -8.184  0.00  0.00     0.115 C 
HETATM   29  H   UNK     0      19.879  18.178  -5.804  0.00  0.00     0.165 HD
HETATM   30  H   UNK     0      19.440  14.947  -6.744  0.00  0.00     0.165 HD
HETATM   31  H   UNK     0      17.209  15.356  -6.889  0.00  0.00     0.165 HD
HETATM   32  H   UNK     0      17.559  18.518  -5.977  0.00  0.00     0.165 HD
ENDROOT
BRANCH   6  33
HETATM   33  C   UNK     0      23.060  16.713  -9.014  0.00  0.00     0.051 C 
BRANCH  33  34
HETATM   34  C   UNK     0      22.783  15.237  -9.175  0.00  0.00     0.114 C 
BRANCH  34  35
HETATM   35  C   UNK     0      24.079  14.519  -9.010  0.00  0.00     0.139 C 
HETATM   36  O   UNK     0      24.514  13.768  -9.932  0.00  0.00    -0.650 OA
BRANCH  35  37
HETATM   37  O   UNK     0      24.860  14.634  -7.866  0.00  0.00    -0.776 OA
HETATM   38  H   UNK     0      24.922  15.495  -7.347  0.00  0.00     0.167 HD
ENDBRANCH  35  37
ENDBRANCH  34  35
ENDBRANCH  33  34
ENDBRANCH   6  33
BRANCH  27  39
HETATM   39  C   UNK     0      14.507  18.181  -9.605  0.00  0.00     0.051 C 
BRANCH  39  40
HETATM   40  C   UNK     0      13.285  18.929  -9.312  0.00  0.00     0.114 C 
BRANCH  40  41
HETATM   41  C   UNK     0      12.021  18.274  -9.059  0.00  0.00     0.139 C 
HETATM   42  O   UNK     0      10.923  18.784  -9.318  0.00  0.00    -0.650 OA
BRANCH  41  43
HETATM   43  O   UNK     0      12.021  16.972  -8.482  0.00  0.00    -0.776 OA
HETATM   44  H   UNK     0      12.204  16.223  -9.139  0.00  0.00     0.167 HD
ENDBRANCH  41  43
ENDBRANCH  40  41
ENDBRANCH  39  40
ENDBRANCH  27  39
BRANCH  11  45
HETATM   45  C   UNK     0      19.987  13.617  -2.225  0.00  0.00     0.051 C 
BRANCH  45  46
HETATM   46  C   UNK     0      19.024  14.352  -1.366  0.00  0.00     0.114 C 
BRANCH  46  47
HETATM   47  C   UNK     0      18.567  13.408  -0.306  0.00  0.00     0.139 C 
HETATM   48  O   UNK     0      19.314  12.475   0.018  0.00  0.00    -0.650 OA
BRANCH  47  49
HETATM   49  O   UNK     0      17.344  13.566   0.297  0.00  0.00    -0.776 OA
HETATM   50  H   UNK     0      17.219  13.461   1.310  0.00  0.00     0.167 HD
ENDBRANCH  47  49
ENDBRANCH  46  47
ENDBRANCH  45  46
ENDBRANCH  11  45
BRANCH  18  51
HETATM   51  C   UNK     0      13.784  16.411  -3.800  0.00  0.00     0.051 C 
BRANCH  51  52
HETATM   52  C   UNK     0      12.660  15.404  -3.998  0.00  0.00     0.114 C 
BRANCH  52  53
HETATM   53  C   UNK     0      11.755  15.800  -5.094  0.00  0.00     0.139 C 
HETATM   54  O   UNK     0      11.023  16.795  -4.968  0.00  0.00    -0.650 OA
BRANCH  53  55
HETATM   55  O   UNK     0      11.726  15.060  -6.252  0.00  0.00    -0.776 OA
HETATM   56  H   UNK     0      10.926  14.622  -6.644  0.00  0.00     0.167 HD
ENDBRANCH  53  55
ENDBRANCH  52  53
ENDBRANCH  51  52
ENDBRANCH  18  51
TORSDOF 16
ENDMDL
MODEL 18
REMARK VINA RESULT:      -7.5     12.006     15.360
REMARK  16 active torsions:
REMARK  status: ('A' for Active; 'I' for Inactive)
REMARK    1  A    between atoms: C_6  and  C_7 
REMARK    2  A    between atoms: C_7  and  C_8 
REMARK    3  A    between atoms: C_8  and  C_9 
REMARK    4  A    between atoms: C_9  and  O_11 
REMARK    5  A    between atoms: C_16  and  C_17 
REMARK    6  A    between atoms: C_17  and  C_18 
REMARK    7  A    between atoms: C_18  and  C_19 
REMARK    8  A    between atoms: C_19  and  O_21 
REMARK    9  A    between atoms: C_28  and  C_29 
REMARK   10  A    between atoms: C_29  and  C_30 
REMARK   11  A    between atoms: C_30  and  C_31 
REMARK   12  A    between atoms: C_31  and  O_33 
REMARK   13  A    between atoms: C_42  and  C_43 
REMARK   14  A    between atoms: C_43  and  C_44 
REMARK   15  A    between atoms: C_44  and  C_45 
REMARK   16  A    between atoms: C_45  and  O_47 
ROOT
HETATM    1  C   UNK     0       3.804  -9.327 -19.260  0.00  0.00     0.051 C 
HETATM    2  C   UNK     0       3.928 -10.058 -17.939  0.00  0.00    -0.031 A 
HETATM    3  C   UNK     0       3.835  -9.564 -16.647  0.00  0.00     0.021 A 
HETATM    4  N   UNK     0       4.043 -10.576 -15.772  0.00  0.00    -0.361 N 
HETATM    5  C   UNK     0       4.258 -11.706 -16.477  0.00  0.00     0.022 A 
HETATM    6  C   UNK     0       4.196 -11.417 -17.836  0.00  0.00    -0.027 A 
HETATM    7  C   UNK     0       4.445 -13.110 -15.992  0.00  0.00     0.115 C 
HETATM    8  C   UNK     0       3.530 -13.572 -14.872  0.00  0.00     0.021 A 
HETATM    9  N   UNK     0       2.243 -13.257 -14.661  0.00  0.00    -0.361 N 
HETATM   10  C   UNK     0       1.859 -13.821 -13.497  0.00  0.00     0.022 A 
HETATM   11  C   UNK     0       2.925 -14.527 -12.948  0.00  0.00    -0.027 A 
HETATM   12  C   UNK     0       3.981 -14.374 -13.809  0.00  0.00    -0.031 A 
HETATM   13  C   UNK     0       5.356 -14.975 -13.622  0.00  0.00     0.051 C 
HETATM   14  C   UNK     0       0.493 -13.675 -12.831  0.00  0.00     0.115 C 
HETATM   15  C   UNK     0       0.135 -12.242 -12.470  0.00  0.00     0.021 A 
HETATM   16  N   UNK     0       0.041 -11.185 -13.299  0.00  0.00    -0.361 N 
HETATM   17  C   UNK     0      -0.227 -10.090 -12.584  0.00  0.00     0.022 A 
HETATM   18  C   UNK     0      -0.322 -10.453 -11.226  0.00  0.00    -0.027 A 
HETATM   19  C   UNK     0      -0.095 -11.803 -11.168  0.00  0.00    -0.031 A 
HETATM   20  C   UNK     0      -0.141 -12.613  -9.885  0.00  0.00     0.051 C 
HETATM   21  C   UNK     0      -0.358  -8.650 -13.025  0.00  0.00     0.115 C 
HETATM   22  C   UNK     0       0.516  -8.188 -14.167  0.00  0.00     0.022 A 
HETATM   23  N   UNK     0       1.799  -8.489 -14.405  0.00  0.00    -0.361 N 
HETATM   24  C   UNK     0       2.137  -7.982 -15.608  0.00  0.00     0.021 A 
HETATM   25  C   UNK     0       1.048  -7.329 -16.153  0.00  0.00    -0.031 A 
HETATM   26  C   UNK     0       0.948  -6.571 -17.460  0.00  0.00     0.051 C 
HETATM   27  C   UNK     0      -0.001  -7.448 -15.249  0.00  0.00    -0.027 A 
HETATM   28  C   UNK     0       3.455  -8.142 -16.347  0.00  0.00     0.115 C 
HETATM   29  H   UNK     0       4.076 -10.477 -14.662  0.00  0.00     0.165 HD
HETATM   30  H   UNK     0       1.587 -12.678 -15.357  0.00  0.00     0.165 HD
HETATM   31  H   UNK     0       0.118 -11.220 -14.417  0.00  0.00     0.165 HD
HETATM   32  H   UNK     0       2.492  -9.026 -13.706  0.00  0.00     0.165 HD
ENDROOT
BRANCH   6  33
HETATM   33  C   UNK     0       4.372 -12.322 -19.029  0.00  0.00     0.051 C 
BRANCH  33  34
HETATM   34  C   UNK     0       5.836 -12.599 -19.280  0.00  0.00     0.114 C 
BRANCH  34  35
HETATM   35  C   UNK     0       5.937 -13.959 -19.883  0.00  0.00     0.139 C 
HETATM   36  O   UNK     0       5.883 -14.987 -19.147  0.00  0.00    -0.650 OA
BRANCH  35  37
HETATM   37  O   UNK     0       6.089 -14.163 -21.249  0.00  0.00    -0.776 OA
HETATM   38  H   UNK     0       6.726 -14.850 -21.619  0.00  0.00     0.167 HD
ENDBRANCH  35  37
ENDBRANCH  34  35
ENDBRANCH  33  34
ENDBRANCH   6  33
BRANCH  27  39
HETATM   39  C   UNK     0      -1.328  -6.806 -15.459  0.00  0.00     0.051 C 
BRANCH  39  40
HETATM   40  C   UNK     0      -1.708  -5.696 -14.587  0.00  0.00     0.114 C 
BRANCH  40  41
HETATM   41  C   UNK     0      -1.975  -4.370 -15.099  0.00  0.00     0.139 C 
HETATM   42  O   UNK     0      -1.664  -3.331 -14.501  0.00  0.00    -0.650 OA
BRANCH  41  43
HETATM   43  O   UNK     0      -2.631  -4.234 -16.355  0.00  0.00    -0.776 OA
HETATM   44  H   UNK     0      -2.087  -3.754 -17.062  0.00  0.00     0.167 HD
ENDBRANCH  41  43
ENDBRANCH  40  41
ENDBRANCH  39  40
ENDBRANCH  27  39
BRANCH  11  45
HETATM   45  C   UNK     0       2.971 -15.321 -11.670  0.00  0.00     0.051 C 
BRANCH  45  46
HETATM   46  C   UNK     0       2.485 -16.718 -11.806  0.00  0.00     0.114 C 
BRANCH  46  47
HETATM   47  C   UNK     0       2.542 -17.339 -10.452  0.00  0.00     0.139 C 
HETATM   48  O   UNK     0       3.524 -18.036 -10.161  0.00  0.00    -0.650 OA
BRANCH  47  49
HETATM   49  O   UNK     0       1.528 -17.147  -9.547  0.00  0.00    -0.776 OA
HETATM   50  H   UNK     0       1.042 -16.247  -9.457  0.00  0.00     0.167 HD
ENDBRANCH  47  49
ENDBRANCH  46  47
ENDBRANCH  45  46
ENDBRANCH  11  45
BRANCH  18  51
HETATM   51  C   UNK     0      -0.634  -9.564 -10.049  0.00  0.00     0.051 C 
BRANCH  51  52
HETATM   52  C   UNK     0       0.697  -8.993  -9.583  0.00  0.00     0.114 C 
BRANCH  52  53
HETATM   53  C   UNK     0       0.677  -7.518  -9.539  0.00  0.00     0.139 C 
HETATM   54  O   UNK     0      -0.357  -6.901  -9.842  0.00  0.00    -0.650 OA
BRANCH  53  55
HETATM   55  O   UNK     0       1.808  -6.833  -9.166  0.00  0.00    -0.776 OA
HETATM   56  H   UNK     0       1.833  -5.970  -8.677  0.00  0.00     0.167 HD
ENDBRANCH  53  55
ENDBRANCH  52  53
ENDBRANCH  51  52
ENDBRANCH  18  51
TORSDOF 16
ENDMDL
MODEL 19
REMARK VINA RESULT:      -7.5     13.504     19.031
REMARK  16 active torsions:
REMARK  status: ('A' for Active; 'I' for Inactive)
REMARK    1  A    between atoms: C_6  and  C_7 
REMARK    2  A    between atoms: C_7  and  C_8 
REMARK    3  A    between atoms: C_8  and  C_9 
REMARK    4  A    between atoms: C_9  and  O_11 
REMARK    5  A    between atoms: C_16  and  C_17 
REMARK    6  A    between atoms: C_17  and  C_18 
REMARK    7  A    between atoms: C_18  and  C_19 
REMARK    8  A    between atoms: C_19  and  O_21 
REMARK    9  A    between atoms: C_28  and  C_29 
REMARK   10  A    between atoms: C_29  and  C_30 
REMARK   11  A    between atoms: C_30  and  C_31 
REMARK   12  A    between atoms: C_31  and  O_33 
REMARK   13  A    between atoms: C_42  and  C_43 
REMARK   14  A    between atoms: C_43  and  C_44 
REMARK   15  A    between atoms: C_44  and  C_45 
REMARK   16  A    between atoms: C_45  and  O_47 
ROOT
HETATM    1  C   UNK     0       3.405 -11.468 -25.483  0.00  0.00     0.051 C 
HETATM    2  C   UNK     0       2.883 -11.076 -24.116  0.00  0.00    -0.031 A 
HETATM    3  C   UNK     0       2.447 -11.883 -23.076  0.00  0.00     0.021 A 
HETATM    4  N   UNK     0       2.037 -11.099 -22.051  0.00  0.00    -0.361 N 
HETATM    5  C   UNK     0       2.210  -9.811 -22.411  0.00  0.00     0.022 A 
HETATM    6  C   UNK     0       2.735  -9.760 -23.698  0.00  0.00    -0.027 A 
HETATM    7  C   UNK     0       2.003  -8.563 -21.611  0.00  0.00     0.115 C 
HETATM    8  C   UNK     0       2.488  -8.587 -20.172  0.00  0.00     0.021 A 
HETATM    9  N   UNK     0       3.570  -9.198 -19.665  0.00  0.00    -0.361 N 
HETATM   10  C   UNK     0       3.557  -9.029 -18.325  0.00  0.00     0.022 A 
HETATM   11  C   UNK     0       2.442  -8.281 -17.961  0.00  0.00    -0.027 A 
HETATM   12  C   UNK     0       1.764  -7.999 -19.120  0.00  0.00    -0.031 A 
HETATM   13  C   UNK     0       0.484  -7.199 -19.211  0.00  0.00     0.051 C 
HETATM   14  C   UNK     0       4.563  -9.608 -17.334  0.00  0.00     0.115 C 
HETATM   15  C   UNK     0       4.618 -11.127 -17.329  0.00  0.00     0.021 A 
HETATM   16  N   UNK     0       4.900 -11.942 -18.363  0.00  0.00    -0.361 N 
HETATM   17  C   UNK     0       4.776 -13.211 -17.967  0.00  0.00     0.022 A 
HETATM   18  C   UNK     0       4.404 -13.223 -16.608  0.00  0.00    -0.027 A 
HETATM   19  C   UNK     0       4.310 -11.912 -16.220  0.00  0.00    -0.031 A 
HETATM   20  C   UNK     0       3.966 -11.472 -14.809  0.00  0.00     0.051 C 
HETATM   21  C   UNK     0       4.911 -14.493 -18.757  0.00  0.00     0.115 C 
HETATM   22  C   UNK     0       4.473 -14.471 -20.203  0.00  0.00     0.022 A 
HETATM   23  N   UNK     0       3.403 -13.868 -20.737  0.00  0.00    -0.361 N 
HETATM   24  C   UNK     0       3.477 -13.983 -22.078  0.00  0.00     0.021 A 
HETATM   25  C   UNK     0       4.618 -14.686 -22.416  0.00  0.00    -0.031 A 
HETATM   26  C   UNK     0       5.112 -15.100 -23.786  0.00  0.00     0.051 C 
HETATM   27  C   UNK     0       5.272 -15.009 -21.232  0.00  0.00    -0.027 A 
HETATM   28  C   UNK     0       2.545 -13.382 -23.116  0.00  0.00     0.115 C 
HETATM   29  H   UNK     0       1.592 -11.461 -21.095  0.00  0.00     0.165 HD
HETATM   30  H   UNK     0       4.372  -9.706 -20.254  0.00  0.00     0.165 HD
HETATM   31  H   UNK     0       5.240 -11.617 -19.381  0.00  0.00     0.165 HD
HETATM   32  H   UNK     0       2.561 -13.393 -20.169  0.00  0.00     0.165 HD
ENDROOT
BRANCH   6  33
HETATM   33  C   UNK     0       3.099  -8.571 -24.551  0.00  0.00     0.051 C 
BRANCH  33  34
HETATM   34  C   UNK     0       4.532  -8.158 -24.309  0.00  0.00     0.114 C 
BRANCH  34  35
HETATM   35  C   UNK     0       5.084  -7.680 -25.609  0.00  0.00     0.139 C 
HETATM   36  O   UNK     0       4.844  -6.503 -26.009  0.00  0.00    -0.650 OA
BRANCH  35  37
HETATM   37  O   UNK     0       5.872  -8.479 -26.428  0.00  0.00    -0.776 OA
HETATM   38  H   UNK     0       5.473  -9.094 -27.119  0.00  0.00     0.167 HD
ENDBRANCH  35  37
ENDBRANCH  34  35
ENDBRANCH  33  34
ENDBRANCH   6  33
BRANCH  27  39
HETATM   39  C   UNK     0       6.511 -15.832 -21.189  0.00  0.00     0.051 C 
BRANCH  39  40
HETATM   40  C   UNK     0       7.676 -15.372 -21.944  0.00  0.00     0.114 C 
BRANCH  40  41
HETATM   41  C   UNK     0       8.771 -16.253 -22.283  0.00  0.00     0.139 C 
HETATM   42  O   UNK     0       8.897 -17.396 -21.823  0.00  0.00    -0.650 OA
BRANCH  41  43
HETATM   43  O   UNK     0       9.768 -15.798 -23.192  0.00  0.00    -0.776 OA
HETATM   44  H   UNK     0       9.445 -15.103 -23.855  0.00  0.00     0.167 HD
ENDBRANCH  41  43
ENDBRANCH  40  41
ENDBRANCH  39  40
ENDBRANCH  27  39
BRANCH  11  45
HETATM   45  C   UNK     0       2.013  -7.836 -16.589  0.00  0.00     0.051 C 
BRANCH  45  46
HETATM   46  C   UNK     0       1.239  -8.855 -15.835  0.00  0.00     0.114 C 
BRANCH  46  47
HETATM   47  C   UNK     0       1.067  -8.341 -14.446  0.00  0.00     0.139 C 
HETATM   48  O   UNK     0       0.693  -7.170 -14.290  0.00  0.00    -0.650 OA
BRANCH  47  49
HETATM   49  O   UNK     0       1.318  -9.145 -13.363  0.00  0.00    -0.776 OA
HETATM   50  H   UNK     0       0.565  -9.612 -12.844  0.00  0.00     0.167 HD
ENDBRANCH  47  49
ENDBRANCH  46  47
ENDBRANCH  45  46
ENDBRANCH  11  45
BRANCH  18  51
HETATM   51  C   UNK     0       4.173 -14.420 -15.722  0.00  0.00     0.051 C 
BRANCH  51  52
HETATM   52  C   UNK     0       5.389 -14.519 -14.814  0.00  0.00     0.114 C 
BRANCH  52  53
HETATM   53  C   UNK     0       6.502 -15.239 -15.463  0.00  0.00     0.139 C 
HETATM   54  O   UNK     0       7.673 -14.872 -15.275  0.00  0.00    -0.650 OA
BRANCH  53  55
HETATM   55  O   UNK     0       6.234 -16.313 -16.276  0.00  0.00    -0.776 OA
HETATM   56  H   UNK     0       6.876 -16.756 -16.890  0.00  0.00     0.167 HD
ENDBRANCH  53  55
ENDBRANCH  52  53
ENDBRANCH  51  52
ENDBRANCH  18  51
TORSDOF 16
ENDMDL
MODEL 20
REMARK VINA RESULT:      -7.4     27.897     31.315
REMARK  16 active torsions:
REMARK  status: ('A' for Active; 'I' for Inactive)
REMARK    1  A    between atoms: C_6  and  C_7 
REMARK    2  A    between atoms: C_7  and  C_8 
REMARK    3  A    between atoms: C_8  and  C_9 
REMARK    4  A    between atoms: C_9  and  O_11 
REMARK    5  A    between atoms: C_16  and  C_17 
REMARK    6  A    between atoms: C_17  and  C_18 
REMARK    7  A    between atoms: C_18  and  C_19 
REMARK    8  A    between atoms: C_19  and  O_21 
REMARK    9  A    between atoms: C_28  and  C_29 
REMARK   10  A    between atoms: C_29  and  C_30 
REMARK   11  A    between atoms: C_30  and  C_31 
REMARK   12  A    between atoms: C_31  and  O_33 
REMARK   13  A    between atoms: C_42  and  C_43 
REMARK   14  A    between atoms: C_43  and  C_44 
REMARK   15  A    between atoms: C_44  and  C_45 
REMARK   16  A    between atoms: C_45  and  O_47 
ROOT
HETATM    1  C   UNK     0      19.684  14.643  -2.260  0.00  0.00     0.051 C 
HETATM    2  C   UNK     0      19.853  15.039  -3.712  0.00  0.00    -0.031 A 
HETATM    3  C   UNK     0      19.059  14.732  -4.806  0.00  0.00     0.021 A 
HETATM    4  N   UNK     0      19.611  15.274  -5.918  0.00  0.00    -0.361 N 
HETATM    5  C   UNK     0      20.734  15.927  -5.555  0.00  0.00     0.022 A 
HETATM    6  C   UNK     0      20.917  15.798  -4.182  0.00  0.00    -0.027 A 
HETATM    7  C   UNK     0      21.656  16.767  -6.383  0.00  0.00     0.115 C 
HETATM    8  C   UNK     0      21.007  17.720  -7.371  0.00  0.00     0.021 A 
HETATM    9  N   UNK     0      19.866  18.412  -7.239  0.00  0.00    -0.361 N 
HETATM   10  C   UNK     0      19.629  19.057  -8.401  0.00  0.00     0.022 A 
HETATM   11  C   UNK     0      20.651  18.779  -9.304  0.00  0.00    -0.027 A 
HETATM   12  C   UNK     0      21.523  17.938  -8.661  0.00  0.00    -0.031 A 
HETATM   13  C   UNK     0      22.794  17.374  -9.257  0.00  0.00     0.051 C 
HETATM   14  C   UNK     0      18.408  19.914  -8.724  0.00  0.00     0.115 C 
HETATM   15  C   UNK     0      17.091  19.157  -8.660  0.00  0.00     0.021 A 
HETATM   16  N   UNK     0      16.571  18.501  -7.605  0.00  0.00    -0.361 N 
HETATM   17  C   UNK     0      15.433  17.910  -7.974  0.00  0.00     0.022 A 
HETATM   18  C   UNK     0      15.195  18.202  -9.332  0.00  0.00    -0.027 A 
HETATM   19  C   UNK     0      16.239  18.985  -9.749  0.00  0.00    -0.031 A 
HETATM   20  C   UNK     0      16.358  19.558 -11.150  0.00  0.00     0.051 C 
HETATM   21  C   UNK     0      14.511  17.003  -7.192  0.00  0.00     0.115 C 
HETATM   22  C   UNK     0      15.139  16.081  -6.173  0.00  0.00     0.022 A 
HETATM   23  N   UNK     0      16.277  15.381  -6.276  0.00  0.00    -0.361 N 
HETATM   24  C   UNK     0      16.533  14.810  -5.082  0.00  0.00     0.021 A 
HETATM   25  C   UNK     0      15.530  15.141  -4.191  0.00  0.00    -0.031 A 
HETATM   26  C   UNK     0      15.355  14.710  -2.750  0.00  0.00     0.051 C 
HETATM   27  C   UNK     0      14.626  15.953  -4.866  0.00  0.00    -0.027 A 
HETATM   28  C   UNK     0      17.753  13.999  -4.682  0.00  0.00     0.115 C 
HETATM   29  H   UNK     0      19.224  15.158  -6.957  0.00  0.00     0.165 HD
HETATM   30  H   UNK     0      19.250  18.488  -6.309  0.00  0.00     0.165 HD
HETATM   31  H   UNK     0      16.991  18.494  -6.566  0.00  0.00     0.165 HD
HETATM   32  H   UNK     0      16.888  15.249  -7.207  0.00  0.00     0.165 HD
ENDROOT
BRANCH   6  33
HETATM   33  C   UNK     0      22.013  16.332  -3.295  0.00  0.00     0.051 C 
BRANCH  33  34
HETATM   34  C   UNK     0      23.080  15.286  -3.073  0.00  0.00     0.114 C 
BRANCH  34  35
HETATM   35  C   UNK     0      24.247  15.649  -3.927  0.00  0.00     0.139 C 
HETATM   36  O   UNK     0      25.073  14.761  -4.288  0.00  0.00    -0.650 OA
BRANCH  35  37
HETATM   37  O   UNK     0      24.481  16.948  -4.363  0.00  0.00    -0.776 OA
HETATM   38  H   UNK     0      25.410  17.335  -4.414  0.00  0.00     0.167 HD
ENDBRANCH  35  37
ENDBRANCH  34  35
ENDBRANCH  33  34
ENDBRANCH   6  33
BRANCH  27  39
HETATM   39  C   UNK     0      13.368  16.454  -4.249  0.00  0.00     0.051 C 
BRANCH  39  40
HETATM   40  C   UNK     0      12.099  15.886  -4.702  0.00  0.00     0.114 C 
BRANCH  40  41
HETATM   41  C   UNK     0      11.166  16.634  -5.513  0.00  0.00     0.139 C 
HETATM   42  O   UNK     0      10.467  17.559  -5.076  0.00  0.00    -0.650 OA
BRANCH  41  43
HETATM   43  O   UNK     0      11.029  16.304  -6.892  0.00  0.00    -0.776 OA
HETATM   44  H   UNK     0      10.300  15.631  -7.091  0.00  0.00     0.167 HD
ENDBRANCH  41  43
ENDBRANCH  40  41
ENDBRANCH  39  40
ENDBRANCH  27  39
BRANCH  11  45
HETATM   45  C   UNK     0      20.823  19.276 -10.714  0.00  0.00     0.051 C 
BRANCH  45  46
HETATM   46  C   UNK     0      21.565  20.558 -10.819  0.00  0.00     0.114 C 
BRANCH  46  47
HETATM   47  C   UNK     0      22.595  20.386 -11.884  0.00  0.00     0.139 C 
HETATM   48  O   UNK     0      23.744  20.065 -11.550  0.00  0.00    -0.650 OA
BRANCH  47  49
HETATM   49  O   UNK     0      22.280  20.580 -13.205  0.00  0.00    -0.776 OA
HETATM   50  H   UNK     0      22.495  19.881 -13.925  0.00  0.00     0.167 HD
ENDBRANCH  47  49
ENDBRANCH  46  47
ENDBRANCH  45  46
ENDBRANCH  11  45
BRANCH  18  51
HETATM   51  C   UNK     0      14.024  17.776 -10.179  0.00  0.00     0.051 C 
BRANCH  51  52
HETATM   52  C   UNK     0      12.998  18.895 -10.082  0.00  0.00     0.114 C 
BRANCH  52  53
HETATM   53  C   UNK     0      11.872  18.533  -9.199  0.00  0.00     0.139 C 
HETATM   54  O   UNK     0      11.029  17.703  -9.575  0.00  0.00    -0.650 OA
BRANCH  53  55
HETATM   55  O   UNK     0      11.761  19.122  -7.963  0.00  0.00    -0.776 OA
HETATM   56  H   UNK     0      11.290  19.973  -7.761  0.00  0.00     0.167 HD
ENDBRANCH  53  55
ENDBRANCH  52  53
ENDBRANCH  51  52
ENDBRANCH  18  51
TORSDOF 16
ENDMDL
