MODEL 1
REMARK VINA RESULT:      -9.5      0.000      0.000
REMARK  28 active torsions:
REMARK  status: ('A' for Active; 'I' for Inactive)
REMARK    1  A    between atoms: C_2  and  O_3 
REMARK    2  A    between atoms: C_2  and  C_4 
REMARK    3  A    between atoms: C_4  and  C_5 
REMARK    4  A    between atoms: C_5  and  C_6 
REMARK    5  A    between atoms: C_7  and  C_8 
REMARK    6  A    between atoms: C_8  and  C_9 
REMARK    7  A    between atoms: C_9  and  O_11 
REMARK    8  A    between atoms: C_28  and  C_29 
REMARK    9  A    between atoms: C_29  and  C_30 
REMARK   10  A    between atoms: C_30  and  O_32 
REMARK   11  A    between atoms: C_33  and  C_34 
REMARK   12  A    between atoms: C_34  and  C_35 
REMARK   13  A    between atoms: C_35  and  C_36 
REMARK   14  A    between atoms: C_36  and  O_38 
REMARK   15  A    between atoms: C_39  and  C_40 
REMARK   16  A    between atoms: C_40  and  C_41 
REMARK   17  A    between atoms: C_41  and  C_42 
REMARK   18  A    between atoms: C_42  and  O_44 
REMARK   19  A    between atoms: C_45  and  C_46 
REMARK   20  A    between atoms: C_46  and  C_47 
REMARK   21  A    between atoms: C_47  and  O_49 
REMARK   22  A    between atoms: C_50  and  C_51 
REMARK   23  A    between atoms: C_51  and  C_52 
REMARK   24  A    between atoms: C_52  and  O_54 
REMARK   25  A    between atoms: C_55  and  C_56 
REMARK   26  A    between atoms: C_56  and  C_57 
REMARK   27  A    between atoms: C_57  and  C_58 
REMARK   28  A    between atoms: C_58  and  O_60 
ROOT
ATOM      1  O   UNK d   0      10.638  -7.187 -11.468  0.00  0.00    -0.650 OA
ATOM      2  C   UNK d   0      11.339  -8.219 -11.386  0.00  0.00     0.139 C 
ENDROOT
BRANCH   2   3
ATOM      3  O   UNK d   0      11.747  -8.850 -12.537  0.00  0.00    -0.776 OA
ATOM      4  H   UNK d   0      12.703  -9.196 -12.638  0.00  0.00     0.167 HD
ENDBRANCH   2   3
BRANCH   2   5
ATOM      5  C   UNK d   0      11.726  -8.758 -10.051  0.00  0.00     0.115 C 
BRANCH   5   6
ATOM      6  C   UNK d   0      11.928 -10.246 -10.132  0.00  0.00     0.052 C 
BRANCH   6   7
ATOM      7  C   UNK d   0      11.316 -10.980  -8.963  0.00  0.00    -0.020 A 
ATOM      8  C   UNK d   0      10.474 -11.981  -9.001  0.00  0.00    -0.011 A 
ATOM      9  C   UNK d   0      10.159 -12.350  -7.631  0.00  0.00     0.067 A 
ATOM     10  C   UNK d   0       9.366 -13.321  -7.001  0.00  0.00     0.062 C 
ATOM     11  N   UNK d   0      10.848 -11.517  -6.823  0.00  0.00    -0.248 NA
ATOM     12  C   UNK d   0       9.403 -13.704  -5.655  0.00  0.00     0.041 A 
ATOM     13  N   UNK d   0       9.501 -12.973  -4.529  0.00  0.00    -0.355 N 
ATOM     14  C   UNK d   0       9.397 -15.074  -5.337  0.00  0.00    -0.022 A 
ATOM     15  C   UNK d   0       9.564 -13.844  -3.504  0.00  0.00     0.042 A 
ATOM     16  H   UNK d   0       9.505 -11.863  -4.457  0.00  0.00     0.166 HD
ATOM     17  C   UNK d   0       9.671 -13.617  -2.117  0.00  0.00     0.062 C 
ATOM     18  C   UNK d   0       9.502 -15.171  -3.972  0.00  0.00    -0.013 A 
ATOM     19  C   UNK d   0      10.487 -12.742  -1.447  0.00  0.00     0.067 A 
ATOM     20  N   UNK d   0      11.135 -11.835  -2.183  0.00  0.00    -0.248 NA
ATOM     21  C   UNK d   0      10.876 -12.527  -0.063  0.00  0.00    -0.011 A 
ATOM     22  C   UNK d   0      11.920 -11.044  -1.381  0.00  0.00     0.066 A 
ATOM     23  C   UNK d   0      12.623 -10.030  -2.014  0.00  0.00     0.062 C 
ATOM     24  C   UNK d   0      11.718 -11.535  -0.032  0.00  0.00    -0.020 A 
ATOM     25  C   UNK d   0      12.561  -9.654  -3.365  0.00  0.00     0.041 A 
ATOM     26  N   UNK d   0      12.480 -10.381  -4.486  0.00  0.00    -0.355 N 
ATOM     27  C   UNK d   0      12.564  -8.278  -3.684  0.00  0.00    -0.022 A 
ATOM     28  C   UNK d   0      12.425  -9.514  -5.510  0.00  0.00     0.042 A 
ATOM     29  H   UNK d   0      12.486 -11.496  -4.557  0.00  0.00     0.166 HD
ATOM     30  C   UNK d   0      12.328  -9.726  -6.894  0.00  0.00     0.062 C 
ATOM     31  C   UNK d   0      12.477  -8.181  -5.038  0.00  0.00    -0.013 A 
ATOM     32  C   UNK d   0      11.565 -10.670  -7.563  0.00  0.00     0.066 A 
BRANCH   8  33
ATOM     33  C   UNK d   0       9.926 -12.631 -10.206  0.00  0.00     0.151 C 
BRANCH  33  34
ATOM     34  C   UNK d   0       8.518 -13.038 -10.044  0.00  0.00     0.143 C 
ATOM     35  O   UNK d   0       7.621 -12.191  -9.924  0.00  0.00    -0.650 OA
BRANCH  34  36
ATOM     36  O   UNK d   0       8.200 -14.376 -10.025  0.00  0.00    -0.776 OA
ATOM     37  H   UNK d   0       7.302 -14.706  -9.647  0.00  0.00     0.167 HD
ENDBRANCH  34  36
ENDBRANCH  33  34
ENDBRANCH   8  33
BRANCH  31  38
ATOM     38  C   UNK d   0      12.432  -6.900  -5.839  0.00  0.00     0.151 C 
BRANCH  38  39
ATOM     39  C   UNK d   0      11.083  -6.432  -6.074  0.00  0.00     0.143 C 
ATOM     40  O   UNK d   0      10.837  -5.270  -6.442  0.00  0.00    -0.650 OA
BRANCH  39  41
ATOM     41  O   UNK d   0      10.012  -7.304  -5.887  0.00  0.00    -0.776 OA
ATOM     42  H   UNK d   0      10.225  -8.215  -5.468  0.00  0.00     0.167 HD
ENDBRANCH  39  41
ENDBRANCH  38  39
ENDBRANCH  31  38
BRANCH  27  43
ATOM     43  C   UNK d   0      12.645  -7.083  -2.768  0.00  0.00     0.052 C 
BRANCH  43  44
ATOM     44  C   UNK d   0      14.019  -6.842  -2.232  0.00  0.00     0.115 C 
BRANCH  44  45
ATOM     45  C   UNK d   0      14.399  -5.464  -2.640  0.00  0.00     0.139 C 
ATOM     46  O   UNK d   0      15.095  -5.325  -3.676  0.00  0.00    -0.650 OA
BRANCH  45  47
ATOM     47  O   UNK d   0      14.015  -4.343  -1.936  0.00  0.00    -0.776 OA
ATOM     48  H   UNK d   0      13.466  -3.577  -2.359  0.00  0.00     0.167 HD
ENDBRANCH  45  47
ENDBRANCH  44  45
ENDBRANCH  43  44
ENDBRANCH  27  43
BRANCH  24  49
ATOM     49  C   UNK d   0      12.335 -10.958   1.175  0.00  0.00     0.052 C 
BRANCH  49  50
ATOM     50  C   UNK d   0      13.714 -10.437   0.860  0.00  0.00     0.115 C 
BRANCH  50  51
ATOM     51  C   UNK d   0      14.153  -9.245   1.573  0.00  0.00     0.139 C 
ATOM     52  O   UNK d   0      14.544  -9.275   2.764  0.00  0.00    -0.650 OA
BRANCH  51  53
ATOM     53  O   UNK d   0      14.144  -8.017   0.929  0.00  0.00    -0.776 OA
ATOM     54  H   UNK d   0      14.290  -7.190   1.481  0.00  0.00     0.167 HD
ENDBRANCH  51  53
ENDBRANCH  50  51
ENDBRANCH  49  50
ENDBRANCH  24  49
BRANCH  21  55
ATOM     55  C   UNK d   0      10.363 -13.334   1.083  0.00  0.00     0.151 C 
BRANCH  55  56
ATOM     56  C   UNK d   0       9.731 -12.491   2.111  0.00  0.00     0.143 C 
ATOM     57  O   UNK d   0       9.988 -12.602   3.326  0.00  0.00    -0.650 OA
BRANCH  56  58
ATOM     58  O   UNK d   0       8.810 -11.534   1.689  0.00  0.00    -0.776 OA
ATOM     59  H   UNK d   0       8.029 -11.902   1.117  0.00  0.00     0.167 HD
ENDBRANCH  56  58
ENDBRANCH  55  56
ENDBRANCH  21  55
BRANCH  18  60
ATOM     60  C   UNK d   0       9.541 -16.466  -3.198  0.00  0.00     0.151 C 
BRANCH  60  61
ATOM     61  C   UNK d   0      10.964 -16.810  -3.059  0.00  0.00     0.143 C 
ATOM     62  O   UNK d   0      11.686 -17.338  -3.905  0.00  0.00    -0.650 OA
BRANCH  61  63
ATOM     63  O   UNK d   0      11.542 -16.489  -1.807  0.00  0.00    -0.776 OA
ATOM     64  H   UNK d   0      11.988 -17.193  -1.246  0.00  0.00     0.167 HD
ENDBRANCH  61  63
ENDBRANCH  60  61
ENDBRANCH  18  60
BRANCH  14  65
ATOM     65  C   UNK d   0       9.201 -16.282  -6.208  0.00  0.00     0.052 C 
BRANCH  65  66
ATOM     66  C   UNK d   0       7.782 -16.723  -6.282  0.00  0.00     0.115 C 
BRANCH  66  67
ATOM     67  C   UNK d   0       6.996 -16.398  -7.439  0.00  0.00     0.139 C 
ATOM     68  O   UNK d   0       7.465 -16.688  -8.600  0.00  0.00    -0.650 OA
BRANCH  67  69
ATOM     69  O   UNK d   0       5.743 -15.787  -7.475  0.00  0.00    -0.776 OA
ATOM     70  H   UNK d   0       5.092 -16.142  -8.189  0.00  0.00     0.167 HD
ENDBRANCH  67  69
ENDBRANCH  66  67
ENDBRANCH  65  66
ENDBRANCH  14  65
ENDBRANCH   6   7
ENDBRANCH   5   6
ENDBRANCH   2   5
TORSDOF 28
ENDMDL
MODEL 2
REMARK VINA RESULT:      -9.1      1.951      3.364
REMARK  28 active torsions:
REMARK  status: ('A' for Active; 'I' for Inactive)
REMARK    1  A    between atoms: C_2  and  O_3 
REMARK    2  A    between atoms: C_2  and  C_4 
REMARK    3  A    between atoms: C_4  and  C_5 
REMARK    4  A    between atoms: C_5  and  C_6 
REMARK    5  A    between atoms: C_7  and  C_8 
REMARK    6  A    between atoms: C_8  and  C_9 
REMARK    7  A    between atoms: C_9  and  O_11 
REMARK    8  A    between atoms: C_28  and  C_29 
REMARK    9  A    between atoms: C_29  and  C_30 
REMARK   10  A    between atoms: C_30  and  O_32 
REMARK   11  A    between atoms: C_33  and  C_34 
REMARK   12  A    between atoms: C_34  and  C_35 
REMARK   13  A    between atoms: C_35  and  C_36 
REMARK   14  A    between atoms: C_36  and  O_38 
REMARK   15  A    between atoms: C_39  and  C_40 
REMARK   16  A    between atoms: C_40  and  C_41 
REMARK   17  A    between atoms: C_41  and  C_42 
REMARK   18  A    between atoms: C_42  and  O_44 
REMARK   19  A    between atoms: C_45  and  C_46 
REMARK   20  A    between atoms: C_46  and  C_47 
REMARK   21  A    between atoms: C_47  and  O_49 
REMARK   22  A    between atoms: C_50  and  C_51 
REMARK   23  A    between atoms: C_51  and  C_52 
REMARK   24  A    between atoms: C_52  and  O_54 
REMARK   25  A    between atoms: C_55  and  C_56 
REMARK   26  A    between atoms: C_56  and  C_57 
REMARK   27  A    between atoms: C_57  and  C_58 
REMARK   28  A    between atoms: C_58  and  O_60 
ROOT
ATOM      1  O   UNK d   0      11.405  -8.124  -9.613  0.00  0.00    -0.650 OA
ATOM      2  C   UNK d   0      11.543  -8.704 -10.713  0.00  0.00     0.139 C 
ENDROOT
BRANCH   2   3
ATOM      3  O   UNK d   0      11.408  -7.985 -11.876  0.00  0.00    -0.776 OA
ATOM      4  H   UNK d   0      12.061  -7.235 -12.111  0.00  0.00     0.167 HD
ENDBRANCH   2   3
BRANCH   2   5
ATOM      5  C   UNK d   0      11.850 -10.162 -10.756  0.00  0.00     0.115 C 
BRANCH   5   6
ATOM      6  C   UNK d   0      10.670 -10.923 -11.297  0.00  0.00     0.052 C 
BRANCH   6   7
ATOM      7  C   UNK d   0      10.114 -11.916 -10.305  0.00  0.00    -0.020 A 
ATOM      8  C   UNK d   0       9.332 -12.936 -10.549  0.00  0.00    -0.011 A 
ATOM      9  C   UNK d   0       9.052 -13.595  -9.284  0.00  0.00     0.067 A 
ATOM     10  C   UNK d   0       8.324 -14.721  -8.868  0.00  0.00     0.062 C 
ATOM     11  N   UNK d   0       9.698 -12.905  -8.321  0.00  0.00    -0.248 NA
ATOM     12  C   UNK d   0       8.396 -15.366  -7.629  0.00  0.00     0.041 A 
ATOM     13  N   UNK d   0       8.461 -14.876  -6.376  0.00  0.00    -0.355 N 
ATOM     14  C   UNK d   0       8.474 -16.771  -7.597  0.00  0.00    -0.022 A 
ATOM     15  C   UNK d   0       8.585 -15.933  -5.551  0.00  0.00     0.042 A 
ATOM     16  H   UNK d   0       8.400 -13.806  -6.080  0.00  0.00     0.166 HD
ATOM     17  C   UNK d   0       8.691 -15.987  -4.147  0.00  0.00     0.062 C 
ATOM     18  C   UNK d   0       8.598 -17.138  -6.280  0.00  0.00    -0.013 A 
ATOM     19  C   UNK d   0       9.460 -15.220  -3.310  0.00  0.00     0.067 A 
ATOM     20  N   UNK d   0      10.046 -14.145  -3.843  0.00  0.00    -0.248 NA
ATOM     21  C   UNK d   0       9.849 -15.269  -1.910  0.00  0.00    -0.011 A 
ATOM     22  C   UNK d   0      10.790 -13.488  -2.894  0.00  0.00     0.066 A 
ATOM     23  C   UNK d   0      11.426 -12.325  -3.305  0.00  0.00     0.062 C 
ATOM     24  C   UNK d   0      10.630 -14.255  -1.674  0.00  0.00    -0.020 A 
ATOM     25  C   UNK d   0      11.329 -11.686  -4.550  0.00  0.00     0.041 A 
ATOM     26  N   UNK d   0      11.281 -12.173  -5.796  0.00  0.00    -0.355 N 
ATOM     27  C   UNK d   0      11.247 -10.277  -4.581  0.00  0.00    -0.022 A 
ATOM     28  C   UNK d   0      11.165 -11.121  -6.622  0.00  0.00     0.042 A 
ATOM     29  H   UNK d   0      11.353 -13.248  -6.093  0.00  0.00     0.166 HD
ATOM     30  C   UNK d   0      11.068 -11.051  -8.020  0.00  0.00     0.062 C 
ATOM     31  C   UNK d   0      11.142  -9.911  -5.888  0.00  0.00    -0.013 A 
ATOM     32  C   UNK d   0      10.356 -11.883  -8.870  0.00  0.00     0.066 A 
BRANCH   8  33
ATOM     33  C   UNK d   0       8.812 -13.358 -11.863  0.00  0.00     0.151 C 
BRANCH  33  34
ATOM     34  C   UNK d   0       7.379 -13.703 -11.825  0.00  0.00     0.143 C 
ATOM     35  O   UNK d   0       6.531 -12.862 -11.494  0.00  0.00    -0.650 OA
BRANCH  34  36
ATOM     36  O   UNK d   0       6.982 -14.976 -12.162  0.00  0.00    -0.776 OA
ATOM     37  H   UNK d   0       6.068 -15.346 -11.866  0.00  0.00     0.167 HD
ENDBRANCH  34  36
ENDBRANCH  33  34
ENDBRANCH   8  33
BRANCH  31  38
ATOM     38  C   UNK d   0      11.014  -8.499  -6.410  0.00  0.00     0.151 C 
BRANCH  38  39
ATOM     39  C   UNK d   0      12.293  -7.836  -6.557  0.00  0.00     0.143 C 
ATOM     40  O   UNK d   0      12.466  -6.646  -6.239  0.00  0.00    -0.650 OA
BRANCH  39  41
ATOM     41  O   UNK d   0      13.378  -8.545  -7.070  0.00  0.00    -0.776 OA
ATOM     42  H   UNK d   0      14.122  -7.995  -7.511  0.00  0.00     0.167 HD
ENDBRANCH  39  41
ENDBRANCH  38  39
ENDBRANCH  31  38
BRANCH  27  43
ATOM     43  C   UNK d   0      11.266  -9.291  -3.440  0.00  0.00     0.052 C 
BRANCH  43  44
ATOM     44  C   UNK d   0      12.629  -9.078  -2.866  0.00  0.00     0.115 C 
BRANCH  44  45
ATOM     45  C   UNK d   0      12.841  -7.608  -2.810  0.00  0.00     0.139 C 
ATOM     46  O   UNK d   0      13.863  -7.180  -2.217  0.00  0.00    -0.650 OA
BRANCH  45  47
ATOM     47  O   UNK d   0      11.973  -6.705  -3.383  0.00  0.00    -0.776 OA
ATOM     48  H   UNK d   0      12.293  -5.878  -3.913  0.00  0.00     0.167 HD
ENDBRANCH  45  47
ENDBRANCH  44  45
ENDBRANCH  43  44
ENDBRANCH  27  43
BRANCH  24  49
ATOM     49  C   UNK d   0      11.223 -13.900  -0.373  0.00  0.00     0.052 C 
BRANCH  49  50
ATOM     50  C   UNK d   0      10.638 -12.607   0.135  0.00  0.00     0.115 C 
BRANCH  50  51
ATOM     51  C   UNK d   0      10.243 -12.562   1.537  0.00  0.00     0.139 C 
ATOM     52  O   UNK d   0       9.251 -11.909   1.939  0.00  0.00    -0.650 OA
BRANCH  51  53
ATOM     53  O   UNK d   0      10.982 -13.259   2.480  0.00  0.00    -0.776 OA
ATOM     54  H   UNK d   0      11.788 -13.771   2.169  0.00  0.00     0.167 HD
ENDBRANCH  51  53
ENDBRANCH  50  51
ENDBRANCH  49  50
ENDBRANCH  24  49
BRANCH  21  55
ATOM     55  C   UNK d   0       9.394 -16.321  -0.954  0.00  0.00     0.151 C 
BRANCH  55  56
ATOM     56  C   UNK d   0       9.745 -17.673  -1.414  0.00  0.00     0.143 C 
ATOM     57  O   UNK d   0      10.879 -17.968  -1.841  0.00  0.00    -0.650 OA
BRANCH  56  58
ATOM     58  O   UNK d   0       8.755 -18.653  -1.364  0.00  0.00    -0.776 OA
ATOM     59  H   UNK d   0       8.638 -19.201  -2.236  0.00  0.00     0.167 HD
ENDBRANCH  56  58
ENDBRANCH  55  56
ENDBRANCH  21  55
BRANCH  18  60
ATOM     60  C   UNK d   0       8.721 -18.558  -5.786  0.00  0.00     0.151 C 
BRANCH  60  61
ATOM     61  C   UNK d   0      10.151 -18.892  -5.869  0.00  0.00     0.143 C 
ATOM     62  O   UNK d   0      11.043 -18.532  -5.099  0.00  0.00    -0.650 OA
BRANCH  61  63
ATOM     63  O   UNK d   0      10.515 -19.717  -6.960  0.00  0.00    -0.776 OA
ATOM     64  H   UNK d   0      10.276 -19.465  -7.903  0.00  0.00     0.167 HD
ENDBRANCH  61  63
ENDBRANCH  60  61
ENDBRANCH  18  60
BRANCH  14  65
ATOM     65  C   UNK d   0       8.343 -17.786  -8.696  0.00  0.00     0.052 C 
BRANCH  65  66
ATOM     66  C   UNK d   0       6.946 -18.260  -8.887  0.00  0.00     0.115 C 
BRANCH  66  67
ATOM     67  C   UNK d   0       5.889 -17.305  -9.071  0.00  0.00     0.139 C 
ATOM     68  O   UNK d   0       5.722 -16.792 -10.238  0.00  0.00    -0.650 OA
BRANCH  67  69
ATOM     69  O   UNK d   0       4.984 -16.840  -8.117  0.00  0.00    -0.776 OA
ATOM     70  H   UNK d   0       5.380 -16.625  -7.191  0.00  0.00     0.167 HD
ENDBRANCH  67  69
ENDBRANCH  66  67
ENDBRANCH  65  66
ENDBRANCH  14  65
ENDBRANCH   6   7
ENDBRANCH   5   6
ENDBRANCH   2   5
TORSDOF 28
ENDMDL
MODEL 3
REMARK VINA RESULT:      -9.0      3.983     10.438
REMARK  28 active torsions:
REMARK  status: ('A' for Active; 'I' for Inactive)
REMARK    1  A    between atoms: C_2  and  O_3 
REMARK    2  A    between atoms: C_2  and  C_4 
REMARK    3  A    between atoms: C_4  and  C_5 
REMARK    4  A    between atoms: C_5  and  C_6 
REMARK    5  A    between atoms: C_7  and  C_8 
REMARK    6  A    between atoms: C_8  and  C_9 
REMARK    7  A    between atoms: C_9  and  O_11 
REMARK    8  A    between atoms: C_28  and  C_29 
REMARK    9  A    between atoms: C_29  and  C_30 
REMARK   10  A    between atoms: C_30  and  O_32 
REMARK   11  A    between atoms: C_33  and  C_34 
REMARK   12  A    between atoms: C_34  and  C_35 
REMARK   13  A    between atoms: C_35  and  C_36 
REMARK   14  A    between atoms: C_36  and  O_38 
REMARK   15  A    between atoms: C_39  and  C_40 
REMARK   16  A    between atoms: C_40  and  C_41 
REMARK   17  A    between atoms: C_41  and  C_42 
REMARK   18  A    between atoms: C_42  and  O_44 
REMARK   19  A    between atoms: C_45  and  C_46 
REMARK   20  A    between atoms: C_46  and  C_47 
REMARK   21  A    between atoms: C_47  and  O_49 
REMARK   22  A    between atoms: C_50  and  C_51 
REMARK   23  A    between atoms: C_51  and  C_52 
REMARK   24  A    between atoms: C_52  and  O_54 
REMARK   25  A    between atoms: C_55  and  C_56 
REMARK   26  A    between atoms: C_56  and  C_57 
REMARK   27  A    between atoms: C_57  and  C_58 
REMARK   28  A    between atoms: C_58  and  O_60 
ROOT
ATOM      1  O   UNK d   0      10.357 -12.276  -0.665  0.00  0.00    -0.650 OA
ATOM      2  C   UNK d   0       9.906 -12.878  -1.665  0.00  0.00     0.139 C 
ENDROOT
BRANCH   2   3
ATOM      3  O   UNK d   0       9.764 -12.200  -2.852  0.00  0.00    -0.776 OA
ATOM      4  H   UNK d   0      10.579 -11.938  -3.410  0.00  0.00     0.167 HD
ENDBRANCH   2   3
BRANCH   2   5
ATOM      5  C   UNK d   0       9.527 -14.316  -1.564  0.00  0.00     0.115 C 
BRANCH   5   6
ATOM      6  C   UNK d   0      10.471 -15.159  -2.378  0.00  0.00     0.052 C 
BRANCH   6   7
ATOM      7  C   UNK d   0       9.754 -16.041  -3.371  0.00  0.00    -0.020 A 
ATOM      8  C   UNK d   0       9.407 -17.294  -3.221  0.00  0.00    -0.011 A 
ATOM      9  C   UNK d   0       8.751 -17.724  -4.444  0.00  0.00     0.067 A 
ATOM     10  C   UNK d   0       8.146 -18.902  -4.909  0.00  0.00     0.062 C 
ATOM     11  N   UNK d   0       8.747 -16.670  -5.288  0.00  0.00    -0.248 NA
ATOM     12  C   UNK d   0       7.313 -19.044  -6.024  0.00  0.00     0.041 A 
ATOM     13  N   UNK d   0       7.401 -18.534  -7.267  0.00  0.00    -0.355 N 
ATOM     14  C   UNK d   0       6.126 -19.790  -5.896  0.00  0.00    -0.022 A 
ATOM     15  C   UNK d   0       6.297 -18.930  -7.929  0.00  0.00     0.042 A 
ATOM     16  H   UNK d   0       8.236 -17.922  -7.674  0.00  0.00     0.166 HD
ATOM     17  C   UNK d   0       5.888 -18.680  -9.254  0.00  0.00     0.062 C 
ATOM     18  C   UNK d   0       5.474 -19.719  -7.102  0.00  0.00    -0.013 A 
ATOM     19  C   UNK d   0       5.908 -17.501  -9.955  0.00  0.00     0.067 A 
ATOM     20  N   UNK d   0       6.575 -16.482  -9.406  0.00  0.00    -0.248 NA
ATOM     21  C   UNK d   0       5.351 -17.022 -11.209  0.00  0.00    -0.011 A 
ATOM     22  C   UNK d   0       6.494 -15.372 -10.210  0.00  0.00     0.066 A 
ATOM     23  C   UNK d   0       7.178 -14.246  -9.776  0.00  0.00     0.062 C 
ATOM     24  C   UNK d   0       5.694 -15.774 -11.350  0.00  0.00    -0.020 A 
ATOM     25  C   UNK d   0       8.020 -14.128  -8.660  0.00  0.00     0.041 A 
ATOM     26  N   UNK d   0       7.925 -14.622  -7.420  0.00  0.00    -0.355 N 
ATOM     27  C   UNK d   0       9.213 -13.383  -8.790  0.00  0.00    -0.022 A 
ATOM     28  C   UNK d   0       9.020 -14.221  -6.755  0.00  0.00     0.042 A 
ATOM     29  H   UNK d   0       7.080 -15.228  -7.009  0.00  0.00     0.166 HD
ATOM     30  C   UNK d   0       9.435 -14.455  -5.434  0.00  0.00     0.062 C 
ATOM     31  C   UNK d   0       9.852 -13.437  -7.589  0.00  0.00    -0.013 A 
ATOM     32  C   UNK d   0       9.335 -15.627  -4.702  0.00  0.00     0.066 A 
BRANCH   8  33
ATOM     33  C   UNK d   0       9.636 -18.140  -2.035  0.00  0.00     0.151 C 
BRANCH  33  34
ATOM     34  C   UNK d   0       8.477 -18.171  -1.124  0.00  0.00     0.143 C 
ATOM     35  O   UNK d   0       7.589 -19.025  -1.255  0.00  0.00    -0.650 OA
BRANCH  34  36
ATOM     36  O   UNK d   0       8.383 -17.238  -0.118  0.00  0.00    -0.776 OA
ATOM     37  H   UNK d   0       7.480 -17.019   0.325  0.00  0.00     0.167 HD
ENDBRANCH  34  36
ENDBRANCH  33  34
ENDBRANCH   8  33
BRANCH  31  38
ATOM     38  C   UNK d   0      11.179 -12.796  -7.256  0.00  0.00     0.151 C 
BRANCH  38  39
ATOM     39  C   UNK d   0      11.034 -11.527  -6.575  0.00  0.00     0.143 C 
ATOM     40  O   UNK d   0      10.587 -11.440  -5.417  0.00  0.00    -0.650 OA
BRANCH  39  41
ATOM     41  O   UNK d   0      11.404 -10.352  -7.228  0.00  0.00    -0.776 OA
ATOM     42  H   UNK d   0      10.669  -9.652  -7.371  0.00  0.00     0.167 HD
ENDBRANCH  39  41
ENDBRANCH  38  39
ENDBRANCH  31  38
BRANCH  27  43
ATOM     43  C   UNK d   0       9.752 -12.637  -9.985  0.00  0.00     0.052 C 
BRANCH  43  44
ATOM     44  C   UNK d   0       9.534 -11.161  -9.908  0.00  0.00     0.115 C 
BRANCH  44  45
ATOM     45  C   UNK d   0      10.781 -10.521 -10.402  0.00  0.00     0.139 C 
ATOM     46  O   UNK d   0      11.861 -11.147 -10.266  0.00  0.00    -0.650 OA
BRANCH  45  47
ATOM     47  O   UNK d   0      10.797  -9.281 -11.003  0.00  0.00    -0.776 OA
ATOM     48  H   UNK d   0      11.278  -9.100 -11.899  0.00  0.00     0.167 HD
ENDBRANCH  45  47
ENDBRANCH  44  45
ENDBRANCH  43  44
ENDBRANCH  27  43
BRANCH  24  49
ATOM     49  C   UNK d   0       5.374 -14.910 -12.500  0.00  0.00     0.052 C 
BRANCH  49  50
ATOM     50  C   UNK d   0       6.036 -15.433 -13.749  0.00  0.00     0.115 C 
BRANCH  50  51
ATOM     51  C   UNK d   0       7.291 -14.808 -14.147  0.00  0.00     0.139 C 
ATOM     52  O   UNK d   0       7.604 -14.625 -15.347  0.00  0.00    -0.650 OA
BRANCH  51  53
ATOM     53  O   UNK d   0       8.190 -14.396 -13.176  0.00  0.00    -0.776 OA
ATOM     54  H   UNK d   0       7.942 -14.528 -12.211  0.00  0.00     0.167 HD
ENDBRANCH  51  53
ENDBRANCH  50  51
ENDBRANCH  49  50
ENDBRANCH  24  49
BRANCH  21  55
ATOM     55  C   UNK d   0       4.537 -17.862 -12.137  0.00  0.00     0.151 C 
BRANCH  55  56
ATOM     56  C   UNK d   0       5.302 -19.005 -12.658  0.00  0.00     0.143 C 
ATOM     57  O   UNK d   0       6.183 -18.885 -13.532  0.00  0.00    -0.650 OA
BRANCH  56  58
ATOM     58  O   UNK d   0       5.015 -20.268 -12.142  0.00  0.00    -0.776 OA
ATOM     59  H   UNK d   0       5.682 -20.608 -11.426  0.00  0.00     0.167 HD
ENDBRANCH  56  58
ENDBRANCH  55  56
ENDBRANCH  21  55
BRANCH  18  60
ATOM     60  C   UNK d   0       4.150 -20.373  -7.408  0.00  0.00     0.151 C 
BRANCH  60  61
ATOM     61  C   UNK d   0       3.133 -19.322  -7.245  0.00  0.00     0.143 C 
ATOM     62  O   UNK d   0       2.543 -18.716  -8.139  0.00  0.00    -0.650 OA
BRANCH  61  63
ATOM     63  O   UNK d   0       2.818 -18.992  -5.905  0.00  0.00    -0.776 OA
ATOM     64  H   UNK d   0       3.540 -18.881  -5.215  0.00  0.00     0.167 HD
ENDBRANCH  61  63
ENDBRANCH  60  61
ENDBRANCH  18  60
BRANCH  14  65
ATOM     65  C   UNK d   0       5.617 -20.636  -4.765  0.00  0.00     0.052 C 
BRANCH  65  66
ATOM     66  C   UNK d   0       5.176 -19.835  -3.592  0.00  0.00     0.115 C 
BRANCH  66  67
ATOM     67  C   UNK d   0       4.623 -20.498  -2.444  0.00  0.00     0.139 C 
ATOM     68  O   UNK d   0       4.782 -21.769  -2.334  0.00  0.00    -0.650 OA
BRANCH  67  69
ATOM     69  O   UNK d   0       3.909 -19.927  -1.391  0.00  0.00    -0.776 OA
ATOM     70  H   UNK d   0       3.110 -20.476  -1.043  0.00  0.00     0.167 HD
ENDBRANCH  67  69
ENDBRANCH  66  67
ENDBRANCH  65  66
ENDBRANCH  14  65
ENDBRANCH   6   7
ENDBRANCH   5   6
ENDBRANCH   2   5
TORSDOF 28
ENDMDL
MODEL 4
REMARK VINA RESULT:      -8.5      4.591     10.750
REMARK  28 active torsions:
REMARK  status: ('A' for Active; 'I' for Inactive)
REMARK    1  A    between atoms: C_2  and  O_3 
REMARK    2  A    between atoms: C_2  and  C_4 
REMARK    3  A    between atoms: C_4  and  C_5 
REMARK    4  A    between atoms: C_5  and  C_6 
REMARK    5  A    between atoms: C_7  and  C_8 
REMARK    6  A    between atoms: C_8  and  C_9 
REMARK    7  A    between atoms: C_9  and  O_11 
REMARK    8  A    between atoms: C_28  and  C_29 
REMARK    9  A    between atoms: C_29  and  C_30 
REMARK   10  A    between atoms: C_30  and  O_32 
REMARK   11  A    between atoms: C_33  and  C_34 
REMARK   12  A    between atoms: C_34  and  C_35 
REMARK   13  A    between atoms: C_35  and  C_36 
REMARK   14  A    between atoms: C_36  and  O_38 
REMARK   15  A    between atoms: C_39  and  C_40 
REMARK   16  A    between atoms: C_40  and  C_41 
REMARK   17  A    between atoms: C_41  and  C_42 
REMARK   18  A    between atoms: C_42  and  O_44 
REMARK   19  A    between atoms: C_45  and  C_46 
REMARK   20  A    between atoms: C_46  and  C_47 
REMARK   21  A    between atoms: C_47  and  O_49 
REMARK   22  A    between atoms: C_50  and  C_51 
REMARK   23  A    between atoms: C_51  and  C_52 
REMARK   24  A    between atoms: C_52  and  O_54 
REMARK   25  A    between atoms: C_55  and  C_56 
REMARK   26  A    between atoms: C_56  and  C_57 
REMARK   27  A    between atoms: C_57  and  C_58 
REMARK   28  A    between atoms: C_58  and  O_60 
ROOT
ATOM      1  O   UNK d   0      12.600 -17.232  -3.435  0.00  0.00    -0.650 OA
ATOM      2  C   UNK d   0      12.433 -16.221  -2.718  0.00  0.00     0.139 C 
ENDROOT
BRANCH   2   3
ATOM      3  O   UNK d   0      13.265 -16.013  -1.644  0.00  0.00    -0.776 OA
ATOM      4  H   UNK d   0      14.273 -15.904  -1.770  0.00  0.00     0.167 HD
ENDBRANCH   2   3
BRANCH   2   5
ATOM      5  C   UNK d   0      11.342 -15.254  -3.028  0.00  0.00     0.115 C 
BRANCH   5   6
ATOM      6  C   UNK d   0      10.008 -15.842  -2.656  0.00  0.00     0.052 C 
BRANCH   6   7
ATOM      7  C   UNK d   0       9.365 -16.593  -3.798  0.00  0.00    -0.020 A 
ATOM      8  C   UNK d   0       9.005 -17.851  -3.824  0.00  0.00    -0.011 A 
ATOM      9  C   UNK d   0       8.441 -18.125  -5.135  0.00  0.00     0.067 A 
ATOM     10  C   UNK d   0       7.869 -19.233  -5.779  0.00  0.00     0.062 C 
ATOM     11  N   UNK d   0       8.501 -16.979  -5.845  0.00  0.00    -0.248 NA
ATOM     12  C   UNK d   0       7.121 -19.232  -6.961  0.00  0.00     0.041 A 
ATOM     13  N   UNK d   0       7.302 -18.579  -8.125  0.00  0.00    -0.355 N 
ATOM     14  C   UNK d   0       5.927 -19.975  -7.011  0.00  0.00    -0.022 A 
ATOM     15  C   UNK d   0       6.250 -18.882  -8.909  0.00  0.00     0.042 A 
ATOM     16  H   UNK d   0       8.166 -17.933  -8.394  0.00  0.00     0.166 HD
ATOM     17  C   UNK d   0       5.941 -18.472 -10.221  0.00  0.00     0.062 C 
ATOM     18  C   UNK d   0       5.366 -19.754  -8.245  0.00  0.00    -0.013 A 
ATOM     19  C   UNK d   0       6.015 -17.218 -10.773  0.00  0.00     0.067 A 
ATOM     20  N   UNK d   0       6.642 -16.279 -10.060  0.00  0.00    -0.248 NA
ATOM     21  C   UNK d   0       5.553 -16.587 -11.998  0.00  0.00    -0.011 A 
ATOM     22  C   UNK d   0       6.623 -15.080 -10.729  0.00  0.00     0.066 A 
ATOM     23  C   UNK d   0       7.275 -14.021 -10.115  0.00  0.00     0.062 C 
ATOM     24  C   UNK d   0       5.908 -15.335 -11.964  0.00  0.00    -0.020 A 
ATOM     25  C   UNK d   0       8.032 -14.046  -8.934  0.00  0.00     0.041 A 
ATOM     26  N   UNK d   0       7.845 -14.683  -7.772  0.00  0.00    -0.355 N 
ATOM     27  C   UNK d   0       9.233 -13.304  -8.886  0.00  0.00    -0.022 A 
ATOM     28  C   UNK d   0       8.888 -14.376  -6.985  0.00  0.00     0.042 A 
ATOM     29  H   UNK d   0       6.970 -15.324  -7.499  0.00  0.00     0.166 HD
ATOM     30  C   UNK d   0       9.203 -14.769  -5.675  0.00  0.00     0.062 C 
ATOM     31  C   UNK d   0       9.781 -13.508  -7.657  0.00  0.00    -0.013 A 
ATOM     32  C   UNK d   0       9.047 -16.019  -5.096  0.00  0.00     0.066 A 
BRANCH   8  33
ATOM     33  C   UNK d   0       9.144 -18.834  -2.733  0.00  0.00     0.151 C 
BRANCH  33  34
ATOM     34  C   UNK d   0       7.961 -18.883  -1.856  0.00  0.00     0.143 C 
ATOM     35  O   UNK d   0       6.927 -19.467  -2.213  0.00  0.00    -0.650 OA
BRANCH  34  36
ATOM     36  O   UNK d   0       8.007 -18.270  -0.625  0.00  0.00    -0.776 OA
ATOM     37  H   UNK d   0       8.410 -18.745   0.194  0.00  0.00     0.167 HD
ENDBRANCH  34  36
ENDBRANCH  33  34
ENDBRANCH   8  33
BRANCH  31  38
ATOM     38  C   UNK d   0      11.081 -12.925  -7.153  0.00  0.00     0.151 C 
BRANCH  38  39
ATOM     39  C   UNK d   0      10.891 -11.722  -6.370  0.00  0.00     0.143 C 
ATOM     40  O   UNK d   0      11.259 -10.604  -6.769  0.00  0.00    -0.650 OA
BRANCH  39  41
ATOM     41  O   UNK d   0      10.273 -11.806  -5.123  0.00  0.00    -0.776 OA
ATOM     42  H   UNK d   0       9.312 -11.456  -5.059  0.00  0.00     0.167 HD
ENDBRANCH  39  41
ENDBRANCH  38  39
ENDBRANCH  31  38
BRANCH  27  43
ATOM     43  C   UNK d   0       9.860 -12.428  -9.941  0.00  0.00     0.052 C 
BRANCH  43  44
ATOM     44  C   UNK d   0       9.654 -10.968  -9.696  0.00  0.00     0.115 C 
BRANCH  44  45
ATOM     45  C   UNK d   0      10.862 -10.275 -10.215  0.00  0.00     0.139 C 
ATOM     46  O   UNK d   0      11.951 -10.901 -10.209  0.00  0.00    -0.650 OA
BRANCH  45  47
ATOM     47  O   UNK d   0      10.833  -8.987 -10.704  0.00  0.00    -0.776 OA
ATOM     48  H   UNK d   0      10.371  -8.736 -11.593  0.00  0.00     0.167 HD
ENDBRANCH  45  47
ENDBRANCH  44  45
ENDBRANCH  43  44
ENDBRANCH  27  43
BRANCH  24  49
ATOM     49  C   UNK d   0       5.676 -14.338 -13.023  0.00  0.00     0.052 C 
BRANCH  49  50
ATOM     50  C   UNK d   0       4.248 -13.857 -12.987  0.00  0.00     0.115 C 
BRANCH  50  51
ATOM     51  C   UNK d   0       3.915 -12.701 -13.808  0.00  0.00     0.139 C 
ATOM     52  O   UNK d   0       3.269 -11.722 -13.366  0.00  0.00    -0.650 OA
BRANCH  51  53
ATOM     53  O   UNK d   0       4.316 -12.663 -15.135  0.00  0.00    -0.776 OA
ATOM     54  H   UNK d   0       4.492 -11.766 -15.552  0.00  0.00     0.167 HD
ENDBRANCH  51  53
ENDBRANCH  50  51
ENDBRANCH  49  50
ENDBRANCH  24  49
BRANCH  21  55
ATOM     55  C   UNK d   0       4.809 -17.303 -13.077  0.00  0.00     0.151 C 
BRANCH  55  56
ATOM     56  C   UNK d   0       5.612 -18.376 -13.682  0.00  0.00     0.143 C 
ATOM     57  O   UNK d   0       6.501 -18.159 -14.529  0.00  0.00    -0.650 OA
BRANCH  56  58
ATOM     58  O   UNK d   0       5.355 -19.686 -13.279  0.00  0.00    -0.776 OA
ATOM     59  H   UNK d   0       4.957 -19.779 -12.327  0.00  0.00     0.167 HD
ENDBRANCH  56  58
ENDBRANCH  55  56
ENDBRANCH  21  55
BRANCH  18  60
ATOM     60  C   UNK d   0       4.066 -20.353  -8.723  0.00  0.00     0.151 C 
BRANCH  60  61
ATOM     61  C   UNK d   0       4.419 -21.637  -9.348  0.00  0.00     0.143 C 
ATOM     62  O   UNK d   0       4.327 -22.757  -8.845  0.00  0.00    -0.650 OA
BRANCH  61  63
ATOM     63  O   UNK d   0       4.915 -21.547 -10.671  0.00  0.00    -0.776 OA
ATOM     64  H   UNK d   0       4.340 -21.791 -11.458  0.00  0.00     0.167 HD
ENDBRANCH  61  63
ENDBRANCH  60  61
ENDBRANCH  18  60
BRANCH  14  65
ATOM     65  C   UNK d   0       5.333 -20.944  -6.029  0.00  0.00     0.052 C 
BRANCH  65  66
ATOM     66  C   UNK d   0       4.847 -20.288  -4.786  0.00  0.00     0.115 C 
BRANCH  66  67
ATOM     67  C   UNK d   0       3.559 -19.654  -4.773  0.00  0.00     0.139 C 
ATOM     68  O   UNK d   0       3.009 -19.405  -3.638  0.00  0.00    -0.650 OA
BRANCH  67  69
ATOM     69  O   UNK d   0       2.792 -19.256  -5.868  0.00  0.00    -0.776 OA
ATOM     70  H   UNK d   0       2.438 -20.015  -6.467  0.00  0.00     0.167 HD
ENDBRANCH  67  69
ENDBRANCH  66  67
ENDBRANCH  65  66
ENDBRANCH  14  65
ENDBRANCH   6   7
ENDBRANCH   5   6
ENDBRANCH   2   5
TORSDOF 28
ENDMDL
MODEL 5
REMARK VINA RESULT:      -8.5      1.568      7.566
REMARK  28 active torsions:
REMARK  status: ('A' for Active; 'I' for Inactive)
REMARK    1  A    between atoms: C_2  and  O_3 
REMARK    2  A    between atoms: C_2  and  C_4 
REMARK    3  A    between atoms: C_4  and  C_5 
REMARK    4  A    between atoms: C_5  and  C_6 
REMARK    5  A    between atoms: C_7  and  C_8 
REMARK    6  A    between atoms: C_8  and  C_9 
REMARK    7  A    between atoms: C_9  and  O_11 
REMARK    8  A    between atoms: C_28  and  C_29 
REMARK    9  A    between atoms: C_29  and  C_30 
REMARK   10  A    between atoms: C_30  and  O_32 
REMARK   11  A    between atoms: C_33  and  C_34 
REMARK   12  A    between atoms: C_34  and  C_35 
REMARK   13  A    between atoms: C_35  and  C_36 
REMARK   14  A    between atoms: C_36  and  O_38 
REMARK   15  A    between atoms: C_39  and  C_40 
REMARK   16  A    between atoms: C_40  and  C_41 
REMARK   17  A    between atoms: C_41  and  C_42 
REMARK   18  A    between atoms: C_42  and  O_44 
REMARK   19  A    between atoms: C_45  and  C_46 
REMARK   20  A    between atoms: C_46  and  C_47 
REMARK   21  A    between atoms: C_47  and  O_49 
REMARK   22  A    between atoms: C_50  and  C_51 
REMARK   23  A    between atoms: C_51  and  C_52 
REMARK   24  A    between atoms: C_52  and  O_54 
REMARK   25  A    between atoms: C_55  and  C_56 
REMARK   26  A    between atoms: C_56  and  C_57 
REMARK   27  A    between atoms: C_57  and  C_58 
REMARK   28  A    between atoms: C_58  and  O_60 
ROOT
ATOM      1  O   UNK d   0       4.714 -19.134  -5.675  0.00  0.00    -0.650 OA
ATOM      2  C   UNK d   0       5.902 -18.742  -5.701  0.00  0.00     0.139 C 
ENDROOT
BRANCH   2   3
ATOM      3  O   UNK d   0       6.903 -19.644  -5.971  0.00  0.00    -0.776 OA
ATOM      4  H   UNK d   0       6.996 -20.067  -6.897  0.00  0.00     0.167 HD
ENDBRANCH   2   3
BRANCH   2   5
ATOM      5  C   UNK d   0       6.223 -17.311  -5.439  0.00  0.00     0.115 C 
BRANCH   5   6
ATOM      6  C   UNK d   0       7.654 -17.174  -4.994  0.00  0.00     0.052 C 
BRANCH   6   7
ATOM      7  C   UNK d   0       8.377 -16.051  -5.697  0.00  0.00    -0.020 A 
ATOM      8  C   UNK d   0       8.647 -15.951  -6.974  0.00  0.00    -0.011 A 
ATOM      9  C   UNK d   0       9.362 -14.703  -7.181  0.00  0.00     0.067 A 
ATOM     10  C   UNK d   0       9.900 -14.014  -8.279  0.00  0.00     0.062 C 
ATOM     11  N   UNK d   0       9.490 -14.109  -5.975  0.00  0.00    -0.248 NA
ATOM     12  C   UNK d   0      10.314 -12.678  -8.322  0.00  0.00     0.041 A 
ATOM     13  N   UNK d   0      11.021 -11.941  -7.444  0.00  0.00    -0.355 N 
ATOM     14  C   UNK d   0       9.923 -11.878  -9.411  0.00  0.00    -0.022 A 
ATOM     15  C   UNK d   0      11.081 -10.692  -7.944  0.00  0.00     0.042 A 
ATOM     16  H   UNK d   0      11.484 -12.301  -6.499  0.00  0.00     0.166 HD
ATOM     17  C   UNK d   0      11.697  -9.533  -7.432  0.00  0.00     0.062 C 
ATOM     18  C   UNK d   0      10.404 -10.614  -9.176  0.00  0.00    -0.013 A 
ATOM     19  C   UNK d   0      11.678  -9.039  -6.153  0.00  0.00     0.067 A 
ATOM     20  N   UNK d   0      11.187  -9.839  -5.203  0.00  0.00    -0.248 NA
ATOM     21  C   UNK d   0      12.061  -7.794  -5.508  0.00  0.00    -0.011 A 
ATOM     22  C   UNK d   0      11.218  -9.206  -3.984  0.00  0.00     0.066 A 
ATOM     23  C   UNK d   0      10.769  -9.941  -2.897  0.00  0.00     0.062 C 
ATOM     24  C   UNK d   0      11.785  -7.897  -4.240  0.00  0.00    -0.020 A 
ATOM     25  C   UNK d   0      10.369 -11.286  -2.874  0.00  0.00     0.041 A 
ATOM     26  N   UNK d   0       9.654 -12.015  -3.739  0.00  0.00    -0.355 N 
ATOM     27  C   UNK d   0      10.766 -12.089  -1.782  0.00  0.00    -0.022 A 
ATOM     28  C   UNK d   0       9.585 -13.258  -3.238  0.00  0.00     0.042 A 
ATOM     29  H   UNK d   0       9.180 -11.649  -4.683  0.00  0.00     0.166 HD
ATOM     30  C   UNK d   0       8.968 -14.419  -3.731  0.00  0.00     0.062 C 
ATOM     31  C   UNK d   0      10.275 -13.339  -2.005  0.00  0.00    -0.013 A 
ATOM     32  C   UNK d   0       8.917 -14.869  -5.041  0.00  0.00     0.066 A 
BRANCH   8  33
ATOM     33  C   UNK d   0       8.301 -16.920  -8.030  0.00  0.00     0.151 C 
BRANCH  33  34
ATOM     34  C   UNK d   0       7.099 -16.532  -8.790  0.00  0.00     0.143 C 
ATOM     35  O   UNK d   0       6.418 -15.555  -8.447  0.00  0.00    -0.650 OA
BRANCH  34  36
ATOM     36  O   UNK d   0       6.731 -17.266  -9.893  0.00  0.00    -0.776 OA
ATOM     37  H   UNK d   0       6.602 -16.822 -10.812  0.00  0.00     0.167 HD
ENDBRANCH  34  36
ENDBRANCH  33  34
ENDBRANCH   8  33
BRANCH  31  38
ATOM     38  C   UNK d   0      10.459 -14.542  -1.110  0.00  0.00     0.151 C 
BRANCH  38  39
ATOM     39  C   UNK d   0      11.590 -15.360  -1.495  0.00  0.00     0.143 C 
ATOM     40  O   UNK d   0      12.730 -14.888  -1.650  0.00  0.00    -0.650 OA
BRANCH  39  41
ATOM     41  O   UNK d   0      11.409 -16.727  -1.700  0.00  0.00    -0.776 OA
ATOM     42  H   UNK d   0      12.053 -17.357  -1.212  0.00  0.00     0.167 HD
ENDBRANCH  39  41
ENDBRANCH  38  39
ENDBRANCH  31  38
BRANCH  27  43
ATOM     43  C   UNK d   0      11.574 -11.719  -0.564  0.00  0.00     0.052 C 
BRANCH  43  44
ATOM     44  C   UNK d   0      10.758 -11.642   0.685  0.00  0.00     0.115 C 
BRANCH  44  45
ATOM     45  C   UNK d   0      11.713 -11.428   1.804  0.00  0.00     0.139 C 
ATOM     46  O   UNK d   0      11.713 -12.255   2.749  0.00  0.00    -0.650 OA
BRANCH  45  47
ATOM     47  O   UNK d   0      12.594 -10.369   1.841  0.00  0.00    -0.776 OA
ATOM     48  H   UNK d   0      12.794  -9.777   1.019  0.00  0.00     0.167 HD
ENDBRANCH  45  47
ENDBRANCH  44  45
ENDBRANCH  43  44
ENDBRANCH  27  43
BRANCH  24  49
ATOM     49  C   UNK d   0      12.048  -6.878  -3.209  0.00  0.00     0.052 C 
BRANCH  49  50
ATOM     50  C   UNK d   0      13.415  -7.080  -2.608  0.00  0.00     0.115 C 
BRANCH  50  51
ATOM     51  C   UNK d   0      14.288  -5.916  -2.535  0.00  0.00     0.139 C 
ATOM     52  O   UNK d   0      15.538  -6.007  -2.525  0.00  0.00    -0.650 OA
BRANCH  51  53
ATOM     53  O   UNK d   0      13.734  -4.646  -2.472  0.00  0.00    -0.776 OA
ATOM     54  H   UNK d   0      13.000  -4.480  -1.806  0.00  0.00     0.167 HD
ENDBRANCH  51  53
ENDBRANCH  50  51
ENDBRANCH  49  50
ENDBRANCH  24  49
BRANCH  21  55
ATOM     55  C   UNK d   0      12.666  -6.633  -6.226  0.00  0.00     0.151 C 
BRANCH  55  56
ATOM     56  C   UNK d   0      11.680  -5.919  -7.051  0.00  0.00     0.143 C 
ATOM     57  O   UNK d   0      10.857  -5.114  -6.573  0.00  0.00    -0.650 OA
BRANCH  56  58
ATOM     58  O   UNK d   0      11.680  -6.167  -8.422  0.00  0.00    -0.776 OA
ATOM     59  H   UNK d   0      10.942  -6.817  -8.748  0.00  0.00     0.167 HD
ENDBRANCH  56  58
ENDBRANCH  55  56
ENDBRANCH  21  55
BRANCH  18  60
ATOM     60  C   UNK d   0      10.207  -9.430 -10.090  0.00  0.00     0.151 C 
BRANCH  60  61
ATOM     61  C   UNK d   0      11.518  -9.171 -10.704  0.00  0.00     0.143 C 
ATOM     62  O   UNK d   0      12.356 -10.007 -11.045  0.00  0.00    -0.650 OA
BRANCH  61  63
ATOM     63  O   UNK d   0      11.826  -7.806 -10.914  0.00  0.00    -0.776 OA
ATOM     64  H   UNK d   0      12.455  -7.522 -11.645  0.00  0.00     0.167 HD
ENDBRANCH  61  63
ENDBRANCH  60  61
ENDBRANCH  18  60
BRANCH  14  65
ATOM     65  C   UNK d   0       9.221 -12.237 -10.690  0.00  0.00     0.052 C 
BRANCH  65  66
ATOM     66  C   UNK d   0       7.991 -13.044 -10.471  0.00  0.00     0.115 C 
BRANCH  66  67
ATOM     67  C   UNK d   0       7.533 -13.937 -11.498  0.00  0.00     0.139 C 
ATOM     68  O   UNK d   0       8.173 -13.969 -12.613  0.00  0.00    -0.650 OA
BRANCH  67  69
ATOM     69  O   UNK d   0       6.446 -14.809 -11.449  0.00  0.00    -0.776 OA
ATOM     70  H   UNK d   0       6.567 -15.643 -10.857  0.00  0.00     0.167 HD
ENDBRANCH  67  69
ENDBRANCH  66  67
ENDBRANCH  65  66
ENDBRANCH  14  65
ENDBRANCH   6   7
ENDBRANCH   5   6
ENDBRANCH   2   5
TORSDOF 28
ENDMDL
MODEL 6
REMARK VINA RESULT:      -8.4      2.308      9.005
REMARK  28 active torsions:
REMARK  status: ('A' for Active; 'I' for Inactive)
REMARK    1  A    between atoms: C_2  and  O_3 
REMARK    2  A    between atoms: C_2  and  C_4 
REMARK    3  A    between atoms: C_4  and  C_5 
REMARK    4  A    between atoms: C_5  and  C_6 
REMARK    5  A    between atoms: C_7  and  C_8 
REMARK    6  A    between atoms: C_8  and  C_9 
REMARK    7  A    between atoms: C_9  and  O_11 
REMARK    8  A    between atoms: C_28  and  C_29 
REMARK    9  A    between atoms: C_29  and  C_30 
REMARK   10  A    between atoms: C_30  and  O_32 
REMARK   11  A    between atoms: C_33  and  C_34 
REMARK   12  A    between atoms: C_34  and  C_35 
REMARK   13  A    between atoms: C_35  and  C_36 
REMARK   14  A    between atoms: C_36  and  O_38 
REMARK   15  A    between atoms: C_39  and  C_40 
REMARK   16  A    between atoms: C_40  and  C_41 
REMARK   17  A    between atoms: C_41  and  C_42 
REMARK   18  A    between atoms: C_42  and  O_44 
REMARK   19  A    between atoms: C_45  and  C_46 
REMARK   20  A    between atoms: C_46  and  C_47 
REMARK   21  A    between atoms: C_47  and  O_49 
REMARK   22  A    between atoms: C_50  and  C_51 
REMARK   23  A    between atoms: C_51  and  C_52 
REMARK   24  A    between atoms: C_52  and  O_54 
REMARK   25  A    between atoms: C_55  and  C_56 
REMARK   26  A    between atoms: C_56  and  C_57 
REMARK   27  A    between atoms: C_57  and  C_58 
REMARK   28  A    between atoms: C_58  and  O_60 
ROOT
ATOM      1  O   UNK d   0       9.684  -6.841  -4.298  0.00  0.00    -0.650 OA
ATOM      2  C   UNK d   0      10.755  -6.651  -4.916  0.00  0.00     0.139 C 
ENDROOT
BRANCH   2   3
ATOM      3  O   UNK d   0      11.777  -5.972  -4.297  0.00  0.00    -0.776 OA
ATOM      4  H   UNK d   0      12.098  -6.237  -3.364  0.00  0.00     0.167 HD
ENDBRANCH   2   3
BRANCH   2   5
ATOM      5  C   UNK d   0      10.916  -7.157  -6.308  0.00  0.00     0.115 C 
BRANCH   5   6
ATOM      6  C   UNK d   0      12.169  -7.983  -6.417  0.00  0.00     0.052 C 
BRANCH   6   7
ATOM      7  C   UNK d   0      11.985  -9.389  -5.897  0.00  0.00    -0.020 A 
ATOM      8  C   UNK d   0      12.460  -9.899  -4.790  0.00  0.00    -0.011 A 
ATOM      9  C   UNK d   0      12.029 -11.285  -4.718  0.00  0.00     0.067 A 
ATOM     10  C   UNK d   0      12.175 -12.345  -3.809  0.00  0.00     0.062 C 
ATOM     11  N   UNK d   0      11.302 -11.537  -5.826  0.00  0.00    -0.248 NA
ATOM     12  C   UNK d   0      11.449 -13.541  -3.778  0.00  0.00     0.041 A 
ATOM     13  N   UNK d   0      11.062 -14.369  -4.767  0.00  0.00    -0.355 N 
ATOM     14  C   UNK d   0      10.952 -14.003  -2.546  0.00  0.00    -0.022 A 
ATOM     15  C   UNK d   0      10.326 -15.340  -4.195  0.00  0.00     0.042 A 
ATOM     16  H   UNK d   0      11.320 -14.279  -5.845  0.00  0.00     0.166 HD
ATOM     17  C   UNK d   0       9.683 -16.456  -4.768  0.00  0.00     0.062 C 
ATOM     18  C   UNK d   0      10.234 -15.145  -2.803  0.00  0.00    -0.013 A 
ATOM     19  C   UNK d   0       8.919 -16.521  -5.905  0.00  0.00     0.067 A 
ATOM     20  N   UNK d   0       8.927 -15.449  -6.701  0.00  0.00    -0.248 NA
ATOM     21  C   UNK d   0       8.032 -17.499  -6.513  0.00  0.00    -0.011 A 
ATOM     22  C   UNK d   0       8.109 -15.655  -7.785  0.00  0.00     0.066 A 
ATOM     23  C   UNK d   0       8.053 -14.630  -8.718  0.00  0.00     0.062 C 
ATOM     24  C   UNK d   0       7.558 -16.985  -7.611  0.00  0.00    -0.020 A 
ATOM     25  C   UNK d   0       8.801 -13.443  -8.738  0.00  0.00     0.041 A 
ATOM     26  N   UNK d   0       9.173 -12.612  -7.757  0.00  0.00    -0.355 N 
ATOM     27  C   UNK d   0       9.303 -12.982  -9.975  0.00  0.00    -0.022 A 
ATOM     28  C   UNK d   0       9.900 -11.637  -8.326  0.00  0.00     0.042 A 
ATOM     29  H   UNK d   0       8.903 -12.697  -6.676  0.00  0.00     0.166 HD
ATOM     30  C   UNK d   0      10.537 -10.517  -7.770  0.00  0.00     0.062 C 
ATOM     31  C   UNK d   0      10.000 -11.840  -9.723  0.00  0.00    -0.013 A 
ATOM     32  C   UNK d   0      11.237 -10.436  -6.577  0.00  0.00     0.066 A 
BRANCH   8  33
ATOM     33  C   UNK d   0      13.289  -9.211  -3.783  0.00  0.00     0.151 C 
BRANCH  33  34
ATOM     34  C   UNK d   0      12.589  -9.021  -2.500  0.00  0.00     0.143 C 
ATOM     35  O   UNK d   0      11.991  -7.964  -2.252  0.00  0.00    -0.650 OA
BRANCH  34  36
ATOM     36  O   UNK d   0      12.602 -10.031  -1.567  0.00  0.00    -0.776 OA
ATOM     37  H   UNK d   0      12.116  -9.932  -0.665  0.00  0.00     0.167 HD
ENDBRANCH  34  36
ENDBRANCH  33  34
ENDBRANCH   8  33
BRANCH  31  38
ATOM     38  C   UNK d   0      10.729 -10.998 -10.743  0.00  0.00     0.151 C 
BRANCH  38  39
ATOM     39  C   UNK d   0      12.167 -11.147 -10.670  0.00  0.00     0.143 C 
ATOM     40  O   UNK d   0      12.743 -12.205 -10.980  0.00  0.00    -0.650 OA
BRANCH  39  41
ATOM     41  O   UNK d   0      12.947 -10.075 -10.239  0.00  0.00    -0.776 OA
ATOM     42  H   UNK d   0      13.952 -10.127 -10.435  0.00  0.00     0.167 HD
ENDBRANCH  39  41
ENDBRANCH  38  39
ENDBRANCH  31  38
BRANCH  27  43
ATOM     43  C   UNK d   0       9.145 -13.573 -11.353  0.00  0.00     0.052 C 
BRANCH  43  44
ATOM     44  C   UNK d   0       7.840 -13.233 -11.996  0.00  0.00     0.115 C 
BRANCH  44  45
ATOM     45  C   UNK d   0       7.412 -14.439 -12.752  0.00  0.00     0.139 C 
ATOM     46  O   UNK d   0       7.859 -14.598 -13.915  0.00  0.00    -0.650 OA
BRANCH  45  47
ATOM     47  O   UNK d   0       6.556 -15.384 -12.229  0.00  0.00    -0.776 OA
ATOM     48  H   UNK d   0       6.831 -16.030 -11.471  0.00  0.00     0.167 HD
ENDBRANCH  45  47
ENDBRANCH  44  45
ENDBRANCH  43  44
ENDBRANCH  27  43
BRANCH  24  49
ATOM     49  C   UNK d   0       6.650 -17.650  -8.560  0.00  0.00     0.052 C 
BRANCH  49  50
ATOM     50  C   UNK d   0       5.216 -17.459  -8.136  0.00  0.00     0.115 C 
BRANCH  50  51
ATOM     51  C   UNK d   0       4.373 -18.646  -8.089  0.00  0.00     0.139 C 
ATOM     52  O   UNK d   0       3.366 -18.731  -7.347  0.00  0.00    -0.650 OA
BRANCH  51  53
ATOM     53  O   UNK d   0       4.680 -19.738  -8.886  0.00  0.00    -0.776 OA
ATOM     54  H   UNK d   0       4.381 -20.648  -8.582  0.00  0.00     0.167 HD
ENDBRANCH  51  53
ENDBRANCH  50  51
ENDBRANCH  49  50
ENDBRANCH  24  49
BRANCH  21  55
ATOM     55  C   UNK d   0       7.754 -18.848  -5.935  0.00  0.00     0.151 C 
BRANCH  55  56
ATOM     56  C   UNK d   0       8.348 -19.926  -6.741  0.00  0.00     0.143 C 
ATOM     57  O   UNK d   0       7.682 -20.882  -7.185  0.00  0.00    -0.650 OA
BRANCH  56  58
ATOM     58  O   UNK d   0       9.714 -19.858  -7.009  0.00  0.00    -0.776 OA
ATOM     59  H   UNK d   0      10.012 -19.026  -7.550  0.00  0.00     0.167 HD
ENDBRANCH  56  58
ENDBRANCH  55  56
ENDBRANCH  21  55
BRANCH  18  60
ATOM     60  C   UNK d   0       9.518 -15.968  -1.762  0.00  0.00     0.151 C 
BRANCH  60  61
ATOM     61  C   UNK d   0      10.242 -17.246  -1.689  0.00  0.00     0.143 C 
ATOM     62  O   UNK d   0       9.766 -18.377  -1.795  0.00  0.00    -0.650 OA
BRANCH  61  63
ATOM     63  O   UNK d   0      11.637 -17.136  -1.474  0.00  0.00    -0.776 OA
ATOM     64  H   UNK d   0      12.003 -16.594  -0.711  0.00  0.00     0.167 HD
ENDBRANCH  61  63
ENDBRANCH  60  61
ENDBRANCH  18  60
BRANCH  14  65
ATOM     65  C   UNK d   0      11.184 -13.508  -1.147  0.00  0.00     0.052 C 
BRANCH  65  66
ATOM     66  C   UNK d   0      10.090 -12.630  -0.652  0.00  0.00     0.115 C 
BRANCH  66  67
ATOM     67  C   UNK d   0       9.957 -12.383   0.757  0.00  0.00     0.139 C 
ATOM     68  O   UNK d   0       8.875 -11.836   1.184  0.00  0.00    -0.650 OA
BRANCH  67  69
ATOM     69  O   UNK d   0      10.879 -12.669   1.763  0.00  0.00    -0.776 OA
ATOM     70  H   UNK d   0      10.671 -12.265   2.688  0.00  0.00     0.167 HD
ENDBRANCH  67  69
ENDBRANCH  66  67
ENDBRANCH  65  66
ENDBRANCH  14  65
ENDBRANCH   6   7
ENDBRANCH   5   6
ENDBRANCH   2   5
TORSDOF 28
ENDMDL
MODEL 7
REMARK VINA RESULT:      -7.8      3.338      8.239
REMARK  28 active torsions:
REMARK  status: ('A' for Active; 'I' for Inactive)
REMARK    1  A    between atoms: C_2  and  O_3 
REMARK    2  A    between atoms: C_2  and  C_4 
REMARK    3  A    between atoms: C_4  and  C_5 
REMARK    4  A    between atoms: C_5  and  C_6 
REMARK    5  A    between atoms: C_7  and  C_8 
REMARK    6  A    between atoms: C_8  and  C_9 
REMARK    7  A    between atoms: C_9  and  O_11 
REMARK    8  A    between atoms: C_28  and  C_29 
REMARK    9  A    between atoms: C_29  and  C_30 
REMARK   10  A    between atoms: C_30  and  O_32 
REMARK   11  A    between atoms: C_33  and  C_34 
REMARK   12  A    between atoms: C_34  and  C_35 
REMARK   13  A    between atoms: C_35  and  C_36 
REMARK   14  A    between atoms: C_36  and  O_38 
REMARK   15  A    between atoms: C_39  and  C_40 
REMARK   16  A    between atoms: C_40  and  C_41 
REMARK   17  A    between atoms: C_41  and  C_42 
REMARK   18  A    between atoms: C_42  and  O_44 
REMARK   19  A    between atoms: C_45  and  C_46 
REMARK   20  A    between atoms: C_46  and  C_47 
REMARK   21  A    between atoms: C_47  and  O_49 
REMARK   22  A    between atoms: C_50  and  C_51 
REMARK   23  A    between atoms: C_51  and  C_52 
REMARK   24  A    between atoms: C_52  and  O_54 
REMARK   25  A    between atoms: C_55  and  C_56 
REMARK   26  A    between atoms: C_56  and  C_57 
REMARK   27  A    between atoms: C_57  and  C_58 
REMARK   28  A    between atoms: C_58  and  O_60 
ROOT
ATOM      1  O   UNK d   0      12.735  -8.042  -5.648  0.00  0.00    -0.650 OA
ATOM      2  C   UNK d   0      12.848  -8.705  -6.703  0.00  0.00     0.139 C 
ENDROOT
BRANCH   2   3
ATOM      3  O   UNK d   0      14.081  -8.815  -7.300  0.00  0.00    -0.776 OA
ATOM      4  H   UNK d   0      14.466  -9.728  -7.551  0.00  0.00     0.167 HD
ENDBRANCH   2   3
BRANCH   2   5
ATOM      5  C   UNK d   0      11.655  -9.368  -7.303  0.00  0.00     0.115 C 
BRANCH   5   6
ATOM      6  C   UNK d   0      12.049 -10.683  -7.918  0.00  0.00     0.052 C 
BRANCH   6   7
ATOM      7  C   UNK d   0      10.874 -11.614  -8.100  0.00  0.00    -0.020 A 
ATOM      8  C   UNK d   0      10.014 -11.631  -9.087  0.00  0.00    -0.011 A 
ATOM      9  C   UNK d   0       9.058 -12.694  -8.825  0.00  0.00     0.067 A 
ATOM     10  C   UNK d   0       7.939 -13.232  -9.479  0.00  0.00     0.062 C 
ATOM     11  N   UNK d   0       9.407 -13.268  -7.654  0.00  0.00    -0.248 NA
ATOM     12  C   UNK d   0       7.301 -14.448  -9.206  0.00  0.00     0.041 A 
ATOM     13  N   UNK d   0       6.970 -15.033  -8.039  0.00  0.00    -0.355 N 
ATOM     14  C   UNK d   0       6.961 -15.293 -10.278  0.00  0.00    -0.022 A 
ATOM     15  C   UNK d   0       6.435 -16.230  -8.342  0.00  0.00     0.042 A 
ATOM     16  H   UNK d   0       7.094 -14.599  -7.022  0.00  0.00     0.166 HD
ATOM     17  C   UNK d   0       5.924 -17.241  -7.504  0.00  0.00     0.062 C 
ATOM     18  C   UNK d   0       6.413 -16.429  -9.736  0.00  0.00    -0.013 A 
ATOM     19  C   UNK d   0       6.453 -17.750  -6.346  0.00  0.00     0.067 A 
ATOM     20  N   UNK d   0       7.484 -17.091  -5.811  0.00  0.00    -0.248 NA
ATOM     21  C   UNK d   0       6.189 -18.896  -5.492  0.00  0.00    -0.011 A 
ATOM     22  C   UNK d   0       7.914 -17.724  -4.670  0.00  0.00     0.066 A 
ATOM     23  C   UNK d   0       8.962 -17.122  -3.989  0.00  0.00     0.062 C 
ATOM     24  C   UNK d   0       7.050 -18.877  -4.516  0.00  0.00    -0.020 A 
ATOM     25  C   UNK d   0       9.579 -15.894  -4.272  0.00  0.00     0.041 A 
ATOM     26  N   UNK d   0       9.922 -15.319  -5.431  0.00  0.00    -0.355 N 
ATOM     27  C   UNK d   0       9.917 -15.044  -3.196  0.00  0.00    -0.022 A 
ATOM     28  C   UNK d   0      10.464 -14.128  -5.131  0.00  0.00     0.042 A 
ATOM     29  H   UNK d   0       9.807 -15.760  -6.452  0.00  0.00     0.166 HD
ATOM     30  C   UNK d   0      10.985 -13.117  -5.954  0.00  0.00     0.062 C 
ATOM     31  C   UNK d   0      10.476 -13.924  -3.731  0.00  0.00    -0.013 A 
ATOM     32  C   UNK d   0      10.492 -12.664  -7.168  0.00  0.00     0.066 A 
BRANCH   8  33
ATOM     33  C   UNK d   0       9.997 -10.739 -10.261  0.00  0.00     0.151 C 
BRANCH  33  34
ATOM     34  C   UNK d   0      11.306 -10.654 -10.932  0.00  0.00     0.143 C 
ATOM     35  O   UNK d   0      12.018 -11.659 -11.069  0.00  0.00    -0.650 OA
BRANCH  34  36
ATOM     36  O   UNK d   0      11.742  -9.440 -11.411  0.00  0.00    -0.776 OA
ATOM     37  H   UNK d   0      11.128  -8.614 -11.410  0.00  0.00     0.167 HD
ENDBRANCH  34  36
ENDBRANCH  33  34
ENDBRANCH   8  33
BRANCH  31  38
ATOM     38  C   UNK d   0      10.981 -12.726  -2.962  0.00  0.00     0.151 C 
BRANCH  38  39
ATOM     39  C   UNK d   0       9.948 -11.742  -2.713  0.00  0.00     0.143 C 
ATOM     40  O   UNK d   0      10.163 -10.700  -2.069  0.00  0.00    -0.650 OA
BRANCH  39  41
ATOM     41  O   UNK d   0       8.662 -11.958  -3.207  0.00  0.00    -0.776 OA
ATOM     42  H   UNK d   0       8.212 -12.843  -2.952  0.00  0.00     0.167 HD
ENDBRANCH  39  41
ENDBRANCH  38  39
ENDBRANCH  31  38
BRANCH  27  43
ATOM     43  C   UNK d   0       9.733 -15.255  -1.714  0.00  0.00     0.052 C 
BRANCH  43  44
ATOM     44  C   UNK d   0      10.965 -14.968  -0.919  0.00  0.00     0.115 C 
BRANCH  44  45
ATOM     45  C   UNK d   0      11.991 -15.950  -1.357  0.00  0.00     0.139 C 
ATOM     46  O   UNK d   0      11.663 -17.161  -1.416  0.00  0.00    -0.650 OA
BRANCH  45  47
ATOM     47  O   UNK d   0      13.274 -15.586  -1.702  0.00  0.00    -0.776 OA
ATOM     48  H   UNK d   0      14.005 -15.379  -1.002  0.00  0.00     0.167 HD
ENDBRANCH  45  47
ENDBRANCH  44  45
ENDBRANCH  43  44
ENDBRANCH  27  43
BRANCH  24  49
ATOM     49  C   UNK d   0       7.117 -19.835  -3.398  0.00  0.00     0.052 C 
BRANCH  49  50
ATOM     50  C   UNK d   0       6.076 -19.504  -2.360  0.00  0.00     0.115 C 
BRANCH  50  51
ATOM     51  C   UNK d   0       4.929 -20.397  -2.261  0.00  0.00     0.139 C 
ATOM     52  O   UNK d   0       3.761 -19.980  -2.075  0.00  0.00    -0.650 OA
BRANCH  51  53
ATOM     53  O   UNK d   0       5.114 -21.767  -2.371  0.00  0.00    -0.776 OA
ATOM     54  H   UNK d   0       4.491 -22.373  -1.867  0.00  0.00     0.167 HD
ENDBRANCH  51  53
ENDBRANCH  50  51
ENDBRANCH  49  50
ENDBRANCH  24  49
BRANCH  21  55
ATOM     55  C   UNK d   0       5.100 -19.888  -5.738  0.00  0.00     0.151 C 
BRANCH  55  56
ATOM     56  C   UNK d   0       3.792 -19.239  -5.914  0.00  0.00     0.143 C 
ATOM     57  O   UNK d   0       3.207 -19.187  -7.014  0.00  0.00    -0.650 OA
BRANCH  56  58
ATOM     58  O   UNK d   0       3.197 -18.663  -4.793  0.00  0.00    -0.776 OA
ATOM     59  H   UNK d   0       2.902 -19.336  -4.062  0.00  0.00     0.167 HD
ENDBRANCH  56  58
ENDBRANCH  55  56
ENDBRANCH  21  55
BRANCH  18  60
ATOM     60  C   UNK d   0       5.914 -17.611 -10.530  0.00  0.00     0.151 C 
BRANCH  60  61
ATOM     61  C   UNK d   0       4.492 -17.345 -10.800  0.00  0.00     0.143 C 
ATOM     62  O   UNK d   0       3.698 -16.748 -10.072  0.00  0.00    -0.650 OA
BRANCH  61  63
ATOM     63  O   UNK d   0       4.011 -17.839 -12.036  0.00  0.00    -0.776 OA
ATOM     64  H   UNK d   0       4.566 -18.459 -12.598  0.00  0.00     0.167 HD
ENDBRANCH  61  63
ENDBRANCH  60  61
ENDBRANCH  18  60
BRANCH  14  65
ATOM     65  C   UNK d   0       7.023 -15.069 -11.762  0.00  0.00     0.052 C 
BRANCH  65  66
ATOM     66  C   UNK d   0       5.806 -14.403 -12.301  0.00  0.00     0.115 C 
BRANCH  66  67
ATOM     67  C   UNK d   0       5.300 -14.782 -13.590  0.00  0.00     0.139 C 
ATOM     68  O   UNK d   0       5.135 -13.866 -14.477  0.00  0.00    -0.650 OA
BRANCH  67  69
ATOM     69  O   UNK d   0       4.948 -16.058 -14.027  0.00  0.00    -0.776 OA
ATOM     70  H   UNK d   0       4.402 -16.625 -13.363  0.00  0.00     0.167 HD
ENDBRANCH  67  69
ENDBRANCH  66  67
ENDBRANCH  65  66
ENDBRANCH  14  65
ENDBRANCH   6   7
ENDBRANCH   5   6
ENDBRANCH   2   5
TORSDOF 28
ENDMDL
MODEL 8
REMARK VINA RESULT:      -7.6      2.314      8.862
REMARK  28 active torsions:
REMARK  status: ('A' for Active; 'I' for Inactive)
REMARK    1  A    between atoms: C_2  and  O_3 
REMARK    2  A    between atoms: C_2  and  C_4 
REMARK    3  A    between atoms: C_4  and  C_5 
REMARK    4  A    between atoms: C_5  and  C_6 
REMARK    5  A    between atoms: C_7  and  C_8 
REMARK    6  A    between atoms: C_8  and  C_9 
REMARK    7  A    between atoms: C_9  and  O_11 
REMARK    8  A    between atoms: C_28  and  C_29 
REMARK    9  A    between atoms: C_29  and  C_30 
REMARK   10  A    between atoms: C_30  and  O_32 
REMARK   11  A    between atoms: C_33  and  C_34 
REMARK   12  A    between atoms: C_34  and  C_35 
REMARK   13  A    between atoms: C_35  and  C_36 
REMARK   14  A    between atoms: C_36  and  O_38 
REMARK   15  A    between atoms: C_39  and  C_40 
REMARK   16  A    between atoms: C_40  and  C_41 
REMARK   17  A    between atoms: C_41  and  C_42 
REMARK   18  A    between atoms: C_42  and  O_44 
REMARK   19  A    between atoms: C_45  and  C_46 
REMARK   20  A    between atoms: C_46  and  C_47 
REMARK   21  A    between atoms: C_47  and  O_49 
REMARK   22  A    between atoms: C_50  and  C_51 
REMARK   23  A    between atoms: C_51  and  C_52 
REMARK   24  A    between atoms: C_52  and  O_54 
REMARK   25  A    between atoms: C_55  and  C_56 
REMARK   26  A    between atoms: C_56  and  C_57 
REMARK   27  A    between atoms: C_57  and  C_58 
REMARK   28  A    between atoms: C_58  and  O_60 
ROOT
ATOM      1  O   UNK d   0      10.655  -7.835  -3.169  0.00  0.00    -0.650 OA
ATOM      2  C   UNK d   0      10.952  -7.274  -4.247  0.00  0.00     0.139 C 
ENDROOT
BRANCH   2   3
ATOM      3  O   UNK d   0      10.486  -6.006  -4.498  0.00  0.00    -0.776 OA
ATOM      4  H   UNK d   0      11.031  -5.182  -4.236  0.00  0.00     0.167 HD
ENDBRANCH   2   3
BRANCH   2   5
ATOM      5  C   UNK d   0      11.804  -7.979  -5.247  0.00  0.00     0.115 C 
BRANCH   5   6
ATOM      6  C   UNK d   0      12.851  -8.802  -4.547  0.00  0.00     0.052 C 
BRANCH   6   7
ATOM      7  C   UNK d   0      12.463 -10.256  -4.429  0.00  0.00    -0.020 A 
ATOM      8  C   UNK d   0      12.734 -11.076  -3.446  0.00  0.00    -0.011 A 
ATOM      9  C   UNK d   0      12.165 -12.372  -3.778  0.00  0.00     0.067 A 
ATOM     10  C   UNK d   0      12.085 -13.631  -3.162  0.00  0.00     0.062 C 
ATOM     11  N   UNK d   0      11.572 -12.252  -4.984  0.00  0.00    -0.248 NA
ATOM     12  C   UNK d   0      11.248 -14.695  -3.516  0.00  0.00     0.041 A 
ATOM     13  N   UNK d   0      10.919 -15.202  -4.719  0.00  0.00    -0.355 N 
ATOM     14  C   UNK d   0      10.548 -15.376  -2.503  0.00  0.00    -0.022 A 
ATOM     15  C   UNK d   0      10.023 -16.181  -4.497  0.00  0.00     0.042 A 
ATOM     16  H   UNK d   0      11.328 -14.886  -5.705  0.00  0.00     0.166 HD
ATOM     17  C   UNK d   0       9.357 -17.033  -5.402  0.00  0.00     0.062 C 
ATOM     18  C   UNK d   0       9.765 -16.320  -3.120  0.00  0.00    -0.013 A 
ATOM     19  C   UNK d   0       8.750 -16.722  -6.591  0.00  0.00     0.067 A 
ATOM     20  N   UNK d   0       8.969 -15.499  -7.081  0.00  0.00    -0.248 NA
ATOM     21  C   UNK d   0       7.862 -17.401  -7.520  0.00  0.00    -0.011 A 
ATOM     22  C   UNK d   0       8.288 -15.329  -8.261  0.00  0.00     0.066 A 
ATOM     23  C   UNK d   0       8.457 -14.109  -8.900  0.00  0.00     0.062 C 
ATOM     24  C   UNK d   0       7.592 -16.579  -8.493  0.00  0.00    -0.020 A 
ATOM     25  C   UNK d   0       9.312 -13.058  -8.535  0.00  0.00     0.041 A 
ATOM     26  N   UNK d   0       9.628 -12.544  -7.340  0.00  0.00    -0.355 N 
ATOM     27  C   UNK d   0      10.018 -12.378  -9.551  0.00  0.00    -0.022 A 
ATOM     28  C   UNK d   0      10.515 -11.562  -7.559  0.00  0.00     0.042 A 
ATOM     29  H   UNK d   0       9.208 -12.855  -6.351  0.00  0.00     0.166 HD
ATOM     30  C   UNK d   0      11.178 -10.701  -6.670  0.00  0.00     0.062 C 
ATOM     31  C   UNK d   0      10.782 -11.430  -8.943  0.00  0.00    -0.013 A 
ATOM     32  C   UNK d   0      11.716 -11.003  -5.429  0.00  0.00     0.066 A 
BRANCH   8  33
ATOM     33  C   UNK d   0      13.484 -10.766  -2.214  0.00  0.00     0.151 C 
BRANCH  33  34
ATOM     34  C   UNK d   0      14.891 -11.198  -2.279  0.00  0.00     0.143 C 
ATOM     35  O   UNK d   0      15.304 -11.883  -3.226  0.00  0.00    -0.650 OA
BRANCH  34  36
ATOM     36  O   UNK d   0      15.756 -10.836  -1.272  0.00  0.00    -0.776 OA
ATOM     37  H   UNK d   0      15.551 -10.041  -0.653  0.00  0.00     0.167 HD
ENDBRANCH  34  36
ENDBRANCH  33  34
ENDBRANCH   8  33
BRANCH  31  38
ATOM     38  C   UNK d   0      11.720 -10.465  -9.630  0.00  0.00     0.151 C 
BRANCH  38  39
ATOM     39  C   UNK d   0      11.160  -9.137  -9.764  0.00  0.00     0.143 C 
ATOM     40  O   UNK d   0      11.202  -8.301  -8.844  0.00  0.00    -0.650 OA
BRANCH  39  41
ATOM     41  O   UNK d   0      10.549  -8.768 -10.962  0.00  0.00    -0.776 OA
ATOM     42  H   UNK d   0       9.800  -9.376 -11.305  0.00  0.00     0.167 HD
ENDBRANCH  39  41
ENDBRANCH  38  39
ENDBRANCH  31  38
BRANCH  27  43
ATOM     43  C   UNK d   0       9.990 -12.591 -11.044  0.00  0.00     0.052 C 
BRANCH  43  44
ATOM     44  C   UNK d   0       9.565 -13.968 -11.437  0.00  0.00     0.115 C 
BRANCH  44  45
ATOM     45  C   UNK d   0       8.286 -13.822 -12.179  0.00  0.00     0.139 C 
ATOM     46  O   UNK d   0       7.374 -13.135 -11.657  0.00  0.00    -0.650 OA
BRANCH  45  47
ATOM     47  O   UNK d   0       8.066 -14.401 -13.410  0.00  0.00    -0.776 OA
ATOM     48  H   UNK d   0       8.736 -14.327 -14.192  0.00  0.00     0.167 HD
ENDBRANCH  45  47
ENDBRANCH  44  45
ENDBRANCH  43  44
ENDBRANCH  27  43
BRANCH  24  49
ATOM     49  C   UNK d   0       6.759 -16.872  -9.672  0.00  0.00     0.052 C 
BRANCH  49  50
ATOM     50  C   UNK d   0       5.343 -16.412  -9.441  0.00  0.00     0.115 C 
BRANCH  50  51
ATOM     51  C   UNK d   0       4.290 -17.411  -9.564  0.00  0.00     0.139 C 
ATOM     52  O   UNK d   0       3.945 -17.897 -10.667  0.00  0.00    -0.650 OA
BRANCH  51  53
ATOM     53  O   UNK d   0       3.629 -17.854  -8.430  0.00  0.00    -0.776 OA
ATOM     54  H   UNK d   0       4.019 -18.631  -7.925  0.00  0.00     0.167 HD
ENDBRANCH  51  53
ENDBRANCH  50  51
ENDBRANCH  49  50
ENDBRANCH  24  49
BRANCH  21  55
ATOM     55  C   UNK d   0       7.381 -18.803  -7.341  0.00  0.00     0.151 C 
BRANCH  55  56
ATOM     56  C   UNK d   0       6.343 -18.901  -6.303  0.00  0.00     0.143 C 
ATOM     57  O   UNK d   0       6.206 -19.906  -5.579  0.00  0.00    -0.650 OA
BRANCH  56  58
ATOM     58  O   UNK d   0       5.486 -17.814  -6.138  0.00  0.00    -0.776 OA
ATOM     59  H   UNK d   0       5.951 -16.930  -5.863  0.00  0.00     0.167 HD
ENDBRANCH  56  58
ENDBRANCH  55  56
ENDBRANCH  21  55
BRANCH  18  60
ATOM     60  C   UNK d   0       8.838 -17.274  -2.407  0.00  0.00     0.151 C 
BRANCH  60  61
ATOM     61  C   UNK d   0       9.140 -18.608  -2.946  0.00  0.00     0.143 C 
ATOM     62  O   UNK d   0      10.254 -19.094  -3.144  0.00  0.00    -0.650 OA
BRANCH  61  63
ATOM     63  O   UNK d   0       8.009 -19.399  -3.263  0.00  0.00    -0.776 OA
ATOM     64  H   UNK d   0       7.280 -19.046  -3.857  0.00  0.00     0.167 HD
ENDBRANCH  61  63
ENDBRANCH  60  61
ENDBRANCH  18  60
BRANCH  14  65
ATOM     65  C   UNK d   0      10.637 -15.270  -1.008  0.00  0.00     0.052 C 
BRANCH  65  66
ATOM     66  C   UNK d   0       9.574 -14.410  -0.421  0.00  0.00     0.115 C 
BRANCH  66  67
ATOM     67  C   UNK d   0       9.938 -13.232   0.316  0.00  0.00     0.139 C 
ATOM     68  O   UNK d   0      10.728 -13.358   1.322  0.00  0.00    -0.650 OA
BRANCH  67  69
ATOM     69  O   UNK d   0       9.533 -11.919   0.080  0.00  0.00    -0.776 OA
ATOM     70  H   UNK d   0       9.366 -11.344   0.918  0.00  0.00     0.167 HD
ENDBRANCH  67  69
ENDBRANCH  66  67
ENDBRANCH  65  66
ENDBRANCH  14  65
ENDBRANCH   6   7
ENDBRANCH   5   6
ENDBRANCH   2   5
TORSDOF 28
ENDMDL
MODEL 9
REMARK VINA RESULT:      -7.6     32.812     35.510
REMARK  28 active torsions:
REMARK  status: ('A' for Active; 'I' for Inactive)
REMARK    1  A    between atoms: C_2  and  O_3 
REMARK    2  A    between atoms: C_2  and  C_4 
REMARK    3  A    between atoms: C_4  and  C_5 
REMARK    4  A    between atoms: C_5  and  C_6 
REMARK    5  A    between atoms: C_7  and  C_8 
REMARK    6  A    between atoms: C_8  and  C_9 
REMARK    7  A    between atoms: C_9  and  O_11 
REMARK    8  A    between atoms: C_28  and  C_29 
REMARK    9  A    between atoms: C_29  and  C_30 
REMARK   10  A    between atoms: C_30  and  O_32 
REMARK   11  A    between atoms: C_33  and  C_34 
REMARK   12  A    between atoms: C_34  and  C_35 
REMARK   13  A    between atoms: C_35  and  C_36 
REMARK   14  A    between atoms: C_36  and  O_38 
REMARK   15  A    between atoms: C_39  and  C_40 
REMARK   16  A    between atoms: C_40  and  C_41 
REMARK   17  A    between atoms: C_41  and  C_42 
REMARK   18  A    between atoms: C_42  and  O_44 
REMARK   19  A    between atoms: C_45  and  C_46 
REMARK   20  A    between atoms: C_46  and  C_47 
REMARK   21  A    between atoms: C_47  and  O_49 
REMARK   22  A    between atoms: C_50  and  C_51 
REMARK   23  A    between atoms: C_51  and  C_52 
REMARK   24  A    between atoms: C_52  and  O_54 
REMARK   25  A    between atoms: C_55  and  C_56 
REMARK   26  A    between atoms: C_56  and  C_57 
REMARK   27  A    between atoms: C_57  and  C_58 
REMARK   28  A    between atoms: C_58  and  O_60 
ROOT
ATOM      1  O   UNK d   0     -18.412  -3.446   7.143  0.00  0.00    -0.650 OA
ATOM      2  C   UNK d   0     -17.719  -2.551   6.611  0.00  0.00     0.139 C 
ENDROOT
BRANCH   2   3
ATOM      3  O   UNK d   0     -17.481  -1.385   7.299  0.00  0.00    -0.776 OA
ATOM      4  H   UNK d   0     -17.131  -1.401   8.258  0.00  0.00     0.167 HD
ENDBRANCH   2   3
BRANCH   2   5
ATOM      5  C   UNK d   0     -17.159  -2.751   5.244  0.00  0.00     0.115 C 
BRANCH   5   6
ATOM      6  C   UNK d   0     -17.375  -4.172   4.799  0.00  0.00     0.052 C 
BRANCH   6   7
ATOM      7  C   UNK d   0     -18.224  -4.268   3.554  0.00  0.00    -0.020 A 
ATOM      8  C   UNK d   0     -17.878  -4.749   2.388  0.00  0.00    -0.011 A 
ATOM      9  C   UNK d   0     -19.020  -4.624   1.498  0.00  0.00     0.067 A 
ATOM     10  C   UNK d   0     -19.307  -4.958   0.165  0.00  0.00     0.062 C 
ATOM     11  N   UNK d   0     -20.017  -4.051   2.205  0.00  0.00    -0.248 NA
ATOM     12  C   UNK d   0     -20.567  -5.013  -0.442  0.00  0.00     0.041 A 
ATOM     13  N   UNK d   0     -21.626  -4.185  -0.363  0.00  0.00    -0.355 N 
ATOM     14  C   UNK d   0     -20.885  -6.120  -1.250  0.00  0.00    -0.022 A 
ATOM     15  C   UNK d   0     -22.610  -4.742  -1.094  0.00  0.00     0.042 A 
ATOM     16  H   UNK d   0     -21.670  -3.216   0.182  0.00  0.00     0.166 HD
ATOM     17  C   UNK d   0     -23.922  -4.296  -1.349  0.00  0.00     0.062 C 
ATOM     18  C   UNK d   0     -22.183  -5.956  -1.665  0.00  0.00    -0.013 A 
ATOM     19  C   UNK d   0     -24.841  -3.774  -0.475  0.00  0.00     0.067 A 
ATOM     20  N   UNK d   0     -24.401  -3.452   0.744  0.00  0.00    -0.248 NA
ATOM     21  C   UNK d   0     -26.262  -3.469  -0.512  0.00  0.00    -0.011 A 
ATOM     22  C   UNK d   0     -25.431  -2.959   1.507  0.00  0.00     0.066 A 
ATOM     23  C   UNK d   0     -25.105  -2.548   2.791  0.00  0.00     0.062 C 
ATOM     24  C   UNK d   0     -26.602  -2.996   0.653  0.00  0.00    -0.020 A 
ATOM     25  C   UNK d   0     -23.831  -2.489   3.378  0.00  0.00     0.041 A 
ATOM     26  N   UNK d   0     -22.784  -3.319   3.312  0.00  0.00    -0.355 N 
ATOM     27  C   UNK d   0     -23.511  -1.375   4.185  0.00  0.00    -0.022 A 
ATOM     28  C   UNK d   0     -21.803  -2.770   4.047  0.00  0.00     0.042 A 
ATOM     29  H   UNK d   0     -22.744  -4.297   2.772  0.00  0.00     0.166 HD
ATOM     30  C   UNK d   0     -20.497  -3.207   4.317  0.00  0.00     0.062 C 
ATOM     31  C   UNK d   0     -22.230  -1.545   4.611  0.00  0.00    -0.013 A 
ATOM     32  C   UNK d   0     -19.602  -3.812   3.449  0.00  0.00     0.066 A 
BRANCH   8  33
ATOM     33  C   UNK d   0     -16.568  -5.316   2.017  0.00  0.00     0.151 C 
BRANCH  33  34
ATOM     34  C   UNK d   0     -15.776  -4.412   1.163  0.00  0.00     0.143 C 
ATOM     35  O   UNK d   0     -15.504  -4.719  -0.007  0.00  0.00    -0.650 OA
BRANCH  34  36
ATOM     36  O   UNK d   0     -15.334  -3.214   1.674  0.00  0.00    -0.776 OA
ATOM     37  H   UNK d   0     -15.195  -2.394   1.068  0.00  0.00     0.167 HD
ENDBRANCH  34  36
ENDBRANCH  33  34
ENDBRANCH   8  33
BRANCH  31  38
ATOM     38  C   UNK d   0     -21.450  -0.595   5.491  0.00  0.00     0.151 C 
BRANCH  38  39
ATOM     39  C   UNK d   0     -21.399  -1.025   6.873  0.00  0.00     0.143 C 
ATOM     40  O   UNK d   0     -22.284  -1.734   7.383  0.00  0.00    -0.650 OA
BRANCH  39  41
ATOM     41  O   UNK d   0     -20.323  -0.638   7.672  0.00  0.00    -0.776 OA
ATOM     42  H   UNK d   0     -19.948  -1.343   8.314  0.00  0.00     0.167 HD
ENDBRANCH  39  41
ENDBRANCH  38  39
ENDBRANCH  31  38
BRANCH  27  43
ATOM     43  C   UNK d   0     -24.361  -0.185   4.557  0.00  0.00     0.052 C 
BRANCH  43  44
ATOM     44  C   UNK d   0     -23.997   1.057   3.811  0.00  0.00     0.115 C 
BRANCH  44  45
ATOM     45  C   UNK d   0     -24.923   1.143   2.652  0.00  0.00     0.139 C 
ATOM     46  O   UNK d   0     -24.497   0.785   1.526  0.00  0.00    -0.650 OA
BRANCH  45  47
ATOM     47  O   UNK d   0     -26.222   1.590   2.765  0.00  0.00    -0.776 OA
ATOM     48  H   UNK d   0     -27.027   0.952   2.865  0.00  0.00     0.167 HD
ENDBRANCH  45  47
ENDBRANCH  44  45
ENDBRANCH  43  44
ENDBRANCH  27  43
BRANCH  24  49
ATOM     49  C   UNK d   0     -27.942  -2.523   1.040  0.00  0.00     0.052 C 
BRANCH  49  50
ATOM     50  C   UNK d   0     -27.925  -1.034   1.274  0.00  0.00     0.115 C 
BRANCH  50  51
ATOM     51  C   UNK d   0     -27.763  -0.180   0.105  0.00  0.00     0.139 C 
ATOM     52  O   UNK d   0     -28.726   0.162  -0.621  0.00  0.00    -0.650 OA
BRANCH  51  53
ATOM     53  O   UNK d   0     -26.502   0.283  -0.238  0.00  0.00    -0.776 OA
ATOM     54  H   UNK d   0     -26.431   0.982  -0.956  0.00  0.00     0.167 HD
ENDBRANCH  51  53
ENDBRANCH  50  51
ENDBRANCH  49  50
ENDBRANCH  24  49
BRANCH  21  55
ATOM     55  C   UNK d   0     -27.130  -3.677  -1.708  0.00  0.00     0.151 C 
BRANCH  55  56
ATOM     56  C   UNK d   0     -27.626  -5.059  -1.795  0.00  0.00     0.143 C 
ATOM     57  O   UNK d   0     -27.866  -5.623  -2.881  0.00  0.00    -0.650 OA
BRANCH  56  58
ATOM     58  O   UNK d   0     -27.831  -5.752  -0.603  0.00  0.00    -0.776 OA
ATOM     59  H   UNK d   0     -28.731  -6.260  -0.543  0.00  0.00     0.167 HD
ENDBRANCH  56  58
ENDBRANCH  55  56
ENDBRANCH  21  55
BRANCH  18  60
ATOM     60  C   UNK d   0     -22.936  -6.921  -2.547  0.00  0.00     0.151 C 
BRANCH  60  61
ATOM     61  C   UNK d   0     -23.569  -7.889  -1.639  0.00  0.00     0.143 C 
ATOM     62  O   UNK d   0     -24.421  -7.656  -0.781  0.00  0.00    -0.650 OA
BRANCH  61  63
ATOM     63  O   UNK d   0     -23.134  -9.228  -1.789  0.00  0.00    -0.776 OA
ATOM     64  H   UNK d   0     -23.094  -9.851  -1.002  0.00  0.00     0.167 HD
ENDBRANCH  61  63
ENDBRANCH  60  61
ENDBRANCH  18  60
BRANCH  14  65
ATOM     65  C   UNK d   0     -20.032  -7.258  -1.734  0.00  0.00     0.052 C 
BRANCH  65  66
ATOM     66  C   UNK d   0     -19.073  -6.855  -2.797  0.00  0.00     0.115 C 
BRANCH  66  67
ATOM     67  C   UNK d   0     -19.270  -7.311  -4.144  0.00  0.00     0.139 C 
ATOM     68  O   UNK d   0     -18.399  -8.105  -4.657  0.00  0.00    -0.650 OA
BRANCH  67  69
ATOM     69  O   UNK d   0     -20.320  -6.996  -5.006  0.00  0.00    -0.776 OA
ATOM     70  H   UNK d   0     -21.256  -7.300  -4.701  0.00  0.00     0.167 HD
ENDBRANCH  67  69
ENDBRANCH  66  67
ENDBRANCH  65  66
ENDBRANCH  14  65
ENDBRANCH   6   7
ENDBRANCH   5   6
ENDBRANCH   2   5
TORSDOF 28
ENDMDL
MODEL 10
REMARK VINA RESULT:      -7.4     26.461     31.763
REMARK  28 active torsions:
REMARK  status: ('A' for Active; 'I' for Inactive)
REMARK    1  A    between atoms: C_2  and  O_3 
REMARK    2  A    between atoms: C_2  and  C_4 
REMARK    3  A    between atoms: C_4  and  C_5 
REMARK    4  A    between atoms: C_5  and  C_6 
REMARK    5  A    between atoms: C_7  and  C_8 
REMARK    6  A    between atoms: C_8  and  C_9 
REMARK    7  A    between atoms: C_9  and  O_11 
REMARK    8  A    between atoms: C_28  and  C_29 
REMARK    9  A    between atoms: C_29  and  C_30 
REMARK   10  A    between atoms: C_30  and  O_32 
REMARK   11  A    between atoms: C_33  and  C_34 
REMARK   12  A    between atoms: C_34  and  C_35 
REMARK   13  A    between atoms: C_35  and  C_36 
REMARK   14  A    between atoms: C_36  and  O_38 
REMARK   15  A    between atoms: C_39  and  C_40 
REMARK   16  A    between atoms: C_40  and  C_41 
REMARK   17  A    between atoms: C_41  and  C_42 
REMARK   18  A    between atoms: C_42  and  O_44 
REMARK   19  A    between atoms: C_45  and  C_46 
REMARK   20  A    between atoms: C_46  and  C_47 
REMARK   21  A    between atoms: C_47  and  O_49 
REMARK   22  A    between atoms: C_50  and  C_51 
REMARK   23  A    between atoms: C_51  and  C_52 
REMARK   24  A    between atoms: C_52  and  O_54 
REMARK   25  A    between atoms: C_55  and  C_56 
REMARK   26  A    between atoms: C_56  and  C_57 
REMARK   27  A    between atoms: C_57  and  C_58 
REMARK   28  A    between atoms: C_58  and  O_60 
ROOT
ATOM      1  O   UNK d   0      13.557  17.346  -3.217  0.00  0.00    -0.650 OA
ATOM      2  C   UNK d   0      12.932  16.325  -3.581  0.00  0.00     0.139 C 
ENDROOT
BRANCH   2   3
ATOM      3  O   UNK d   0      13.122  15.143  -2.906  0.00  0.00    -0.776 OA
ATOM      4  H   UNK d   0      12.857  14.249  -3.324  0.00  0.00     0.167 HD
ENDBRANCH   2   3
BRANCH   2   5
ATOM      5  C   UNK d   0      11.994  16.394  -4.737  0.00  0.00     0.115 C 
BRANCH   5   6
ATOM      6  C   UNK d   0      12.483  15.513  -5.854  0.00  0.00     0.052 C 
BRANCH   6   7
ATOM      7  C   UNK d   0      13.129  16.296  -6.972  0.00  0.00    -0.020 A 
ATOM      8  C   UNK d   0      12.558  16.765  -8.052  0.00  0.00    -0.011 A 
ATOM      9  C   UNK d   0      13.577  17.441  -8.836  0.00  0.00     0.067 A 
ATOM     10  C   UNK d   0      13.619  18.150 -10.047  0.00  0.00     0.062 C 
ATOM     11  N   UNK d   0      14.741  17.330  -8.162  0.00  0.00    -0.248 NA
ATOM     12  C   UNK d   0      14.649  18.975 -10.511  0.00  0.00     0.041 A 
ATOM     13  N   UNK d   0      15.987  18.818 -10.493  0.00  0.00    -0.355 N 
ATOM     14  C   UNK d   0      14.323  20.230 -11.057  0.00  0.00    -0.022 A 
ATOM     15  C   UNK d   0      16.517  19.944 -11.007  0.00  0.00     0.042 A 
ATOM     16  H   UNK d   0      16.544  17.921 -10.143  0.00  0.00     0.166 HD
ATOM     17  C   UNK d   0      17.863  20.306 -11.218  0.00  0.00     0.062 C 
ATOM     18  C   UNK d   0      15.505  20.853 -11.371  0.00  0.00    -0.013 A 
ATOM     19  C   UNK d   0      18.937  20.161 -10.378  0.00  0.00     0.067 A 
ATOM     20  N   UNK d   0      18.757  19.407  -9.291  0.00  0.00    -0.248 NA
ATOM     21  C   UNK d   0      20.305  20.649 -10.338  0.00  0.00    -0.011 A 
ATOM     22  C   UNK d   0      19.908  19.367  -8.542  0.00  0.00     0.066 A 
ATOM     23  C   UNK d   0      19.872  18.584  -7.398  0.00  0.00     0.062 C 
ATOM     24  C   UNK d   0      20.867  20.184  -9.260  0.00  0.00    -0.020 A 
ATOM     25  C   UNK d   0      18.832  17.752  -6.957  0.00  0.00     0.041 A 
ATOM     26  N   UNK d   0      17.503  17.914  -6.960  0.00  0.00    -0.355 N 
ATOM     27  C   UNK d   0      19.160  16.491  -6.413  0.00  0.00    -0.022 A 
ATOM     28  C   UNK d   0      16.972  16.796  -6.441  0.00  0.00     0.042 A 
ATOM     29  H   UNK d   0      16.945  18.820  -7.303  0.00  0.00     0.166 HD
ATOM     30  C   UNK d   0      15.637  16.427  -6.216  0.00  0.00     0.062 C 
ATOM     31  C   UNK d   0      17.989  15.880  -6.084  0.00  0.00    -0.013 A 
ATOM     32  C   UNK d   0      14.539  16.652  -7.032  0.00  0.00     0.066 A 
BRANCH   8  33
ATOM     33  C   UNK d   0      11.138  16.638  -8.428  0.00  0.00     0.151 C 
BRANCH  33  34
ATOM     34  C   UNK d   0      10.335  17.810  -8.031  0.00  0.00     0.143 C 
ATOM     35  O   UNK d   0      10.399  18.870  -8.669  0.00  0.00    -0.650 OA
BRANCH  34  36
ATOM     36  O   UNK d   0       9.507  17.721  -6.937  0.00  0.00    -0.776 OA
ATOM     37  H   UNK d   0       9.015  16.846  -6.708  0.00  0.00     0.167 HD
ENDBRANCH  34  36
ENDBRANCH  33  34
ENDBRANCH   8  33
BRANCH  31  38
ATOM     38  C   UNK d   0      17.842  14.502  -5.481  0.00  0.00     0.151 C 
BRANCH  38  39
ATOM     39  C   UNK d   0      17.943  13.445  -6.464  0.00  0.00     0.143 C 
ATOM     40  O   UNK d   0      18.948  12.719  -6.559  0.00  0.00    -0.650 OA
BRANCH  39  41
ATOM     41  O   UNK d   0      16.882  13.220  -7.341  0.00  0.00    -0.776 OA
ATOM     42  H   UNK d   0      16.487  12.275  -7.355  0.00  0.00     0.167 HD
ENDBRANCH  39  41
ENDBRANCH  38  39
ENDBRANCH  31  38
BRANCH  27  43
ATOM     43  C   UNK d   0      20.515  15.863  -6.198  0.00  0.00     0.052 C 
BRANCH  43  44
ATOM     44  C   UNK d   0      21.072  16.114  -4.834  0.00  0.00     0.115 C 
BRANCH  44  45
ATOM     45  C   UNK d   0      21.609  14.816  -4.350  0.00  0.00     0.139 C 
ATOM     46  O   UNK d   0      22.650  14.831  -3.647  0.00  0.00    -0.650 OA
BRANCH  45  47
ATOM     47  O   UNK d   0      21.012  13.607  -4.635  0.00  0.00    -0.776 OA
ATOM     48  H   UNK d   0      20.102  13.532  -5.119  0.00  0.00     0.167 HD
ENDBRANCH  45  47
ENDBRANCH  44  45
ENDBRANCH  43  44
ENDBRANCH  27  43
BRANCH  24  49
ATOM     49  C   UNK d   0      22.264  20.401  -8.845  0.00  0.00     0.052 C 
BRANCH  49  50
ATOM     50  C   UNK d   0      23.153  19.325  -9.416  0.00  0.00     0.115 C 
BRANCH  50  51
ATOM     51  C   UNK d   0      24.401  19.753 -10.033  0.00  0.00     0.139 C 
ATOM     52  O   UNK d   0      25.349  20.242  -9.373  0.00  0.00    -0.650 OA
BRANCH  51  53
ATOM     53  O   UNK d   0      24.568  19.625 -11.403  0.00  0.00    -0.776 OA
ATOM     54  H   UNK d   0      23.760  19.422 -11.964  0.00  0.00     0.167 HD
ENDBRANCH  51  53
ENDBRANCH  50  51
ENDBRANCH  49  50
ENDBRANCH  24  49
BRANCH  21  55
ATOM     55  C   UNK d   0      20.910  21.525 -11.385  0.00  0.00     0.151 C 
BRANCH  55  56
ATOM     56  C   UNK d   0      21.477  20.746 -12.496  0.00  0.00     0.143 C 
ATOM     57  O   UNK d   0      20.945  19.706 -12.932  0.00  0.00    -0.650 OA
BRANCH  56  58
ATOM     58  O   UNK d   0      22.660  21.205 -13.074  0.00  0.00    -0.776 OA
ATOM     59  H   UNK d   0      23.128  21.972 -12.558  0.00  0.00     0.167 HD
ENDBRANCH  56  58
ENDBRANCH  55  56
ENDBRANCH  21  55
BRANCH  18  60
ATOM     60  C   UNK d   0      15.622  22.230 -11.977  0.00  0.00     0.151 C 
BRANCH  60  61
ATOM     61  C   UNK d   0      15.949  23.134 -10.864  0.00  0.00     0.143 C 
ATOM     62  O   UNK d   0      15.243  23.399  -9.891  0.00  0.00    -0.650 OA
BRANCH  61  63
ATOM     63  O   UNK d   0      17.220  23.753 -10.944  0.00  0.00    -0.776 OA
ATOM     64  H   UNK d   0      17.377  24.536 -11.553  0.00  0.00     0.167 HD
ENDBRANCH  61  63
ENDBRANCH  60  61
ENDBRANCH  18  60
BRANCH  14  65
ATOM     65  C   UNK d   0      12.990  20.837 -11.392  0.00  0.00     0.052 C 
BRANCH  65  66
ATOM     66  C   UNK d   0      12.318  21.450 -10.214  0.00  0.00     0.115 C 
BRANCH  66  67
ATOM     67  C   UNK d   0      10.936  21.830 -10.301  0.00  0.00     0.139 C 
ATOM     68  O   UNK d   0      10.628  23.067 -10.135  0.00  0.00    -0.650 OA
BRANCH  67  69
ATOM     69  O   UNK d   0       9.839  21.006 -10.552  0.00  0.00    -0.776 OA
ATOM     70  H   UNK d   0       8.971  21.253 -10.055  0.00  0.00     0.167 HD
ENDBRANCH  67  69
ENDBRANCH  66  67
ENDBRANCH  65  66
ENDBRANCH  14  65
ENDBRANCH   6   7
ENDBRANCH   5   6
ENDBRANCH   2   5
TORSDOF 28
ENDMDL
MODEL 11
REMARK VINA RESULT:      -7.3     11.406     15.453
REMARK  28 active torsions:
REMARK  status: ('A' for Active; 'I' for Inactive)
REMARK    1  A    between atoms: C_2  and  O_3 
REMARK    2  A    between atoms: C_2  and  C_4 
REMARK    3  A    between atoms: C_4  and  C_5 
REMARK    4  A    between atoms: C_5  and  C_6 
REMARK    5  A    between atoms: C_7  and  C_8 
REMARK    6  A    between atoms: C_8  and  C_9 
REMARK    7  A    between atoms: C_9  and  O_11 
REMARK    8  A    between atoms: C_28  and  C_29 
REMARK    9  A    between atoms: C_29  and  C_30 
REMARK   10  A    between atoms: C_30  and  O_32 
REMARK   11  A    between atoms: C_33  and  C_34 
REMARK   12  A    between atoms: C_34  and  C_35 
REMARK   13  A    between atoms: C_35  and  C_36 
REMARK   14  A    between atoms: C_36  and  O_38 
REMARK   15  A    between atoms: C_39  and  C_40 
REMARK   16  A    between atoms: C_40  and  C_41 
REMARK   17  A    between atoms: C_41  and  C_42 
REMARK   18  A    between atoms: C_42  and  O_44 
REMARK   19  A    between atoms: C_45  and  C_46 
REMARK   20  A    between atoms: C_46  and  C_47 
REMARK   21  A    between atoms: C_47  and  O_49 
REMARK   22  A    between atoms: C_50  and  C_51 
REMARK   23  A    between atoms: C_51  and  C_52 
REMARK   24  A    between atoms: C_52  and  O_54 
REMARK   25  A    between atoms: C_55  and  C_56 
REMARK   26  A    between atoms: C_56  and  C_57 
REMARK   27  A    between atoms: C_57  and  C_58 
REMARK   28  A    between atoms: C_58  and  O_60 
ROOT
ATOM      1  O   UNK d   0      -0.378 -19.374 -10.312  0.00  0.00    -0.650 OA
ATOM      2  C   UNK d   0      -1.161 -18.399 -10.263  0.00  0.00     0.139 C 
ENDROOT
BRANCH   2   3
ATOM      3  O   UNK d   0      -2.375 -18.542  -9.636  0.00  0.00    -0.776 OA
ATOM      4  H   UNK d   0      -3.213 -18.801 -10.162  0.00  0.00     0.167 HD
ENDBRANCH   2   3
BRANCH   2   5
ATOM      5  C   UNK d   0      -0.776 -17.099 -10.881  0.00  0.00     0.115 C 
BRANCH   5   6
ATOM      6  C   UNK d   0       0.451 -16.548 -10.206  0.00  0.00     0.052 C 
BRANCH   6   7
ATOM      7  C   UNK d   0       1.214 -15.584 -11.083  0.00  0.00    -0.020 A 
ATOM      8  C   UNK d   0       2.385 -15.765 -11.637  0.00  0.00    -0.011 A 
ATOM      9  C   UNK d   0       2.716 -14.561 -12.382  0.00  0.00     0.067 A 
ATOM     10  C   UNK d   0       3.780 -14.130 -13.189  0.00  0.00     0.062 C 
ATOM     11  N   UNK d   0       1.692 -13.697 -12.221  0.00  0.00    -0.248 NA
ATOM     12  C   UNK d   0       3.795 -13.032 -14.056  0.00  0.00     0.041 A 
ATOM     13  N   UNK d   0       3.328 -11.778 -13.906  0.00  0.00    -0.355 N 
ATOM     14  C   UNK d   0       4.323 -13.193 -15.350  0.00  0.00    -0.022 A 
ATOM     15  C   UNK d   0       3.540 -11.142 -15.074  0.00  0.00     0.042 A 
ATOM     16  H   UNK d   0       2.877 -11.345 -12.986  0.00  0.00     0.166 HD
ATOM     17  C   UNK d   0       3.245  -9.819 -15.459  0.00  0.00     0.062 C 
ATOM     18  C   UNK d   0       4.161 -11.997 -16.004  0.00  0.00    -0.013 A 
ATOM     19  C   UNK d   0       2.099  -9.094 -15.251  0.00  0.00     0.067 A 
ATOM     20  N   UNK d   0       1.202  -9.611 -14.408  0.00  0.00    -0.248 NA
ATOM     21  C   UNK d   0       1.553  -7.840 -15.742  0.00  0.00    -0.011 A 
ATOM     22  C   UNK d   0       0.108  -8.787 -14.313  0.00  0.00     0.066 A 
ATOM     23  C   UNK d   0      -0.891  -9.187 -13.437  0.00  0.00     0.062 C 
ATOM     24  C   UNK d   0       0.385  -7.668 -15.192  0.00  0.00    -0.020 A 
ATOM     25  C   UNK d   0      -0.881 -10.287 -12.565  0.00  0.00     0.041 A 
ATOM     26  N   UNK d   0      -0.431 -11.538 -12.720  0.00  0.00    -0.355 N 
ATOM     27  C   UNK d   0      -1.407 -10.123 -11.265  0.00  0.00    -0.022 A 
ATOM     28  C   UNK d   0      -0.648 -12.177 -11.559  0.00  0.00     0.042 A 
ATOM     29  H   UNK d   0       0.013 -11.974 -13.648  0.00  0.00     0.166 HD
ATOM     30  C   UNK d   0      -0.369 -13.495 -11.165  0.00  0.00     0.062 C 
ATOM     31  C   UNK d   0      -1.263 -11.314 -10.622  0.00  0.00    -0.013 A 
ATOM     32  C   UNK d   0       0.756 -14.252 -11.451  0.00  0.00     0.066 A 
BRANCH   8  33
ATOM     33  C   UNK d   0       3.237 -16.964 -11.534  0.00  0.00     0.151 C 
BRANCH  33  34
ATOM     34  C   UNK d   0       4.430 -16.746 -10.696  0.00  0.00     0.143 C 
ATOM     35  O   UNK d   0       4.347 -16.742  -9.459  0.00  0.00    -0.650 OA
BRANCH  34  36
ATOM     36  O   UNK d   0       5.650 -16.542 -11.298  0.00  0.00    -0.776 OA
ATOM     37  H   UNK d   0       6.118 -15.626 -11.259  0.00  0.00     0.167 HD
ENDBRANCH  34  36
ENDBRANCH  33  34
ENDBRANCH   8  33
BRANCH  31  38
ATOM     38  C   UNK d   0      -1.672 -11.613  -9.198  0.00  0.00     0.151 C 
BRANCH  38  39
ATOM     39  C   UNK d   0      -0.565 -11.538  -8.269  0.00  0.00     0.143 C 
ATOM     40  O   UNK d   0      -0.675 -11.869  -7.075  0.00  0.00    -0.650 OA
BRANCH  39  41
ATOM     41  O   UNK d   0       0.675 -11.080  -8.714  0.00  0.00    -0.776 OA
ATOM     42  H   UNK d   0       0.882 -11.202  -9.710  0.00  0.00     0.167 HD
ENDBRANCH  39  41
ENDBRANCH  38  39
ENDBRANCH  31  38
BRANCH  27  43
ATOM     43  C   UNK d   0      -2.028  -8.904 -10.629  0.00  0.00     0.052 C 
BRANCH  43  44
ATOM     44  C   UNK d   0      -1.252  -8.386  -9.463  0.00  0.00     0.115 C 
BRANCH  44  45
ATOM     45  C   UNK d   0       0.061  -7.934  -9.994  0.00  0.00     0.139 C 
ATOM     46  O   UNK d   0       1.102  -8.450  -9.516  0.00  0.00    -0.650 OA
BRANCH  45  47
ATOM     47  O   UNK d   0       0.179  -6.983 -10.985  0.00  0.00    -0.776 OA
ATOM     48  H   UNK d   0      -0.447  -6.949 -11.805  0.00  0.00     0.167 HD
ENDBRANCH  45  47
ENDBRANCH  44  45
ENDBRANCH  43  44
ENDBRANCH  27  43
BRANCH  24  49
ATOM     49  C   UNK d   0      -0.501  -6.507 -15.381  0.00  0.00     0.052 C 
BRANCH  49  50
ATOM     50  C   UNK d   0      -0.566  -5.686 -14.119  0.00  0.00     0.115 C 
BRANCH  50  51
ATOM     51  C   UNK d   0      -1.879  -5.490 -13.520  0.00  0.00     0.139 C 
ATOM     52  O   UNK d   0      -2.893  -5.193 -14.195  0.00  0.00    -0.650 OA
BRANCH  51  53
ATOM     53  O   UNK d   0      -2.036  -5.630 -12.149  0.00  0.00    -0.776 OA
ATOM     54  H   UNK d   0      -1.619  -6.428 -11.702  0.00  0.00     0.167 HD
ENDBRANCH  51  53
ENDBRANCH  50  51
ENDBRANCH  49  50
ENDBRANCH  24  49
BRANCH  21  55
ATOM     55  C   UNK d   0       2.256  -6.943 -16.705  0.00  0.00     0.151 C 
BRANCH  55  56
ATOM     56  C   UNK d   0       1.986  -7.315 -18.103  0.00  0.00     0.143 C 
ATOM     57  O   UNK d   0       1.091  -6.776 -18.784  0.00  0.00    -0.650 OA
BRANCH  56  58
ATOM     58  O   UNK d   0       2.775  -8.313 -18.673  0.00  0.00    -0.776 OA
ATOM     59  H   UNK d   0       3.057  -8.139 -19.654  0.00  0.00     0.167 HD
ENDBRANCH  56  58
ENDBRANCH  55  56
ENDBRANCH  21  55
BRANCH  18  60
ATOM     60  C   UNK d   0       4.582 -11.726 -17.427  0.00  0.00     0.151 C 
BRANCH  60  61
ATOM     61  C   UNK d   0       3.399 -12.000 -18.257  0.00  0.00     0.143 C 
ATOM     62  O   UNK d   0       2.466 -11.232 -18.496  0.00  0.00    -0.650 OA
BRANCH  61  63
ATOM     63  O   UNK d   0       3.354 -13.292 -18.833  0.00  0.00    -0.776 OA
ATOM     64  H   UNK d   0       2.931 -14.062 -18.346  0.00  0.00     0.167 HD
ENDBRANCH  61  63
ENDBRANCH  60  61
ENDBRANCH  18  60
BRANCH  14  65
ATOM     65  C   UNK d   0       5.050 -14.350 -15.976  0.00  0.00     0.052 C 
BRANCH  65  66
ATOM     66  C   UNK d   0       6.520 -14.302 -15.752  0.00  0.00     0.115 C 
BRANCH  66  67
ATOM     67  C   UNK d   0       7.125 -15.196 -14.806  0.00  0.00     0.139 C 
ATOM     68  O   UNK d   0       6.880 -16.455 -14.908  0.00  0.00    -0.650 OA
BRANCH  67  69
ATOM     69  O   UNK d   0       7.977 -14.873 -13.750  0.00  0.00    -0.776 OA
ATOM     70  H   UNK d   0       7.516 -14.632 -12.861  0.00  0.00     0.167 HD
ENDBRANCH  67  69
ENDBRANCH  66  67
ENDBRANCH  65  66
ENDBRANCH  14  65
ENDBRANCH   6   7
ENDBRANCH   5   6
ENDBRANCH   2   5
TORSDOF 28
ENDMDL
MODEL 12
REMARK VINA RESULT:      -7.2     21.142     23.288
REMARK  28 active torsions:
REMARK  status: ('A' for Active; 'I' for Inactive)
REMARK    1  A    between atoms: C_2  and  O_3 
REMARK    2  A    between atoms: C_2  and  C_4 
REMARK    3  A    between atoms: C_4  and  C_5 
REMARK    4  A    between atoms: C_5  and  C_6 
REMARK    5  A    between atoms: C_7  and  C_8 
REMARK    6  A    between atoms: C_8  and  C_9 
REMARK    7  A    between atoms: C_9  and  O_11 
REMARK    8  A    between atoms: C_28  and  C_29 
REMARK    9  A    between atoms: C_29  and  C_30 
REMARK   10  A    between atoms: C_30  and  O_32 
REMARK   11  A    between atoms: C_33  and  C_34 
REMARK   12  A    between atoms: C_34  and  C_35 
REMARK   13  A    between atoms: C_35  and  C_36 
REMARK   14  A    between atoms: C_36  and  O_38 
REMARK   15  A    between atoms: C_39  and  C_40 
REMARK   16  A    between atoms: C_40  and  C_41 
REMARK   17  A    between atoms: C_41  and  C_42 
REMARK   18  A    between atoms: C_42  and  O_44 
REMARK   19  A    between atoms: C_45  and  C_46 
REMARK   20  A    between atoms: C_46  and  C_47 
REMARK   21  A    between atoms: C_47  and  O_49 
REMARK   22  A    between atoms: C_50  and  C_51 
REMARK   23  A    between atoms: C_51  and  C_52 
REMARK   24  A    between atoms: C_52  and  O_54 
REMARK   25  A    between atoms: C_55  and  C_56 
REMARK   26  A    between atoms: C_56  and  C_57 
REMARK   27  A    between atoms: C_57  and  C_58 
REMARK   28  A    between atoms: C_58  and  O_60 
ROOT
ATOM      1  O   UNK d   0     -17.507  -6.813  -3.979  0.00  0.00    -0.650 OA
ATOM      2  C   UNK d   0     -16.696  -5.868  -3.857  0.00  0.00     0.139 C 
ENDROOT
BRANCH   2   3
ATOM      3  O   UNK d   0     -17.076  -4.602  -4.233  0.00  0.00    -0.776 OA
ATOM      4  H   UNK d   0     -16.417  -3.967  -4.690  0.00  0.00     0.167 HD
ENDBRANCH   2   3
BRANCH   2   5
ATOM      5  C   UNK d   0     -15.332  -6.118  -3.310  0.00  0.00     0.115 C 
BRANCH   5   6
ATOM      6  C   UNK d   0     -14.491  -4.876  -3.428  0.00  0.00     0.052 C 
BRANCH   6   7
ATOM      7  C   UNK d   0     -13.788  -4.526  -2.139  0.00  0.00    -0.020 A 
ATOM      8  C   UNK d   0     -14.315  -4.017  -1.055  0.00  0.00    -0.011 A 
ATOM      9  C   UNK d   0     -13.250  -3.845  -0.081  0.00  0.00     0.067 A 
ATOM     10  C   UNK d   0     -13.152  -3.384   1.242  0.00  0.00     0.062 C 
ATOM     11  N   UNK d   0     -12.106  -4.269  -0.659  0.00  0.00    -0.248 NA
ATOM     12  C   UNK d   0     -12.076  -3.553   2.120  0.00  0.00     0.041 A 
ATOM     13  N   UNK d   0     -10.747  -3.446   1.925  0.00  0.00    -0.355 N 
ATOM     14  C   UNK d   0     -12.334  -3.957   3.442  0.00  0.00    -0.022 A 
ATOM     15  C   UNK d   0     -10.156  -3.780   3.088  0.00  0.00     0.042 A 
ATOM     16  H   UNK d   0     -10.239  -3.123   0.991  0.00  0.00     0.166 HD
ATOM     17  C   UNK d   0      -8.791  -3.835   3.436  0.00  0.00     0.062 C 
ATOM     18  C   UNK d   0     -11.118  -4.107   4.063  0.00  0.00    -0.013 A 
ATOM     19  C   UNK d   0      -7.742  -4.365   2.729  0.00  0.00     0.067 A 
ATOM     20  N   UNK d   0      -7.978  -4.705   1.459  0.00  0.00    -0.248 NA
ATOM     21  C   UNK d   0      -6.354  -4.693   3.008  0.00  0.00    -0.011 A 
ATOM     22  C   UNK d   0      -6.846  -5.232   0.888  0.00  0.00     0.066 A 
ATOM     23  C   UNK d   0      -6.940  -5.594  -0.447  0.00  0.00     0.062 C 
ATOM     24  C   UNK d   0      -5.837  -5.204   1.929  0.00  0.00    -0.020 A 
ATOM     25  C   UNK d   0      -8.026  -5.404  -1.316  0.00  0.00     0.041 A 
ATOM     26  N   UNK d   0      -9.346  -5.525  -1.127  0.00  0.00    -0.355 N 
ATOM     27  C   UNK d   0      -7.767  -4.994  -2.642  0.00  0.00    -0.022 A 
ATOM     28  C   UNK d   0      -9.938  -5.201  -2.287  0.00  0.00     0.042 A 
ATOM     29  H   UNK d   0      -9.855  -5.860  -0.190  0.00  0.00     0.166 HD
ATOM     30  C   UNK d   0     -11.293  -5.151  -2.650  0.00  0.00     0.062 C 
ATOM     31  C   UNK d   0      -8.970  -4.863  -3.263  0.00  0.00    -0.013 A 
ATOM     32  C   UNK d   0     -12.362  -4.692  -1.897  0.00  0.00     0.066 A 
BRANCH   8  33
ATOM     33  C   UNK d   0     -15.731  -3.668  -0.839  0.00  0.00     0.151 C 
BRANCH  33  34
ATOM     34  C   UNK d   0     -16.098  -2.374  -1.441  0.00  0.00     0.143 C 
ATOM     35  O   UNK d   0     -16.883  -2.317  -2.399  0.00  0.00    -0.650 OA
BRANCH  34  36
ATOM     36  O   UNK d   0     -15.559  -1.215  -0.932  0.00  0.00    -0.776 OA
ATOM     37  H   UNK d   0     -16.112  -0.588  -0.332  0.00  0.00     0.167 HD
ENDBRANCH  34  36
ENDBRANCH  33  34
ENDBRANCH   8  33
BRANCH  31  38
ATOM     38  C   UNK d   0      -9.192  -4.429  -4.693  0.00  0.00     0.151 C 
BRANCH  38  39
ATOM     39  C   UNK d   0      -9.185  -5.538  -5.624  0.00  0.00     0.143 C 
ATOM     40  O   UNK d   0      -9.167  -6.723  -5.247  0.00  0.00    -0.650 OA
BRANCH  39  41
ATOM     41  O   UNK d   0      -9.199  -5.283  -6.995  0.00  0.00    -0.776 OA
ATOM     42  H   UNK d   0      -8.528  -5.805  -7.568  0.00  0.00     0.167 HD
ENDBRANCH  39  41
ENDBRANCH  38  39
ENDBRANCH  31  38
BRANCH  27  43
ATOM     43  C   UNK d   0      -6.447  -4.731  -3.322  0.00  0.00     0.052 C 
BRANCH  43  44
ATOM     44  C   UNK d   0      -5.849  -5.952  -3.944  0.00  0.00     0.115 C 
BRANCH  44  45
ATOM     45  C   UNK d   0      -4.522  -6.147  -3.305  0.00  0.00     0.139 C 
ATOM     46  O   UNK d   0      -3.931  -7.240  -3.491  0.00  0.00    -0.650 OA
BRANCH  45  47
ATOM     47  O   UNK d   0      -3.918  -5.183  -2.527  0.00  0.00    -0.776 OA
ATOM     48  H   UNK d   0      -2.893  -5.091  -2.444  0.00  0.00     0.167 HD
ENDBRANCH  45  47
ENDBRANCH  44  45
ENDBRANCH  43  44
ENDBRANCH  27  43
BRANCH  24  49
ATOM     49  C   UNK d   0      -4.440  -5.640   1.757  0.00  0.00     0.052 C 
BRANCH  49  50
ATOM     50  C   UNK d   0      -4.334  -7.135   1.920  0.00  0.00     0.115 C 
BRANCH  50  51
ATOM     51  C   UNK d   0      -4.117  -7.643   3.267  0.00  0.00     0.139 C 
ATOM     52  O   UNK d   0      -5.058  -7.880   4.061  0.00  0.00    -0.650 OA
BRANCH  51  53
ATOM     53  O   UNK d   0      -2.825  -7.880   3.712  0.00  0.00    -0.776 OA
ATOM     54  H   UNK d   0      -2.688  -8.570   4.429  0.00  0.00     0.167 HD
ENDBRANCH  51  53
ENDBRANCH  50  51
ENDBRANCH  49  50
ENDBRANCH  24  49
BRANCH  21  55
ATOM     55  C   UNK d   0      -5.689  -4.458   4.324  0.00  0.00     0.151 C 
BRANCH  55  56
ATOM     56  C   UNK d   0      -4.440  -3.694   4.182  0.00  0.00     0.143 C 
ATOM     57  O   UNK d   0      -3.359  -4.071   4.674  0.00  0.00    -0.650 OA
BRANCH  56  58
ATOM     58  O   UNK d   0      -4.488  -2.501   3.463  0.00  0.00    -0.776 OA
ATOM     59  H   UNK d   0      -5.419  -2.261   3.076  0.00  0.00     0.167 HD
ENDBRANCH  56  58
ENDBRANCH  55  56
ENDBRANCH  21  55
BRANCH  18  60
ATOM     60  C   UNK d   0     -10.926  -4.539   5.496  0.00  0.00     0.151 C 
BRANCH  60  61
ATOM     61  C   UNK d   0     -10.534  -5.955   5.441  0.00  0.00     0.143 C 
ATOM     62  O   UNK d   0     -10.811  -6.769   4.559  0.00  0.00    -0.650 OA
BRANCH  61  63
ATOM     63  O   UNK d   0      -9.754  -6.407   6.533  0.00  0.00    -0.776 OA
ATOM     64  H   UNK d   0      -8.777  -6.184   6.599  0.00  0.00     0.167 HD
ENDBRANCH  61  63
ENDBRANCH  60  61
ENDBRANCH  18  60
BRANCH  14  65
ATOM     65  C   UNK d   0     -13.630  -4.116   4.184  0.00  0.00     0.052 C 
BRANCH  65  66
ATOM     66  C   UNK d   0     -14.091  -5.529   4.254  0.00  0.00     0.115 C 
BRANCH  66  67
ATOM     67  C   UNK d   0     -14.041  -6.353   3.080  0.00  0.00     0.139 C 
ATOM     68  O   UNK d   0     -14.964  -6.217   2.194  0.00  0.00    -0.650 OA
BRANCH  67  69
ATOM     69  O   UNK d   0     -13.089  -7.319   2.756  0.00  0.00    -0.776 OA
ATOM     70  H   UNK d   0     -12.983  -7.524   1.752  0.00  0.00     0.167 HD
ENDBRANCH  67  69
ENDBRANCH  66  67
ENDBRANCH  65  66
ENDBRANCH  14  65
ENDBRANCH   6   7
ENDBRANCH   5   6
ENDBRANCH   2   5
TORSDOF 28
ENDMDL
MODEL 13
REMARK VINA RESULT:      -7.2     25.178     31.186
REMARK  28 active torsions:
REMARK  status: ('A' for Active; 'I' for Inactive)
REMARK    1  A    between atoms: C_2  and  O_3 
REMARK    2  A    between atoms: C_2  and  C_4 
REMARK    3  A    between atoms: C_4  and  C_5 
REMARK    4  A    between atoms: C_5  and  C_6 
REMARK    5  A    between atoms: C_7  and  C_8 
REMARK    6  A    between atoms: C_8  and  C_9 
REMARK    7  A    between atoms: C_9  and  O_11 
REMARK    8  A    between atoms: C_28  and  C_29 
REMARK    9  A    between atoms: C_29  and  C_30 
REMARK   10  A    between atoms: C_30  and  O_32 
REMARK   11  A    between atoms: C_33  and  C_34 
REMARK   12  A    between atoms: C_34  and  C_35 
REMARK   13  A    between atoms: C_35  and  C_36 
REMARK   14  A    between atoms: C_36  and  O_38 
REMARK   15  A    between atoms: C_39  and  C_40 
REMARK   16  A    between atoms: C_40  and  C_41 
REMARK   17  A    between atoms: C_41  and  C_42 
REMARK   18  A    between atoms: C_42  and  O_44 
REMARK   19  A    between atoms: C_45  and  C_46 
REMARK   20  A    between atoms: C_46  and  C_47 
REMARK   21  A    between atoms: C_47  and  O_49 
REMARK   22  A    between atoms: C_50  and  C_51 
REMARK   23  A    between atoms: C_51  and  C_52 
REMARK   24  A    between atoms: C_52  and  O_54 
REMARK   25  A    between atoms: C_55  and  C_56 
REMARK   26  A    between atoms: C_56  and  C_57 
REMARK   27  A    between atoms: C_57  and  C_58 
REMARK   28  A    between atoms: C_58  and  O_60 
ROOT
ATOM      1  O   UNK d   0      13.445  17.481  -3.518  0.00  0.00    -0.650 OA
ATOM      2  C   UNK d   0      12.841  16.406  -3.734  0.00  0.00     0.139 C 
ENDROOT
BRANCH   2   3
ATOM      3  O   UNK d   0      13.178  15.288  -3.010  0.00  0.00    -0.776 OA
ATOM      4  H   UNK d   0      13.860  14.614  -3.367  0.00  0.00     0.167 HD
ENDBRANCH   2   3
BRANCH   2   5
ATOM      5  C   UNK d   0      11.769  16.345  -4.766  0.00  0.00     0.115 C 
BRANCH   5   6
ATOM      6  C   UNK d   0      12.224  15.516  -5.937  0.00  0.00     0.052 C 
BRANCH   6   7
ATOM      7  C   UNK d   0      13.118  16.285  -6.880  0.00  0.00    -0.020 A 
ATOM      8  C   UNK d   0      12.757  17.029  -7.894  0.00  0.00    -0.011 A 
ATOM      9  C   UNK d   0      13.962  17.558  -8.510  0.00  0.00     0.067 A 
ATOM     10  C   UNK d   0      14.260  18.410  -9.585  0.00  0.00     0.062 C 
ATOM     11  N   UNK d   0      15.012  17.080  -7.809  0.00  0.00    -0.248 NA
ATOM     12  C   UNK d   0      15.483  19.032  -9.859  0.00  0.00     0.041 A 
ATOM     13  N   UNK d   0      16.746  18.568  -9.805  0.00  0.00    -0.355 N 
ATOM     14  C   UNK d   0      15.489  20.395 -10.208  0.00  0.00    -0.022 A 
ATOM     15  C   UNK d   0      17.554  19.603 -10.102  0.00  0.00     0.042 A 
ATOM     16  H   UNK d   0      17.059  17.525  -9.580  0.00  0.00     0.166 HD
ATOM     17  C   UNK d   0      18.959  19.670 -10.189  0.00  0.00     0.062 C 
ATOM     18  C   UNK d   0      16.802  20.766 -10.360  0.00  0.00    -0.013 A 
ATOM     19  C   UNK d   0      19.901  19.157  -9.334  0.00  0.00     0.067 A 
ATOM     20  N   UNK d   0      19.468  18.312  -8.394  0.00  0.00    -0.248 NA
ATOM     21  C   UNK d   0      21.335  19.302  -9.152  0.00  0.00    -0.011 A 
ATOM     22  C   UNK d   0      20.516  17.896  -7.610  0.00  0.00     0.066 A 
ATOM     23  C   UNK d   0      20.213  16.981  -6.612  0.00  0.00     0.062 C 
ATOM     24  C   UNK d   0      21.688  18.565  -8.138  0.00  0.00    -0.020 A 
ATOM     25  C   UNK d   0      18.980  16.358  -6.361  0.00  0.00     0.041 A 
ATOM     26  N   UNK d   0      17.726  16.823  -6.400  0.00  0.00    -0.355 N 
ATOM     27  C   UNK d   0      18.974  14.989  -6.016  0.00  0.00    -0.022 A 
ATOM     28  C   UNK d   0      16.919  15.795  -6.096  0.00  0.00     0.042 A 
ATOM     29  H   UNK d   0      17.414  17.874  -6.616  0.00  0.00     0.166 HD
ATOM     30  C   UNK d   0      15.521  15.717  -5.997  0.00  0.00     0.062 C 
ATOM     31  C   UNK d   0      17.674  14.624  -5.847  0.00  0.00    -0.013 A 
ATOM     32  C   UNK d   0      14.572  16.308  -6.815  0.00  0.00     0.066 A 
BRANCH   8  33
ATOM     33  C   UNK d   0      11.380  17.292  -8.352  0.00  0.00     0.151 C 
BRANCH  33  34
ATOM     34  C   UNK d   0      10.751  18.424  -7.647  0.00  0.00     0.143 C 
ATOM     35  O   UNK d   0      11.272  19.548  -7.655  0.00  0.00    -0.650 OA
BRANCH  34  36
ATOM     36  O   UNK d   0       9.570  18.225  -6.971  0.00  0.00    -0.776 OA
ATOM     37  H   UNK d   0       8.810  18.918  -7.007  0.00  0.00     0.167 HD
ENDBRANCH  34  36
ENDBRANCH  33  34
ENDBRANCH   8  33
BRANCH  31  38
ATOM     38  C   UNK d   0      17.175  13.245  -5.484  0.00  0.00     0.151 C 
BRANCH  38  39
ATOM     39  C   UNK d   0      16.865  12.437  -6.644  0.00  0.00     0.143 C 
ATOM     40  O   UNK d   0      16.185  11.398  -6.569  0.00  0.00    -0.650 OA
BRANCH  39  41
ATOM     41  O   UNK d   0      17.339  12.824  -7.897  0.00  0.00    -0.776 OA
ATOM     42  H   UNK d   0      17.225  12.152  -8.662  0.00  0.00     0.167 HD
ENDBRANCH  39  41
ENDBRANCH  38  39
ENDBRANCH  31  38
BRANCH  27  43
ATOM     43  C   UNK d   0      20.133  14.039  -5.843  0.00  0.00     0.052 C 
BRANCH  43  44
ATOM     44  C   UNK d   0      20.293  13.551  -4.440  0.00  0.00     0.115 C 
BRANCH  44  45
ATOM     45  C   UNK d   0      21.509  14.211  -3.897  0.00  0.00     0.139 C 
ATOM     46  O   UNK d   0      22.251  14.834  -4.696  0.00  0.00    -0.650 OA
BRANCH  45  47
ATOM     47  O   UNK d   0      21.848  14.171  -2.562  0.00  0.00    -0.776 OA
ATOM     48  H   UNK d   0      22.229  14.987  -2.056  0.00  0.00     0.167 HD
ENDBRANCH  45  47
ENDBRANCH  44  45
ENDBRANCH  43  44
ENDBRANCH  27  43
BRANCH  24  49
ATOM     49  C   UNK d   0      23.059  18.387  -7.629  0.00  0.00     0.052 C 
BRANCH  49  50
ATOM     50  C   UNK d   0      23.784  17.338  -8.432  0.00  0.00     0.115 C 
BRANCH  50  51
ATOM     51  C   UNK d   0      23.353  15.956  -8.264  0.00  0.00     0.139 C 
ATOM     52  O   UNK d   0      22.659  15.356  -9.118  0.00  0.00    -0.650 OA
BRANCH  51  53
ATOM     53  O   UNK d   0      23.711  15.260  -7.120  0.00  0.00    -0.776 OA
ATOM     54  H   UNK d   0      23.815  14.262  -7.184  0.00  0.00     0.167 HD
ENDBRANCH  51  53
ENDBRANCH  50  51
ENDBRANCH  49  50
ENDBRANCH  24  49
BRANCH  21  55
ATOM     55  C   UNK d   0      22.204  20.159 -10.011  0.00  0.00     0.151 C 
BRANCH  55  56
ATOM     56  C   UNK d   0      21.842  21.581  -9.916  0.00  0.00     0.143 C 
ATOM     57  O   UNK d   0      21.478  22.253 -10.902  0.00  0.00    -0.650 OA
BRANCH  56  58
ATOM     58  O   UNK d   0      21.916  22.188  -8.663  0.00  0.00    -0.776 OA
ATOM     59  H   UNK d   0      21.232  21.838  -7.969  0.00  0.00     0.167 HD
ENDBRANCH  56  58
ENDBRANCH  55  56
ENDBRANCH  21  55
BRANCH  18  60
ATOM     60  C   UNK d   0      17.272  22.152 -10.727  0.00  0.00     0.151 C 
BRANCH  60  61
ATOM     61  C   UNK d   0      17.594  22.819  -9.456  0.00  0.00     0.143 C 
ATOM     62  O   UNK d   0      16.801  23.181  -8.586  0.00  0.00    -0.650 OA
BRANCH  61  63
ATOM     63  O   UNK d   0      18.971  23.057  -9.233  0.00  0.00    -0.776 OA
ATOM     64  H   UNK d   0      19.542  22.388  -8.747  0.00  0.00     0.167 HD
ENDBRANCH  61  63
ENDBRANCH  60  61
ENDBRANCH  18  60
BRANCH  14  65
ATOM     65  C   UNK d   0      14.357  21.338 -10.500  0.00  0.00     0.052 C 
BRANCH  65  66
ATOM     66  C   UNK d   0      13.744  21.114 -11.837  0.00  0.00     0.115 C 
BRANCH  66  67
ATOM     67  C   UNK d   0      14.155  21.920 -12.953  0.00  0.00     0.139 C 
ATOM     68  O   UNK d   0      14.561  23.119 -12.727  0.00  0.00    -0.650 OA
BRANCH  67  69
ATOM     69  O   UNK d   0      14.174  21.564 -14.301  0.00  0.00    -0.776 OA
ATOM     70  H   UNK d   0      15.047  21.133 -14.638  0.00  0.00     0.167 HD
ENDBRANCH  67  69
ENDBRANCH  66  67
ENDBRANCH  65  66
ENDBRANCH  14  65
ENDBRANCH   6   7
ENDBRANCH   5   6
ENDBRANCH   2   5
TORSDOF 28
ENDMDL
MODEL 14
REMARK VINA RESULT:      -7.2     21.678     23.769
REMARK  28 active torsions:
REMARK  status: ('A' for Active; 'I' for Inactive)
REMARK    1  A    between atoms: C_2  and  O_3 
REMARK    2  A    between atoms: C_2  and  C_4 
REMARK    3  A    between atoms: C_4  and  C_5 
REMARK    4  A    between atoms: C_5  and  C_6 
REMARK    5  A    between atoms: C_7  and  C_8 
REMARK    6  A    between atoms: C_8  and  C_9 
REMARK    7  A    between atoms: C_9  and  O_11 
REMARK    8  A    between atoms: C_28  and  C_29 
REMARK    9  A    between atoms: C_29  and  C_30 
REMARK   10  A    between atoms: C_30  and  O_32 
REMARK   11  A    between atoms: C_33  and  C_34 
REMARK   12  A    between atoms: C_34  and  C_35 
REMARK   13  A    between atoms: C_35  and  C_36 
REMARK   14  A    between atoms: C_36  and  O_38 
REMARK   15  A    between atoms: C_39  and  C_40 
REMARK   16  A    between atoms: C_40  and  C_41 
REMARK   17  A    between atoms: C_41  and  C_42 
REMARK   18  A    between atoms: C_42  and  O_44 
REMARK   19  A    between atoms: C_45  and  C_46 
REMARK   20  A    between atoms: C_46  and  C_47 
REMARK   21  A    between atoms: C_47  and  O_49 
REMARK   22  A    between atoms: C_50  and  C_51 
REMARK   23  A    between atoms: C_51  and  C_52 
REMARK   24  A    between atoms: C_52  and  O_54 
REMARK   25  A    between atoms: C_55  and  C_56 
REMARK   26  A    between atoms: C_56  and  C_57 
REMARK   27  A    between atoms: C_57  and  C_58 
REMARK   28  A    between atoms: C_58  and  O_60 
ROOT
ATOM      1  O   UNK d   0     -16.974  -4.673  -4.109  0.00  0.00    -0.650 OA
ATOM      2  C   UNK d   0     -15.885  -4.503  -4.701  0.00  0.00     0.139 C 
ENDROOT
BRANCH   2   3
ATOM      3  O   UNK d   0     -15.802  -4.770  -6.046  0.00  0.00    -0.776 OA
ATOM      4  H   UNK d   0     -16.602  -4.621  -6.664  0.00  0.00     0.167 HD
ENDBRANCH   2   3
BRANCH   2   5
ATOM      5  C   UNK d   0     -14.693  -4.017  -3.951  0.00  0.00     0.115 C 
BRANCH   5   6
ATOM      6  C   UNK d   0     -14.017  -5.166  -3.253  0.00  0.00     0.052 C 
BRANCH   6   7
ATOM      7  C   UNK d   0     -13.537  -4.804  -1.868  0.00  0.00    -0.020 A 
ATOM      8  C   UNK d   0     -14.243  -4.315  -0.881  0.00  0.00    -0.011 A 
ATOM      9  C   UNK d   0     -13.352  -4.120   0.250  0.00  0.00     0.067 A 
ATOM     10  C   UNK d   0     -13.477  -3.663   1.572  0.00  0.00     0.062 C 
ATOM     11  N   UNK d   0     -12.120  -4.511  -0.139  0.00  0.00    -0.248 NA
ATOM     12  C   UNK d   0     -12.551  -3.808   2.610  0.00  0.00     0.041 A 
ATOM     13  N   UNK d   0     -11.212  -3.665   2.629  0.00  0.00    -0.355 N 
ATOM     14  C   UNK d   0     -13.005  -4.226   3.874  0.00  0.00    -0.022 A 
ATOM     15  C   UNK d   0     -10.804  -3.989   3.871  0.00  0.00     0.042 A 
ATOM     16  H   UNK d   0     -10.570  -3.324   1.788  0.00  0.00     0.166 HD
ATOM     17  C   UNK d   0      -9.511  -4.010   4.431  0.00  0.00     0.062 C 
ATOM     18  C   UNK d   0     -11.900  -4.346   4.680  0.00  0.00    -0.013 A 
ATOM     19  C   UNK d   0      -8.349  -4.509   3.900  0.00  0.00     0.067 A 
ATOM     20  N   UNK d   0      -8.371  -4.848   2.609  0.00  0.00    -0.248 NA
ATOM     21  C   UNK d   0      -7.015  -4.801   4.397  0.00  0.00    -0.011 A 
ATOM     22  C   UNK d   0      -7.149  -5.342   2.225  0.00  0.00     0.066 A 
ATOM     23  C   UNK d   0      -7.019  -5.699   0.891  0.00  0.00     0.062 C 
ATOM     24  C   UNK d   0      -6.318  -5.293   3.413  0.00  0.00    -0.020 A 
ATOM     25  C   UNK d   0      -7.958  -5.534  -0.139  0.00  0.00     0.041 A 
ATOM     26  N   UNK d   0      -9.287  -5.690  -0.162  0.00  0.00    -0.355 N 
ATOM     27  C   UNK d   0      -7.502  -5.111  -1.406  0.00  0.00    -0.022 A 
ATOM     28  C   UNK d   0      -9.695  -5.377  -1.402  0.00  0.00     0.042 A 
ATOM     29  H   UNK d   0      -9.930  -6.044   0.681  0.00  0.00     0.166 HD
ATOM     30  C   UNK d   0     -10.976  -5.360  -1.976  0.00  0.00     0.062 C 
ATOM     31  C   UNK d   0      -8.595  -5.008  -2.211  0.00  0.00    -0.013 A 
ATOM     32  C   UNK d   0     -12.164  -4.934  -1.403  0.00  0.00     0.066 A 
BRANCH   8  33
ATOM     33  C   UNK d   0     -15.685  -4.005  -0.893  0.00  0.00     0.151 C 
BRANCH  33  34
ATOM     34  C   UNK d   0     -15.961  -2.593  -1.212  0.00  0.00     0.143 C 
ATOM     35  O   UNK d   0     -15.322  -1.680  -0.669  0.00  0.00    -0.650 OA
BRANCH  34  36
ATOM     36  O   UNK d   0     -16.945  -2.286  -2.124  0.00  0.00    -0.776 OA
ATOM     37  H   UNK d   0     -16.963  -2.721  -3.056  0.00  0.00     0.167 HD
ENDBRANCH  34  36
ENDBRANCH  33  34
ENDBRANCH   8  33
BRANCH  31  38
ATOM     38  C   UNK d   0      -8.598  -4.573  -3.658  0.00  0.00     0.151 C 
BRANCH  38  39
ATOM     39  C   UNK d   0      -8.483  -5.685  -4.579  0.00  0.00     0.143 C 
ATOM     40  O   UNK d   0      -7.953  -6.763  -4.258  0.00  0.00    -0.650 OA
BRANCH  39  41
ATOM     41  O   UNK d   0      -8.981  -5.556  -5.875  0.00  0.00    -0.776 OA
ATOM     42  H   UNK d   0      -8.293  -5.536  -6.634  0.00  0.00     0.167 HD
ENDBRANCH  39  41
ENDBRANCH  38  39
ENDBRANCH  31  38
BRANCH  27  43
ATOM     43  C   UNK d   0      -6.098  -4.810  -1.868  0.00  0.00     0.052 C 
BRANCH  43  44
ATOM     44  C   UNK d   0      -5.220  -6.018  -1.916  0.00  0.00     0.115 C 
BRANCH  44  45
ATOM     45  C   UNK d   0      -4.243  -5.789  -3.012  0.00  0.00     0.139 C 
ATOM     46  O   UNK d   0      -4.521  -6.229  -4.155  0.00  0.00    -0.650 OA
BRANCH  45  47
ATOM     47  O   UNK d   0      -3.056  -5.114  -2.826  0.00  0.00    -0.776 OA
ATOM     48  H   UNK d   0      -2.749  -4.764  -1.904  0.00  0.00     0.167 HD
ENDBRANCH  45  47
ENDBRANCH  44  45
ENDBRANCH  43  44
ENDBRANCH  27  43
BRANCH  24  49
ATOM     49  C   UNK d   0      -4.901  -5.691   3.466  0.00  0.00     0.052 C 
BRANCH  49  50
ATOM     50  C   UNK d   0      -4.040  -4.654   2.791  0.00  0.00     0.115 C 
BRANCH  50  51
ATOM     51  C   UNK d   0      -3.585  -3.535   3.605  0.00  0.00     0.139 C 
ATOM     52  O   UNK d   0      -2.595  -3.614   4.370  0.00  0.00    -0.650 OA
BRANCH  51  53
ATOM     53  O   UNK d   0      -4.262  -2.326   3.549  0.00  0.00    -0.776 OA
ATOM     54  H   UNK d   0      -3.969  -1.649   2.867  0.00  0.00     0.167 HD
ENDBRANCH  51  53
ENDBRANCH  50  51
ENDBRANCH  49  50
ENDBRANCH  24  49
BRANCH  21  55
ATOM     55  C   UNK d   0      -6.574  -4.555   5.802  0.00  0.00     0.151 C 
BRANCH  55  56
ATOM     56  C   UNK d   0      -6.975  -5.645   6.704  0.00  0.00     0.143 C 
ATOM     57  O   UNK d   0      -6.296  -6.679   6.857  0.00  0.00    -0.650 OA
BRANCH  56  58
ATOM     58  O   UNK d   0      -8.168  -5.497   7.411  0.00  0.00    -0.776 OA
ATOM     59  H   UNK d   0      -8.915  -6.165   7.151  0.00  0.00     0.167 HD
ENDBRANCH  56  58
ENDBRANCH  55  56
ENDBRANCH  21  55
BRANCH  18  60
ATOM     60  C   UNK d   0     -11.927  -4.780   6.125  0.00  0.00     0.151 C 
BRANCH  60  61
ATOM     61  C   UNK d   0     -11.803  -6.245   6.109  0.00  0.00     0.143 C 
ATOM     62  O   UNK d   0     -12.716  -7.067   6.022  0.00  0.00    -0.650 OA
BRANCH  61  63
ATOM     63  O   UNK d   0     -10.480  -6.739   6.204  0.00  0.00    -0.776 OA
ATOM     64  H   UNK d   0     -10.123  -7.398   5.535  0.00  0.00     0.167 HD
ENDBRANCH  61  63
ENDBRANCH  60  61
ENDBRANCH  18  60
BRANCH  14  65
ATOM     65  C   UNK d   0     -14.398  -4.422   4.400  0.00  0.00     0.052 C 
BRANCH  65  66
ATOM     66  C   UNK d   0     -15.196  -3.167   4.415  0.00  0.00     0.115 C 
BRANCH  66  67
ATOM     67  C   UNK d   0     -16.623  -3.233   4.560  0.00  0.00     0.139 C 
ATOM     68  O   UNK d   0     -17.118  -3.295   5.746  0.00  0.00    -0.650 OA
BRANCH  67  69
ATOM     69  O   UNK d   0     -17.584  -3.239   3.550  0.00  0.00    -0.776 OA
ATOM     70  H   UNK d   0     -17.727  -4.141   3.073  0.00  0.00     0.167 HD
ENDBRANCH  67  69
ENDBRANCH  66  67
ENDBRANCH  65  66
ENDBRANCH  14  65
ENDBRANCH   6   7
ENDBRANCH   5   6
ENDBRANCH   2   5
TORSDOF 28
ENDMDL
MODEL 15
REMARK VINA RESULT:      -7.2     20.747     23.992
REMARK  28 active torsions:
REMARK  status: ('A' for Active; 'I' for Inactive)
REMARK    1  A    between atoms: C_2  and  O_3 
REMARK    2  A    between atoms: C_2  and  C_4 
REMARK    3  A    between atoms: C_4  and  C_5 
REMARK    4  A    between atoms: C_5  and  C_6 
REMARK    5  A    between atoms: C_7  and  C_8 
REMARK    6  A    between atoms: C_8  and  C_9 
REMARK    7  A    between atoms: C_9  and  O_11 
REMARK    8  A    between atoms: C_28  and  C_29 
REMARK    9  A    between atoms: C_29  and  C_30 
REMARK   10  A    between atoms: C_30  and  O_32 
REMARK   11  A    between atoms: C_33  and  C_34 
REMARK   12  A    between atoms: C_34  and  C_35 
REMARK   13  A    between atoms: C_35  and  C_36 
REMARK   14  A    between atoms: C_36  and  O_38 
REMARK   15  A    between atoms: C_39  and  C_40 
REMARK   16  A    between atoms: C_40  and  C_41 
REMARK   17  A    between atoms: C_41  and  C_42 
REMARK   18  A    between atoms: C_42  and  O_44 
REMARK   19  A    between atoms: C_45  and  C_46 
REMARK   20  A    between atoms: C_46  and  C_47 
REMARK   21  A    between atoms: C_47  and  O_49 
REMARK   22  A    between atoms: C_50  and  C_51 
REMARK   23  A    between atoms: C_51  and  C_52 
REMARK   24  A    between atoms: C_52  and  O_54 
REMARK   25  A    between atoms: C_55  and  C_56 
REMARK   26  A    between atoms: C_56  and  C_57 
REMARK   27  A    between atoms: C_57  and  C_58 
REMARK   28  A    between atoms: C_58  and  O_60 
ROOT
ATOM      1  O   UNK d   0      -3.697  -8.459   7.210  0.00  0.00    -0.650 OA
ATOM      2  C   UNK d   0      -3.913  -7.752   6.201  0.00  0.00     0.139 C 
ENDROOT
BRANCH   2   3
ATOM      3  O   UNK d   0      -2.859  -7.382   5.399  0.00  0.00    -0.776 OA
ATOM      4  H   UNK d   0      -2.536  -7.986   4.641  0.00  0.00     0.167 HD
ENDBRANCH   2   3
BRANCH   2   5
ATOM      5  C   UNK d   0      -5.300  -7.316   5.875  0.00  0.00     0.115 C 
BRANCH   5   6
ATOM      6  C   UNK d   0      -5.336  -5.828   5.653  0.00  0.00     0.052 C 
BRANCH   6   7
ATOM      7  C   UNK d   0      -5.852  -5.457   4.283  0.00  0.00    -0.020 A 
ATOM      8  C   UNK d   0      -5.158  -5.037   3.256  0.00  0.00    -0.011 A 
ATOM      9  C   UNK d   0      -6.084  -4.798   2.162  0.00  0.00     0.067 A 
ATOM     10  C   UNK d   0      -5.986  -4.375   0.827  0.00  0.00     0.062 C 
ATOM     11  N   UNK d   0      -7.322  -5.094   2.612  0.00  0.00    -0.248 NA
ATOM     12  C   UNK d   0      -6.967  -4.472  -0.167  0.00  0.00     0.041 A 
ATOM     13  N   UNK d   0      -8.292  -4.235  -0.130  0.00  0.00    -0.355 N 
ATOM     14  C   UNK d   0      -6.601  -4.943  -1.441  0.00  0.00    -0.022 A 
ATOM     15  C   UNK d   0      -8.777  -4.550  -1.346  0.00  0.00     0.042 A 
ATOM     16  H   UNK d   0      -8.870  -3.834   0.731  0.00  0.00     0.166 HD
ATOM     17  C   UNK d   0     -10.092  -4.489  -1.849  0.00  0.00     0.062 C 
ATOM     18  C   UNK d   0      -7.747  -4.998  -2.195  0.00  0.00    -0.013 A 
ATOM     19  C   UNK d   0     -11.261  -4.895  -1.257  0.00  0.00     0.067 A 
ATOM     20  N   UNK d   0     -11.205  -5.212   0.039  0.00  0.00    -0.248 NA
ATOM     21  C   UNK d   0     -12.634  -5.100  -1.688  0.00  0.00    -0.011 A 
ATOM     22  C   UNK d   0     -12.440  -5.611   0.486  0.00  0.00     0.066 A 
ATOM     23  C   UNK d   0     -12.534  -5.935   1.832  0.00  0.00     0.062 C 
ATOM     24  C   UNK d   0     -13.318  -5.524  -0.665  0.00  0.00    -0.020 A 
ATOM     25  C   UNK d   0     -11.540  -5.819   2.816  0.00  0.00     0.041 A 
ATOM     26  N   UNK d   0     -10.226  -6.069   2.784  0.00  0.00    -0.355 N 
ATOM     27  C   UNK d   0     -11.908  -5.342   4.093  0.00  0.00    -0.022 A 
ATOM     28  C   UNK d   0      -9.741  -5.763   3.998  0.00  0.00     0.042 A 
ATOM     29  H   UNK d   0      -9.649  -6.482   1.921  0.00  0.00     0.166 HD
ATOM     30  C   UNK d   0      -8.437  -5.828   4.514  0.00  0.00     0.062 C 
ATOM     31  C   UNK d   0     -10.776  -5.303   4.847  0.00  0.00    -0.013 A 
ATOM     32  C   UNK d   0      -7.250  -5.497   3.881  0.00  0.00     0.066 A 
BRANCH   8  33
ATOM     33  C   UNK d   0      -3.699  -4.829   3.199  0.00  0.00     0.151 C 
BRANCH  33  34
ATOM     34  C   UNK d   0      -3.283  -3.540   3.780  0.00  0.00     0.143 C 
ATOM     35  O   UNK d   0      -2.215  -3.437   4.401  0.00  0.00    -0.650 OA
BRANCH  34  36
ATOM     36  O   UNK d   0      -4.094  -2.439   3.631  0.00  0.00    -0.776 OA
ATOM     37  H   UNK d   0      -5.119  -2.523   3.654  0.00  0.00     0.167 HD
ENDBRANCH  34  36
ENDBRANCH  33  34
ENDBRANCH   8  33
BRANCH  31  38
ATOM     38  C   UNK d   0     -10.676  -4.845   6.283  0.00  0.00     0.151 C 
BRANCH  38  39
ATOM     39  C   UNK d   0     -10.699  -5.943   7.226  0.00  0.00     0.143 C 
ATOM     40  O   UNK d   0     -10.181  -5.862   8.354  0.00  0.00    -0.650 OA
BRANCH  39  41
ATOM     41  O   UNK d   0     -11.321  -7.139   6.871  0.00  0.00    -0.776 OA
ATOM     42  H   UNK d   0     -11.343  -7.877   7.582  0.00  0.00     0.167 HD
ENDBRANCH  39  41
ENDBRANCH  38  39
ENDBRANCH  31  38
BRANCH  27  43
ATOM     43  C   UNK d   0     -13.265  -4.934   4.610  0.00  0.00     0.052 C 
BRANCH  43  44
ATOM     44  C   UNK d   0     -13.782  -3.679   3.985  0.00  0.00     0.115 C 
BRANCH  44  45
ATOM     45  C   UNK d   0     -15.223  -3.591   4.340  0.00  0.00     0.139 C 
ATOM     46  O   UNK d   0     -16.025  -3.190   3.460  0.00  0.00    -0.650 OA
BRANCH  45  47
ATOM     47  O   UNK d   0     -15.709  -3.933   5.583  0.00  0.00    -0.776 OA
ATOM     48  H   UNK d   0     -15.647  -4.891   5.964  0.00  0.00     0.167 HD
ENDBRANCH  45  47
ENDBRANCH  44  45
ENDBRANCH  43  44
ENDBRANCH  27  43
BRANCH  24  49
ATOM     49  C   UNK d   0     -14.760  -5.821  -0.647  0.00  0.00     0.052 C 
BRANCH  49  50
ATOM     50  C   UNK d   0     -15.452  -5.003   0.413  0.00  0.00     0.115 C 
BRANCH  50  51
ATOM     51  C   UNK d   0     -15.643  -3.585   0.138  0.00  0.00     0.139 C 
ATOM     52  O   UNK d   0     -16.546  -3.159  -0.620  0.00  0.00    -0.650 OA
BRANCH  51  53
ATOM     53  O   UNK d   0     -14.803  -2.652   0.728  0.00  0.00    -0.776 OA
ATOM     54  H   UNK d   0     -15.059  -2.284   1.627  0.00  0.00     0.167 HD
ENDBRANCH  51  53
ENDBRANCH  50  51
ENDBRANCH  49  50
ENDBRANCH  24  49
BRANCH  21  55
ATOM     55  C   UNK d   0     -13.119  -4.848  -3.077  0.00  0.00     0.151 C 
BRANCH  55  56
ATOM     56  C   UNK d   0     -14.097  -3.750  -3.129  0.00  0.00     0.143 C 
ATOM     57  O   UNK d   0     -15.112  -3.784  -3.851  0.00  0.00    -0.650 OA
BRANCH  56  58
ATOM     58  O   UNK d   0     -13.860  -2.633  -2.330  0.00  0.00    -0.776 OA
ATOM     59  H   UNK d   0     -12.861  -2.394  -2.198  0.00  0.00     0.167 HD
ENDBRANCH  56  58
ENDBRANCH  55  56
ENDBRANCH  21  55
BRANCH  18  60
ATOM     60  C   UNK d   0      -7.815  -5.458  -3.630  0.00  0.00     0.151 C 
BRANCH  60  61
ATOM     61  C   UNK d   0      -7.858  -4.234  -4.444  0.00  0.00     0.143 C 
ATOM     62  O   UNK d   0      -8.855  -3.709  -4.943  0.00  0.00    -0.650 OA
BRANCH  61  63
ATOM     63  O   UNK d   0      -6.606  -3.612  -4.664  0.00  0.00    -0.776 OA
ATOM     64  H   UNK d   0      -5.779  -4.157  -4.832  0.00  0.00     0.167 HD
ENDBRANCH  61  63
ENDBRANCH  60  61
ENDBRANCH  18  60
BRANCH  14  65
ATOM     65  C   UNK d   0      -5.250  -5.247  -2.023  0.00  0.00     0.052 C 
BRANCH  65  66
ATOM     66  C   UNK d   0      -4.805  -6.642  -1.762  0.00  0.00     0.115 C 
BRANCH  66  67
ATOM     67  C   UNK d   0      -4.769  -7.591  -2.839  0.00  0.00     0.139 C 
ATOM     68  O   UNK d   0      -4.851  -8.843  -2.557  0.00  0.00    -0.650 OA
BRANCH  67  69
ATOM     69  O   UNK d   0      -4.651  -7.329  -4.204  0.00  0.00    -0.776 OA
ATOM     70  H   UNK d   0      -4.914  -6.378  -4.501  0.00  0.00     0.167 HD
ENDBRANCH  67  69
ENDBRANCH  66  67
ENDBRANCH  65  66
ENDBRANCH  14  65
ENDBRANCH   6   7
ENDBRANCH   5   6
ENDBRANCH   2   5
TORSDOF 28
ENDMDL
MODEL 16
REMARK VINA RESULT:      -7.1     11.050     15.969
REMARK  28 active torsions:
REMARK  status: ('A' for Active; 'I' for Inactive)
REMARK    1  A    between atoms: C_2  and  O_3 
REMARK    2  A    between atoms: C_2  and  C_4 
REMARK    3  A    between atoms: C_4  and  C_5 
REMARK    4  A    between atoms: C_5  and  C_6 
REMARK    5  A    between atoms: C_7  and  C_8 
REMARK    6  A    between atoms: C_8  and  C_9 
REMARK    7  A    between atoms: C_9  and  O_11 
REMARK    8  A    between atoms: C_28  and  C_29 
REMARK    9  A    between atoms: C_29  and  C_30 
REMARK   10  A    between atoms: C_30  and  O_32 
REMARK   11  A    between atoms: C_33  and  C_34 
REMARK   12  A    between atoms: C_34  and  C_35 
REMARK   13  A    between atoms: C_35  and  C_36 
REMARK   14  A    between atoms: C_36  and  O_38 
REMARK   15  A    between atoms: C_39  and  C_40 
REMARK   16  A    between atoms: C_40  and  C_41 
REMARK   17  A    between atoms: C_41  and  C_42 
REMARK   18  A    between atoms: C_42  and  O_44 
REMARK   19  A    between atoms: C_45  and  C_46 
REMARK   20  A    between atoms: C_46  and  C_47 
REMARK   21  A    between atoms: C_47  and  O_49 
REMARK   22  A    between atoms: C_50  and  C_51 
REMARK   23  A    between atoms: C_51  and  C_52 
REMARK   24  A    between atoms: C_52  and  O_54 
REMARK   25  A    between atoms: C_55  and  C_56 
REMARK   26  A    between atoms: C_56  and  C_57 
REMARK   27  A    between atoms: C_57  and  C_58 
REMARK   28  A    between atoms: C_58  and  O_60 
ROOT
ATOM      1  O   UNK d   0       8.105 -16.033 -22.861  0.00  0.00    -0.650 OA
ATOM      2  C   UNK d   0       8.876 -16.898 -22.389  0.00  0.00     0.139 C 
ENDROOT
BRANCH   2   3
ATOM      3  O   UNK d   0      10.220 -16.823 -22.663  0.00  0.00    -0.776 OA
ATOM      4  H   UNK d   0      10.557 -16.678 -23.617  0.00  0.00     0.167 HD
ENDBRANCH   2   3
BRANCH   2   5
ATOM      5  C   UNK d   0       8.337 -17.997 -21.539  0.00  0.00     0.115 C 
BRANCH   5   6
ATOM      6  C   UNK d   0       6.834 -17.941 -21.511  0.00  0.00     0.052 C 
BRANCH   6   7
ATOM      7  C   UNK d   0       6.294 -17.493 -20.174  0.00  0.00    -0.020 A 
ATOM      8  C   UNK d   0       6.097 -18.224 -19.107  0.00  0.00    -0.011 A 
ATOM      9  C   UNK d   0       5.557 -17.361 -18.069  0.00  0.00     0.067 A 
ATOM     10  C   UNK d   0       5.163 -17.512 -16.731  0.00  0.00     0.062 C 
ATOM     11  N   UNK d   0       5.454 -16.122 -18.593  0.00  0.00    -0.248 NA
ATOM     12  C   UNK d   0       4.926 -16.497 -15.798  0.00  0.00     0.041 A 
ATOM     13  N   UNK d   0       4.282 -15.320 -15.913  0.00  0.00    -0.355 N 
ATOM     14  C   UNK d   0       5.465 -16.622 -14.504  0.00  0.00    -0.022 A 
ATOM     15  C   UNK d   0       4.405 -14.691 -14.728  0.00  0.00     0.042 A 
ATOM     16  H   UNK d   0       3.734 -14.949 -16.807  0.00  0.00     0.166 HD
ATOM     17  C   UNK d   0       3.922 -13.437 -14.305  0.00  0.00     0.062 C 
ATOM     18  C   UNK d   0       5.141 -15.477 -13.820  0.00  0.00    -0.013 A 
ATOM     19  C   UNK d   0       3.946 -12.236 -14.966  0.00  0.00     0.067 A 
ATOM     20  N   UNK d   0       4.288 -12.262 -16.256  0.00  0.00    -0.248 NA
ATOM     21  C   UNK d   0       3.699 -10.847 -14.617  0.00  0.00    -0.011 A 
ATOM     22  C   UNK d   0       4.284 -10.991 -16.776  0.00  0.00     0.066 A 
ATOM     23  C   UNK d   0       4.586 -10.876 -18.125  0.00  0.00     0.062 C 
ATOM     24  C   UNK d   0       3.902 -10.123 -15.680  0.00  0.00    -0.020 A 
ATOM     25  C   UNK d   0       4.808 -11.910 -19.048  0.00  0.00     0.041 A 
ATOM     26  N   UNK d   0       5.461 -13.073 -18.939  0.00  0.00    -0.355 N 
ATOM     27  C   UNK d   0       4.262 -11.786 -20.345  0.00  0.00    -0.022 A 
ATOM     28  C   UNK d   0       5.347 -13.697 -20.122  0.00  0.00     0.042 A 
ATOM     29  H   UNK d   0       6.020 -13.439 -18.043  0.00  0.00     0.166 HD
ATOM     30  C   UNK d   0       5.831 -14.940 -20.559  0.00  0.00     0.062 C 
ATOM     31  C   UNK d   0       4.598 -12.913 -21.030  0.00  0.00    -0.013 A 
ATOM     32  C   UNK d   0       5.881 -16.134 -19.856  0.00  0.00     0.066 A 
BRANCH   8  33
ATOM     33  C   UNK d   0       6.361 -19.668 -18.963  0.00  0.00     0.151 C 
BRANCH  33  34
ATOM     34  C   UNK d   0       5.144 -20.443 -18.663  0.00  0.00     0.143 C 
ATOM     35  O   UNK d   0       4.226 -20.533 -19.491  0.00  0.00    -0.650 OA
BRANCH  34  36
ATOM     36  O   UNK d   0       5.028 -21.075 -17.446  0.00  0.00    -0.776 OA
ATOM     37  H   UNK d   0       4.399 -21.879 -17.320  0.00  0.00     0.167 HD
ENDBRANCH  34  36
ENDBRANCH  33  34
ENDBRANCH   8  33
BRANCH  31  38
ATOM     38  C   UNK d   0       4.221 -13.234 -22.458  0.00  0.00     0.151 C 
BRANCH  38  39
ATOM     39  C   UNK d   0       2.924 -13.868 -22.567  0.00  0.00     0.143 C 
ATOM     40  O   UNK d   0       1.905 -13.245 -22.912  0.00  0.00    -0.650 OA
BRANCH  39  41
ATOM     41  O   UNK d   0       2.799 -15.227 -22.278  0.00  0.00    -0.776 OA
ATOM     42  H   UNK d   0       1.989 -15.507 -21.717  0.00  0.00     0.167 HD
ENDBRANCH  39  41
ENDBRANCH  38  39
ENDBRANCH  31  38
BRANCH  27  43
ATOM     43  C   UNK d   0       3.455 -10.660 -20.941  0.00  0.00     0.052 C 
BRANCH  43  44
ATOM     44  C   UNK d   0       2.029 -10.654 -20.494  0.00  0.00     0.115 C 
BRANCH  44  45
ATOM     45  C   UNK d   0       1.571  -9.242 -20.557  0.00  0.00     0.139 C 
ATOM     46  O   UNK d   0       0.366  -8.998 -20.296  0.00  0.00    -0.650 OA
BRANCH  45  47
ATOM     47  O   UNK d   0       2.409  -8.198 -20.884  0.00  0.00    -0.776 OA
ATOM     48  H   UNK d   0       3.183  -8.291 -21.560  0.00  0.00     0.167 HD
ENDBRANCH  45  47
ENDBRANCH  44  45
ENDBRANCH  43  44
ENDBRANCH  27  43
BRANCH  24  49
ATOM     49  C   UNK d   0       3.727  -8.664 -15.784  0.00  0.00     0.052 C 
BRANCH  49  50
ATOM     50  C   UNK d   0       2.596  -8.337 -16.724  0.00  0.00     0.115 C 
BRANCH  50  51
ATOM     51  C   UNK d   0       2.867  -7.369 -17.778  0.00  0.00     0.139 C 
ATOM     52  O   UNK d   0       2.001  -6.564 -18.196  0.00  0.00    -0.650 OA
BRANCH  51  53
ATOM     53  O   UNK d   0       4.125  -7.320 -18.359  0.00  0.00    -0.776 OA
ATOM     54  H   UNK d   0       4.829  -7.952 -18.020  0.00  0.00     0.167 HD
ENDBRANCH  51  53
ENDBRANCH  50  51
ENDBRANCH  49  50
ENDBRANCH  24  49
BRANCH  21  55
ATOM     55  C   UNK d   0       3.281 -10.388 -13.259  0.00  0.00     0.151 C 
BRANCH  55  56
ATOM     56  C   UNK d   0       1.817 -10.322 -13.126  0.00  0.00     0.143 C 
ATOM     57  O   UNK d   0       1.041 -10.902 -13.910  0.00  0.00    -0.650 OA
BRANCH  56  58
ATOM     58  O   UNK d   0       1.295  -9.573 -12.072  0.00  0.00    -0.776 OA
ATOM     59  H   UNK d   0       1.986  -8.988 -11.568  0.00  0.00     0.167 HD
ENDBRANCH  56  58
ENDBRANCH  55  56
ENDBRANCH  21  55
BRANCH  18  60
ATOM     60  C   UNK d   0       5.530 -15.184 -12.392  0.00  0.00     0.151 C 
BRANCH  60  61
ATOM     61  C   UNK d   0       6.695 -14.290 -12.466  0.00  0.00     0.143 C 
ATOM     62  O   UNK d   0       6.905 -13.286 -11.784  0.00  0.00    -0.650 OA
BRANCH  61  63
ATOM     63  O   UNK d   0       7.667 -14.645 -13.432  0.00  0.00    -0.776 OA
ATOM     64  H   UNK d   0       7.413 -15.156 -14.259  0.00  0.00     0.167 HD
ENDBRANCH  61  63
ENDBRANCH  60  61
ENDBRANCH  18  60
BRANCH  14  65
ATOM     65  C   UNK d   0       6.171 -17.771 -13.843  0.00  0.00     0.052 C 
BRANCH  65  66
ATOM     66  C   UNK d   0       5.290 -18.547 -12.930  0.00  0.00     0.115 C 
BRANCH  66  67
ATOM     67  C   UNK d   0       4.771 -19.818 -13.351  0.00  0.00     0.139 C 
ATOM     68  O   UNK d   0       4.742 -20.082 -14.609  0.00  0.00    -0.650 OA
BRANCH  67  69
ATOM     69  O   UNK d   0       4.275 -20.845 -12.549  0.00  0.00    -0.776 OA
ATOM     70  H   UNK d   0       3.269 -20.797 -12.331  0.00  0.00     0.167 HD
ENDBRANCH  67  69
ENDBRANCH  66  67
ENDBRANCH  65  66
ENDBRANCH  14  65
ENDBRANCH   6   7
ENDBRANCH   5   6
ENDBRANCH   2   5
TORSDOF 28
ENDMDL
MODEL 17
REMARK VINA RESULT:      -7.1     12.547     16.069
REMARK  28 active torsions:
REMARK  status: ('A' for Active; 'I' for Inactive)
REMARK    1  A    between atoms: C_2  and  O_3 
REMARK    2  A    between atoms: C_2  and  C_4 
REMARK    3  A    between atoms: C_4  and  C_5 
REMARK    4  A    between atoms: C_5  and  C_6 
REMARK    5  A    between atoms: C_7  and  C_8 
REMARK    6  A    between atoms: C_8  and  C_9 
REMARK    7  A    between atoms: C_9  and  O_11 
REMARK    8  A    between atoms: C_28  and  C_29 
REMARK    9  A    between atoms: C_29  and  C_30 
REMARK   10  A    between atoms: C_30  and  O_32 
REMARK   11  A    between atoms: C_33  and  C_34 
REMARK   12  A    between atoms: C_34  and  C_35 
REMARK   13  A    between atoms: C_35  and  C_36 
REMARK   14  A    between atoms: C_36  and  O_38 
REMARK   15  A    between atoms: C_39  and  C_40 
REMARK   16  A    between atoms: C_40  and  C_41 
REMARK   17  A    between atoms: C_41  and  C_42 
REMARK   18  A    between atoms: C_42  and  O_44 
REMARK   19  A    between atoms: C_45  and  C_46 
REMARK   20  A    between atoms: C_46  and  C_47 
REMARK   21  A    between atoms: C_47  and  O_49 
REMARK   22  A    between atoms: C_50  and  C_51 
REMARK   23  A    between atoms: C_51  and  C_52 
REMARK   24  A    between atoms: C_52  and  O_54 
REMARK   25  A    between atoms: C_55  and  C_56 
REMARK   26  A    between atoms: C_56  and  C_57 
REMARK   27  A    between atoms: C_57  and  C_58 
REMARK   28  A    between atoms: C_58  and  O_60 
ROOT
ATOM      1  O   UNK d   0       1.793 -18.723 -13.480  0.00  0.00    -0.650 OA
ATOM      2  C   UNK d   0       1.774 -17.497 -13.234  0.00  0.00     0.139 C 
ENDROOT
BRANCH   2   3
ATOM      3  O   UNK d   0       0.678 -16.951 -12.611  0.00  0.00    -0.776 OA
ATOM      4  H   UNK d   0       0.097 -17.509 -11.981  0.00  0.00     0.167 HD
ENDBRANCH   2   3
BRANCH   2   5
ATOM      5  C   UNK d   0       2.932 -16.640 -13.616  0.00  0.00     0.115 C 
BRANCH   5   6
ATOM      6  C   UNK d   0       3.242 -15.666 -12.511  0.00  0.00     0.052 C 
BRANCH   6   7
ATOM      7  C   UNK d   0       3.218 -14.230 -12.978  0.00  0.00    -0.020 A 
ATOM      8  C   UNK d   0       4.154 -13.585 -13.625  0.00  0.00    -0.011 A 
ATOM      9  C   UNK d   0       3.686 -12.228 -13.850  0.00  0.00     0.067 A 
ATOM     10  C   UNK d   0       4.183 -11.077 -14.481  0.00  0.00     0.062 C 
ATOM     11  N   UNK d   0       2.456 -12.133 -13.302  0.00  0.00    -0.248 NA
ATOM     12  C   UNK d   0       3.464  -9.932 -14.842  0.00  0.00     0.041 A 
ATOM     13  N   UNK d   0       2.524  -9.231 -14.181  0.00  0.00    -0.355 N 
ATOM     14  C   UNK d   0       3.658  -9.382 -16.122  0.00  0.00    -0.022 A 
ATOM     15  C   UNK d   0       2.110  -8.255 -15.012  0.00  0.00     0.042 A 
ATOM     16  H   UNK d   0       2.173  -9.410 -13.141  0.00  0.00     0.166 HD
ATOM     17  C   UNK d   0       1.148  -7.243 -14.825  0.00  0.00     0.062 C 
ATOM     18  C   UNK d   0       2.799  -8.318 -16.239  0.00  0.00    -0.013 A 
ATOM     19  C   UNK d   0      -0.108  -7.337 -14.281  0.00  0.00     0.067 A 
ATOM     20  N   UNK d   0      -0.414  -8.480 -13.661  0.00  0.00    -0.248 NA
ATOM     21  C   UNK d   0      -1.280  -6.481 -14.203  0.00  0.00    -0.011 A 
ATOM     22  C   UNK d   0      -1.702  -8.433 -13.184  0.00  0.00     0.066 A 
ATOM     23  C   UNK d   0      -2.140  -9.546 -12.482  0.00  0.00     0.062 C 
ATOM     24  C   UNK d   0      -2.210  -7.129 -13.564  0.00  0.00    -0.020 A 
ATOM     25  C   UNK d   0      -1.398 -10.681 -12.119  0.00  0.00     0.041 A 
ATOM     26  N   UNK d   0      -0.474 -11.387 -12.782  0.00  0.00    -0.355 N 
ATOM     27  C   UNK d   0      -1.590 -11.229 -10.832  0.00  0.00    -0.022 A 
ATOM     28  C   UNK d   0      -0.067 -12.366 -11.958  0.00  0.00     0.042 A 
ATOM     29  H   UNK d   0      -0.131 -11.212 -13.831  0.00  0.00     0.166 HD
ATOM     30  C   UNK d   0       0.883 -13.384 -12.135  0.00  0.00     0.062 C 
ATOM     31  C   UNK d   0      -0.751 -12.295 -10.722  0.00  0.00    -0.013 A 
ATOM     32  C   UNK d   0       2.117 -13.304 -12.761  0.00  0.00     0.066 A 
BRANCH   8  33
ATOM     33  C   UNK d   0       5.461 -14.118 -14.054  0.00  0.00     0.151 C 
BRANCH  33  34
ATOM     34  C   UNK d   0       5.511 -14.412 -15.497  0.00  0.00     0.143 C 
ATOM     35  O   UNK d   0       6.588 -14.410 -16.110  0.00  0.00    -0.650 OA
BRANCH  34  36
ATOM     36  O   UNK d   0       4.344 -14.689 -16.171  0.00  0.00    -0.776 OA
ATOM     37  H   UNK d   0       3.715 -15.443 -15.862  0.00  0.00     0.167 HD
ENDBRANCH  34  36
ENDBRANCH  33  34
ENDBRANCH   8  33
BRANCH  31  38
ATOM     38  C   UNK d   0      -0.597 -13.187  -9.512  0.00  0.00     0.151 C 
BRANCH  38  39
ATOM     39  C   UNK d   0      -1.311 -14.439  -9.642  0.00  0.00     0.143 C 
ATOM     40  O   UNK d   0      -2.481 -14.497 -10.060  0.00  0.00    -0.650 OA
BRANCH  39  41
ATOM     41  O   UNK d   0      -0.677 -15.630  -9.291  0.00  0.00    -0.776 OA
ATOM     42  H   UNK d   0      -1.268 -16.465  -9.224  0.00  0.00     0.167 HD
ENDBRANCH  39  41
ENDBRANCH  38  39
ENDBRANCH  31  38
BRANCH  27  43
ATOM     43  C   UNK d   0      -2.522 -10.788  -9.731  0.00  0.00     0.052 C 
BRANCH  43  44
ATOM     44  C   UNK d   0      -1.831 -10.047  -8.633  0.00  0.00     0.115 C 
BRANCH  44  45
ATOM     45  C   UNK d   0      -1.775  -8.622  -9.051  0.00  0.00     0.139 C 
ATOM     46  O   UNK d   0      -2.799  -7.915  -8.879  0.00  0.00    -0.650 OA
BRANCH  45  47
ATOM     47  O   UNK d   0      -0.653  -8.050  -9.610  0.00  0.00    -0.776 OA
ATOM     48  H   UNK d   0      -0.608  -7.055  -9.883  0.00  0.00     0.167 HD
ENDBRANCH  45  47
ENDBRANCH  44  45
ENDBRANCH  43  44
ENDBRANCH  27  43
BRANCH  24  49
ATOM     49  C   UNK d   0      -3.550  -6.618 -13.226  0.00  0.00     0.052 C 
BRANCH  49  50
ATOM     50  C   UNK d   0      -3.622  -6.261 -11.764  0.00  0.00     0.115 C 
BRANCH  50  51
ATOM     51  C   UNK d   0      -2.770  -5.173 -11.302  0.00  0.00     0.139 C 
ATOM     52  O   UNK d   0      -2.846  -4.011 -11.767  0.00  0.00    -0.650 OA
BRANCH  51  53
ATOM     53  O   UNK d   0      -1.829  -5.411 -10.312  0.00  0.00    -0.776 OA
ATOM     54  H   UNK d   0      -2.118  -5.332  -9.353  0.00  0.00     0.167 HD
ENDBRANCH  51  53
ENDBRANCH  50  51
ENDBRANCH  49  50
ENDBRANCH  24  49
BRANCH  21  55
ATOM     55  C   UNK d   0      -1.346  -5.102 -14.772  0.00  0.00     0.151 C 
BRANCH  55  56
ATOM     56  C   UNK d   0      -2.012  -5.078 -16.083  0.00  0.00     0.143 C 
ATOM     57  O   UNK d   0      -1.554  -5.664 -17.083  0.00  0.00    -0.650 OA
BRANCH  56  58
ATOM     58  O   UNK d   0      -3.204  -4.364 -16.192  0.00  0.00    -0.776 OA
ATOM     59  H   UNK d   0      -4.061  -4.946 -16.207  0.00  0.00     0.167 HD
ENDBRANCH  56  58
ENDBRANCH  55  56
ENDBRANCH  21  55
BRANCH  18  60
ATOM     60  C   UNK d   0       2.668  -7.442 -17.460  0.00  0.00     0.151 C 
BRANCH  60  61
ATOM     61  C   UNK d   0       1.429  -7.866 -18.130  0.00  0.00     0.143 C 
ATOM     62  O   UNK d   0       1.103  -9.015 -18.430  0.00  0.00    -0.650 OA
BRANCH  61  63
ATOM     63  O   UNK d   0       0.532  -6.820 -18.454  0.00  0.00    -0.776 OA
ATOM     64  H   UNK d   0      -0.153  -6.501 -17.792  0.00  0.00     0.167 HD
ENDBRANCH  61  63
ENDBRANCH  60  61
ENDBRANCH  18  60
BRANCH  14  65
ATOM     65  C   UNK d   0       4.653  -9.722 -17.195  0.00  0.00     0.052 C 
BRANCH  65  66
ATOM     66  C   UNK d   0       4.135 -10.713 -18.176  0.00  0.00     0.115 C 
BRANCH  66  67
ATOM     67  C   UNK d   0       4.803 -11.974 -18.334  0.00  0.00     0.139 C 
ATOM     68  O   UNK d   0       4.099 -13.009 -18.629  0.00  0.00    -0.650 OA
BRANCH  67  69
ATOM     69  O   UNK d   0       6.166 -12.239 -18.206  0.00  0.00    -0.776 OA
ATOM     70  H   UNK d   0       6.457 -12.673 -17.318  0.00  0.00     0.167 HD
ENDBRANCH  67  69
ENDBRANCH  66  67
ENDBRANCH  65  66
ENDBRANCH  14  65
ENDBRANCH   6   7
ENDBRANCH   5   6
ENDBRANCH   2   5
TORSDOF 28
ENDMDL
MODEL 18
REMARK VINA RESULT:      -7.1     32.496     35.349
REMARK  28 active torsions:
REMARK  status: ('A' for Active; 'I' for Inactive)
REMARK    1  A    between atoms: C_2  and  O_3 
REMARK    2  A    between atoms: C_2  and  C_4 
REMARK    3  A    between atoms: C_4  and  C_5 
REMARK    4  A    between atoms: C_5  and  C_6 
REMARK    5  A    between atoms: C_7  and  C_8 
REMARK    6  A    between atoms: C_8  and  C_9 
REMARK    7  A    between atoms: C_9  and  O_11 
REMARK    8  A    between atoms: C_28  and  C_29 
REMARK    9  A    between atoms: C_29  and  C_30 
REMARK   10  A    between atoms: C_30  and  O_32 
REMARK   11  A    between atoms: C_33  and  C_34 
REMARK   12  A    between atoms: C_34  and  C_35 
REMARK   13  A    between atoms: C_35  and  C_36 
REMARK   14  A    between atoms: C_36  and  O_38 
REMARK   15  A    between atoms: C_39  and  C_40 
REMARK   16  A    between atoms: C_40  and  C_41 
REMARK   17  A    between atoms: C_41  and  C_42 
REMARK   18  A    between atoms: C_42  and  O_44 
REMARK   19  A    between atoms: C_45  and  C_46 
REMARK   20  A    between atoms: C_46  and  C_47 
REMARK   21  A    between atoms: C_47  and  O_49 
REMARK   22  A    between atoms: C_50  and  C_51 
REMARK   23  A    between atoms: C_51  and  C_52 
REMARK   24  A    between atoms: C_52  and  O_54 
REMARK   25  A    between atoms: C_55  and  C_56 
REMARK   26  A    between atoms: C_56  and  C_57 
REMARK   27  A    between atoms: C_57  and  C_58 
REMARK   28  A    between atoms: C_58  and  O_60 
ROOT
ATOM      1  O   UNK d   0     -18.193  -8.703  -3.435  0.00  0.00    -0.650 OA
ATOM      2  C   UNK d   0     -18.301  -7.576  -2.904  0.00  0.00     0.139 C 
ENDROOT
BRANCH   2   3
ATOM      3  O   UNK d   0     -18.982  -6.582  -3.566  0.00  0.00    -0.776 OA
ATOM      4  H   UNK d   0     -18.744  -5.598  -3.429  0.00  0.00     0.167 HD
ENDBRANCH   2   3
BRANCH   2   5
ATOM      5  C   UNK d   0     -17.694  -7.316  -1.568  0.00  0.00     0.115 C 
BRANCH   5   6
ATOM      6  C   UNK d   0     -18.446  -8.068  -0.503  0.00  0.00     0.052 C 
BRANCH   6   7
ATOM      7  C   UNK d   0     -19.022  -7.157   0.554  0.00  0.00    -0.020 A 
ATOM      8  C   UNK d   0     -18.639  -7.037   1.799  0.00  0.00    -0.011 A 
ATOM      9  C   UNK d   0     -19.494  -6.047   2.434  0.00  0.00     0.067 A 
ATOM     10  C   UNK d   0     -19.593  -5.461   3.705  0.00  0.00     0.062 C 
ATOM     11  N   UNK d   0     -20.373  -5.620   1.503  0.00  0.00    -0.248 NA
ATOM     12  C   UNK d   0     -20.310  -4.311   4.055  0.00  0.00     0.041 A 
ATOM     13  N   UNK d   0     -21.542  -3.894   3.706  0.00  0.00    -0.355 N 
ATOM     14  C   UNK d   0     -19.690  -3.344   4.867  0.00  0.00    -0.022 A 
ATOM     15  C   UNK d   0     -21.716  -2.683   4.268  0.00  0.00     0.042 A 
ATOM     16  H   UNK d   0     -22.280  -4.453   3.090  0.00  0.00     0.166 HD
ATOM     17  C   UNK d   0     -22.819  -1.807   4.225  0.00  0.00     0.062 C 
ATOM     18  C   UNK d   0     -20.577  -2.305   5.004  0.00  0.00    -0.013 A 
ATOM     19  C   UNK d   0     -23.586  -1.438   3.150  0.00  0.00     0.067 A 
ATOM     20  N   UNK d   0     -23.416  -2.130   2.020  0.00  0.00    -0.248 NA
ATOM     21  C   UNK d   0     -24.590  -0.421   2.882  0.00  0.00    -0.011 A 
ATOM     22  C   UNK d   0     -24.235  -1.639   1.033  0.00  0.00     0.066 A 
ATOM     23  C   UNK d   0     -24.188  -2.294  -0.189  0.00  0.00     0.062 C 
ATOM     24  C   UNK d   0     -24.963  -0.542   1.641  0.00  0.00    -0.020 A 
ATOM     25  C   UNK d   0     -23.471  -3.455  -0.516  0.00  0.00     0.041 A 
ATOM     26  N   UNK d   0     -22.242  -3.863  -0.181  0.00  0.00    -0.355 N 
ATOM     27  C   UNK d   0     -24.096  -4.428  -1.327  0.00  0.00    -0.022 A 
ATOM     28  C   UNK d   0     -22.061  -5.066  -0.748  0.00  0.00     0.042 A 
ATOM     29  H   UNK d   0     -21.496  -3.295   0.429  0.00  0.00     0.166 HD
ATOM     30  C   UNK d   0     -20.967  -5.945  -0.721  0.00  0.00     0.062 C 
ATOM     31  C   UNK d   0     -23.211  -5.451  -1.478  0.00  0.00    -0.013 A 
ATOM     32  C   UNK d   0     -20.142  -6.250   0.350  0.00  0.00     0.066 A 
BRANCH   8  33
ATOM     33  C   UNK d   0     -17.544  -7.768   2.463  0.00  0.00     0.151 C 
BRANCH  33  34
ATOM     34  C   UNK d   0     -16.272  -7.024   2.451  0.00  0.00     0.143 C 
ATOM     35  O   UNK d   0     -15.962  -6.308   1.488  0.00  0.00    -0.650 OA
BRANCH  34  36
ATOM     36  O   UNK d   0     -15.418  -7.128   3.525  0.00  0.00    -0.776 OA
ATOM     37  H   UNK d   0     -15.265  -6.337   4.164  0.00  0.00     0.167 HD
ENDBRANCH  34  36
ENDBRANCH  33  34
ENDBRANCH   8  33
BRANCH  31  38
ATOM     38  C   UNK d   0     -23.445  -6.724  -2.258  0.00  0.00     0.151 C 
BRANCH  38  39
ATOM     39  C   UNK d   0     -22.334  -7.067  -3.120  0.00  0.00     0.143 C 
ATOM     40  O   UNK d   0     -21.696  -8.127  -2.994  0.00  0.00    -0.650 OA
BRANCH  39  41
ATOM     41  O   UNK d   0     -21.955  -6.187  -4.133  0.00  0.00    -0.776 OA
ATOM     42  H   UNK d   0     -20.976  -5.883  -4.139  0.00  0.00     0.167 HD
ENDBRANCH  39  41
ENDBRANCH  38  39
ENDBRANCH  31  38
BRANCH  27  43
ATOM     43  C   UNK d   0     -25.470  -4.418  -1.950  0.00  0.00     0.052 C 
BRANCH  43  44
ATOM     44  C   UNK d   0     -26.525  -4.994  -1.062  0.00  0.00     0.115 C 
BRANCH  44  45
ATOM     45  C   UNK d   0     -27.812  -4.860  -1.792  0.00  0.00     0.139 C 
ATOM     46  O   UNK d   0     -27.942  -5.472  -2.881  0.00  0.00    -0.650 OA
BRANCH  45  47
ATOM     47  O   UNK d   0     -28.862  -4.102  -1.321  0.00  0.00    -0.776 OA
ATOM     48  H   UNK d   0     -29.720  -4.518  -0.924  0.00  0.00     0.167 HD
ENDBRANCH  45  47
ENDBRANCH  44  45
ENDBRANCH  43  44
ENDBRANCH  27  43
BRANCH  24  49
ATOM     49  C   UNK d   0     -25.992   0.263   0.961  0.00  0.00     0.052 C 
BRANCH  49  50
ATOM     50  C   UNK d   0     -27.293  -0.497   0.895  0.00  0.00     0.115 C 
BRANCH  50  51
ATOM     51  C   UNK d   0     -28.048  -0.415  -0.348  0.00  0.00     0.139 C 
ATOM     52  O   UNK d   0     -28.796   0.553  -0.623  0.00  0.00    -0.650 OA
BRANCH  51  53
ATOM     53  O   UNK d   0     -27.952  -1.439  -1.278  0.00  0.00    -0.776 OA
ATOM     54  H   UNK d   0     -28.141  -1.225  -2.242  0.00  0.00     0.167 HD
ENDBRANCH  51  53
ENDBRANCH  50  51
ENDBRANCH  49  50
ENDBRANCH  24  49
BRANCH  21  55
ATOM     55  C   UNK d   0     -25.075   0.561   3.896  0.00  0.00     0.151 C 
BRANCH  55  56
ATOM     56  C   UNK d   0     -26.336   0.132   4.520  0.00  0.00     0.143 C 
ATOM     57  O   UNK d   0     -26.416  -0.863   5.266  0.00  0.00    -0.650 OA
BRANCH  56  58
ATOM     58  O   UNK d   0     -27.480   0.884   4.254  0.00  0.00    -0.776 OA
ATOM     59  H   UNK d   0     -27.655   1.661   4.916  0.00  0.00     0.167 HD
ENDBRANCH  56  58
ENDBRANCH  55  56
ENDBRANCH  21  55
BRANCH  18  60
ATOM     60  C   UNK d   0     -20.317  -1.045   5.792  0.00  0.00     0.151 C 
BRANCH  60  61
ATOM     61  C   UNK d   0     -20.638  -1.370   7.190  0.00  0.00     0.143 C 
ATOM     62  O   UNK d   0     -19.843  -1.634   8.092  0.00  0.00    -0.650 OA
BRANCH  61  63
ATOM     63  O   UNK d   0     -22.018  -1.370   7.506  0.00  0.00    -0.776 OA
ATOM     64  H   UNK d   0     -22.624  -0.637   7.184  0.00  0.00     0.167 HD
ENDBRANCH  61  63
ENDBRANCH  60  61
ENDBRANCH  18  60
BRANCH  14  65
ATOM     65  C   UNK d   0     -18.377  -3.370   5.595  0.00  0.00     0.052 C 
BRANCH  65  66
ATOM     66  C   UNK d   0     -17.269  -2.748   4.821  0.00  0.00     0.115 C 
BRANCH  66  67
ATOM     67  C   UNK d   0     -16.451  -3.565   3.969  0.00  0.00     0.139 C 
ATOM     68  O   UNK d   0     -15.594  -4.354   4.514  0.00  0.00    -0.650 OA
BRANCH  67  69
ATOM     69  O   UNK d   0     -16.458  -3.619   2.576  0.00  0.00    -0.776 OA
ATOM     70  H   UNK d   0     -17.374  -3.794   2.139  0.00  0.00     0.167 HD
ENDBRANCH  67  69
ENDBRANCH  66  67
ENDBRANCH  65  66
ENDBRANCH  14  65
ENDBRANCH   6   7
ENDBRANCH   5   6
ENDBRANCH   2   5
TORSDOF 28
ENDMDL
MODEL 19
REMARK VINA RESULT:      -7.0     20.951     24.438
REMARK  28 active torsions:
REMARK  status: ('A' for Active; 'I' for Inactive)
REMARK    1  A    between atoms: C_2  and  O_3 
REMARK    2  A    between atoms: C_2  and  C_4 
REMARK    3  A    between atoms: C_4  and  C_5 
REMARK    4  A    between atoms: C_5  and  C_6 
REMARK    5  A    between atoms: C_7  and  C_8 
REMARK    6  A    between atoms: C_8  and  C_9 
REMARK    7  A    between atoms: C_9  and  O_11 
REMARK    8  A    between atoms: C_28  and  C_29 
REMARK    9  A    between atoms: C_29  and  C_30 
REMARK   10  A    between atoms: C_30  and  O_32 
REMARK   11  A    between atoms: C_33  and  C_34 
REMARK   12  A    between atoms: C_34  and  C_35 
REMARK   13  A    between atoms: C_35  and  C_36 
REMARK   14  A    between atoms: C_36  and  O_38 
REMARK   15  A    between atoms: C_39  and  C_40 
REMARK   16  A    between atoms: C_40  and  C_41 
REMARK   17  A    between atoms: C_41  and  C_42 
REMARK   18  A    between atoms: C_42  and  O_44 
REMARK   19  A    between atoms: C_45  and  C_46 
REMARK   20  A    between atoms: C_46  and  C_47 
REMARK   21  A    between atoms: C_47  and  O_49 
REMARK   22  A    between atoms: C_50  and  C_51 
REMARK   23  A    between atoms: C_51  and  C_52 
REMARK   24  A    between atoms: C_52  and  O_54 
REMARK   25  A    between atoms: C_55  and  C_56 
REMARK   26  A    between atoms: C_56  and  C_57 
REMARK   27  A    between atoms: C_57  and  C_58 
REMARK   28  A    between atoms: C_58  and  O_60 
ROOT
ATOM      1  O   UNK d   0     -14.977  -6.882   5.136  0.00  0.00    -0.650 OA
ATOM      2  C   UNK d   0     -14.407  -6.133   5.960  0.00  0.00     0.139 C 
ENDROOT
BRANCH   2   3
ATOM      3  O   UNK d   0     -15.117  -5.113   6.547  0.00  0.00    -0.776 OA
ATOM      4  H   UNK d   0     -14.757  -4.157   6.556  0.00  0.00     0.167 HD
ENDBRANCH   2   3
BRANCH   2   5
ATOM      5  C   UNK d   0     -12.971  -6.347   6.298  0.00  0.00     0.115 C 
BRANCH   5   6
ATOM      6  C   UNK d   0     -12.277  -5.024   6.473  0.00  0.00     0.052 C 
BRANCH   6   7
ATOM      7  C   UNK d   0     -11.106  -4.853   5.534  0.00  0.00    -0.020 A 
ATOM      8  C   UNK d   0      -9.842  -4.736   5.849  0.00  0.00    -0.011 A 
ATOM      9  C   UNK d   0      -9.088  -4.585   4.616  0.00  0.00     0.067 A 
ATOM     10  C   UNK d   0      -7.736  -4.442   4.266  0.00  0.00     0.062 C 
ATOM     11  N   UNK d   0      -9.974  -4.615   3.599  0.00  0.00    -0.248 NA
ATOM     12  C   UNK d   0      -7.170  -4.589   2.995  0.00  0.00     0.041 A 
ATOM     13  N   UNK d   0      -7.584  -4.168   1.785  0.00  0.00    -0.355 N 
ATOM     14  C   UNK d   0      -5.988  -5.340   2.860  0.00  0.00    -0.022 A 
ATOM     15  C   UNK d   0      -6.701  -4.640   0.885  0.00  0.00     0.042 A 
ATOM     16  H   UNK d   0      -8.474  -3.535   1.574  0.00  0.00     0.166 HD
ATOM     17  C   UNK d   0      -6.658  -4.494  -0.516  0.00  0.00     0.062 C 
ATOM     18  C   UNK d   0      -5.685  -5.379   1.522  0.00  0.00    -0.013 A 
ATOM     19  C   UNK d   0      -7.676  -4.614  -1.426  0.00  0.00     0.067 A 
ATOM     20  N   UNK d   0      -8.918  -4.683  -0.939  0.00  0.00    -0.248 NA
ATOM     21  C   UNK d   0      -7.779  -4.706  -2.873  0.00  0.00    -0.011 A 
ATOM     22  C   UNK d   0      -9.825  -4.815  -1.963  0.00  0.00     0.066 A 
ATOM     23  C   UNK d   0     -11.162  -4.861  -1.599  0.00  0.00     0.062 C 
ATOM     24  C   UNK d   0      -9.038  -4.828  -3.180  0.00  0.00    -0.020 A 
ATOM     25  C   UNK d   0     -11.712  -4.697  -0.318  0.00  0.00     0.041 A 
ATOM     26  N   UNK d   0     -11.308  -5.128   0.883  0.00  0.00    -0.355 N 
ATOM     27  C   UNK d   0     -12.896  -3.940  -0.183  0.00  0.00    -0.022 A 
ATOM     28  C   UNK d   0     -12.192  -4.667   1.781  0.00  0.00     0.042 A 
ATOM     29  H   UNK d   0     -10.420  -5.774   1.093  0.00  0.00     0.166 HD
ATOM     30  C   UNK d   0     -12.252  -4.812   3.176  0.00  0.00     0.062 C 
ATOM     31  C   UNK d   0     -13.206  -3.915   1.142  0.00  0.00    -0.013 A 
ATOM     32  C   UNK d   0     -11.206  -4.775   4.085  0.00  0.00     0.066 A 
BRANCH   8  33
ATOM     33  C   UNK d   0      -9.262  -4.747   7.205  0.00  0.00     0.151 C 
BRANCH  33  34
ATOM     34  C   UNK d   0      -8.545  -5.999   7.509  0.00  0.00     0.143 C 
ATOM     35  O   UNK d   0      -7.346  -5.985   7.823  0.00  0.00    -0.650 OA
BRANCH  34  36
ATOM     36  O   UNK d   0      -9.218  -7.197   7.441  0.00  0.00    -0.776 OA
ATOM     37  H   UNK d   0      -8.894  -7.957   6.828  0.00  0.00     0.167 HD
ENDBRANCH  34  36
ENDBRANCH  33  34
ENDBRANCH   8  33
BRANCH  31  38
ATOM     38  C   UNK d   0     -14.387  -3.210   1.768  0.00  0.00     0.151 C 
BRANCH  38  39
ATOM     39  C   UNK d   0     -15.558  -4.054   1.867  0.00  0.00     0.143 C 
ATOM     40  O   UNK d   0     -16.653  -3.734   1.372  0.00  0.00    -0.650 OA
BRANCH  39  41
ATOM     41  O   UNK d   0     -15.470  -5.274   2.537  0.00  0.00    -0.776 OA
ATOM     42  H   UNK d   0     -15.509  -5.242   3.561  0.00  0.00     0.167 HD
ENDBRANCH  39  41
ENDBRANCH  38  39
ENDBRANCH  31  38
BRANCH  27  43
ATOM     43  C   UNK d   0     -13.723  -3.257  -1.243  0.00  0.00     0.052 C 
BRANCH  43  44
ATOM     44  C   UNK d   0     -14.821  -4.117  -1.781  0.00  0.00     0.115 C 
BRANCH  44  45
ATOM     45  C   UNK d   0     -16.013  -3.241  -1.927  0.00  0.00     0.139 C 
ATOM     46  O   UNK d   0     -16.827  -3.500  -2.848  0.00  0.00    -0.650 OA
BRANCH  45  47
ATOM     47  O   UNK d   0     -16.259  -2.170  -1.096  0.00  0.00    -0.776 OA
ATOM     48  H   UNK d   0     -16.676  -2.274  -0.156  0.00  0.00     0.167 HD
ENDBRANCH  45  47
ENDBRANCH  44  45
ENDBRANCH  43  44
ENDBRANCH  27  43
BRANCH  24  49
ATOM     49  C   UNK d   0      -9.595  -4.914  -4.541  0.00  0.00     0.052 C 
BRANCH  49  50
ATOM     50  C   UNK d   0      -9.831  -6.353  -4.921  0.00  0.00     0.115 C 
BRANCH  50  51
ATOM     51  C   UNK d   0     -10.330  -6.613  -6.264  0.00  0.00     0.139 C 
ATOM     52  O   UNK d   0      -9.611  -6.506  -7.286  0.00  0.00    -0.650 OA
BRANCH  51  53
ATOM     53  O   UNK d   0     -11.652  -6.993  -6.444  0.00  0.00    -0.776 OA
ATOM     54  H   UNK d   0     -12.130  -6.674  -7.268  0.00  0.00     0.167 HD
ENDBRANCH  51  53
ENDBRANCH  50  51
ENDBRANCH  49  50
ENDBRANCH  24  49
BRANCH  21  55
ATOM     55  C   UNK d   0      -6.608  -4.658  -3.798  0.00  0.00     0.151 C 
BRANCH  55  56
ATOM     56  C   UNK d   0      -5.875  -5.934  -3.827  0.00  0.00     0.143 C 
ATOM     57  O   UNK d   0      -6.364  -7.002  -3.409  0.00  0.00    -0.650 OA
BRANCH  56  58
ATOM     58  O   UNK d   0      -4.582  -5.929  -4.347  0.00  0.00    -0.776 OA
ATOM     59  H   UNK d   0      -4.108  -5.008  -4.327  0.00  0.00     0.167 HD
ENDBRANCH  56  58
ENDBRANCH  55  56
ENDBRANCH  21  55
BRANCH  18  60
ATOM     60  C   UNK d   0      -4.496  -6.090   0.925  0.00  0.00     0.151 C 
BRANCH  60  61
ATOM     61  C   UNK d   0      -4.946  -7.461   0.640  0.00  0.00     0.143 C 
ATOM     62  O   UNK d   0      -4.909  -8.428   1.403  0.00  0.00    -0.650 OA
BRANCH  61  63
ATOM     63  O   UNK d   0      -5.475  -7.665  -0.657  0.00  0.00    -0.776 OA
ATOM     64  H   UNK d   0      -5.964  -8.511  -0.891  0.00  0.00     0.167 HD
ENDBRANCH  61  63
ENDBRANCH  60  61
ENDBRANCH  18  60
BRANCH  14  65
ATOM     65  C   UNK d   0      -5.079  -5.934   3.899  0.00  0.00     0.052 C 
BRANCH  65  66
ATOM     66  C   UNK d   0      -4.278  -4.911   4.624  0.00  0.00     0.115 C 
BRANCH  66  67
ATOM     67  C   UNK d   0      -2.957  -4.585   4.167  0.00  0.00     0.139 C 
ATOM     68  O   UNK d   0      -2.472  -5.243   3.174  0.00  0.00    -0.650 OA
BRANCH  67  69
ATOM     69  O   UNK d   0      -2.094  -3.614   4.673  0.00  0.00    -0.776 OA
ATOM     70  H   UNK d   0      -1.423  -3.938   5.385  0.00  0.00     0.167 HD
ENDBRANCH  67  69
ENDBRANCH  66  67
ENDBRANCH  65  66
ENDBRANCH  14  65
ENDBRANCH   6   7
ENDBRANCH   5   6
ENDBRANCH   2   5
TORSDOF 28
ENDMDL
MODEL 20
REMARK VINA RESULT:      -7.0     26.331     31.045
REMARK  28 active torsions:
REMARK  status: ('A' for Active; 'I' for Inactive)
REMARK    1  A    between atoms: C_2  and  O_3 
REMARK    2  A    between atoms: C_2  and  C_4 
REMARK    3  A    between atoms: C_4  and  C_5 
REMARK    4  A    between atoms: C_5  and  C_6 
REMARK    5  A    between atoms: C_7  and  C_8 
REMARK    6  A    between atoms: C_8  and  C_9 
REMARK    7  A    between atoms: C_9  and  O_11 
REMARK    8  A    between atoms: C_28  and  C_29 
REMARK    9  A    between atoms: C_29  and  C_30 
REMARK   10  A    between atoms: C_30  and  O_32 
REMARK   11  A    between atoms: C_33  and  C_34 
REMARK   12  A    between atoms: C_34  and  C_35 
REMARK   13  A    between atoms: C_35  and  C_36 
REMARK   14  A    between atoms: C_36  and  O_38 
REMARK   15  A    between atoms: C_39  and  C_40 
REMARK   16  A    between atoms: C_40  and  C_41 
REMARK   17  A    between atoms: C_41  and  C_42 
REMARK   18  A    between atoms: C_42  and  O_44 
REMARK   19  A    between atoms: C_45  and  C_46 
REMARK   20  A    between atoms: C_46  and  C_47 
REMARK   21  A    between atoms: C_47  and  O_49 
REMARK   22  A    between atoms: C_50  and  C_51 
REMARK   23  A    between atoms: C_51  and  C_52 
REMARK   24  A    between atoms: C_52  and  O_54 
REMARK   25  A    between atoms: C_55  and  C_56 
REMARK   26  A    between atoms: C_56  and  C_57 
REMARK   27  A    between atoms: C_57  and  C_58 
REMARK   28  A    between atoms: C_58  and  O_60 
ROOT
ATOM      1  O   UNK d   0      13.943  19.525 -10.880  0.00  0.00    -0.650 OA
ATOM      2  C   UNK d   0      15.061  18.967 -10.934  0.00  0.00     0.139 C 
ENDROOT
BRANCH   2   3
ATOM      3  O   UNK d   0      15.151  17.615 -10.702  0.00  0.00    -0.776 OA
ATOM      4  H   UNK d   0      15.104  16.944 -11.472  0.00  0.00     0.167 HD
ENDBRANCH   2   3
BRANCH   2   5
ATOM      5  C   UNK d   0      16.281  19.764 -11.246  0.00  0.00     0.115 C 
BRANCH   5   6
ATOM      6  C   UNK d   0      16.676  20.593 -10.054  0.00  0.00     0.052 C 
BRANCH   6   7
ATOM      7  C   UNK d   0      17.410  19.792  -9.006  0.00  0.00    -0.020 A 
ATOM      8  C   UNK d   0      16.935  19.329  -7.878  0.00  0.00    -0.011 A 
ATOM      9  C   UNK d   0      18.011  18.629  -7.195  0.00  0.00     0.067 A 
ATOM     10  C   UNK d   0      18.153  17.914  -5.996  0.00  0.00     0.062 C 
ATOM     11  N   UNK d   0      19.107  18.721  -7.977  0.00  0.00    -0.248 NA
ATOM     12  C   UNK d   0      19.206  17.066  -5.635  0.00  0.00     0.041 A 
ATOM     13  N   UNK d   0      20.538  17.197  -5.780  0.00  0.00    -0.355 N 
ATOM     14  C   UNK d   0      18.907  15.815  -5.064  0.00  0.00    -0.022 A 
ATOM     15  C   UNK d   0      21.092  16.058  -5.323  0.00  0.00     0.042 A 
ATOM     16  H   UNK d   0      21.077  18.084  -6.179  0.00  0.00     0.166 HD
ATOM     17  C   UNK d   0      22.444  15.669  -5.241  0.00  0.00     0.062 C 
ATOM     18  C   UNK d   0      20.101  15.168  -4.866  0.00  0.00    -0.013 A 
ATOM     19  C   UNK d   0      23.436  15.796  -6.179  0.00  0.00     0.067 A 
ATOM     20  N   UNK d   0      23.169  16.560  -7.242  0.00  0.00    -0.248 NA
ATOM     21  C   UNK d   0      24.785  15.282  -6.350  0.00  0.00    -0.011 A 
ATOM     22  C   UNK d   0      24.244  16.580  -8.097  0.00  0.00     0.066 A 
ATOM     23  C   UNK d   0      24.116  17.370  -9.230  0.00  0.00     0.062 C 
ATOM     24  C   UNK d   0      25.250  15.741  -7.476  0.00  0.00    -0.020 A 
ATOM     25  C   UNK d   0      23.055  18.224  -9.568  0.00  0.00     0.041 A 
ATOM     26  N   UNK d   0      21.730  18.088  -9.438  0.00  0.00    -0.355 N 
ATOM     27  C   UNK d   0      23.355  19.481 -10.136  0.00  0.00    -0.022 A 
ATOM     28  C   UNK d   0      21.174  19.219  -9.901  0.00  0.00     0.042 A 
ATOM     29  H   UNK d   0      21.189  17.191  -9.047  0.00  0.00     0.166 HD
ATOM     30  C   UNK d   0      19.831  19.615  -9.997  0.00  0.00     0.062 C 
ATOM     31  C   UNK d   0      22.171  20.117 -10.350  0.00  0.00    -0.013 A 
ATOM     32  C   UNK d   0      18.812  19.408  -9.081  0.00  0.00     0.066 A 
BRANCH   8  33
ATOM     33  C   UNK d   0      15.560  19.482  -7.368  0.00  0.00     0.151 C 
BRANCH  33  34
ATOM     34  C   UNK d   0      14.930  18.193  -7.028  0.00  0.00     0.143 C 
ATOM     35  O   UNK d   0      14.521  17.967  -5.881  0.00  0.00    -0.650 OA
BRANCH  34  36
ATOM     36  O   UNK d   0      14.798  17.229  -8.001  0.00  0.00    -0.776 OA
ATOM     37  H   UNK d   0      15.434  16.421  -8.042  0.00  0.00     0.167 HD
ENDBRANCH  34  36
ENDBRANCH  33  34
ENDBRANCH   8  33
BRANCH  31  38
ATOM     38  C   UNK d   0      21.995  21.500 -10.933  0.00  0.00     0.151 C 
BRANCH  38  39
ATOM     39  C   UNK d   0      22.162  21.529 -12.370  0.00  0.00     0.143 C 
ATOM     40  O   UNK d   0      22.544  22.547 -12.975  0.00  0.00    -0.650 OA
BRANCH  39  41
ATOM     41  O   UNK d   0      21.890  20.383 -13.116  0.00  0.00    -0.776 OA
ATOM     42  H   UNK d   0      21.467  19.596 -12.615  0.00  0.00     0.167 HD
ENDBRANCH  39  41
ENDBRANCH  38  39
ENDBRANCH  31  38
BRANCH  27  43
ATOM     43  C   UNK d   0      24.696  20.083 -10.478  0.00  0.00     0.052 C 
BRANCH  43  44
ATOM     44  C   UNK d   0      25.259  19.578 -11.766  0.00  0.00     0.115 C 
BRANCH  44  45
ATOM     45  C   UNK d   0      25.557  20.774 -12.597  0.00  0.00     0.139 C 
ATOM     46  O   UNK d   0      25.725  21.873 -12.012  0.00  0.00    -0.650 OA
BRANCH  45  47
ATOM     47  O   UNK d   0      25.661  20.723 -13.970  0.00  0.00    -0.776 OA
ATOM     48  H   UNK d   0      25.863  21.555 -14.548  0.00  0.00     0.167 HD
ENDBRANCH  45  47
ENDBRANCH  44  45
ENDBRANCH  43  44
ENDBRANCH  27  43
BRANCH  24  49
ATOM     49  C   UNK d   0      26.597  15.499  -8.022  0.00  0.00     0.052 C 
BRANCH  49  50
ATOM     50  C   UNK d   0      26.678  14.120  -8.626  0.00  0.00     0.115 C 
BRANCH  50  51
ATOM     51  C   UNK d   0      26.055  13.927  -9.928  0.00  0.00     0.139 C 
ATOM     52  O   UNK d   0      24.843  13.636 -10.061  0.00  0.00    -0.650 OA
BRANCH  51  53
ATOM     53  O   UNK d   0      26.815  14.062 -11.080  0.00  0.00    -0.776 OA
ATOM     54  H   UNK d   0      27.089  13.229 -11.570  0.00  0.00     0.167 HD
ENDBRANCH  51  53
ENDBRANCH  50  51
ENDBRANCH  49  50
ENDBRANCH  24  49
BRANCH  21  55
ATOM     55  C   UNK d   0      25.469  14.389  -5.369  0.00  0.00     0.151 C 
BRANCH  55  56
ATOM     56  C   UNK d   0      25.933  15.126  -4.183  0.00  0.00     0.143 C 
ATOM     57  O   UNK d   0      25.302  15.142  -3.109  0.00  0.00    -0.650 OA
BRANCH  56  58
ATOM     58  O   UNK d   0      27.132  15.829  -4.285  0.00  0.00    -0.776 OA
ATOM     59  H   UNK d   0      27.917  15.435  -3.736  0.00  0.00     0.167 HD
ENDBRANCH  56  58
ENDBRANCH  55  56
ENDBRANCH  21  55
BRANCH  18  60
ATOM     60  C   UNK d   0      20.248  13.786  -4.278  0.00  0.00     0.151 C 
BRANCH  60  61
ATOM     61  C   UNK d   0      19.849  12.851  -5.341  0.00  0.00     0.143 C 
ATOM     62  O   UNK d   0      20.279  12.810  -6.494  0.00  0.00    -0.650 OA
BRANCH  61  63
ATOM     63  O   UNK d   0      18.862  11.905  -4.972  0.00  0.00    -0.776 OA
ATOM     64  H   UNK d   0      18.805  11.011  -5.428  0.00  0.00     0.167 HD
ENDBRANCH  61  63
ENDBRANCH  60  61
ENDBRANCH  18  60
BRANCH  14  65
ATOM     65  C   UNK d   0      17.601  15.233  -4.606  0.00  0.00     0.052 C 
BRANCH  65  66
ATOM     66  C   UNK d   0      16.578  15.179  -5.685  0.00  0.00     0.115 C 
BRANCH  66  67
ATOM     67  C   UNK d   0      16.898  14.557  -6.939  0.00  0.00     0.139 C 
ATOM     68  O   UNK d   0      16.867  15.275  -8.006  0.00  0.00    -0.650 OA
BRANCH  67  69
ATOM     69  O   UNK d   0      17.252  13.228  -7.167  0.00  0.00    -0.776 OA
ATOM     70  H   UNK d   0      17.393  12.651  -6.325  0.00  0.00     0.167 HD
ENDBRANCH  67  69
ENDBRANCH  66  67
ENDBRANCH  65  66
ENDBRANCH  14  65
ENDBRANCH   6   7
ENDBRANCH   5   6
ENDBRANCH   2   5
TORSDOF 28
ENDMDL
