MODEL 1
REMARK VINA RESULT:      -7.4      0.000      0.000
REMARK  16 active torsions:
REMARK  status: ('A' for Active; 'I' for Inactive)
REMARK    1  A    between atoms: C_6  and  C_7 
REMARK    2  A    between atoms: C_7  and  C_8 
REMARK    3  A    between atoms: C_8  and  C_9 
REMARK    4  A    between atoms: C_9  and  O_11 
REMARK    5  A    between atoms: C_16  and  C_17 
REMARK    6  A    between atoms: C_17  and  C_18 
REMARK    7  A    between atoms: C_18  and  C_19 
REMARK    8  A    between atoms: C_19  and  O_21 
REMARK    9  A    between atoms: C_28  and  C_29 
REMARK   10  A    between atoms: C_29  and  C_30 
REMARK   11  A    between atoms: C_30  and  C_31 
REMARK   12  A    between atoms: C_31  and  O_33 
REMARK   13  A    between atoms: C_42  and  C_43 
REMARK   14  A    between atoms: C_43  and  C_44 
REMARK   15  A    between atoms: C_44  and  C_45 
REMARK   16  A    between atoms: C_45  and  O_47 
ROOT
HETATM    1  C   UNK     0     -14.931 -23.260  64.763  0.00  0.00     0.051 C 
HETATM    2  C   UNK     0     -15.647 -23.293  63.428  0.00  0.00    -0.031 A 
HETATM    3  C   UNK     0     -16.939 -22.901  63.114  0.00  0.00     0.021 A 
HETATM    4  N   UNK     0     -17.164 -23.139  61.800  0.00  0.00    -0.361 N 
HETATM    5  C   UNK     0     -16.042 -23.665  61.268  0.00  0.00     0.022 A 
HETATM    6  C   UNK     0     -15.073 -23.778  62.260  0.00  0.00    -0.027 A 
HETATM    7  C   UNK     0     -15.736 -24.017  59.846  0.00  0.00     0.115 C 
HETATM    8  C   UNK     0     -16.186 -23.026  58.787  0.00  0.00     0.021 A 
HETATM    9  N   UNK     0     -16.222 -21.687  58.856  0.00  0.00    -0.361 N 
HETATM   10  C   UNK     0     -16.780 -21.222  57.718  0.00  0.00     0.022 A 
HETATM   11  C   UNK     0     -17.104 -22.292  56.889  0.00  0.00    -0.027 A 
HETATM   12  C   UNK     0     -16.733 -23.431  57.556  0.00  0.00    -0.031 A 
HETATM   13  C   UNK     0     -16.891 -24.842  57.033  0.00  0.00     0.051 C 
HETATM   14  C   UNK     0     -17.078 -19.762  57.391  0.00  0.00     0.115 C 
HETATM   15  C   UNK     0     -18.047 -19.099  58.357  0.00  0.00     0.021 A 
HETATM   16  N   UNK     0     -17.911 -18.957  59.688  0.00  0.00    -0.361 N 
HETATM   17  C   UNK     0     -19.010 -18.384  60.183  0.00  0.00     0.022 A 
HETATM   18  C   UNK     0     -19.902 -18.132  59.121  0.00  0.00    -0.027 A 
HETATM   19  C   UNK     0     -19.286 -18.584  57.983  0.00  0.00    -0.031 A 
HETATM   20  C   UNK     0     -19.891 -18.472  56.595  0.00  0.00     0.051 C 
HETATM   21  C   UNK     0     -19.385 -18.074  61.614  0.00  0.00     0.115 C 
HETATM   22  C   UNK     0     -18.905 -19.028  62.683  0.00  0.00     0.022 A 
HETATM   23  N   UNK     0     -18.855 -20.365  62.640  0.00  0.00    -0.361 N 
HETATM   24  C   UNK     0     -18.225 -20.802  63.749  0.00  0.00     0.021 A 
HETATM   25  C   UNK     0     -17.870 -19.719  64.531  0.00  0.00    -0.031 A 
HETATM   26  C   UNK     0     -17.183 -19.702  65.881  0.00  0.00     0.051 C 
HETATM   27  C   UNK     0     -18.295 -18.572  63.869  0.00  0.00    -0.027 A 
HETATM   28  C   UNK     0     -17.848 -22.230  64.103  0.00  0.00     0.115 C 
HETATM   29  H   UNK     0     -18.128 -22.970  61.266  0.00  0.00     0.165 HD
HETATM   30  H   UNK     0     -15.808 -21.063  59.686  0.00  0.00     0.165 HD
HETATM   31  H   UNK     0     -17.000 -19.223  60.286  0.00  0.00     0.165 HD
HETATM   32  H   UNK     0     -19.303 -21.017  61.845  0.00  0.00     0.165 HD
ENDROOT
BRANCH   6  33
HETATM   33  C   UNK     0     -13.663 -24.307  62.184  0.00  0.00     0.051 C 
BRANCH  33  34
HETATM   34  C   UNK     0     -12.694 -23.201  61.842  0.00  0.00     0.114 C 
BRANCH  34  35
HETATM   35  C   UNK     0     -11.759 -23.730  60.808  0.00  0.00     0.139 C 
HETATM   36  O   UNK     0     -10.521 -23.479  60.882  0.00  0.00    -0.650 OA
BRANCH  35  37
HETATM   37  O   UNK     0     -12.186 -24.510  59.740  0.00  0.00    -0.776 OA
HETATM   38  H   UNK     0     -12.225 -24.152  58.800  0.00  0.00     0.167 HD
ENDBRANCH  35  37
ENDBRANCH  34  35
ENDBRANCH  33  34
ENDBRANCH   6  33
BRANCH  27  39
HETATM   39  C   UNK     0     -18.151 -17.206  64.442  0.00  0.00     0.051 C 
BRANCH  39  40
HETATM   40  C   UNK     0     -19.358 -16.511  64.889  0.00  0.00     0.114 C 
BRANCH  40  41
HETATM   41  C   UNK     0     -19.840 -15.311  64.243  0.00  0.00     0.139 C 
HETATM   42  O   UNK     0     -20.967 -15.212  63.738  0.00  0.00    -0.650 OA
BRANCH  41  43
HETATM   43  O   UNK     0     -18.988 -14.173  64.174  0.00  0.00    -0.776 OA
HETATM   44  H   UNK     0     -19.141 -13.489  64.906  0.00  0.00     0.167 HD
ENDBRANCH  41  43
ENDBRANCH  40  41
ENDBRANCH  39  40
ENDBRANCH  27  39
BRANCH  11  45
HETATM   45  C   UNK     0     -17.735 -22.267  55.522  0.00  0.00     0.051 C 
BRANCH  45  46
HETATM   46  C   UNK     0     -19.218 -22.203  55.540  0.00  0.00     0.114 C 
BRANCH  46  47
HETATM   47  C   UNK     0     -19.710 -23.044  54.411  0.00  0.00     0.139 C 
HETATM   48  O   UNK     0     -20.462 -23.996  54.665  0.00  0.00    -0.650 OA
BRANCH  47  49
HETATM   49  O   UNK     0     -19.338 -22.773  53.119  0.00  0.00    -0.776 OA
HETATM   50  H   UNK     0     -18.395 -22.979  52.768  0.00  0.00     0.167 HD
ENDBRANCH  47  49
ENDBRANCH  46  47
ENDBRANCH  45  46
ENDBRANCH  11  45
BRANCH  18  51
HETATM   51  C   UNK     0     -21.257 -17.478  59.185  0.00  0.00     0.051 C 
BRANCH  51  52
HETATM   52  C   UNK     0     -21.014 -15.981  59.060  0.00  0.00     0.114 C 
BRANCH  52  53
HETATM   53  C   UNK     0     -22.273 -15.233  58.874  0.00  0.00     0.139 C 
HETATM   54  O   UNK     0     -22.900 -14.817  59.862  0.00  0.00    -0.650 OA
BRANCH  53  55
HETATM   55  O   UNK     0     -22.747 -15.005  57.605  0.00  0.00    -0.776 OA
HETATM   56  H   UNK     0     -23.648 -15.246  57.266  0.00  0.00     0.167 HD
ENDBRANCH  53  55
ENDBRANCH  52  53
ENDBRANCH  51  52
ENDBRANCH  18  51
TORSDOF 16
ENDMDL
MODEL 2
REMARK VINA RESULT:      -7.4     21.485     27.301
REMARK  16 active torsions:
REMARK  status: ('A' for Active; 'I' for Inactive)
REMARK    1  A    between atoms: C_6  and  C_7 
REMARK    2  A    between atoms: C_7  and  C_8 
REMARK    3  A    between atoms: C_8  and  C_9 
REMARK    4  A    between atoms: C_9  and  O_11 
REMARK    5  A    between atoms: C_16  and  C_17 
REMARK    6  A    between atoms: C_17  and  C_18 
REMARK    7  A    between atoms: C_18  and  C_19 
REMARK    8  A    between atoms: C_19  and  O_21 
REMARK    9  A    between atoms: C_28  and  C_29 
REMARK   10  A    between atoms: C_29  and  C_30 
REMARK   11  A    between atoms: C_30  and  C_31 
REMARK   12  A    between atoms: C_31  and  O_33 
REMARK   13  A    between atoms: C_42  and  C_43 
REMARK   14  A    between atoms: C_43  and  C_44 
REMARK   15  A    between atoms: C_44  and  C_45 
REMARK   16  A    between atoms: C_45  and  O_47 
ROOT
HETATM    1  C   UNK     0      -4.399 -40.708  42.022  0.00  0.00     0.051 C 
HETATM    2  C   UNK     0      -5.110 -39.805  43.009  0.00  0.00    -0.031 A 
HETATM    3  C   UNK     0      -6.040 -40.128  43.985  0.00  0.00     0.021 A 
HETATM    4  N   UNK     0      -6.432 -38.994  44.612  0.00  0.00    -0.361 N 
HETATM    5  C   UNK     0      -5.766 -37.957  44.064  0.00  0.00     0.022 A 
HETATM    6  C   UNK     0      -4.933 -38.428  43.055  0.00  0.00    -0.027 A 
HETATM    7  C   UNK     0      -5.766 -36.512  44.454  0.00  0.00     0.115 C 
HETATM    8  C   UNK     0      -5.713 -36.208  45.941  0.00  0.00     0.021 A 
HETATM    9  N   UNK     0      -5.059 -36.870  46.907  0.00  0.00    -0.361 N 
HETATM   10  C   UNK     0      -5.370 -36.301  48.091  0.00  0.00     0.022 A 
HETATM   11  C   UNK     0      -6.242 -35.236  47.880  0.00  0.00    -0.027 A 
HETATM   12  C   UNK     0      -6.462 -35.172  46.528  0.00  0.00    -0.031 A 
HETATM   13  C   UNK     0      -7.345 -34.160  45.834  0.00  0.00     0.051 C 
HETATM   14  C   UNK     0      -4.904 -36.769  49.467  0.00  0.00     0.115 C 
HETATM   15  C   UNK     0      -5.343 -38.181  49.818  0.00  0.00     0.021 A 
HETATM   16  N   UNK     0      -5.074 -39.316  49.146  0.00  0.00    -0.361 N 
HETATM   17  C   UNK     0      -5.699 -40.335  49.740  0.00  0.00     0.022 A 
HETATM   18  C   UNK     0      -6.400 -39.843  50.858  0.00  0.00    -0.027 A 
HETATM   19  C   UNK     0      -6.168 -38.492  50.897  0.00  0.00    -0.031 A 
HETATM   20  C   UNK     0      -6.713 -37.573  51.975  0.00  0.00     0.051 C 
HETATM   21  C   UNK     0      -5.778 -41.792  49.341  0.00  0.00     0.115 C 
HETATM   22  C   UNK     0      -5.787 -42.111  47.865  0.00  0.00     0.022 A 
HETATM   23  N   UNK     0      -6.426 -41.466  46.880  0.00  0.00    -0.361 N 
HETATM   24  C   UNK     0      -6.040 -42.001  45.704  0.00  0.00     0.021 A 
HETATM   25  C   UNK     0      -5.139 -43.022  45.938  0.00  0.00    -0.031 A 
HETATM   26  C   UNK     0      -4.461 -43.941  44.943  0.00  0.00     0.051 C 
HETATM   27  C   UNK     0      -4.961 -43.112  47.314  0.00  0.00    -0.027 A 
HETATM   28  C   UNK     0      -6.421 -41.545  44.306  0.00  0.00     0.115 C 
HETATM   29  H   UNK     0      -7.206 -38.930  45.412  0.00  0.00     0.165 HD
HETATM   30  H   UNK     0      -4.337 -37.710  46.752  0.00  0.00     0.165 HD
HETATM   31  H   UNK     0      -4.391 -39.408  48.262  0.00  0.00     0.165 HD
HETATM   32  H   UNK     0      -7.189 -40.655  47.009  0.00  0.00     0.165 HD
ENDROOT
BRANCH   6  33
HETATM   33  C   UNK     0      -3.994 -37.680  42.143  0.00  0.00     0.051 C 
BRANCH  33  34
HETATM   34  C   UNK     0      -3.144 -36.710  42.929  0.00  0.00     0.114 C 
BRANCH  34  35
HETATM   35  C   UNK     0      -1.964 -36.366  42.084  0.00  0.00     0.139 C 
HETATM   36  O   UNK     0      -2.114 -35.690  41.025  0.00  0.00    -0.650 OA
BRANCH  35  37
HETATM   37  O   UNK     0      -0.670 -36.755  42.409  0.00  0.00    -0.776 OA
HETATM   38  H   UNK     0       0.127 -36.473  41.861  0.00  0.00     0.167 HD
ENDBRANCH  35  37
ENDBRANCH  34  35
ENDBRANCH  33  34
ENDBRANCH   6  33
BRANCH  27  39
HETATM   39  C   UNK     0      -4.110 -44.150  47.955  0.00  0.00     0.051 C 
BRANCH  39  40
HETATM   40  C   UNK     0      -2.882 -43.724  48.626  0.00  0.00     0.114 C 
BRANCH  40  41
HETATM   41  C   UNK     0      -1.578 -44.198  48.221  0.00  0.00     0.139 C 
HETATM   42  O   UNK     0      -0.915 -45.016  48.873  0.00  0.00    -0.650 OA
BRANCH  41  43
HETATM   43  O   UNK     0      -1.010 -43.709  47.010  0.00  0.00    -0.776 OA
HETATM   44  H   UNK     0      -1.675 -43.579  46.258  0.00  0.00     0.167 HD
ENDBRANCH  41  43
ENDBRANCH  40  41
ENDBRANCH  39  40
ENDBRANCH  27  39
BRANCH  11  45
HETATM   45  C   UNK     0      -6.852 -34.304  48.893  0.00  0.00     0.051 C 
BRANCH  45  46
HETATM   46  C   UNK     0      -5.981 -33.160  49.265  0.00  0.00     0.114 C 
BRANCH  46  47
HETATM   47  C   UNK     0      -5.599 -33.343  50.695  0.00  0.00     0.139 C 
HETATM   48  O   UNK     0      -6.282 -34.101  51.398  0.00  0.00    -0.650 OA
BRANCH  47  49
HETATM   49  O   UNK     0      -4.517 -32.685  51.223  0.00  0.00    -0.776 OA
HETATM   50  H   UNK     0      -4.569 -31.705  51.526  0.00  0.00     0.167 HD
ENDBRANCH  47  49
ENDBRANCH  46  47
ENDBRANCH  45  46
ENDBRANCH  11  45
BRANCH  18  51
HETATM   51  C   UNK     0      -7.229 -40.619  51.848  0.00  0.00     0.051 C 
BRANCH  51  52
HETATM   52  C   UNK     0      -8.641 -40.657  51.285  0.00  0.00     0.114 C 
BRANCH  52  53
HETATM   53  C   UNK     0      -9.263 -41.985  51.449  0.00  0.00     0.139 C 
HETATM   54  O   UNK     0      -9.295 -42.778  50.495  0.00  0.00    -0.650 OA
BRANCH  53  55
HETATM   55  O   UNK     0      -9.809 -42.335  52.660  0.00  0.00    -0.776 OA
HETATM   56  H   UNK     0      -9.467 -43.037  53.273  0.00  0.00     0.167 HD
ENDBRANCH  53  55
ENDBRANCH  52  53
ENDBRANCH  51  52
ENDBRANCH  18  51
TORSDOF 16
ENDMDL
MODEL 3
REMARK VINA RESULT:      -7.3     29.075     32.324
REMARK  16 active torsions:
REMARK  status: ('A' for Active; 'I' for Inactive)
REMARK    1  A    between atoms: C_6  and  C_7 
REMARK    2  A    between atoms: C_7  and  C_8 
REMARK    3  A    between atoms: C_8  and  C_9 
REMARK    4  A    between atoms: C_9  and  O_11 
REMARK    5  A    between atoms: C_16  and  C_17 
REMARK    6  A    between atoms: C_17  and  C_18 
REMARK    7  A    between atoms: C_18  and  C_19 
REMARK    8  A    between atoms: C_19  and  O_21 
REMARK    9  A    between atoms: C_28  and  C_29 
REMARK   10  A    between atoms: C_29  and  C_30 
REMARK   11  A    between atoms: C_30  and  C_31 
REMARK   12  A    between atoms: C_31  and  O_33 
REMARK   13  A    between atoms: C_42  and  C_43 
REMARK   14  A    between atoms: C_43  and  C_44 
REMARK   15  A    between atoms: C_44  and  C_45 
REMARK   16  A    between atoms: C_45  and  O_47 
ROOT
HETATM    1  C   UNK     0      13.921  -9.747  57.991  0.00  0.00     0.051 C 
HETATM    2  C   UNK     0      13.104  -8.802  57.134  0.00  0.00    -0.031 A 
HETATM    3  C   UNK     0      13.285  -8.435  55.810  0.00  0.00     0.021 A 
HETATM    4  N   UNK     0      12.331  -7.538  55.466  0.00  0.00    -0.361 N 
HETATM    5  C   UNK     0      11.540  -7.331  56.539  0.00  0.00     0.022 A 
HETATM    6  C   UNK     0      11.997  -8.104  57.602  0.00  0.00    -0.027 A 
HETATM    7  C   UNK     0      10.295  -6.510  56.660  0.00  0.00     0.115 C 
HETATM    8  C   UNK     0       9.303  -6.603  55.514  0.00  0.00     0.021 A 
HETATM    9  N   UNK     0       8.992  -7.670  54.762  0.00  0.00    -0.361 N 
HETATM   10  C   UNK     0       8.131  -7.270  53.802  0.00  0.00     0.022 A 
HETATM   11  C   UNK     0       7.873  -5.910  53.946  0.00  0.00    -0.027 A 
HETATM   12  C   UNK     0       8.608  -5.484  55.023  0.00  0.00    -0.031 A 
HETATM   13  C   UNK     0       8.636  -4.069  55.557  0.00  0.00     0.051 C 
HETATM   14  C   UNK     0       7.561  -8.138  52.684  0.00  0.00     0.115 C 
HETATM   15  C   UNK     0       8.616  -8.718  51.756  0.00  0.00     0.021 A 
HETATM   16  N   UNK     0       9.652  -9.513  52.086  0.00  0.00    -0.361 N 
HETATM   17  C   UNK     0      10.388  -9.748  50.997  0.00  0.00     0.022 A 
HETATM   18  C   UNK     0       9.798  -9.082  49.904  0.00  0.00    -0.027 A 
HETATM   19  C   UNK     0       8.689  -8.442  50.393  0.00  0.00    -0.031 A 
HETATM   20  C   UNK     0       7.736  -7.630  49.534  0.00  0.00     0.051 C 
HETATM   21  C   UNK     0      11.683 -10.513  50.846  0.00  0.00     0.115 C 
HETATM   22  C   UNK     0      12.660 -10.465  51.997  0.00  0.00     0.022 A 
HETATM   23  N   UNK     0      12.986  -9.418  52.766  0.00  0.00    -0.361 N 
HETATM   24  C   UNK     0      13.783  -9.856  53.761  0.00  0.00     0.021 A 
HETATM   25  C   UNK     0      13.984 -11.216  53.624  0.00  0.00    -0.031 A 
HETATM   26  C   UNK     0      14.832 -12.144  54.468  0.00  0.00     0.051 C 
HETATM   27  C   UNK     0      13.275 -11.629  52.501  0.00  0.00    -0.027 A 
HETATM   28  C   UNK     0      14.332  -9.058  54.931  0.00  0.00     0.115 C 
HETATM   29  H   UNK     0      12.247  -7.027  54.479  0.00  0.00     0.165 HD
HETATM   30  H   UNK     0       9.340  -8.718  54.936  0.00  0.00     0.165 HD
HETATM   31  H   UNK     0       9.842  -9.957  53.097  0.00  0.00     0.165 HD
HETATM   32  H   UNK     0      12.691  -8.352  52.588  0.00  0.00     0.165 HD
ENDROOT
BRANCH   6  33
HETATM   33  C   UNK     0      11.470  -8.227  59.009  0.00  0.00     0.051 C 
BRANCH  33  34
HETATM   34  C   UNK     0      12.331  -7.444  59.972  0.00  0.00     0.114 C 
BRANCH  34  35
HETATM   35  C   UNK     0      11.949  -6.008  59.847  0.00  0.00     0.139 C 
HETATM   36  O   UNK     0      12.801  -5.154  59.466  0.00  0.00    -0.650 OA
BRANCH  35  37
HETATM   37  O   UNK     0      10.671  -5.545  60.132  0.00  0.00    -0.776 OA
HETATM   38  H   UNK     0      10.187  -5.799  60.979  0.00  0.00     0.167 HD
ENDBRANCH  35  37
ENDBRANCH  34  35
ENDBRANCH  33  34
ENDBRANCH   6  33
BRANCH  27  39
HETATM   39  C   UNK     0      13.308 -13.027  51.991  0.00  0.00     0.051 C 
BRANCH  39  40
HETATM   40  C   UNK     0      12.109 -13.850  52.145  0.00  0.00     0.114 C 
BRANCH  40  41
HETATM   41  C   UNK     0      11.343 -14.316  51.011  0.00  0.00     0.139 C 
HETATM   42  O   UNK     0      10.266 -14.919  51.115  0.00  0.00    -0.650 OA
BRANCH  41  43
HETATM   43  O   UNK     0      11.838 -14.077  49.698  0.00  0.00    -0.776 OA
HETATM   44  H   UNK     0      12.848 -14.081  49.624  0.00  0.00     0.167 HD
ENDBRANCH  41  43
ENDBRANCH  40  41
ENDBRANCH  39  40
ENDBRANCH  27  39
BRANCH  11  45
HETATM   45  C   UNK     0       6.974  -5.030  53.120  0.00  0.00     0.051 C 
BRANCH  45  46
HETATM   46  C   UNK     0       5.526  -5.308  53.294  0.00  0.00     0.114 C 
BRANCH  46  47
HETATM   47  C   UNK     0       4.880  -5.135  51.961  0.00  0.00     0.139 C 
HETATM   48  O   UNK     0       5.176  -5.924  51.053  0.00  0.00    -0.650 OA
BRANCH  47  49
HETATM   49  O   UNK     0       3.978  -4.125  51.743  0.00  0.00    -0.776 OA
HETATM   50  H   UNK     0       3.109  -4.043  52.284  0.00  0.00     0.167 HD
ENDBRANCH  47  49
ENDBRANCH  46  47
ENDBRANCH  45  46
ENDBRANCH  11  45
BRANCH  18  51
HETATM   51  C   UNK     0      10.255  -9.074  48.468  0.00  0.00     0.051 C 
BRANCH  51  52
HETATM   52  C   UNK     0       9.558 -10.246  47.793  0.00  0.00     0.114 C 
BRANCH  52  53
HETATM   53  C   UNK     0      10.522 -11.174  47.170  0.00  0.00     0.139 C 
HETATM   54  O   UNK     0      11.064 -10.877  46.094  0.00  0.00    -0.650 OA
BRANCH  53  55
HETATM   55  O   UNK     0      10.812 -12.367  47.786  0.00  0.00    -0.776 OA
HETATM   56  H   UNK     0      11.322 -12.479  48.631  0.00  0.00     0.167 HD
ENDBRANCH  53  55
ENDBRANCH  52  53
ENDBRANCH  51  52
ENDBRANCH  18  51
TORSDOF 16
ENDMDL
MODEL 4
REMARK VINA RESULT:      -7.3     13.572     20.005
REMARK  16 active torsions:
REMARK  status: ('A' for Active; 'I' for Inactive)
REMARK    1  A    between atoms: C_6  and  C_7 
REMARK    2  A    between atoms: C_7  and  C_8 
REMARK    3  A    between atoms: C_8  and  C_9 
REMARK    4  A    between atoms: C_9  and  O_11 
REMARK    5  A    between atoms: C_16  and  C_17 
REMARK    6  A    between atoms: C_17  and  C_18 
REMARK    7  A    between atoms: C_18  and  C_19 
REMARK    8  A    between atoms: C_19  and  O_21 
REMARK    9  A    between atoms: C_28  and  C_29 
REMARK   10  A    between atoms: C_29  and  C_30 
REMARK   11  A    between atoms: C_30  and  C_31 
REMARK   12  A    between atoms: C_31  and  O_33 
REMARK   13  A    between atoms: C_42  and  C_43 
REMARK   14  A    between atoms: C_43  and  C_44 
REMARK   15  A    between atoms: C_44  and  C_45 
REMARK   16  A    between atoms: C_45  and  O_47 
ROOT
HETATM    1  C   UNK     0     -11.788 -30.732  43.874  0.00  0.00     0.051 C 
HETATM    2  C   UNK     0     -12.003 -30.795  45.372  0.00  0.00    -0.031 A 
HETATM    3  C   UNK     0     -12.027 -31.897  46.212  0.00  0.00     0.021 A 
HETATM    4  N   UNK     0     -12.284 -31.484  47.475  0.00  0.00    -0.361 N 
HETATM    5  C   UNK     0     -12.417 -30.142  47.461  0.00  0.00     0.022 A 
HETATM    6  C   UNK     0     -12.250 -29.678  46.160  0.00  0.00    -0.027 A 
HETATM    7  C   UNK     0     -12.613 -29.192  48.601  0.00  0.00     0.115 C 
HETATM    8  C   UNK     0     -11.782 -29.442  49.847  0.00  0.00     0.021 A 
HETATM    9  N   UNK     0     -10.523 -29.899  49.935  0.00  0.00    -0.361 N 
HETATM   10  C   UNK     0     -10.224 -30.054  51.242  0.00  0.00     0.022 A 
HETATM   11  C   UNK     0     -11.316 -29.676  52.018  0.00  0.00    -0.027 A 
HETATM   12  C   UNK     0     -12.301 -29.290  51.145  0.00  0.00    -0.031 A 
HETATM   13  C   UNK     0     -13.674 -28.793  51.540  0.00  0.00     0.051 C 
HETATM   14  C   UNK     0      -8.921 -30.611  51.809  0.00  0.00     0.115 C 
HETATM   15  C   UNK     0      -8.624 -32.039  51.380  0.00  0.00     0.021 A 
HETATM   16  N   UNK     0      -8.486 -32.508  50.126  0.00  0.00    -0.361 N 
HETATM   17  C   UNK     0      -8.301 -33.829  50.170  0.00  0.00     0.022 A 
HETATM   18  C   UNK     0      -8.309 -34.239  51.519  0.00  0.00    -0.027 A 
HETATM   19  C   UNK     0      -8.511 -33.108  52.266  0.00  0.00    -0.031 A 
HETATM   20  C   UNK     0      -8.553 -33.096  53.783  0.00  0.00     0.051 C 
HETATM   21  C   UNK     0      -8.166 -34.830  49.045  0.00  0.00     0.115 C 
HETATM   22  C   UNK     0      -8.953 -34.570  47.782  0.00  0.00     0.022 A 
HETATM   23  N   UNK     0     -10.205 -34.111  47.664  0.00  0.00    -0.361 N 
HETATM   24  C   UNK     0     -10.455 -33.891  46.358  0.00  0.00     0.021 A 
HETATM   25  C   UNK     0      -9.339 -34.226  45.615  0.00  0.00    -0.031 A 
HETATM   26  C   UNK     0      -9.148 -34.191  44.113  0.00  0.00     0.051 C 
HETATM   27  C   UNK     0      -8.365 -34.664  46.505  0.00  0.00    -0.027 A 
HETATM   28  C   UNK     0     -11.703 -33.287  45.739  0.00  0.00     0.115 C 
HETATM   29  H   UNK     0     -12.410 -32.147  48.362  0.00  0.00     0.165 HD
HETATM   30  H   UNK     0      -9.826 -30.067  49.078  0.00  0.00     0.165 HD
HETATM   31  H   UNK     0      -8.470 -31.888  49.192  0.00  0.00     0.165 HD
HETATM   32  H   UNK     0     -10.941 -33.978  48.500  0.00  0.00     0.165 HD
ENDROOT
BRANCH   6  33
HETATM   33  C   UNK     0     -12.308 -28.273  45.615  0.00  0.00     0.051 C 
BRANCH  33  34
HETATM   34  C   UNK     0     -10.918 -27.714  45.427  0.00  0.00     0.114 C 
BRANCH  34  35
HETATM   35  C   UNK     0     -10.827 -26.463  46.233  0.00  0.00     0.139 C 
HETATM   36  O   UNK     0     -11.623 -26.267  47.197  0.00  0.00    -0.650 OA
BRANCH  35  37
HETATM   37  O   UNK     0      -9.886 -25.473  45.977  0.00  0.00    -0.776 OA
HETATM   38  H   UNK     0     -10.039 -24.511  46.232  0.00  0.00     0.167 HD
ENDBRANCH  35  37
ENDBRANCH  34  35
ENDBRANCH  33  34
ENDBRANCH   6  33
BRANCH  27  39
HETATM   39  C   UNK     0      -7.040 -35.180  46.066  0.00  0.00     0.051 C 
BRANCH  39  40
HETATM   40  C   UNK     0      -5.903 -34.259  46.061  0.00  0.00     0.114 C 
BRANCH  40  41
HETATM   41  C   UNK     0      -5.540 -33.478  47.222  0.00  0.00     0.139 C 
HETATM   42  O   UNK     0      -4.907 -33.935  48.183  0.00  0.00    -0.650 OA
BRANCH  41  43
HETATM   43  O   UNK     0      -5.922 -32.107  47.279  0.00  0.00    -0.776 OA
HETATM   44  H   UNK     0      -6.239 -31.799  48.190  0.00  0.00     0.167 HD
ENDBRANCH  41  43
ENDBRANCH  40  41
ENDBRANCH  39  40
ENDBRANCH  27  39
BRANCH  11  45
HETATM   45  C   UNK     0     -11.449 -29.669  53.517  0.00  0.00     0.051 C 
BRANCH  45  46
HETATM   46  C   UNK     0     -11.659 -31.013  54.113  0.00  0.00     0.114 C 
BRANCH  46  47
HETATM   47  C   UNK     0     -12.048 -30.808  55.538  0.00  0.00     0.139 C 
HETATM   48  O   UNK     0     -12.913 -29.960  55.800  0.00  0.00    -0.650 OA
BRANCH  47  49
HETATM   49  O   UNK     0     -11.460 -31.539  56.539  0.00  0.00    -0.776 OA
HETATM   50  H   UNK     0     -10.638 -31.200  57.052  0.00  0.00     0.167 HD
ENDBRANCH  47  49
ENDBRANCH  46  47
ENDBRANCH  45  46
ENDBRANCH  11  45
BRANCH  18  51
HETATM   51  C   UNK     0      -8.115 -35.630  52.065  0.00  0.00     0.051 C 
BRANCH  51  52
HETATM   52  C   UNK     0      -9.506 -36.224  52.224  0.00  0.00     0.114 C 
BRANCH  52  53
HETATM   53  C   UNK     0      -9.855 -36.434  53.643  0.00  0.00     0.139 C 
HETATM   54  O   UNK     0     -10.759 -35.762  54.166  0.00  0.00    -0.650 OA
BRANCH  53  55
HETATM   55  O   UNK     0      -9.173 -37.371  54.379  0.00  0.00    -0.776 OA
HETATM   56  H   UNK     0      -8.191 -37.519  54.371  0.00  0.00     0.167 HD
ENDBRANCH  53  55
ENDBRANCH  52  53
ENDBRANCH  51  52
ENDBRANCH  18  51
TORSDOF 16
ENDMDL
MODEL 5
REMARK VINA RESULT:      -7.2      1.978      2.519
REMARK  16 active torsions:
REMARK  status: ('A' for Active; 'I' for Inactive)
REMARK    1  A    between atoms: C_6  and  C_7 
REMARK    2  A    between atoms: C_7  and  C_8 
REMARK    3  A    between atoms: C_8  and  C_9 
REMARK    4  A    between atoms: C_9  and  O_11 
REMARK    5  A    between atoms: C_16  and  C_17 
REMARK    6  A    between atoms: C_17  and  C_18 
REMARK    7  A    between atoms: C_18  and  C_19 
REMARK    8  A    between atoms: C_19  and  O_21 
REMARK    9  A    between atoms: C_28  and  C_29 
REMARK   10  A    between atoms: C_29  and  C_30 
REMARK   11  A    between atoms: C_30  and  C_31 
REMARK   12  A    between atoms: C_31  and  O_33 
REMARK   13  A    between atoms: C_42  and  C_43 
REMARK   14  A    between atoms: C_43  and  C_44 
REMARK   15  A    between atoms: C_44  and  C_45 
REMARK   16  A    between atoms: C_45  and  O_47 
ROOT
HETATM    1  C   UNK     0     -14.806 -22.902  65.137  0.00  0.00     0.051 C 
HETATM    2  C   UNK     0     -15.203 -23.347  63.744  0.00  0.00    -0.031 A 
HETATM    3  C   UNK     0     -16.446 -23.315  63.131  0.00  0.00     0.021 A 
HETATM    4  N   UNK     0     -16.339 -23.844  61.889  0.00  0.00    -0.361 N 
HETATM    5  C   UNK     0     -15.053 -24.205  61.695  0.00  0.00     0.022 A 
HETATM    6  C   UNK     0     -14.316 -23.911  62.837  0.00  0.00    -0.027 A 
HETATM    7  C   UNK     0     -14.393 -24.749  60.466  0.00  0.00     0.115 C 
HETATM    8  C   UNK     0     -14.773 -24.103  59.146  0.00  0.00     0.021 A 
HETATM    9  N   UNK     0     -15.058 -22.816  58.895  0.00  0.00    -0.361 N 
HETATM   10  C   UNK     0     -15.433 -22.713  57.602  0.00  0.00     0.022 A 
HETATM   11  C   UNK     0     -15.378 -23.967  57.001  0.00  0.00    -0.027 A 
HETATM   12  C   UNK     0     -14.963 -24.847  57.967  0.00  0.00    -0.031 A 
HETATM   13  C   UNK     0     -14.755 -26.332  57.766  0.00  0.00     0.051 C 
HETATM   14  C   UNK     0     -15.905 -21.444  56.899  0.00  0.00     0.115 C 
HETATM   15  C   UNK     0     -17.160 -20.836  57.505  0.00  0.00     0.021 A 
HETATM   16  N   UNK     0     -17.340 -20.413  58.770  0.00  0.00    -0.361 N 
HETATM   17  C   UNK     0     -18.603 -20.010  58.923  0.00  0.00     0.022 A 
HETATM   18  C   UNK     0     -19.277 -20.168  57.695  0.00  0.00    -0.027 A 
HETATM   19  C   UNK     0     -18.361 -20.685  56.815  0.00  0.00    -0.031 A 
HETATM   20  C   UNK     0     -18.665 -20.977  55.357  0.00  0.00     0.051 C 
HETATM   21  C   UNK     0     -19.324 -19.519  60.158  0.00  0.00     0.115 C 
HETATM   22  C   UNK     0     -18.925 -20.121  61.484  0.00  0.00     0.022 A 
HETATM   23  N   UNK     0     -18.631 -21.398  61.762  0.00  0.00    -0.361 N 
HETATM   24  C   UNK     0     -18.187 -21.464  63.033  0.00  0.00     0.021 A 
HETATM   25  C   UNK     0     -18.204 -20.200  63.591  0.00  0.00    -0.031 A 
HETATM   26  C   UNK     0     -17.837 -19.774  64.997  0.00  0.00     0.051 C 
HETATM   27  C   UNK     0     -18.673 -19.324  62.619  0.00  0.00    -0.027 A 
HETATM   28  C   UNK     0     -17.650 -22.680  63.768  0.00  0.00     0.115 C 
HETATM   29  H   UNK     0     -17.180 -23.996  61.174  0.00  0.00     0.165 HD
HETATM   30  H   UNK     0     -14.948 -21.969  59.616  0.00  0.00     0.165 HD
HETATM   31  H   UNK     0     -16.547 -20.353  59.560  0.00  0.00     0.165 HD
HETATM   32  H   UNK     0     -18.777 -22.273  61.075  0.00  0.00     0.165 HD
ENDROOT
BRANCH   6  33
HETATM   33  C   UNK     0     -12.852 -24.124  63.128  0.00  0.00     0.051 C 
BRANCH  33  34
HETATM   34  C   UNK     0     -12.070 -22.852  62.897  0.00  0.00     0.114 C 
BRANCH  34  35
HETATM   35  C   UNK     0     -10.985 -23.166  61.923  0.00  0.00     0.139 C 
HETATM   36  O   UNK     0     -11.076 -24.181  61.173  0.00  0.00    -0.650 OA
BRANCH  35  37
HETATM   37  O   UNK     0      -9.847 -22.380  61.791  0.00  0.00    -0.776 OA
HETATM   38  H   UNK     0      -9.144 -22.330  62.512  0.00  0.00     0.167 HD
ENDBRANCH  35  37
ENDBRANCH  34  35
ENDBRANCH  33  34
ENDBRANCH   6  33
BRANCH  27  39
HETATM   39  C   UNK     0     -18.898 -17.875  62.875  0.00  0.00     0.051 C 
BRANCH  39  40
HETATM   40  C   UNK     0     -17.842 -16.933  62.507  0.00  0.00     0.114 C 
BRANCH  40  41
HETATM   41  C   UNK     0     -17.249 -16.916  61.189  0.00  0.00     0.139 C 
HETATM   42  O   UNK     0     -17.786 -16.388  60.205  0.00  0.00    -0.650 OA
BRANCH  41  43
HETATM   43  O   UNK     0     -15.982 -17.534  60.992  0.00  0.00    -0.776 OA
HETATM   44  H   UNK     0     -15.473 -17.727  61.847  0.00  0.00     0.167 HD
ENDBRANCH  41  43
ENDBRANCH  40  41
ENDBRANCH  39  40
ENDBRANCH  27  39
BRANCH  11  45
HETATM   45  C   UNK     0     -15.695 -24.344  55.579  0.00  0.00     0.051 C 
BRANCH  45  46
HETATM   46  C   UNK     0     -17.148 -24.438  55.286  0.00  0.00     0.114 C 
BRANCH  46  47
HETATM   47  C   UNK     0     -17.292 -25.158  53.988  0.00  0.00     0.139 C 
HETATM   48  O   UNK     0     -16.614 -26.178  53.799  0.00  0.00    -0.650 OA
BRANCH  47  49
HETATM   49  O   UNK     0     -18.154 -24.703  53.024  0.00  0.00    -0.776 OA
HETATM   50  H   UNK     0     -18.835 -23.956  53.209  0.00  0.00     0.167 HD
ENDBRANCH  47  49
ENDBRANCH  46  47
ENDBRANCH  45  46
ENDBRANCH  11  45
BRANCH  18  51
HETATM   51  C   UNK     0     -20.708 -19.826  57.373  0.00  0.00     0.051 C 
BRANCH  51  52
HETATM   52  C   UNK     0     -20.728 -18.339  57.050  0.00  0.00     0.114 C 
BRANCH  52  53
HETATM   53  C   UNK     0     -22.104 -17.811  56.978  0.00  0.00     0.139 C 
HETATM   54  O   UNK     0     -23.030 -18.539  56.586  0.00  0.00    -0.650 OA
BRANCH  53  55
HETATM   55  O   UNK     0     -22.353 -16.510  57.343  0.00  0.00    -0.776 OA
HETATM   56  H   UNK     0     -22.789 -16.213  58.184  0.00  0.00     0.167 HD
ENDBRANCH  53  55
ENDBRANCH  52  53
ENDBRANCH  51  52
ENDBRANCH  18  51
TORSDOF 16
ENDMDL
MODEL 6
REMARK VINA RESULT:      -7.1      4.618      9.683
REMARK  16 active torsions:
REMARK  status: ('A' for Active; 'I' for Inactive)
REMARK    1  A    between atoms: C_6  and  C_7 
REMARK    2  A    between atoms: C_7  and  C_8 
REMARK    3  A    between atoms: C_8  and  C_9 
REMARK    4  A    between atoms: C_9  and  O_11 
REMARK    5  A    between atoms: C_16  and  C_17 
REMARK    6  A    between atoms: C_17  and  C_18 
REMARK    7  A    between atoms: C_18  and  C_19 
REMARK    8  A    between atoms: C_19  and  O_21 
REMARK    9  A    between atoms: C_28  and  C_29 
REMARK   10  A    between atoms: C_29  and  C_30 
REMARK   11  A    between atoms: C_30  and  C_31 
REMARK   12  A    between atoms: C_31  and  O_33 
REMARK   13  A    between atoms: C_42  and  C_43 
REMARK   14  A    between atoms: C_43  and  C_44 
REMARK   15  A    between atoms: C_44  and  C_45 
REMARK   16  A    between atoms: C_45  and  O_47 
ROOT
HETATM    1  C   UNK     0     -16.970 -21.147  56.658  0.00  0.00     0.051 C 
HETATM    2  C   UNK     0     -18.249 -20.340  56.734  0.00  0.00    -0.031 A 
HETATM    3  C   UNK     0     -19.464 -20.556  56.103  0.00  0.00     0.021 A 
HETATM    4  N   UNK     0     -20.319 -19.561  56.439  0.00  0.00    -0.361 N 
HETATM    5  C   UNK     0     -19.678 -18.720  57.277  0.00  0.00     0.022 A 
HETATM    6  C   UNK     0     -18.380 -19.176  57.481  0.00  0.00    -0.027 A 
HETATM    7  C   UNK     0     -20.200 -17.522  58.007  0.00  0.00     0.115 C 
HETATM    8  C   UNK     0     -21.576 -17.652  58.635  0.00  0.00     0.021 A 
HETATM    9  N   UNK     0     -22.135 -18.729  59.209  0.00  0.00    -0.361 N 
HETATM   10  C   UNK     0     -23.404 -18.414  59.545  0.00  0.00     0.022 A 
HETATM   11  C   UNK     0     -23.666 -17.095  59.187  0.00  0.00    -0.027 A 
HETATM   12  C   UNK     0     -22.519 -16.609  58.613  0.00  0.00    -0.031 A 
HETATM   13  C   UNK     0     -22.337 -15.208  58.074  0.00  0.00     0.051 C 
HETATM   14  C   UNK     0     -24.431 -19.355  60.167  0.00  0.00     0.115 C 
HETATM   15  C   UNK     0     -24.762 -20.562  59.303  0.00  0.00     0.021 A 
HETATM   16  N   UNK     0     -23.914 -21.503  58.848  0.00  0.00    -0.361 N 
HETATM   17  C   UNK     0     -24.583 -22.354  58.066  0.00  0.00     0.022 A 
HETATM   18  C   UNK     0     -25.933 -21.954  58.018  0.00  0.00    -0.027 A 
HETATM   19  C   UNK     0     -26.032 -20.831  58.798  0.00  0.00    -0.031 A 
HETATM   20  C   UNK     0     -27.334 -20.092  59.050  0.00  0.00     0.051 C 
HETATM   21  C   UNK     0     -24.083 -23.533  57.262  0.00  0.00     0.115 C 
HETATM   22  C   UNK     0     -22.697 -23.434  56.667  0.00  0.00     0.022 A 
HETATM   23  N   UNK     0     -22.114 -22.374  56.093  0.00  0.00    -0.361 N 
HETATM   24  C   UNK     0     -20.827 -22.686  55.837  0.00  0.00     0.021 A 
HETATM   25  C   UNK     0     -20.579 -23.982  56.247  0.00  0.00    -0.031 A 
HETATM   26  C   UNK     0     -19.303 -24.790  56.134  0.00  0.00     0.051 C 
HETATM   27  C   UNK     0     -21.761 -24.482  56.781  0.00  0.00    -0.027 A 
HETATM   28  C   UNK     0     -19.745 -21.779  55.277  0.00  0.00     0.115 C 
HETATM   29  H   UNK     0     -21.356 -19.437  56.050  0.00  0.00     0.165 HD
HETATM   30  H   UNK     0     -21.620 -19.698  59.423  0.00  0.00     0.165 HD
HETATM   31  H   UNK     0     -22.831 -21.598  59.121  0.00  0.00     0.165 HD
HETATM   32  H   UNK     0     -22.617 -21.409  55.824  0.00  0.00     0.165 HD
ENDROOT
BRANCH   6  33
HETATM   33  C   UNK     0     -17.269 -18.597  58.319  0.00  0.00     0.051 C 
BRANCH  33  34
HETATM   34  C   UNK     0     -17.461 -18.943  59.776  0.00  0.00     0.114 C 
BRANCH  34  35
HETATM   35  C   UNK     0     -17.233 -17.698  60.565  0.00  0.00     0.139 C 
HETATM   36  O   UNK     0     -18.216 -17.014  60.974  0.00  0.00    -0.650 OA
BRANCH  35  37
HETATM   37  O   UNK     0     -15.962 -17.237  60.886  0.00  0.00    -0.776 OA
HETATM   38  H   UNK     0     -15.803 -16.300  61.221  0.00  0.00     0.167 HD
ENDBRANCH  35  37
ENDBRANCH  34  35
ENDBRANCH  33  34
ENDBRANCH   6  33
BRANCH  27  39
HETATM   39  C   UNK     0     -21.904 -25.882  57.265  0.00  0.00     0.051 C 
BRANCH  39  40
HETATM   40  C   UNK     0     -22.109 -26.941  56.277  0.00  0.00     0.114 C 
BRANCH  40  41
HETATM   41  C   UNK     0     -23.396 -27.567  56.075  0.00  0.00     0.139 C 
HETATM   42  O   UNK     0     -23.549 -28.630  55.459  0.00  0.00    -0.650 OA
BRANCH  41  43
HETATM   43  O   UNK     0     -24.560 -26.941  56.604  0.00  0.00    -0.776 OA
HETATM   44  H   UNK     0     -25.166 -27.559  57.130  0.00  0.00     0.167 HD
ENDBRANCH  41  43
ENDBRANCH  40  41
ENDBRANCH  39  40
ENDBRANCH  27  39
BRANCH  11  45
HETATM   45  C   UNK     0     -24.934 -16.304  59.370  0.00  0.00     0.051 C 
BRANCH  45  46
HETATM   46  C   UNK     0     -25.954 -16.542  58.316  0.00  0.00     0.114 C 
BRANCH  46  47
HETATM   47  C   UNK     0     -27.205 -15.858  58.751  0.00  0.00     0.139 C 
HETATM   48  O   UNK     0     -28.294 -16.375  58.464  0.00  0.00    -0.650 OA
BRANCH  47  49
HETATM   49  O   UNK     0     -27.155 -14.679  59.452  0.00  0.00    -0.776 OA
HETATM   50  H   UNK     0     -27.481 -14.608  60.422  0.00  0.00     0.167 HD
ENDBRANCH  47  49
ENDBRANCH  46  47
ENDBRANCH  45  46
ENDBRANCH  11  45
BRANCH  18  51
HETATM   51  C   UNK     0     -27.070 -22.617  57.285  0.00  0.00     0.051 C 
BRANCH  51  52
HETATM   52  C   UNK     0     -27.268 -23.974  57.945  0.00  0.00     0.114 C 
BRANCH  52  53
HETATM   53  C   UNK     0     -27.537 -25.033  56.954  0.00  0.00     0.139 C 
HETATM   54  O   UNK     0     -27.376 -26.226  57.259  0.00  0.00    -0.650 OA
BRANCH  53  55
HETATM   55  O   UNK     0     -27.962 -24.692  55.693  0.00  0.00    -0.776 OA
HETATM   56  H   UNK     0     -27.701 -23.877  55.189  0.00  0.00     0.167 HD
ENDBRANCH  53  55
ENDBRANCH  52  53
ENDBRANCH  51  52
ENDBRANCH  18  51
TORSDOF 16
ENDMDL
MODEL 7
REMARK VINA RESULT:      -7.1      9.571     13.878
REMARK  16 active torsions:
REMARK  status: ('A' for Active; 'I' for Inactive)
REMARK    1  A    between atoms: C_6  and  C_7 
REMARK    2  A    between atoms: C_7  and  C_8 
REMARK    3  A    between atoms: C_8  and  C_9 
REMARK    4  A    between atoms: C_9  and  O_11 
REMARK    5  A    between atoms: C_16  and  C_17 
REMARK    6  A    between atoms: C_17  and  C_18 
REMARK    7  A    between atoms: C_18  and  C_19 
REMARK    8  A    between atoms: C_19  and  O_21 
REMARK    9  A    between atoms: C_28  and  C_29 
REMARK   10  A    between atoms: C_29  and  C_30 
REMARK   11  A    between atoms: C_30  and  C_31 
REMARK   12  A    between atoms: C_31  and  O_33 
REMARK   13  A    between atoms: C_42  and  C_43 
REMARK   14  A    between atoms: C_43  and  C_44 
REMARK   15  A    between atoms: C_44  and  C_45 
REMARK   16  A    between atoms: C_45  and  O_47 
ROOT
HETATM    1  C   UNK     0     -18.044 -28.401  57.183  0.00  0.00     0.051 C 
HETATM    2  C   UNK     0     -17.312 -29.401  56.312  0.00  0.00    -0.031 A 
HETATM    3  C   UNK     0     -16.800 -29.246  55.033  0.00  0.00     0.021 A 
HETATM    4  N   UNK     0     -16.253 -30.417  54.631  0.00  0.00    -0.361 N 
HETATM    5  C   UNK     0     -16.398 -31.314  55.628  0.00  0.00     0.022 A 
HETATM    6  C   UNK     0     -17.059 -30.712  56.694  0.00  0.00    -0.027 A 
HETATM    7  C   UNK     0     -15.889 -32.718  55.728  0.00  0.00     0.115 C 
HETATM    8  C   UNK     0     -14.470 -32.964  55.247  0.00  0.00     0.021 A 
HETATM    9  N   UNK     0     -13.402 -32.157  55.343  0.00  0.00    -0.361 N 
HETATM   10  C   UNK     0     -12.372 -32.744  54.698  0.00  0.00     0.022 A 
HETATM   11  C   UNK     0     -12.785 -33.968  54.179  0.00  0.00    -0.027 A 
HETATM   12  C   UNK     0     -14.105 -34.113  54.521  0.00  0.00    -0.031 A 
HETATM   13  C   UNK     0     -14.973 -35.301  54.172  0.00  0.00     0.051 C 
HETATM   14  C   UNK     0     -10.979 -32.154  54.499  0.00  0.00     0.115 C 
HETATM   15  C   UNK     0     -10.968 -30.850  53.719  0.00  0.00     0.021 A 
HETATM   16  N   UNK     0     -11.603 -29.703  54.026  0.00  0.00    -0.361 N 
HETATM   17  C   UNK     0     -11.399 -28.814  53.051  0.00  0.00     0.022 A 
HETATM   18  C   UNK     0     -10.584 -29.407  52.066  0.00  0.00    -0.027 A 
HETATM   19  C   UNK     0     -10.320 -30.681  52.496  0.00  0.00    -0.031 A 
HETATM   20  C   UNK     0      -9.440 -31.661  51.743  0.00  0.00     0.051 C 
HETATM   21  C   UNK     0     -11.947 -27.415  52.881  0.00  0.00     0.115 C 
HETATM   22  C   UNK     0     -13.341 -27.145  53.395  0.00  0.00     0.022 A 
HETATM   23  N   UNK     0     -14.422 -27.932  53.317  0.00  0.00    -0.361 N 
HETATM   24  C   UNK     0     -15.413 -27.364  54.032  0.00  0.00     0.021 A 
HETATM   25  C   UNK     0     -14.963 -26.176  54.577  0.00  0.00    -0.031 A 
HETATM   26  C   UNK     0     -15.716 -25.168  55.419  0.00  0.00     0.051 C 
HETATM   27  C   UNK     0     -13.640 -26.015  54.183  0.00  0.00    -0.027 A 
HETATM   28  C   UNK     0     -16.796 -27.926  54.315  0.00  0.00     0.115 C 
HETATM   29  H   UNK     0     -15.804 -30.614  53.630  0.00  0.00     0.165 HD
HETATM   30  H   UNK     0     -13.358 -31.194  55.910  0.00  0.00     0.165 HD
HETATM   31  H   UNK     0     -12.167 -29.500  54.973  0.00  0.00     0.165 HD
HETATM   32  H   UNK     0     -14.508 -28.877  52.719  0.00  0.00     0.165 HD
ENDROOT
BRANCH   6  33
HETATM   33  C   UNK     0     -17.465 -31.282  58.030  0.00  0.00     0.051 C 
BRANCH  33  34
HETATM   34  C   UNK     0     -16.292 -31.307  58.980  0.00  0.00     0.114 C 
BRANCH  34  35
HETATM   35  C   UNK     0     -16.398 -32.555  59.789  0.00  0.00     0.139 C 
HETATM   36  O   UNK     0     -17.477 -33.216  59.801  0.00  0.00    -0.650 OA
BRANCH  35  37
HETATM   37  O   UNK     0     -15.345 -33.047  60.550  0.00  0.00    -0.776 OA
HETATM   38  H   UNK     0     -14.385 -32.824  60.342  0.00  0.00     0.167 HD
ENDBRANCH  35  37
ENDBRANCH  34  35
ENDBRANCH  33  34
ENDBRANCH   6  33
BRANCH  27  39
HETATM   39  C   UNK     0     -12.835 -24.809  54.520  0.00  0.00     0.051 C 
BRANCH  39  40
HETATM   40  C   UNK     0     -11.927 -24.878  55.664  0.00  0.00     0.114 C 
BRANCH  40  41
HETATM   41  C   UNK     0     -10.501 -24.683  55.528  0.00  0.00     0.139 C 
HETATM   42  O   UNK     0      -9.682 -24.989  56.406  0.00  0.00    -0.650 OA
BRANCH  41  43
HETATM   43  O   UNK     0      -9.992 -24.111  54.327  0.00  0.00    -0.776 OA
HETATM   44  H   UNK     0     -10.540 -24.317  53.500  0.00  0.00     0.167 HD
ENDBRANCH  41  43
ENDBRANCH  40  41
ENDBRANCH  39  40
ENDBRANCH  27  39
BRANCH  11  45
HETATM   45  C   UNK     0     -11.988 -34.975  53.395  0.00  0.00     0.051 C 
BRANCH  45  46
HETATM   46  C   UNK     0     -10.692 -35.343  54.021  0.00  0.00     0.114 C 
BRANCH  46  47
HETATM   47  C   UNK     0     -10.681 -36.826  54.174  0.00  0.00     0.139 C 
HETATM   48  O   UNK     0     -11.197 -37.517  53.285  0.00  0.00    -0.650 OA
BRANCH  47  49
HETATM   49  O   UNK     0     -10.114 -37.414  55.276  0.00  0.00    -0.776 OA
HETATM   50  H   UNK     0      -9.990 -38.431  55.349  0.00  0.00     0.167 HD
ENDBRANCH  47  49
ENDBRANCH  46  47
ENDBRANCH  45  46
ENDBRANCH  11  45
BRANCH  18  51
HETATM   51  C   UNK     0     -10.068 -28.785  50.794  0.00  0.00     0.051 C 
BRANCH  51  52
HETATM   52  C   UNK     0     -11.089 -29.113  49.715  0.00  0.00     0.114 C 
BRANCH  52  53
HETATM   53  C   UNK     0     -11.446 -27.925  48.916  0.00  0.00     0.139 C 
HETATM   54  O   UNK     0     -11.700 -26.849  49.482  0.00  0.00    -0.650 OA
BRANCH  53  55
HETATM   55  O   UNK     0     -11.498 -28.017  47.546  0.00  0.00    -0.776 OA
HETATM   56  H   UNK     0     -10.925 -27.521  46.905  0.00  0.00     0.167 HD
ENDBRANCH  53  55
ENDBRANCH  52  53
ENDBRANCH  51  52
ENDBRANCH  18  51
TORSDOF 16
ENDMDL
MODEL 8
REMARK VINA RESULT:      -7.1     22.130     28.119
REMARK  16 active torsions:
REMARK  status: ('A' for Active; 'I' for Inactive)
REMARK    1  A    between atoms: C_6  and  C_7 
REMARK    2  A    between atoms: C_7  and  C_8 
REMARK    3  A    between atoms: C_8  and  C_9 
REMARK    4  A    between atoms: C_9  and  O_11 
REMARK    5  A    between atoms: C_16  and  C_17 
REMARK    6  A    between atoms: C_17  and  C_18 
REMARK    7  A    between atoms: C_18  and  C_19 
REMARK    8  A    between atoms: C_19  and  O_21 
REMARK    9  A    between atoms: C_28  and  C_29 
REMARK   10  A    between atoms: C_29  and  C_30 
REMARK   11  A    between atoms: C_30  and  C_31 
REMARK   12  A    between atoms: C_31  and  O_33 
REMARK   13  A    between atoms: C_42  and  C_43 
REMARK   14  A    between atoms: C_43  and  C_44 
REMARK   15  A    between atoms: C_44  and  C_45 
REMARK   16  A    between atoms: C_45  and  O_47 
ROOT
HETATM    1  C   UNK     0      -4.712 -39.229  41.077  0.00  0.00     0.051 C 
HETATM    2  C   UNK     0      -5.306 -38.688  42.361  0.00  0.00    -0.031 A 
HETATM    3  C   UNK     0      -6.181 -39.294  43.249  0.00  0.00     0.021 A 
HETATM    4  N   UNK     0      -6.471 -38.424  44.246  0.00  0.00    -0.361 N 
HETATM    5  C   UNK     0      -5.794 -37.280  44.017  0.00  0.00     0.022 A 
HETATM    6  C   UNK     0      -5.057 -37.410  42.844  0.00  0.00    -0.027 A 
HETATM    7  C   UNK     0      -5.694 -36.048  44.860  0.00  0.00     0.115 C 
HETATM    8  C   UNK     0      -5.522 -36.257  46.354  0.00  0.00     0.021 A 
HETATM    9  N   UNK     0      -4.836 -37.219  46.991  0.00  0.00    -0.361 N 
HETATM   10  C   UNK     0      -5.035 -37.068  48.317  0.00  0.00     0.022 A 
HETATM   11  C   UNK     0      -5.864 -35.973  48.542  0.00  0.00    -0.027 A 
HETATM   12  C   UNK     0      -6.174 -35.457  47.310  0.00  0.00    -0.031 A 
HETATM   13  C   UNK     0      -7.052 -34.250  47.063  0.00  0.00     0.051 C 
HETATM   14  C   UNK     0      -4.497 -37.977  49.418  0.00  0.00     0.115 C 
HETATM   15  C   UNK     0      -4.981 -39.415  49.320  0.00  0.00     0.021 A 
HETATM   16  N   UNK     0      -4.818 -40.268  48.292  0.00  0.00    -0.361 N 
HETATM   17  C   UNK     0      -5.450 -41.412  48.566  0.00  0.00     0.022 A 
HETATM   18  C   UNK     0      -6.045 -41.302  49.838  0.00  0.00    -0.027 A 
HETATM   19  C   UNK     0      -5.743 -40.047  50.301  0.00  0.00    -0.031 A 
HETATM   20  C   UNK     0      -6.165 -39.525  51.662  0.00  0.00     0.051 C 
HETATM   21  C   UNK     0      -5.630 -42.650  47.718  0.00  0.00     0.115 C 
HETATM   22  C   UNK     0      -5.758 -42.461  46.225  0.00  0.00     0.022 A 
HETATM   23  N   UNK     0      -6.431 -41.510  45.564  0.00  0.00    -0.361 N 
HETATM   24  C   UNK     0      -6.156 -41.632  44.249  0.00  0.00     0.021 A 
HETATM   25  C   UNK     0      -5.293 -42.694  44.059  0.00  0.00    -0.031 A 
HETATM   26  C   UNK     0      -4.732 -43.246  42.764  0.00  0.00     0.051 C 
HETATM   27  C   UNK     0      -5.024 -43.241  45.308  0.00  0.00    -0.027 A 
HETATM   28  C   UNK     0      -6.610 -40.728  43.116  0.00  0.00     0.115 C 
HETATM   29  H   UNK     0      -7.183 -38.611  45.083  0.00  0.00     0.165 HD
HETATM   30  H   UNK     0      -4.170 -37.976  46.509  0.00  0.00     0.165 HD
HETATM   31  H   UNK     0      -4.204 -40.078  47.373  0.00  0.00     0.165 HD
HETATM   32  H   UNK     0      -7.141 -40.769  46.015  0.00  0.00     0.165 HD
ENDROOT
BRANCH   6  33
HETATM   33  C   UNK     0      -4.149 -36.424  42.155  0.00  0.00     0.051 C 
BRANCH  33  34
HETATM   34  C   UNK     0      -2.776 -36.430  42.785  0.00  0.00     0.114 C 
BRANCH  34  35
HETATM   35  C   UNK     0      -1.792 -36.093  41.716  0.00  0.00     0.139 C 
HETATM   36  O   UNK     0      -2.183 -35.908  40.527  0.00  0.00    -0.650 OA
BRANCH  35  37
HETATM   37  O   UNK     0      -0.431 -35.966  41.964  0.00  0.00    -0.776 OA
HETATM   38  H   UNK     0       0.260 -36.442  41.407  0.00  0.00     0.167 HD
ENDBRANCH  35  37
ENDBRANCH  34  35
ENDBRANCH  33  34
ENDBRANCH   6  33
BRANCH  27  39
HETATM   39  C   UNK     0      -4.183 -44.454  45.499  0.00  0.00     0.051 C 
BRANCH  39  40
HETATM   40  C   UNK     0      -2.922 -44.316  46.227  0.00  0.00     0.114 C 
BRANCH  40  41
HETATM   41  C   UNK     0      -2.817 -44.584  47.644  0.00  0.00     0.139 C 
HETATM   42  O   UNK     0      -2.384 -43.763  48.464  0.00  0.00    -0.650 OA
BRANCH  41  43
HETATM   43  O   UNK     0      -3.229 -45.853  48.140  0.00  0.00    -0.776 OA
HETATM   44  H   UNK     0      -3.748 -46.415  47.475  0.00  0.00     0.167 HD
ENDBRANCH  41  43
ENDBRANCH  40  41
ENDBRANCH  39  40
ENDBRANCH  27  39
BRANCH  11  45
HETATM   45  C   UNK     0      -6.354 -35.416  49.852  0.00  0.00     0.051 C 
BRANCH  45  46
HETATM   46  C   UNK     0      -5.382 -34.521  50.531  0.00  0.00     0.114 C 
BRANCH  46  47
HETATM   47  C   UNK     0      -5.833 -33.119  50.294  0.00  0.00     0.139 C 
HETATM   48  O   UNK     0      -5.259 -32.452  49.422  0.00  0.00    -0.650 OA
BRANCH  47  49
HETATM   49  O   UNK     0      -6.860 -32.578  51.026  0.00  0.00    -0.776 OA
HETATM   50  H   UNK     0      -7.767 -33.049  51.123  0.00  0.00     0.167 HD
ENDBRANCH  47  49
ENDBRANCH  46  47
ENDBRANCH  45  46
ENDBRANCH  11  45
BRANCH  18  51
HETATM   51  C   UNK     0      -6.841 -42.343  50.582  0.00  0.00     0.051 C 
BRANCH  51  52
HETATM   52  C   UNK     0      -5.850 -43.083  51.468  0.00  0.00     0.114 C 
BRANCH  52  53
HETATM   53  C   UNK     0      -5.360 -44.320  50.830  0.00  0.00     0.139 C 
HETATM   54  O   UNK     0      -6.160 -45.102  50.293  0.00  0.00    -0.650 OA
BRANCH  53  55
HETATM   55  O   UNK     0      -4.015 -44.602  50.839  0.00  0.00    -0.776 OA
HETATM   56  H   UNK     0      -3.297 -44.011  51.184  0.00  0.00     0.167 HD
ENDBRANCH  53  55
ENDBRANCH  52  53
ENDBRANCH  51  52
ENDBRANCH  18  51
TORSDOF 16
ENDMDL
MODEL 9
REMARK VINA RESULT:      -7.1     13.125     18.844
REMARK  16 active torsions:
REMARK  status: ('A' for Active; 'I' for Inactive)
REMARK    1  A    between atoms: C_6  and  C_7 
REMARK    2  A    between atoms: C_7  and  C_8 
REMARK    3  A    between atoms: C_8  and  C_9 
REMARK    4  A    between atoms: C_9  and  O_11 
REMARK    5  A    between atoms: C_16  and  C_17 
REMARK    6  A    between atoms: C_17  and  C_18 
REMARK    7  A    between atoms: C_18  and  C_19 
REMARK    8  A    between atoms: C_19  and  O_21 
REMARK    9  A    between atoms: C_28  and  C_29 
REMARK   10  A    between atoms: C_29  and  C_30 
REMARK   11  A    between atoms: C_30  and  C_31 
REMARK   12  A    between atoms: C_31  and  O_33 
REMARK   13  A    between atoms: C_42  and  C_43 
REMARK   14  A    between atoms: C_43  and  C_44 
REMARK   15  A    between atoms: C_44  and  C_45 
REMARK   16  A    between atoms: C_45  and  O_47 
ROOT
HETATM    1  C   UNK     0     -11.462 -29.450  54.568  0.00  0.00     0.051 C 
HETATM    2  C   UNK     0     -11.103 -29.229  53.112  0.00  0.00    -0.031 A 
HETATM    3  C   UNK     0     -10.065 -29.772  52.370  0.00  0.00     0.021 A 
HETATM    4  N   UNK     0     -10.111 -29.267  51.114  0.00  0.00    -0.361 N 
HETATM    5  C   UNK     0     -11.159 -28.421  51.038  0.00  0.00     0.022 A 
HETATM    6  C   UNK     0     -11.800 -28.372  52.271  0.00  0.00    -0.027 A 
HETATM    7  C   UNK     0     -11.700 -27.680  49.855  0.00  0.00     0.115 C 
HETATM    8  C   UNK     0     -11.780 -28.448  48.548  0.00  0.00     0.021 A 
HETATM    9  N   UNK     0     -12.067 -29.745  48.356  0.00  0.00    -0.361 N 
HETATM   10  C   UNK     0     -11.934 -30.014  47.040  0.00  0.00     0.022 A 
HETATM   11  C   UNK     0     -11.561 -28.856  46.364  0.00  0.00    -0.027 A 
HETATM   12  C   UNK     0     -11.463 -27.865  47.308  0.00  0.00    -0.031 A 
HETATM   13  C   UNK     0     -11.086 -26.427  47.030  0.00  0.00     0.051 C 
HETATM   14  C   UNK     0     -12.100 -31.378  46.378  0.00  0.00     0.115 C 
HETATM   15  C   UNK     0     -11.125 -32.430  46.882  0.00  0.00     0.021 A 
HETATM   16  N   UNK     0     -10.968 -32.866  48.146  0.00  0.00    -0.361 N 
HETATM   17  C   UNK     0      -9.962 -33.742  48.186  0.00  0.00     0.022 A 
HETATM   18  C   UNK     0      -9.445 -33.892  46.884  0.00  0.00    -0.027 A 
HETATM   19  C   UNK     0     -10.183 -33.066  46.076  0.00  0.00    -0.031 A 
HETATM   20  C   UNK     0      -9.978 -32.948  44.577  0.00  0.00     0.051 C 
HETATM   21  C   UNK     0      -9.344 -34.460  49.364  0.00  0.00     0.115 C 
HETATM   22  C   UNK     0      -9.297 -33.724  50.683  0.00  0.00     0.022 A 
HETATM   23  N   UNK     0      -9.019 -32.432  50.903  0.00  0.00    -0.361 N 
HETATM   24  C   UNK     0      -9.234 -32.169  52.207  0.00  0.00     0.021 A 
HETATM   25  C   UNK     0      -9.650 -33.322  52.845  0.00  0.00    -0.031 A 
HETATM   26  C   UNK     0      -9.973 -33.537  54.309  0.00  0.00     0.051 C 
HETATM   27  C   UNK     0      -9.698 -34.331  51.890  0.00  0.00    -0.027 A 
HETATM   28  C   UNK     0      -9.143 -30.827  52.912  0.00  0.00     0.115 C 
HETATM   29  H   UNK     0      -9.378 -29.481  50.302  0.00  0.00     0.165 HD
HETATM   30  H   UNK     0     -12.412 -30.462  49.141  0.00  0.00     0.165 HD
HETATM   31  H   UNK     0     -11.611 -32.586  49.020  0.00  0.00     0.165 HD
HETATM   32  H   UNK     0      -8.627 -31.703  50.146  0.00  0.00     0.165 HD
ENDROOT
BRANCH   6  33
HETATM   33  C   UNK     0     -13.007 -27.580  52.706  0.00  0.00     0.051 C 
BRANCH  33  34
HETATM   34  C   UNK     0     -12.612 -26.491  53.674  0.00  0.00     0.114 C 
BRANCH  34  35
HETATM   35  C   UNK     0     -11.699 -25.560  52.951  0.00  0.00     0.139 C 
HETATM   36  O   UNK     0     -12.134 -24.856  51.993  0.00  0.00    -0.650 OA
BRANCH  35  37
HETATM   37  O   UNK     0     -10.357 -25.418  53.283  0.00  0.00    -0.776 OA
HETATM   38  H   UNK     0      -9.661 -26.084  52.988  0.00  0.00     0.167 HD
ENDBRANCH  35  37
ENDBRANCH  34  35
ENDBRANCH  33  34
ENDBRANCH   6  33
BRANCH  27  39
HETATM   39  C   UNK     0     -10.038 -35.742  52.218  0.00  0.00     0.051 C 
BRANCH  39  40
HETATM   40  C   UNK     0      -8.958 -36.639  52.626  0.00  0.00     0.114 C 
BRANCH  40  41
HETATM   41  C   UNK     0      -7.648 -36.595  52.016  0.00  0.00     0.139 C 
HETATM   42  O   UNK     0      -7.385 -37.115  50.923  0.00  0.00    -0.650 OA
BRANCH  41  43
HETATM   43  O   UNK     0      -6.591 -35.924  52.694  0.00  0.00    -0.776 OA
HETATM   44  H   UNK     0      -5.835 -36.527  52.993  0.00  0.00     0.167 HD
ENDBRANCH  41  43
ENDBRANCH  40  41
ENDBRANCH  39  40
ENDBRANCH  27  39
BRANCH  11  45
HETATM   45  C   UNK     0     -11.305 -28.665  44.893  0.00  0.00     0.051 C 
BRANCH  45  46
HETATM   46  C   UNK     0     -12.533 -28.443  44.088  0.00  0.00     0.114 C 
BRANCH  46  47
HETATM   47  C   UNK     0     -12.195 -28.759  42.671  0.00  0.00     0.139 C 
HETATM   48  O   UNK     0     -12.160 -29.947  42.321  0.00  0.00    -0.650 OA
BRANCH  47  49
HETATM   49  O   UNK     0     -11.928 -27.758  41.772  0.00  0.00    -0.776 OA
HETATM   50  H   UNK     0     -11.087 -27.764  41.182  0.00  0.00     0.167 HD
ENDBRANCH  47  49
ENDBRANCH  46  47
ENDBRANCH  45  46
ENDBRANCH  11  45
BRANCH  18  51
HETATM   51  C   UNK     0      -8.322 -34.789  46.430  0.00  0.00     0.051 C 
BRANCH  51  52
HETATM   52  C   UNK     0      -7.036 -34.006  46.648  0.00  0.00     0.114 C 
BRANCH  52  53
HETATM   53  C   UNK     0      -5.990 -34.832  47.281  0.00  0.00     0.139 C 
HETATM   54  O   UNK     0      -5.927 -34.915  48.518  0.00  0.00    -0.650 OA
BRANCH  53  55
HETATM   55  O   UNK     0      -5.087 -35.505  46.494  0.00  0.00    -0.776 OA
HETATM   56  H   UNK     0      -4.759 -36.430  46.641  0.00  0.00     0.167 HD
ENDBRANCH  53  55
ENDBRANCH  52  53
ENDBRANCH  51  52
ENDBRANCH  18  51
TORSDOF 16
ENDMDL
MODEL 10
REMARK VINA RESULT:      -7.1     29.697     32.995
REMARK  16 active torsions:
REMARK  status: ('A' for Active; 'I' for Inactive)
REMARK    1  A    between atoms: C_6  and  C_7 
REMARK    2  A    between atoms: C_7  and  C_8 
REMARK    3  A    between atoms: C_8  and  C_9 
REMARK    4  A    between atoms: C_9  and  O_11 
REMARK    5  A    between atoms: C_16  and  C_17 
REMARK    6  A    between atoms: C_17  and  C_18 
REMARK    7  A    between atoms: C_18  and  C_19 
REMARK    8  A    between atoms: C_19  and  O_21 
REMARK    9  A    between atoms: C_28  and  C_29 
REMARK   10  A    between atoms: C_29  and  C_30 
REMARK   11  A    between atoms: C_30  and  C_31 
REMARK   12  A    between atoms: C_31  and  O_33 
REMARK   13  A    between atoms: C_42  and  C_43 
REMARK   14  A    between atoms: C_43  and  C_44 
REMARK   15  A    between atoms: C_44  and  C_45 
REMARK   16  A    between atoms: C_45  and  O_47 
ROOT
HETATM    1  C   UNK     0       6.810  -5.058  52.927  0.00  0.00     0.051 C 
HETATM    2  C   UNK     0       7.621  -6.032  53.757  0.00  0.00    -0.031 A 
HETATM    3  C   UNK     0       7.790  -7.398  53.596  0.00  0.00     0.021 A 
HETATM    4  N   UNK     0       8.576  -7.867  54.593  0.00  0.00    -0.361 N 
HETATM    5  C   UNK     0       8.920  -6.828  55.382  0.00  0.00     0.022 A 
HETATM    6  C   UNK     0       8.337  -5.665  54.889  0.00  0.00    -0.027 A 
HETATM    7  C   UNK     0       9.845  -6.790  56.558  0.00  0.00     0.115 C 
HETATM    8  C   UNK     0      11.142  -7.570  56.430  0.00  0.00     0.021 A 
HETATM    9  N   UNK     0      11.906  -7.748  55.341  0.00  0.00    -0.361 N 
HETATM   10  C   UNK     0      12.913  -8.586  55.668  0.00  0.00     0.022 A 
HETATM   11  C   UNK     0      12.800  -8.949  57.007  0.00  0.00    -0.027 A 
HETATM   12  C   UNK     0      11.687  -8.312  57.493  0.00  0.00    -0.031 A 
HETATM   13  C   UNK     0      11.174  -8.409  58.912  0.00  0.00     0.051 C 
HETATM   14  C   UNK     0      13.986  -9.117  54.722  0.00  0.00     0.115 C 
HETATM   15  C   UNK     0      13.437  -9.931  53.562  0.00  0.00     0.021 A 
HETATM   16  N   UNK     0      12.557  -9.534  52.624  0.00  0.00    -0.361 N 
HETATM   17  C   UNK     0      12.275 -10.564  51.823  0.00  0.00     0.022 A 
HETATM   18  C   UNK     0      13.014 -11.684  52.254  0.00  0.00    -0.027 A 
HETATM   19  C   UNK     0      13.739 -11.274  53.343  0.00  0.00    -0.031 A 
HETATM   20  C   UNK     0      14.705 -12.168  54.099  0.00  0.00     0.051 C 
HETATM   21  C   UNK     0      11.301 -10.661  50.671  0.00  0.00     0.115 C 
HETATM   22  C   UNK     0      10.026  -9.856  50.765  0.00  0.00     0.022 A 
HETATM   23  N   UNK     0       9.248  -9.658  51.837  0.00  0.00    -0.361 N 
HETATM   24  C   UNK     0       8.297  -8.760  51.509  0.00  0.00     0.021 A 
HETATM   25  C   UNK     0       8.461  -8.379  50.191  0.00  0.00    -0.031 A 
HETATM   26  C   UNK     0       7.622  -7.429  49.362  0.00  0.00     0.051 C 
HETATM   27  C   UNK     0       9.561  -9.067  49.694  0.00  0.00    -0.027 A 
HETATM   28  C   UNK     0       7.242  -8.150  52.416  0.00  0.00     0.115 C 
HETATM   29  H   UNK     0       8.851  -8.935  54.756  0.00  0.00     0.165 HD
HETATM   30  H   UNK     0      11.766  -7.245  54.353  0.00  0.00     0.165 HD
HETATM   31  H   UNK     0      12.162  -8.493  52.495  0.00  0.00     0.165 HD
HETATM   32  H   UNK     0       9.336 -10.183  52.823  0.00  0.00     0.165 HD
ENDROOT
BRANCH   6  33
HETATM   33  C   UNK     0       8.406  -4.250  55.407  0.00  0.00     0.051 C 
BRANCH  33  34
HETATM   34  C   UNK     0       9.802  -3.693  55.258  0.00  0.00     0.114 C 
BRANCH  34  35
HETATM   35  C   UNK     0       9.825  -2.875  54.011  0.00  0.00     0.139 C 
HETATM   36  O   UNK     0       9.849  -3.441  52.879  0.00  0.00    -0.650 OA
BRANCH  35  37
HETATM   37  O   UNK     0       9.818  -1.486  54.026  0.00  0.00    -0.776 OA
HETATM   38  H   UNK     0       9.276  -0.947  53.369  0.00  0.00     0.167 HD
ENDBRANCH  35  37
ENDBRANCH  34  35
ENDBRANCH  33  34
ENDBRANCH   6  33
BRANCH  27  39
HETATM   39  C   UNK     0      10.007  -8.969  48.277  0.00  0.00     0.051 C 
BRANCH  39  40
HETATM   40  C   UNK     0       9.621 -10.035  47.353  0.00  0.00     0.114 C 
BRANCH  40  41
HETATM   41  C   UNK     0      10.562 -11.030  46.890  0.00  0.00     0.139 C 
HETATM   42  O   UNK     0      10.881 -12.028  47.550  0.00  0.00    -0.650 OA
BRANCH  41  43
HETATM   43  O   UNK     0      11.162 -10.871  45.609  0.00  0.00    -0.776 OA
HETATM   44  H   UNK     0      11.092  -9.935  45.227  0.00  0.00     0.167 HD
ENDBRANCH  41  43
ENDBRANCH  40  41
ENDBRANCH  39  40
ENDBRANCH  27  39
BRANCH  11  45
HETATM   45  C   UNK     0      13.691  -9.853  57.816  0.00  0.00     0.051 C 
BRANCH  45  46
HETATM   46  C   UNK     0      13.422 -11.301  57.623  0.00  0.00     0.114 C 
BRANCH  46  47
HETATM   47  C   UNK     0      14.740 -11.998  57.614  0.00  0.00     0.139 C 
HETATM   48  O   UNK     0      14.770 -13.211  57.865  0.00  0.00    -0.650 OA
BRANCH  47  49
HETATM   49  O   UNK     0      15.895 -11.312  57.336  0.00  0.00    -0.776 OA
HETATM   50  H   UNK     0      16.021 -10.327  57.597  0.00  0.00     0.167 HD
ENDBRANCH  47  49
ENDBRANCH  46  47
ENDBRANCH  45  46
ENDBRANCH  11  45
BRANCH  18  51
HETATM   51  C   UNK     0      13.044 -13.063  51.648  0.00  0.00     0.051 C 
BRANCH  51  52
HETATM   52  C   UNK     0      11.730 -13.726  52.032  0.00  0.00     0.114 C 
BRANCH  52  53
HETATM   53  C   UNK     0      11.032 -14.283  50.857  0.00  0.00     0.139 C 
HETATM   54  O   UNK     0       9.986 -14.934  51.006  0.00  0.00    -0.650 OA
BRANCH  53  55
HETATM   55  O   UNK     0      11.549 -14.081  49.600  0.00  0.00    -0.776 OA
HETATM   56  H   UNK     0      12.110 -14.721  49.089  0.00  0.00     0.167 HD
ENDBRANCH  53  55
ENDBRANCH  52  53
ENDBRANCH  51  52
ENDBRANCH  18  51
TORSDOF 16
ENDMDL
MODEL 11
REMARK VINA RESULT:      -7.1     15.410     22.004
REMARK  16 active torsions:
REMARK  status: ('A' for Active; 'I' for Inactive)
REMARK    1  A    between atoms: C_6  and  C_7 
REMARK    2  A    between atoms: C_7  and  C_8 
REMARK    3  A    between atoms: C_8  and  C_9 
REMARK    4  A    between atoms: C_9  and  O_11 
REMARK    5  A    between atoms: C_16  and  C_17 
REMARK    6  A    between atoms: C_17  and  C_18 
REMARK    7  A    between atoms: C_18  and  C_19 
REMARK    8  A    between atoms: C_19  and  O_21 
REMARK    9  A    between atoms: C_28  and  C_29 
REMARK   10  A    between atoms: C_29  and  C_30 
REMARK   11  A    between atoms: C_30  and  C_31 
REMARK   12  A    between atoms: C_31  and  O_33 
REMARK   13  A    between atoms: C_42  and  C_43 
REMARK   14  A    between atoms: C_43  and  C_44 
REMARK   15  A    between atoms: C_44  and  C_45 
REMARK   16  A    between atoms: C_45  and  O_47 
ROOT
HETATM    1  C   UNK     0     -12.125 -30.576  43.976  0.00  0.00     0.051 C 
HETATM    2  C   UNK     0     -12.020 -31.042  45.414  0.00  0.00    -0.031 A 
HETATM    3  C   UNK     0     -11.800 -32.316  45.912  0.00  0.00     0.021 A 
HETATM    4  N   UNK     0     -11.814 -32.270  47.266  0.00  0.00    -0.361 N 
HETATM    5  C   UNK     0     -12.030 -30.992  47.641  0.00  0.00     0.022 A 
HETATM    6  C   UNK     0     -12.167 -30.197  46.507  0.00  0.00    -0.027 A 
HETATM    7  C   UNK     0     -12.043 -30.392  49.012  0.00  0.00     0.115 C 
HETATM    8  C   UNK     0     -10.958 -30.853  49.968  0.00  0.00     0.021 A 
HETATM    9  N   UNK     0      -9.682 -31.170  49.696  0.00  0.00    -0.361 N 
HETATM   10  C   UNK     0      -9.109 -31.615  50.834  0.00  0.00     0.022 A 
HETATM   11  C   UNK     0     -10.037 -31.575  51.870  0.00  0.00    -0.027 A 
HETATM   12  C   UNK     0     -11.204 -31.096  51.331  0.00  0.00    -0.031 A 
HETATM   13  C   UNK     0     -12.493 -30.878  52.092  0.00  0.00     0.051 C 
HETATM   14  C   UNK     0      -7.684 -32.144  50.978  0.00  0.00     0.115 C 
HETATM   15  C   UNK     0      -7.395 -33.372  50.130  0.00  0.00     0.021 A 
HETATM   16  N   UNK     0      -7.492 -33.489  48.793  0.00  0.00    -0.361 N 
HETATM   17  C   UNK     0      -7.220 -34.747  48.441  0.00  0.00     0.022 A 
HETATM   18  C   UNK     0      -6.922 -35.484  49.605  0.00  0.00    -0.027 A 
HETATM   19  C   UNK     0      -7.034 -34.611  50.656  0.00  0.00    -0.031 A 
HETATM   20  C   UNK     0      -6.761 -34.989  52.100  0.00  0.00     0.051 C 
HETATM   21  C   UNK     0      -7.260 -35.407  47.081  0.00  0.00     0.115 C 
HETATM   22  C   UNK     0      -8.307 -34.927  46.104  0.00  0.00     0.022 A 
HETATM   23  N   UNK     0      -9.583 -34.601  46.348  0.00  0.00    -0.361 N 
HETATM   24  C   UNK     0     -10.112 -34.087  45.219  0.00  0.00     0.021 A 
HETATM   25  C   UNK     0      -9.156 -34.091  44.221  0.00  0.00    -0.031 A 
HETATM   26  C   UNK     0      -9.284 -33.654  42.777  0.00  0.00     0.051 C 
HETATM   27  C   UNK     0      -7.992 -34.625  44.763  0.00  0.00    -0.027 A 
HETATM   28  C   UNK     0     -11.497 -33.493  45.028  0.00  0.00     0.115 C 
HETATM   29  H   UNK     0     -11.711 -33.146  47.946  0.00  0.00     0.165 HD
HETATM   30  H   UNK     0      -9.170 -31.033  48.712  0.00  0.00     0.165 HD
HETATM   31  H   UNK     0      -7.709 -32.654  48.076  0.00  0.00     0.165 HD
HETATM   32  H   UNK     0     -10.135 -34.771  47.308  0.00  0.00     0.165 HD
ENDROOT
BRANCH   6  33
HETATM   33  C   UNK     0     -12.424 -28.717  46.386  0.00  0.00     0.051 C 
BRANCH  33  34
HETATM   34  C   UNK     0     -11.124 -27.953  46.297  0.00  0.00     0.114 C 
BRANCH  34  35
HETATM   35  C   UNK     0     -11.211 -26.812  47.252  0.00  0.00     0.139 C 
HETATM   36  O   UNK     0     -10.672 -25.702  46.970  0.00  0.00    -0.650 OA
BRANCH  35  37
HETATM   37  O   UNK     0     -11.873 -26.903  48.470  0.00  0.00    -0.776 OA
HETATM   38  H   UNK     0     -12.232 -27.777  48.820  0.00  0.00     0.167 HD
ENDBRANCH  35  37
ENDBRANCH  34  35
ENDBRANCH  33  34
ENDBRANCH   6  33
BRANCH  27  39
HETATM   39  C   UNK     0      -6.758 -34.857  43.965  0.00  0.00     0.051 C 
BRANCH  39  40
HETATM   40  C   UNK     0      -6.387 -36.235  43.645  0.00  0.00     0.114 C 
BRANCH  40  41
HETATM   41  C   UNK     0      -5.225 -36.873  44.222  0.00  0.00     0.139 C 
HETATM   42  O   UNK     0      -5.194 -38.067  44.551  0.00  0.00    -0.650 OA
BRANCH  41  43
HETATM   43  O   UNK     0      -4.045 -36.104  44.429  0.00  0.00    -0.776 OA
HETATM   44  H   UNK     0      -4.054 -35.195  43.983  0.00  0.00     0.167 HD
ENDBRANCH  41  43
ENDBRANCH  40  41
ENDBRANCH  39  40
ENDBRANCH  27  39
BRANCH  11  45
HETATM   45  C   UNK     0      -9.856 -31.964  53.312  0.00  0.00     0.051 C 
BRANCH  45  46
HETATM   46  C   UNK     0     -10.091 -33.405  53.586  0.00  0.00     0.114 C 
BRANCH  46  47
HETATM   47  C   UNK     0     -10.652 -33.507  54.963  0.00  0.00     0.139 C 
HETATM   48  O   UNK     0     -11.717 -34.121  55.125  0.00  0.00    -0.650 OA
BRANCH  47  49
HETATM   49  O   UNK     0     -10.007 -32.934  56.029  0.00  0.00    -0.776 OA
HETATM   50  H   UNK     0     -10.393 -32.124  56.529  0.00  0.00     0.167 HD
ENDBRANCH  47  49
ENDBRANCH  46  47
ENDBRANCH  45  46
ENDBRANCH  11  45
BRANCH  18  51
HETATM   51  C   UNK     0      -6.532 -36.936  49.707  0.00  0.00     0.051 C 
BRANCH  51  52
HETATM   52  C   UNK     0      -5.021 -36.984  49.540  0.00  0.00     0.114 C 
BRANCH  52  53
HETATM   53  C   UNK     0      -4.486 -38.342  49.755  0.00  0.00     0.139 C 
HETATM   54  O   UNK     0      -3.914 -38.939  48.830  0.00  0.00    -0.650 OA
BRANCH  53  55
HETATM   55  O   UNK     0      -4.630 -38.941  50.983  0.00  0.00    -0.776 OA
HETATM   56  H   UNK     0      -3.895 -39.168  51.612  0.00  0.00     0.167 HD
ENDBRANCH  53  55
ENDBRANCH  52  53
ENDBRANCH  51  52
ENDBRANCH  18  51
TORSDOF 16
ENDMDL
MODEL 12
REMARK VINA RESULT:      -7.0     17.455     23.006
REMARK  16 active torsions:
REMARK  status: ('A' for Active; 'I' for Inactive)
REMARK    1  A    between atoms: C_6  and  C_7 
REMARK    2  A    between atoms: C_7  and  C_8 
REMARK    3  A    between atoms: C_8  and  C_9 
REMARK    4  A    between atoms: C_9  and  O_11 
REMARK    5  A    between atoms: C_16  and  C_17 
REMARK    6  A    between atoms: C_17  and  C_18 
REMARK    7  A    between atoms: C_18  and  C_19 
REMARK    8  A    between atoms: C_19  and  O_21 
REMARK    9  A    between atoms: C_28  and  C_29 
REMARK   10  A    between atoms: C_29  and  C_30 
REMARK   11  A    between atoms: C_30  and  C_31 
REMARK   12  A    between atoms: C_31  and  O_33 
REMARK   13  A    between atoms: C_42  and  C_43 
REMARK   14  A    between atoms: C_43  and  C_44 
REMARK   15  A    between atoms: C_44  and  C_45 
REMARK   16  A    between atoms: C_45  and  O_47 
ROOT
HETATM    1  C   UNK     0     -17.155 -32.501  44.054  0.00  0.00     0.051 C 
HETATM    2  C   UNK     0     -16.805 -31.902  42.707  0.00  0.00    -0.031 A 
HETATM    3  C   UNK     0     -16.346 -30.630  42.403  0.00  0.00     0.021 A 
HETATM    4  N   UNK     0     -16.195 -30.524  41.062  0.00  0.00    -0.361 N 
HETATM    5  C   UNK     0     -16.540 -31.703  40.505  0.00  0.00     0.022 A 
HETATM    6  C   UNK     0     -16.929 -32.587  41.506  0.00  0.00    -0.027 A 
HETATM    7  C   UNK     0     -16.464 -32.139  39.075  0.00  0.00     0.115 C 
HETATM    8  C   UNK     0     -15.213 -31.749  38.309  0.00  0.00     0.021 A 
HETATM    9  N   UNK     0     -13.950 -31.667  38.756  0.00  0.00    -0.361 N 
HETATM   10  C   UNK     0     -13.180 -31.193  37.754  0.00  0.00     0.022 A 
HETATM   11  C   UNK     0     -13.967 -30.973  36.627  0.00  0.00    -0.027 A 
HETATM   12  C   UNK     0     -15.248 -31.322  36.969  0.00  0.00    -0.031 A 
HETATM   13  C   UNK     0     -16.448 -31.253  36.052  0.00  0.00     0.051 C 
HETATM   14  C   UNK     0     -11.689 -30.879  37.834  0.00  0.00     0.115 C 
HETATM   15  C   UNK     0     -11.338 -29.812  38.858  0.00  0.00     0.021 A 
HETATM   16  N   UNK     0     -11.586 -29.830  40.181  0.00  0.00    -0.361 N 
HETATM   17  C   UNK     0     -11.186 -28.675  40.718  0.00  0.00     0.022 A 
HETATM   18  C   UNK     0     -10.643 -27.869  39.698  0.00  0.00    -0.027 A 
HETATM   19  C   UNK     0     -10.743 -28.593  38.538  0.00  0.00    -0.031 A 
HETATM   20  C   UNK     0     -10.238 -28.105  37.192  0.00  0.00     0.051 C 
HETATM   21  C   UNK     0     -11.304 -28.171  42.139  0.00  0.00     0.115 C 
HETATM   22  C   UNK     0     -12.523 -28.588  42.927  0.00  0.00     0.022 A 
HETATM   23  N   UNK     0     -13.791 -28.683  42.507  0.00  0.00    -0.361 N 
HETATM   24  C   UNK     0     -14.526 -29.230  43.496  0.00  0.00     0.021 A 
HETATM   25  C   UNK     0     -13.713 -29.484  44.584  0.00  0.00    -0.031 A 
HETATM   26  C   UNK     0     -14.083 -30.053  45.938  0.00  0.00     0.051 C 
HETATM   27  C   UNK     0     -12.426 -29.081  44.244  0.00  0.00    -0.027 A 
HETATM   28  C   UNK     0     -15.993 -29.619  43.458  0.00  0.00     0.115 C 
HETATM   29  H   UNK     0     -15.884 -29.604  40.514  0.00  0.00     0.165 HD
HETATM   30  H   UNK     0     -13.590 -31.989  39.764  0.00  0.00     0.165 HD
HETATM   31  H   UNK     0     -12.008 -30.694  40.757  0.00  0.00     0.165 HD
HETATM   32  H   UNK     0     -14.188 -28.325  41.522  0.00  0.00     0.165 HD
ENDROOT
BRANCH   6  33
HETATM   33  C   UNK     0     -17.407 -34.014  41.408  0.00  0.00     0.051 C 
BRANCH  33  34
HETATM   34  C   UNK     0     -18.906 -34.089  41.569  0.00  0.00     0.114 C 
BRANCH  34  35
HETATM   35  C   UNK     0     -19.509 -33.934  40.214  0.00  0.00     0.139 C 
HETATM   36  O   UNK     0     -19.058 -34.600  39.237  0.00  0.00    -0.650 OA
BRANCH  35  37
HETATM   37  O   UNK     0     -20.572 -33.076  39.960  0.00  0.00    -0.776 OA
HETATM   38  H   UNK     0     -20.588 -32.129  40.302  0.00  0.00     0.167 HD
ENDBRANCH  35  37
ENDBRANCH  34  35
ENDBRANCH  33  34
ENDBRANCH   6  33
BRANCH  27  39
HETATM   39  C   UNK     0     -11.283 -29.133  45.195  0.00  0.00     0.051 C 
BRANCH  39  40
HETATM   40  C   UNK     0     -10.750 -27.872  45.710  0.00  0.00     0.114 C 
BRANCH  40  41
HETATM   41  C   UNK     0     -11.407 -27.130  46.763  0.00  0.00     0.139 C 
HETATM   42  O   UNK     0     -11.495 -25.895  46.776  0.00  0.00    -0.650 OA
BRANCH  41  43
HETATM   43  O   UNK     0     -11.989 -27.842  47.850  0.00  0.00    -0.776 OA
HETATM   44  H   UNK     0     -12.712 -27.333  48.345  0.00  0.00     0.167 HD
ENDBRANCH  41  43
ENDBRANCH  40  41
ENDBRANCH  39  40
ENDBRANCH  27  39
BRANCH  11  45
HETATM   45  C   UNK     0     -13.551 -30.461  35.274  0.00  0.00     0.051 C 
BRANCH  45  46
HETATM   46  C   UNK     0     -13.626 -28.984  35.137  0.00  0.00     0.114 C 
BRANCH  46  47
HETATM   47  C   UNK     0     -14.537 -28.692  33.993  0.00  0.00     0.139 C 
HETATM   48  O   UNK     0     -14.976 -29.641  33.329  0.00  0.00    -0.650 OA
BRANCH  47  49
HETATM   49  O   UNK     0     -14.880 -27.401  33.680  0.00  0.00    -0.776 OA
HETATM   50  H   UNK     0     -15.812 -27.020  33.884  0.00  0.00     0.167 HD
ENDBRANCH  47  49
ENDBRANCH  46  47
ENDBRANCH  45  46
ENDBRANCH  11  45
BRANCH  18  51
HETATM   51  C   UNK     0     -10.042 -26.494  39.825  0.00  0.00     0.051 C 
BRANCH  51  52
HETATM   52  C   UNK     0     -11.211 -25.527  39.936  0.00  0.00     0.114 C 
BRANCH  52  53
HETATM   53  C   UNK     0     -11.517 -24.883  38.644  0.00  0.00     0.139 C 
HETATM   54  O   UNK     0     -10.626 -24.748  37.790  0.00  0.00    -0.650 OA
BRANCH  53  55
HETATM   55  O   UNK     0     -12.790 -24.432  38.394  0.00  0.00    -0.776 OA
HETATM   56  H   UNK     0     -13.142 -23.529  38.609  0.00  0.00     0.167 HD
ENDBRANCH  53  55
ENDBRANCH  52  53
ENDBRANCH  51  52
ENDBRANCH  18  51
TORSDOF 16
ENDMDL
MODEL 13
REMARK VINA RESULT:      -6.9     29.950     33.307
REMARK  16 active torsions:
REMARK  status: ('A' for Active; 'I' for Inactive)
REMARK    1  A    between atoms: C_6  and  C_7 
REMARK    2  A    between atoms: C_7  and  C_8 
REMARK    3  A    between atoms: C_8  and  C_9 
REMARK    4  A    between atoms: C_9  and  O_11 
REMARK    5  A    between atoms: C_16  and  C_17 
REMARK    6  A    between atoms: C_17  and  C_18 
REMARK    7  A    between atoms: C_18  and  C_19 
REMARK    8  A    between atoms: C_19  and  O_21 
REMARK    9  A    between atoms: C_28  and  C_29 
REMARK   10  A    between atoms: C_29  and  C_30 
REMARK   11  A    between atoms: C_30  and  C_31 
REMARK   12  A    between atoms: C_31  and  O_33 
REMARK   13  A    between atoms: C_42  and  C_43 
REMARK   14  A    between atoms: C_43  and  C_44 
REMARK   15  A    between atoms: C_44  and  C_45 
REMARK   16  A    between atoms: C_45  and  O_47 
ROOT
HETATM    1  C   UNK     0      10.283  -2.206  52.424  0.00  0.00     0.051 C 
HETATM    2  C   UNK     0      10.789  -3.187  51.385  0.00  0.00    -0.031 A 
HETATM    3  C   UNK     0      11.122  -4.525  51.527  0.00  0.00     0.021 A 
HETATM    4  N   UNK     0      11.558  -4.999  50.336  0.00  0.00    -0.361 N 
HETATM    5  C   UNK     0      11.502  -3.995  49.436  0.00  0.00     0.022 A 
HETATM    6  C   UNK     0      11.028  -2.846  50.060  0.00  0.00    -0.027 A 
HETATM    7  C   UNK     0      11.783  -4.017  47.966  0.00  0.00     0.115 C 
HETATM    8  C   UNK     0      11.248  -5.207  47.188  0.00  0.00     0.021 A 
HETATM    9  N   UNK     0      10.104  -5.882  47.375  0.00  0.00    -0.361 N 
HETATM   10  C   UNK     0      10.084  -6.921  46.513  0.00  0.00     0.022 A 
HETATM   11  C   UNK     0      11.244  -6.909  45.743  0.00  0.00    -0.027 A 
HETATM   12  C   UNK     0      11.981  -5.832  46.163  0.00  0.00    -0.031 A 
HETATM   13  C   UNK     0      13.324  -5.420  45.603  0.00  0.00     0.051 C 
HETATM   14  C   UNK     0       9.002  -7.993  46.417  0.00  0.00     0.115 C 
HETATM   15  C   UNK     0       8.824  -8.804  47.690  0.00  0.00     0.021 A 
HETATM   16  N   UNK     0       8.513  -8.349  48.918  0.00  0.00    -0.361 N 
HETATM   17  C   UNK     0       8.521  -9.369  49.779  0.00  0.00     0.022 A 
HETATM   18  C   UNK     0       8.843 -10.547  49.077  0.00  0.00    -0.027 A 
HETATM   19  C   UNK     0       9.030 -10.180  47.770  0.00  0.00    -0.031 A 
HETATM   20  C   UNK     0       9.360 -11.159  46.657  0.00  0.00     0.051 C 
HETATM   21  C   UNK     0       8.309  -9.378  51.276  0.00  0.00     0.115 C 
HETATM   22  C   UNK     0       8.797  -8.181  52.058  0.00  0.00     0.022 A 
HETATM   23  N   UNK     0       9.930  -7.486  51.891  0.00  0.00    -0.361 N 
HETATM   24  C   UNK     0       9.892  -6.413  52.705  0.00  0.00     0.021 A 
HETATM   25  C   UNK     0       8.711  -6.421  53.421  0.00  0.00    -0.031 A 
HETATM   26  C   UNK     0       8.232  -5.453  54.483  0.00  0.00     0.051 C 
HETATM   27  C   UNK     0       7.993  -7.544  53.024  0.00  0.00    -0.027 A 
HETATM   28  C   UNK     0      10.905  -5.285  52.804  0.00  0.00     0.115 C 
HETATM   29  H   UNK     0      11.940  -6.029  50.148  0.00  0.00     0.165 HD
HETATM   30  H   UNK     0       9.284  -5.600  48.081  0.00  0.00     0.165 HD
HETATM   31  H   UNK     0       8.235  -7.293  49.175  0.00  0.00     0.165 HD
HETATM   32  H   UNK     0      10.787  -7.772  51.227  0.00  0.00     0.165 HD
ENDROOT
BRANCH   6  33
HETATM   33  C   UNK     0      10.790  -1.466  49.500  0.00  0.00     0.051 C 
BRANCH  33  34
HETATM   34  C   UNK     0       9.410  -1.364  48.896  0.00  0.00     0.114 C 
BRANCH  34  35
HETATM   35  C   UNK     0       8.751  -0.165  49.488  0.00  0.00     0.139 C 
HETATM   36  O   UNK     0       7.838   0.439  48.853  0.00  0.00    -0.650 OA
BRANCH  35  37
HETATM   37  O   UNK     0       9.093   0.338  50.738  0.00  0.00    -0.776 OA
HETATM   38  H   UNK     0       8.399   0.560  51.433  0.00  0.00     0.167 HD
ENDBRANCH  35  37
ENDBRANCH  34  35
ENDBRANCH  33  34
ENDBRANCH   6  33
BRANCH  27  39
HETATM   39  C   UNK     0       6.691  -7.930  53.633  0.00  0.00     0.051 C 
BRANCH  39  40
HETATM   40  C   UNK     0       5.463  -7.613  52.904  0.00  0.00     0.114 C 
BRANCH  40  41
HETATM   41  C   UNK     0       5.185  -6.285  52.403  0.00  0.00     0.139 C 
HETATM   42  O   UNK     0       5.326  -5.958  51.217  0.00  0.00    -0.650 OA
BRANCH  41  43
HETATM   43  O   UNK     0       4.724  -5.288  53.309  0.00  0.00    -0.776 OA
HETATM   44  H   UNK     0       4.131  -4.583  52.889  0.00  0.00     0.167 HD
ENDBRANCH  41  43
ENDBRANCH  40  41
ENDBRANCH  39  40
ENDBRANCH  27  39
BRANCH  11  45
HETATM   45  C   UNK     0      11.659  -7.858  44.652  0.00  0.00     0.051 C 
BRANCH  45  46
HETATM   46  C   UNK     0      11.824  -9.264  45.102  0.00  0.00     0.114 C 
BRANCH  46  47
HETATM   47  C   UNK     0      12.844  -9.263  46.189  0.00  0.00     0.139 C 
HETATM   48  O   UNK     0      12.494  -9.599  47.330  0.00  0.00    -0.650 OA
BRANCH  47  49
HETATM   49  O   UNK     0      14.142  -8.897  45.935  0.00  0.00    -0.776 OA
HETATM   50  H   UNK     0      14.431  -8.509  45.030  0.00  0.00     0.167 HD
ENDBRANCH  47  49
ENDBRANCH  46  47
ENDBRANCH  45  46
ENDBRANCH  11  45
BRANCH  18  51
HETATM   51  C   UNK     0       8.947 -11.949  49.619  0.00  0.00     0.051 C 
BRANCH  51  52
HETATM   52  C   UNK     0      10.422 -12.188  49.903  0.00  0.00     0.114 C 
BRANCH  52  53
HETATM   53  C   UNK     0      10.788 -13.610  49.754  0.00  0.00     0.139 C 
HETATM   54  O   UNK     0      10.395 -14.443  50.585  0.00  0.00    -0.650 OA
BRANCH  53  55
HETATM   55  O   UNK     0      11.567 -14.003  48.693  0.00  0.00    -0.776 OA
HETATM   56  H   UNK     0      12.101 -14.838  48.638  0.00  0.00     0.167 HD
ENDBRANCH  53  55
ENDBRANCH  52  53
ENDBRANCH  51  52
ENDBRANCH  18  51
TORSDOF 16
ENDMDL
MODEL 14
REMARK VINA RESULT:      -6.9      4.103      7.775
REMARK  16 active torsions:
REMARK  status: ('A' for Active; 'I' for Inactive)
REMARK    1  A    between atoms: C_6  and  C_7 
REMARK    2  A    between atoms: C_7  and  C_8 
REMARK    3  A    between atoms: C_8  and  C_9 
REMARK    4  A    between atoms: C_9  and  O_11 
REMARK    5  A    between atoms: C_16  and  C_17 
REMARK    6  A    between atoms: C_17  and  C_18 
REMARK    7  A    between atoms: C_18  and  C_19 
REMARK    8  A    between atoms: C_19  and  O_21 
REMARK    9  A    between atoms: C_28  and  C_29 
REMARK   10  A    between atoms: C_29  and  C_30 
REMARK   11  A    between atoms: C_30  and  C_31 
REMARK   12  A    between atoms: C_31  and  O_33 
REMARK   13  A    between atoms: C_42  and  C_43 
REMARK   14  A    between atoms: C_43  and  C_44 
REMARK   15  A    between atoms: C_44  and  C_45 
REMARK   16  A    between atoms: C_45  and  O_47 
ROOT
HETATM    1  C   UNK     0     -27.306 -19.861  59.332  0.00  0.00     0.051 C 
HETATM    2  C   UNK     0     -26.082 -20.363  58.593  0.00  0.00    -0.031 A 
HETATM    3  C   UNK     0     -25.091 -19.645  57.943  0.00  0.00     0.021 A 
HETATM    4  N   UNK     0     -24.206 -20.510  57.394  0.00  0.00    -0.361 N 
HETATM    5  C   UNK     0     -24.607 -21.765  57.687  0.00  0.00     0.022 A 
HETATM    6  C   UNK     0     -25.779 -21.709  58.434  0.00  0.00    -0.027 A 
HETATM    7  C   UNK     0     -23.936 -23.071  57.398  0.00  0.00     0.115 C 
HETATM    8  C   UNK     0     -22.434 -23.129  57.618  0.00  0.00     0.021 A 
HETATM    9  N   UNK     0     -21.703 -22.518  58.563  0.00  0.00    -0.361 N 
HETATM   10  C   UNK     0     -20.401 -22.779  58.320  0.00  0.00     0.022 A 
HETATM   11  C   UNK     0     -20.291 -23.588  57.193  0.00  0.00    -0.027 A 
HETATM   12  C   UNK     0     -21.568 -23.812  56.746  0.00  0.00    -0.031 A 
HETATM   13  C   UNK     0     -21.938 -24.648  55.540  0.00  0.00     0.051 C 
HETATM   14  C   UNK     0     -19.211 -22.235  59.106  0.00  0.00     0.115 C 
HETATM   15  C   UNK     0     -19.104 -20.719  59.089  0.00  0.00     0.021 A 
HETATM   16  N   UNK     0     -20.017 -19.825  59.513  0.00  0.00    -0.361 N 
HETATM   17  C   UNK     0     -19.574 -18.592  59.262  0.00  0.00     0.022 A 
HETATM   18  C   UNK     0     -18.306 -18.685  58.654  0.00  0.00    -0.027 A 
HETATM   19  C   UNK     0     -18.022 -20.023  58.553  0.00  0.00    -0.031 A 
HETATM   20  C   UNK     0     -16.726 -20.570  57.984  0.00  0.00     0.051 C 
HETATM   21  C   UNK     0     -20.246 -17.255  59.477  0.00  0.00     0.115 C 
HETATM   22  C   UNK     0     -21.745 -17.192  59.304  0.00  0.00     0.022 A 
HETATM   23  N   UNK     0     -22.500 -17.793  58.375  0.00  0.00    -0.361 N 
HETATM   24  C   UNK     0     -23.796 -17.584  58.682  0.00  0.00     0.021 A 
HETATM   25  C   UNK     0     -23.878 -16.822  59.831  0.00  0.00    -0.031 A 
HETATM   26  C   UNK     0     -25.109 -16.297  60.541  0.00  0.00     0.051 C 
HETATM   27  C   UNK     0     -22.579 -16.558  60.248  0.00  0.00    -0.027 A 
HETATM   28  C   UNK     0     -25.020 -18.144  57.977  0.00  0.00     0.115 C 
HETATM   29  H   UNK     0     -23.326 -20.230  56.769  0.00  0.00     0.165 HD
HETATM   30  H   UNK     0     -22.106 -21.943  59.433  0.00  0.00     0.165 HD
HETATM   31  H   UNK     0     -20.975 -20.068  60.043  0.00  0.00     0.165 HD
HETATM   32  H   UNK     0     -22.123 -18.335  57.468  0.00  0.00     0.165 HD
ENDROOT
BRANCH   6  33
HETATM   33  C   UNK     0     -26.623 -22.824  58.998  0.00  0.00     0.051 C 
BRANCH  33  34
HETATM   34  C   UNK     0     -27.800 -23.112  58.097  0.00  0.00     0.114 C 
BRANCH  34  35
HETATM   35  C   UNK     0     -27.371 -24.156  57.122  0.00  0.00     0.139 C 
HETATM   36  O   UNK     0     -26.756 -25.187  57.522  0.00  0.00    -0.650 OA
BRANCH  35  37
HETATM   37  O   UNK     0     -27.618 -24.055  55.758  0.00  0.00    -0.776 OA
HETATM   38  H   UNK     0     -26.881 -24.119  55.075  0.00  0.00     0.167 HD
ENDBRANCH  35  37
ENDBRANCH  34  35
ENDBRANCH  33  34
ENDBRANCH   6  33
BRANCH  27  39
HETATM   39  C   UNK     0     -22.262 -15.698  61.420  0.00  0.00     0.051 C 
BRANCH  39  40
HETATM   40  C   UNK     0     -21.881 -16.346  62.674  0.00  0.00     0.114 C 
BRANCH  40  41
HETATM   41  C   UNK     0     -20.500 -16.582  63.031  0.00  0.00     0.139 C 
HETATM   42  O   UNK     0     -19.782 -15.734  63.578  0.00  0.00    -0.650 OA
BRANCH  41  43
HETATM   43  O   UNK     0     -19.919 -17.850  62.746  0.00  0.00    -0.776 OA
HETATM   44  H   UNK     0     -19.702 -18.405  63.565  0.00  0.00     0.167 HD
ENDBRANCH  41  43
ENDBRANCH  40  41
ENDBRANCH  39  40
ENDBRANCH  27  39
BRANCH  11  45
HETATM   45  C   UNK     0     -19.048 -24.140  56.548  0.00  0.00     0.051 C 
BRANCH  45  46
HETATM   46  C   UNK     0     -18.484 -23.275  55.480  0.00  0.00     0.114 C 
BRANCH  46  47
HETATM   47  C   UNK     0     -18.781 -23.934  54.176  0.00  0.00     0.139 C 
HETATM   48  O   UNK     0     -18.512 -25.137  54.045  0.00  0.00    -0.650 OA
BRANCH  47  49
HETATM   49  O   UNK     0     -19.338 -23.226  53.141  0.00  0.00    -0.776 OA
HETATM   50  H   UNK     0     -20.107 -23.603  52.574  0.00  0.00     0.167 HD
ENDBRANCH  47  49
ENDBRANCH  46  47
ENDBRANCH  45  46
ENDBRANCH  11  45
BRANCH  18  51
HETATM   51  C   UNK     0     -17.404 -17.561  58.214  0.00  0.00     0.051 C 
BRANCH  51  52
HETATM   52  C   UNK     0     -16.346 -17.415  59.297  0.00  0.00     0.114 C 
BRANCH  52  53
HETATM   53  C   UNK     0     -16.884 -16.763  60.507  0.00  0.00     0.139 C 
HETATM   54  O   UNK     0     -17.186 -17.446  61.499  0.00  0.00    -0.650 OA
BRANCH  53  55
HETATM   55  O   UNK     0     -17.052 -15.400  60.527  0.00  0.00    -0.776 OA
HETATM   56  H   UNK     0     -17.765 -14.906  61.010  0.00  0.00     0.167 HD
ENDBRANCH  53  55
ENDBRANCH  52  53
ENDBRANCH  51  52
ENDBRANCH  18  51
TORSDOF 16
ENDMDL
MODEL 15
REMARK VINA RESULT:      -6.9      4.644      9.747
REMARK  16 active torsions:
REMARK  status: ('A' for Active; 'I' for Inactive)
REMARK    1  A    between atoms: C_6  and  C_7 
REMARK    2  A    between atoms: C_7  and  C_8 
REMARK    3  A    between atoms: C_8  and  C_9 
REMARK    4  A    between atoms: C_9  and  O_11 
REMARK    5  A    between atoms: C_16  and  C_17 
REMARK    6  A    between atoms: C_17  and  C_18 
REMARK    7  A    between atoms: C_18  and  C_19 
REMARK    8  A    between atoms: C_19  and  O_21 
REMARK    9  A    between atoms: C_28  and  C_29 
REMARK   10  A    between atoms: C_29  and  C_30 
REMARK   11  A    between atoms: C_30  and  C_31 
REMARK   12  A    between atoms: C_31  and  O_33 
REMARK   13  A    between atoms: C_42  and  C_43 
REMARK   14  A    between atoms: C_43  and  C_44 
REMARK   15  A    between atoms: C_44  and  C_45 
REMARK   16  A    between atoms: C_45  and  O_47 
ROOT
HETATM    1  C   UNK     0     -23.549 -25.837  56.951  0.00  0.00     0.051 C 
HETATM    2  C   UNK     0     -23.812 -24.538  57.686  0.00  0.00    -0.031 A 
HETATM    3  C   UNK     0     -22.939 -23.747  58.416  0.00  0.00     0.021 A 
HETATM    4  N   UNK     0     -23.619 -22.693  58.925  0.00  0.00    -0.361 N 
HETATM    5  C   UNK     0     -24.904 -22.790  58.529  0.00  0.00     0.022 A 
HETATM    6  C   UNK     0     -25.061 -23.934  57.755  0.00  0.00    -0.027 A 
HETATM    7  C   UNK     0     -26.040 -21.838  58.740  0.00  0.00     0.115 C 
HETATM    8  C   UNK     0     -25.734 -20.361  58.560  0.00  0.00     0.021 A 
HETATM    9  N   UNK     0     -24.900 -19.781  57.684  0.00  0.00    -0.361 N 
HETATM   10  C   UNK     0     -24.873 -18.457  57.944  0.00  0.00     0.022 A 
HETATM   11  C   UNK     0     -25.721 -18.175  59.012  0.00  0.00    -0.027 A 
HETATM   12  C   UNK     0     -26.267 -19.370  59.404  0.00  0.00    -0.031 A 
HETATM   13  C   UNK     0     -27.256 -19.550  60.534  0.00  0.00     0.051 C 
HETATM   14  C   UNK     0     -24.011 -17.416  57.236  0.00  0.00     0.115 C 
HETATM   15  C   UNK     0     -22.516 -17.662  57.367  0.00  0.00     0.021 A 
HETATM   16  N   UNK     0     -21.826 -18.753  56.984  0.00  0.00    -0.361 N 
HETATM   17  C   UNK     0     -20.547 -18.609  57.338  0.00  0.00     0.022 A 
HETATM   18  C   UNK     0     -20.394 -17.360  57.973  0.00  0.00    -0.027 A 
HETATM   19  C   UNK     0     -21.635 -16.777  57.984  0.00  0.00    -0.031 A 
HETATM   20  C   UNK     0     -21.912 -15.395  58.548  0.00  0.00     0.051 C 
HETATM   21  C   UNK     0     -19.388 -19.570  57.203  0.00  0.00     0.115 C 
HETATM   22  C   UNK     0     -19.685 -21.045  57.336  0.00  0.00     0.022 A 
HETATM   23  N   UNK     0     -20.514 -21.650  58.196  0.00  0.00    -0.361 N 
HETATM   24  C   UNK     0     -20.585 -22.956  57.869  0.00  0.00     0.021 A 
HETATM   25  C   UNK     0     -19.774 -23.199  56.777  0.00  0.00    -0.031 A 
HETATM   26  C   UNK     0     -19.492 -24.510  56.072  0.00  0.00     0.051 C 
HETATM   27  C   UNK     0     -19.187 -21.991  56.418  0.00  0.00    -0.027 A 
HETATM   28  C   UNK     0     -21.464 -24.025  58.494  0.00  0.00     0.115 C 
HETATM   29  H   UNK     0     -23.194 -21.909  59.594  0.00  0.00     0.165 HD
HETATM   30  H   UNK     0     -24.367 -20.296  56.848  0.00  0.00     0.165 HD
HETATM   31  H   UNK     0     -22.240 -19.622  56.410  0.00  0.00     0.165 HD
HETATM   32  H   UNK     0     -21.024 -21.169  59.071  0.00  0.00     0.165 HD
ENDROOT
BRANCH   6  33
HETATM   33  C   UNK     0     -26.292 -24.492  57.085  0.00  0.00     0.051 C 
BRANCH  33  34
HETATM   34  C   UNK     0     -27.067 -25.372  58.038  0.00  0.00     0.114 C 
BRANCH  34  35
HETATM   35  C   UNK     0     -27.307 -26.672  57.349  0.00  0.00     0.139 C 
HETATM   36  O   UNK     0     -27.963 -27.587  57.927  0.00  0.00    -0.650 OA
BRANCH  35  37
HETATM   37  O   UNK     0     -26.836 -26.941  56.070  0.00  0.00    -0.776 OA
HETATM   38  H   UNK     0     -27.237 -26.511  55.252  0.00  0.00     0.167 HD
ENDBRANCH  35  37
ENDBRANCH  34  35
ENDBRANCH  33  34
ENDBRANCH   6  33
BRANCH  27  39
HETATM   39  C   UNK     0     -18.188 -21.870  55.322  0.00  0.00     0.051 C 
BRANCH  39  40
HETATM   40  C   UNK     0     -16.781 -21.693  55.681  0.00  0.00     0.114 C 
BRANCH  40  41
HETATM   41  C   UNK     0     -15.943 -22.801  56.080  0.00  0.00     0.139 C 
HETATM   42  O   UNK     0     -16.066 -23.948  55.631  0.00  0.00    -0.650 OA
BRANCH  41  43
HETATM   43  O   UNK     0     -14.915 -22.579  57.040  0.00  0.00    -0.776 OA
HETATM   44  H   UNK     0     -14.147 -22.009  56.708  0.00  0.00     0.167 HD
ENDBRANCH  41  43
ENDBRANCH  40  41
ENDBRANCH  39  40
ENDBRANCH  27  39
BRANCH  11  45
HETATM   45  C   UNK     0     -26.022 -16.846  59.650  0.00  0.00     0.051 C 
BRANCH  45  46
HETATM   46  C   UNK     0     -25.181 -16.538  60.835  0.00  0.00     0.114 C 
BRANCH  46  47
HETATM   47  C   UNK     0     -25.305 -15.075  61.097  0.00  0.00     0.139 C 
HETATM   48  O   UNK     0     -26.244 -14.678  61.801  0.00  0.00    -0.650 OA
BRANCH  47  49
HETATM   49  O   UNK     0     -24.402 -14.188  60.570  0.00  0.00    -0.776 OA
HETATM   50  H   UNK     0     -24.683 -13.259  60.233  0.00  0.00     0.167 HD
ENDBRANCH  47  49
ENDBRANCH  46  47
ENDBRANCH  45  46
ENDBRANCH  11  45
BRANCH  18  51
HETATM   51  C   UNK     0     -19.131 -16.748  58.521  0.00  0.00     0.051 C 
BRANCH  51  52
HETATM   52  C   UNK     0     -19.057 -17.161  59.983  0.00  0.00     0.114 C 
BRANCH  52  53
HETATM   53  C   UNK     0     -17.688 -17.037  60.520  0.00  0.00     0.139 C 
HETATM   54  O   UNK     0     -17.087 -18.044  60.928  0.00  0.00    -0.650 OA
BRANCH  53  55
HETATM   55  O   UNK     0     -17.087 -15.803  60.569  0.00  0.00    -0.776 OA
HETATM   56  H   UNK     0     -17.276 -15.037  59.967  0.00  0.00     0.167 HD
ENDBRANCH  53  55
ENDBRANCH  52  53
ENDBRANCH  51  52
ENDBRANCH  18  51
TORSDOF 16
ENDMDL
MODEL 16
REMARK VINA RESULT:      -6.9     16.858     21.802
REMARK  16 active torsions:
REMARK  status: ('A' for Active; 'I' for Inactive)
REMARK    1  A    between atoms: C_6  and  C_7 
REMARK    2  A    between atoms: C_7  and  C_8 
REMARK    3  A    between atoms: C_8  and  C_9 
REMARK    4  A    between atoms: C_9  and  O_11 
REMARK    5  A    between atoms: C_16  and  C_17 
REMARK    6  A    between atoms: C_17  and  C_18 
REMARK    7  A    between atoms: C_18  and  C_19 
REMARK    8  A    between atoms: C_19  and  O_21 
REMARK    9  A    between atoms: C_28  and  C_29 
REMARK   10  A    between atoms: C_29  and  C_30 
REMARK   11  A    between atoms: C_30  and  C_31 
REMARK   12  A    between atoms: C_31  and  O_33 
REMARK   13  A    between atoms: C_42  and  C_43 
REMARK   14  A    between atoms: C_43  and  C_44 
REMARK   15  A    between atoms: C_44  and  C_45 
REMARK   16  A    between atoms: C_45  and  O_47 
ROOT
HETATM    1  C   UNK     0      -4.380 -38.449  49.828  0.00  0.00     0.051 C 
HETATM    2  C   UNK     0      -5.664 -38.850  50.524  0.00  0.00    -0.031 A 
HETATM    3  C   UNK     0      -6.343 -38.215  51.553  0.00  0.00     0.021 A 
HETATM    4  N   UNK     0      -7.431 -38.950  51.883  0.00  0.00    -0.361 N 
HETATM    5  C   UNK     0      -7.466 -40.034  51.081  0.00  0.00     0.022 A 
HETATM    6  C   UNK     0      -6.374 -40.005  50.221  0.00  0.00    -0.027 A 
HETATM    7  C   UNK     0      -8.506 -41.106  50.974  0.00  0.00     0.115 C 
HETATM    8  C   UNK     0      -9.956 -40.654  51.007  0.00  0.00     0.021 A 
HETATM    9  N   UNK     0     -10.496 -39.537  50.496  0.00  0.00    -0.361 N 
HETATM   10  C   UNK     0     -11.800 -39.506  50.842  0.00  0.00     0.022 A 
HETATM   11  C   UNK     0     -12.111 -40.638  51.589  0.00  0.00    -0.027 A 
HETATM   12  C   UNK     0     -10.954 -41.366  51.697  0.00  0.00    -0.031 A 
HETATM   13  C   UNK     0     -10.815 -42.685  52.424  0.00  0.00     0.051 C 
HETATM   14  C   UNK     0     -12.789 -38.386  50.530  0.00  0.00     0.115 C 
HETATM   15  C   UNK     0     -12.405 -37.041  51.127  0.00  0.00     0.021 A 
HETATM   16  N   UNK     0     -11.274 -36.342  50.917  0.00  0.00    -0.361 N 
HETATM   17  C   UNK     0     -11.288 -35.246  51.680  0.00  0.00     0.022 A 
HETATM   18  C   UNK     0     -12.489 -35.226  52.415  0.00  0.00    -0.027 A 
HETATM   19  C   UNK     0     -13.181 -36.355  52.059  0.00  0.00    -0.031 A 
HETATM   20  C   UNK     0     -14.556 -36.707  52.595  0.00  0.00     0.051 C 
HETATM   21  C   UNK     0     -10.234 -34.179  51.866  0.00  0.00     0.115 C 
HETATM   22  C   UNK     0      -8.787 -34.606  51.791  0.00  0.00     0.022 A 
HETATM   23  N   UNK     0      -8.222 -35.715  52.288  0.00  0.00    -0.361 N 
HETATM   24  C   UNK     0      -6.943 -35.764  51.865  0.00  0.00     0.021 A 
HETATM   25  C   UNK     0      -6.674 -34.656  51.086  0.00  0.00    -0.031 A 
HETATM   26  C   UNK     0      -5.374 -34.249  50.423  0.00  0.00     0.051 C 
HETATM   27  C   UNK     0      -7.839 -33.899  51.024  0.00  0.00    -0.027 A 
HETATM   28  C   UNK     0      -5.931 -36.874  52.092  0.00  0.00     0.115 C 
HETATM   29  H   UNK     0      -8.145 -38.718  52.707  0.00  0.00     0.165 HD
HETATM   30  H   UNK     0      -9.971 -38.794  49.848  0.00  0.00     0.165 HD
HETATM   31  H   UNK     0     -10.470 -36.601  50.180  0.00  0.00     0.165 HD
HETATM   32  H   UNK     0      -8.710 -36.452  52.978  0.00  0.00     0.165 HD
ENDROOT
BRANCH   6  33
HETATM   33  C   UNK     0      -5.958 -40.979  49.148  0.00  0.00     0.051 C 
BRANCH  33  34
HETATM   34  C   UNK     0      -5.103 -42.081  49.728  0.00  0.00     0.114 C 
BRANCH  34  35
HETATM   35  C   UNK     0      -4.398 -42.744  48.594  0.00  0.00     0.139 C 
HETATM   36  O   UNK     0      -5.039 -43.085  47.558  0.00  0.00    -0.650 OA
BRANCH  35  37
HETATM   37  O   UNK     0      -3.035 -43.011  48.613  0.00  0.00    -0.776 OA
HETATM   38  H   UNK     0      -2.674 -43.950  48.562  0.00  0.00     0.167 HD
ENDBRANCH  35  37
ENDBRANCH  34  35
ENDBRANCH  33  34
ENDBRANCH   6  33
BRANCH  27  39
HETATM   39  C   UNK     0      -7.917 -32.586  50.328  0.00  0.00     0.051 C 
BRANCH  39  40
HETATM   40  C   UNK     0      -8.306 -32.571  48.918  0.00  0.00     0.114 C 
BRANCH  40  41
HETATM   41  C   UNK     0      -7.388 -32.933  47.861  0.00  0.00     0.139 C 
HETATM   42  O   UNK     0      -7.549 -33.914  47.122  0.00  0.00    -0.650 OA
BRANCH  41  43
HETATM   43  O   UNK     0      -6.232 -32.131  47.645  0.00  0.00    -0.776 OA
HETATM   44  H   UNK     0      -6.084 -31.412  48.343  0.00  0.00     0.167 HD
ENDBRANCH  41  43
ENDBRANCH  40  41
ENDBRANCH  39  40
ENDBRANCH  27  39
BRANCH  11  45
HETATM   45  C   UNK     0     -13.434 -41.040  52.184  0.00  0.00     0.051 C 
BRANCH  45  46
HETATM   46  C   UNK     0     -13.851 -40.215  53.347  0.00  0.00     0.114 C 
BRANCH  46  47
HETATM   47  C   UNK     0     -14.309 -41.153  54.412  0.00  0.00     0.139 C 
HETATM   48  O   UNK     0     -15.512 -41.445  54.467  0.00  0.00    -0.650 OA
BRANCH  47  49
HETATM   49  O   UNK     0     -13.419 -41.682  55.313  0.00  0.00    -0.776 OA
HETATM   50  H   UNK     0     -13.396 -41.384  56.295  0.00  0.00     0.167 HD
ENDBRANCH  47  49
ENDBRANCH  46  47
ENDBRANCH  45  46
ENDBRANCH  11  45
BRANCH  18  51
HETATM   51  C   UNK     0     -12.963 -34.177  53.388  0.00  0.00     0.051 C 
BRANCH  51  52
HETATM   52  C   UNK     0     -12.274 -34.481  54.710  0.00  0.00     0.114 C 
BRANCH  52  53
HETATM   53  C   UNK     0     -11.602 -33.291  55.266  0.00  0.00     0.139 C 
HETATM   54  O   UNK     0     -12.057 -32.158  55.040  0.00  0.00    -0.650 OA
BRANCH  53  55
HETATM   55  O   UNK     0     -10.471 -33.443  56.031  0.00  0.00    -0.776 OA
HETATM   56  H   UNK     0     -10.277 -32.977  56.885  0.00  0.00     0.167 HD
ENDBRANCH  53  55
ENDBRANCH  52  53
ENDBRANCH  51  52
ENDBRANCH  18  51
TORSDOF 16
ENDMDL
MODEL 17
REMARK VINA RESULT:      -6.9     17.177     22.754
REMARK  16 active torsions:
REMARK  status: ('A' for Active; 'I' for Inactive)
REMARK    1  A    between atoms: C_6  and  C_7 
REMARK    2  A    between atoms: C_7  and  C_8 
REMARK    3  A    between atoms: C_8  and  C_9 
REMARK    4  A    between atoms: C_9  and  O_11 
REMARK    5  A    between atoms: C_16  and  C_17 
REMARK    6  A    between atoms: C_17  and  C_18 
REMARK    7  A    between atoms: C_18  and  C_19 
REMARK    8  A    between atoms: C_19  and  O_21 
REMARK    9  A    between atoms: C_28  and  C_29 
REMARK   10  A    between atoms: C_29  and  C_30 
REMARK   11  A    between atoms: C_30  and  C_31 
REMARK   12  A    between atoms: C_31  and  O_33 
REMARK   13  A    between atoms: C_42  and  C_43 
REMARK   14  A    between atoms: C_43  and  C_44 
REMARK   15  A    between atoms: C_44  and  C_45 
REMARK   16  A    between atoms: C_45  and  O_47 
ROOT
HETATM    1  C   UNK     0      -5.933 -35.146  49.485  0.00  0.00     0.051 C 
HETATM    2  C   UNK     0      -6.802 -34.071  48.864  0.00  0.00    -0.031 A 
HETATM    3  C   UNK     0      -6.688 -33.452  47.629  0.00  0.00     0.021 A 
HETATM    4  N   UNK     0      -7.669 -32.527  47.507  0.00  0.00    -0.361 N 
HETATM    5  C   UNK     0      -8.411 -32.548  48.634  0.00  0.00     0.022 A 
HETATM    6  C   UNK     0      -7.894 -33.501  49.505  0.00  0.00    -0.027 A 
HETATM    7  C   UNK     0      -9.660 -31.793  48.966  0.00  0.00     0.115 C 
HETATM    8  C   UNK     0     -10.703 -31.685  47.868  0.00  0.00     0.021 A 
HETATM    9  N   UNK     0     -11.035 -32.594  46.938  0.00  0.00    -0.361 N 
HETATM   10  C   UNK     0     -11.946 -32.035  46.113  0.00  0.00     0.022 A 
HETATM   11  C   UNK     0     -12.215 -30.735  46.529  0.00  0.00    -0.027 A 
HETATM   12  C   UNK     0     -11.436 -30.508  47.634  0.00  0.00    -0.031 A 
HETATM   13  C   UNK     0     -11.401 -29.222  48.430  0.00  0.00     0.051 C 
HETATM   14  C   UNK     0     -12.557 -32.684  44.874  0.00  0.00     0.115 C 
HETATM   15  C   UNK     0     -11.539 -33.051  43.806  0.00  0.00     0.021 A 
HETATM   16  N   UNK     0     -10.478 -33.871  43.929  0.00  0.00    -0.361 N 
HETATM   17  C   UNK     0      -9.792 -33.875  42.785  0.00  0.00     0.022 A 
HETATM   18  C   UNK     0     -10.441 -33.024  41.868  0.00  0.00    -0.027 A 
HETATM   19  C   UNK     0     -11.535 -32.515  42.520  0.00  0.00    -0.031 A 
HETATM   20  C   UNK     0     -12.537 -31.574  41.877  0.00  0.00     0.051 C 
HETATM   21  C   UNK     0      -8.496 -34.569  42.431  0.00  0.00     0.115 C 
HETATM   22  C   UNK     0      -7.466 -34.722  43.526  0.00  0.00     0.022 A 
HETATM   23  N   UNK     0      -7.118 -33.836  44.468  0.00  0.00    -0.361 N 
HETATM   24  C   UNK     0      -6.269 -34.440  45.324  0.00  0.00     0.021 A 
HETATM   25  C   UNK     0      -6.057 -35.743  44.917  0.00  0.00    -0.031 A 
HETATM   26  C   UNK     0      -5.158 -36.798  45.528  0.00  0.00     0.051 C 
HETATM   27  C   UNK     0      -6.812 -35.947  43.768  0.00  0.00    -0.027 A 
HETATM   28  C   UNK     0      -5.675 -33.870  46.601  0.00  0.00     0.115 C 
HETATM   29  H   UNK     0      -7.807 -31.837  46.643  0.00  0.00     0.165 HD
HETATM   30  H   UNK     0     -10.666 -33.647  46.891  0.00  0.00     0.165 HD
HETATM   31  H   UNK     0     -10.235 -34.497  44.827  0.00  0.00     0.165 HD
HETATM   32  H   UNK     0      -7.435 -32.762  44.513  0.00  0.00     0.165 HD
ENDROOT
BRANCH   6  33
HETATM   33  C   UNK     0      -8.352 -33.905  50.884  0.00  0.00     0.051 C 
BRANCH  33  34
HETATM   34  C   UNK     0      -7.564 -33.173  51.945  0.00  0.00     0.114 C 
BRANCH  34  35
HETATM   35  C   UNK     0      -8.524 -32.758  53.008  0.00  0.00     0.139 C 
HETATM   36  O   UNK     0      -9.265 -33.618  53.568  0.00  0.00    -0.650 OA
BRANCH  35  37
HETATM   37  O   UNK     0      -8.650 -31.441  53.430  0.00  0.00    -0.776 OA
HETATM   38  H   UNK     0      -8.766 -30.680  52.781  0.00  0.00     0.167 HD
ENDBRANCH  35  37
ENDBRANCH  34  35
ENDBRANCH  33  34
ENDBRANCH   6  33
BRANCH  27  39
HETATM   39  C   UNK     0      -6.786 -37.219  42.996  0.00  0.00     0.051 C 
BRANCH  39  40
HETATM   40  C   UNK     0      -5.940 -37.290  41.804  0.00  0.00     0.114 C 
BRANCH  40  41
HETATM   41  C   UNK     0      -4.518 -37.037  41.853  0.00  0.00     0.139 C 
HETATM   42  O   UNK     0      -3.693 -37.852  42.289  0.00  0.00    -0.650 OA
BRANCH  41  43
HETATM   43  O   UNK     0      -4.021 -35.791  41.377  0.00  0.00    -0.776 OA
HETATM   44  H   UNK     0      -3.096 -35.552  41.715  0.00  0.00     0.167 HD
ENDBRANCH  41  43
ENDBRANCH  40  41
ENDBRANCH  39  40
ENDBRANCH  27  39
BRANCH  11  45
HETATM   45  C   UNK     0     -13.163 -29.731  45.929  0.00  0.00     0.051 C 
BRANCH  45  46
HETATM   46  C   UNK     0     -12.582 -28.940  44.814  0.00  0.00     0.114 C 
BRANCH  46  47
HETATM   47  C   UNK     0     -13.671 -28.708  43.823  0.00  0.00     0.139 C 
HETATM   48  O   UNK     0     -14.816 -29.094  44.099  0.00  0.00    -0.650 OA
BRANCH  47  49
HETATM   49  O   UNK     0     -13.414 -28.082  42.629  0.00  0.00    -0.776 OA
HETATM   50  H   UNK     0     -14.098 -27.462  42.180  0.00  0.00     0.167 HD
ENDBRANCH  47  49
ENDBRANCH  46  47
ENDBRANCH  45  46
ENDBRANCH  11  45
BRANCH  18  51
HETATM   51  C   UNK     0     -10.053 -32.730  40.442  0.00  0.00     0.051 C 
BRANCH  51  52
HETATM   52  C   UNK     0      -9.202 -31.469  40.485  0.00  0.00     0.114 C 
BRANCH  52  53
HETATM   53  C   UNK     0      -7.945 -31.629  39.728  0.00  0.00     0.139 C 
HETATM   54  O   UNK     0      -7.660 -32.725  39.221  0.00  0.00    -0.650 OA
BRANCH  53  55
HETATM   55  O   UNK     0      -7.094 -30.560  39.592  0.00  0.00    -0.776 OA
HETATM   56  H   UNK     0      -7.212 -29.662  40.001  0.00  0.00     0.167 HD
ENDBRANCH  53  55
ENDBRANCH  52  53
ENDBRANCH  51  52
ENDBRANCH  18  51
TORSDOF 16
ENDMDL
MODEL 18
REMARK VINA RESULT:      -6.9      4.537      9.696
REMARK  16 active torsions:
REMARK  status: ('A' for Active; 'I' for Inactive)
REMARK    1  A    between atoms: C_6  and  C_7 
REMARK    2  A    between atoms: C_7  and  C_8 
REMARK    3  A    between atoms: C_8  and  C_9 
REMARK    4  A    between atoms: C_9  and  O_11 
REMARK    5  A    between atoms: C_16  and  C_17 
REMARK    6  A    between atoms: C_17  and  C_18 
REMARK    7  A    between atoms: C_18  and  C_19 
REMARK    8  A    between atoms: C_19  and  O_21 
REMARK    9  A    between atoms: C_28  and  C_29 
REMARK   10  A    between atoms: C_29  and  C_30 
REMARK   11  A    between atoms: C_30  and  C_31 
REMARK   12  A    between atoms: C_31  and  O_33 
REMARK   13  A    between atoms: C_42  and  C_43 
REMARK   14  A    between atoms: C_43  and  C_44 
REMARK   15  A    between atoms: C_44  and  C_45 
REMARK   16  A    between atoms: C_45  and  O_47 
ROOT
HETATM    1  C   UNK     0     -22.667 -15.317  59.040  0.00  0.00     0.051 C 
HETATM    2  C   UNK     0     -23.283 -16.635  58.618  0.00  0.00    -0.031 A 
HETATM    3  C   UNK     0     -22.890 -17.510  57.618  0.00  0.00     0.021 A 
HETATM    4  N   UNK     0     -23.756 -18.550  57.576  0.00  0.00    -0.361 N 
HETATM    5  C   UNK     0     -24.687 -18.362  58.534  0.00  0.00     0.022 A 
HETATM    6  C   UNK     0     -24.423 -17.171  59.203  0.00  0.00    -0.027 A 
HETATM    7  C   UNK     0     -25.805 -19.259  58.964  0.00  0.00     0.115 C 
HETATM    8  C   UNK     0     -25.485 -20.739  59.081  0.00  0.00     0.021 A 
HETATM    9  N   UNK     0     -24.345 -21.318  59.487  0.00  0.00    -0.361 N 
HETATM   10  C   UNK     0     -24.478 -22.654  59.342  0.00  0.00     0.022 A 
HETATM   11  C   UNK     0     -25.743 -22.943  58.838  0.00  0.00    -0.027 A 
HETATM   12  C   UNK     0     -26.382 -21.741  58.671  0.00  0.00    -0.031 A 
HETATM   13  C   UNK     0     -27.790 -21.566  58.148  0.00  0.00     0.051 C 
HETATM   14  C   UNK     0     -23.405 -23.702  59.622  0.00  0.00     0.115 C 
HETATM   15  C   UNK     0     -22.156 -23.546  58.770  0.00  0.00     0.021 A 
HETATM   16  N   UNK     0     -21.341 -22.477  58.694  0.00  0.00    -0.361 N 
HETATM   17  C   UNK     0     -20.396 -22.710  57.780  0.00  0.00     0.022 A 
HETATM   18  C   UNK     0     -20.599 -23.996  57.242  0.00  0.00    -0.027 A 
HETATM   19  C   UNK     0     -21.703 -24.510  57.871  0.00  0.00    -0.031 A 
HETATM   20  C   UNK     0     -22.251 -25.901  57.611  0.00  0.00     0.051 C 
HETATM   21  C   UNK     0     -19.294 -21.809  57.271  0.00  0.00     0.115 C 
HETATM   22  C   UNK     0     -19.584 -20.328  57.191  0.00  0.00     0.022 A 
HETATM   23  N   UNK     0     -20.712 -19.724  56.794  0.00  0.00    -0.361 N 
HETATM   24  C   UNK     0     -20.585 -18.401  57.021  0.00  0.00     0.021 A 
HETATM   25  C   UNK     0     -19.341 -18.146  57.566  0.00  0.00    -0.031 A 
HETATM   26  C   UNK     0     -18.724 -16.818  57.952  0.00  0.00     0.051 C 
HETATM   27  C   UNK     0     -18.682 -19.364  57.685  0.00  0.00    -0.027 A 
HETATM   28  C   UNK     0     -21.632 -17.319  56.819  0.00  0.00     0.115 C 
HETATM   29  H   UNK     0     -23.726 -19.390  56.844  0.00  0.00     0.165 HD
HETATM   30  H   UNK     0     -23.462 -20.790  59.924  0.00  0.00     0.165 HD
HETATM   31  H   UNK     0     -21.405 -21.558  59.332  0.00  0.00     0.165 HD
HETATM   32  H   UNK     0     -21.592 -20.221  56.310  0.00  0.00     0.165 HD
ENDROOT
BRANCH   6  33
HETATM   33  C   UNK     0     -25.163 -16.513  60.339  0.00  0.00     0.051 C 
BRANCH  33  34
HETATM   34  C   UNK     0     -26.298 -15.663  59.818  0.00  0.00     0.114 C 
BRANCH  34  35
HETATM   35  C   UNK     0     -26.545 -14.585  60.818  0.00  0.00     0.139 C 
HETATM   36  O   UNK     0     -27.042 -14.864  61.947  0.00  0.00    -0.650 OA
BRANCH  35  37
HETATM   37  O   UNK     0     -26.246 -13.250  60.570  0.00  0.00    -0.776 OA
HETATM   38  H   UNK     0     -25.489 -12.976  59.964  0.00  0.00     0.167 HD
ENDBRANCH  35  37
ENDBRANCH  34  35
ENDBRANCH  33  34
ENDBRANCH   6  33
BRANCH  27  39
HETATM   39  C   UNK     0     -17.281 -19.484  58.171  0.00  0.00     0.051 C 
BRANCH  39  40
HETATM   40  C   UNK     0     -17.059 -19.718  59.597  0.00  0.00     0.114 C 
BRANCH  40  41
HETATM   41  C   UNK     0     -17.088 -18.647  60.568  0.00  0.00     0.139 C 
HETATM   42  O   UNK     0     -16.368 -17.641  60.497  0.00  0.00    -0.650 OA
BRANCH  41  43
HETATM   43  O   UNK     0     -17.984 -18.736  61.670  0.00  0.00    -0.776 OA
HETATM   44  H   UNK     0     -18.951 -18.536  61.441  0.00  0.00     0.167 HD
ENDBRANCH  41  43
ENDBRANCH  40  41
ENDBRANCH  39  40
ENDBRANCH  27  39
BRANCH  11  45
HETATM   45  C   UNK     0     -26.345 -24.285  58.521  0.00  0.00     0.051 C 
BRANCH  45  46
HETATM   46  C   UNK     0     -25.956 -24.827  57.194  0.00  0.00     0.114 C 
BRANCH  46  47
HETATM   47  C   UNK     0     -27.211 -25.216  56.490  0.00  0.00     0.139 C 
HETATM   48  O   UNK     0     -27.640 -26.369  56.637  0.00  0.00    -0.650 OA
BRANCH  47  49
HETATM   49  O   UNK     0     -27.878 -24.318  55.695  0.00  0.00    -0.776 OA
HETATM   50  H   UNK     0     -28.386 -24.610  54.852  0.00  0.00     0.167 HD
ENDBRANCH  47  49
ENDBRANCH  46  47
ENDBRANCH  45  46
ENDBRANCH  11  45
BRANCH  18  51
HETATM   51  C   UNK     0     -19.773 -24.705  56.200  0.00  0.00     0.051 C 
BRANCH  51  52
HETATM   52  C   UNK     0     -20.384 -24.345  54.854  0.00  0.00     0.114 C 
BRANCH  52  53
HETATM   53  C   UNK     0     -19.409 -23.682  53.967  0.00  0.00     0.139 C 
HETATM   54  O   UNK     0     -19.336 -22.443  53.939  0.00  0.00    -0.650 OA
BRANCH  53  55
HETATM   55  O   UNK     0     -18.587 -24.443  53.172  0.00  0.00    -0.776 OA
HETATM   56  H   UNK     0     -18.371 -25.403  53.305  0.00  0.00     0.167 HD
ENDBRANCH  53  55
ENDBRANCH  52  53
ENDBRANCH  51  52
ENDBRANCH  18  51
TORSDOF 16
ENDMDL
MODEL 19
REMARK VINA RESULT:      -6.9     14.247     20.955
REMARK  16 active torsions:
REMARK  status: ('A' for Active; 'I' for Inactive)
REMARK    1  A    between atoms: C_6  and  C_7 
REMARK    2  A    between atoms: C_7  and  C_8 
REMARK    3  A    between atoms: C_8  and  C_9 
REMARK    4  A    between atoms: C_9  and  O_11 
REMARK    5  A    between atoms: C_16  and  C_17 
REMARK    6  A    between atoms: C_17  and  C_18 
REMARK    7  A    between atoms: C_18  and  C_19 
REMARK    8  A    between atoms: C_19  and  O_21 
REMARK    9  A    between atoms: C_28  and  C_29 
REMARK   10  A    between atoms: C_29  and  C_30 
REMARK   11  A    between atoms: C_30  and  C_31 
REMARK   12  A    between atoms: C_31  and  O_33 
REMARK   13  A    between atoms: C_42  and  C_43 
REMARK   14  A    between atoms: C_43  and  C_44 
REMARK   15  A    between atoms: C_44  and  C_45 
REMARK   16  A    between atoms: C_45  and  O_47 
ROOT
HETATM    1  C   UNK     0     -11.696 -31.522  43.345  0.00  0.00     0.051 C 
HETATM    2  C   UNK     0     -11.984 -31.607  44.830  0.00  0.00    -0.031 A 
HETATM    3  C   UNK     0     -11.755 -32.652  45.712  0.00  0.00     0.021 A 
HETATM    4  N   UNK     0     -12.201 -32.297  46.941  0.00  0.00    -0.361 N 
HETATM    5  C   UNK     0     -12.701 -31.047  46.863  0.00  0.00     0.022 A 
HETATM    6  C   UNK     0     -12.584 -30.586  45.556  0.00  0.00    -0.027 A 
HETATM    7  C   UNK     0     -13.229 -30.164  47.950  0.00  0.00     0.115 C 
HETATM    8  C   UNK     0     -12.447 -30.141  49.251  0.00  0.00     0.021 A 
HETATM    9  N   UNK     0     -11.119 -30.224  49.429  0.00  0.00    -0.361 N 
HETATM   10  C   UNK     0     -10.876 -30.257  50.757  0.00  0.00     0.022 A 
HETATM   11  C   UNK     0     -12.079 -30.184  51.452  0.00  0.00    -0.027 A 
HETATM   12  C   UNK     0     -13.073 -30.110  50.510  0.00  0.00    -0.031 A 
HETATM   13  C   UNK     0     -14.552 -30.010  50.805  0.00  0.00     0.051 C 
HETATM   14  C   UNK     0      -9.510 -30.412  51.419  0.00  0.00     0.115 C 
HETATM   15  C   UNK     0      -8.799 -31.709  51.068  0.00  0.00     0.021 A 
HETATM   16  N   UNK     0      -8.452 -32.150  49.844  0.00  0.00    -0.361 N 
HETATM   17  C   UNK     0      -7.909 -33.365  49.953  0.00  0.00     0.022 A 
HETATM   18  C   UNK     0      -7.893 -33.729  51.314  0.00  0.00    -0.027 A 
HETATM   19  C   UNK     0      -8.451 -32.683  52.002  0.00  0.00    -0.031 A 
HETATM   20  C   UNK     0      -8.595 -32.647  53.512  0.00  0.00     0.051 C 
HETATM   21  C   UNK     0      -7.426 -34.313  48.880  0.00  0.00     0.115 C 
HETATM   22  C   UNK     0      -8.169 -34.315  47.564  0.00  0.00     0.022 A 
HETATM   23  N   UNK     0      -9.489 -34.229  47.356  0.00  0.00    -0.361 N 
HETATM   24  C   UNK     0      -9.703 -34.119  46.030  0.00  0.00     0.021 A 
HETATM   25  C   UNK     0      -8.491 -34.145  45.366  0.00  0.00    -0.031 A 
HETATM   26  C   UNK     0      -8.218 -34.093  43.877  0.00  0.00     0.051 C 
HETATM   27  C   UNK     0      -7.494 -34.270  46.327  0.00  0.00    -0.027 A 
HETATM   28  C   UNK     0     -11.026 -33.905  45.316  0.00  0.00     0.115 C 
HETATM   29  H   UNK     0     -12.195 -32.948  47.846  0.00  0.00     0.165 HD
HETATM   30  H   UNK     0     -10.347 -30.209  48.621  0.00  0.00     0.165 HD
HETATM   31  H   UNK     0      -8.548 -31.573  48.888  0.00  0.00     0.165 HD
HETATM   32  H   UNK     0     -10.286 -34.289  48.142  0.00  0.00     0.165 HD
ENDROOT
BRANCH   6  33
HETATM   33  C   UNK     0     -12.996 -29.268  44.951  0.00  0.00     0.051 C 
BRANCH  33  34
HETATM   34  C   UNK     0     -14.411 -29.338  44.427  0.00  0.00     0.114 C 
BRANCH  34  35
HETATM   35  C   UNK     0     -14.374 -28.948  42.989  0.00  0.00     0.139 C 
HETATM   36  O   UNK     0     -13.287 -28.580  42.456  0.00  0.00    -0.650 OA
BRANCH  35  37
HETATM   37  O   UNK     0     -15.501 -28.971  42.177  0.00  0.00    -0.776 OA
HETATM   38  H   UNK     0     -15.690 -29.732  41.545  0.00  0.00     0.167 HD
ENDBRANCH  35  37
ENDBRANCH  34  35
ENDBRANCH  33  34
ENDBRANCH   6  33
BRANCH  27  39
HETATM   39  C   UNK     0      -6.052 -34.403  45.986  0.00  0.00     0.051 C 
BRANCH  39  40
HETATM   40  C   UNK     0      -5.521 -35.741  45.724  0.00  0.00     0.114 C 
BRANCH  40  41
HETATM   41  C   UNK     0      -5.581 -36.799  46.707  0.00  0.00     0.139 C 
HETATM   42  O   UNK     0      -6.217 -37.849  46.542  0.00  0.00    -0.650 OA
BRANCH  41  43
HETATM   43  O   UNK     0      -4.878 -36.643  47.935  0.00  0.00    -0.776 OA
HETATM   44  H   UNK     0      -3.884 -36.477  47.831  0.00  0.00     0.167 HD
ENDBRANCH  41  43
ENDBRANCH  40  41
ENDBRANCH  39  40
ENDBRANCH  27  39
BRANCH  11  45
HETATM   45  C   UNK     0     -12.308 -30.179  52.940  0.00  0.00     0.051 C 
BRANCH  45  46
HETATM   46  C   UNK     0     -12.265 -31.526  53.564  0.00  0.00     0.114 C 
BRANCH  46  47
HETATM   47  C   UNK     0     -12.048 -31.328  55.026  0.00  0.00     0.139 C 
HETATM   48  O   UNK     0     -11.950 -30.171  55.459  0.00  0.00    -0.650 OA
BRANCH  47  49
HETATM   49  O   UNK     0     -11.958 -32.402  55.875  0.00  0.00    -0.776 OA
HETATM   50  H   UNK     0     -12.783 -32.807  56.331  0.00  0.00     0.167 HD
ENDBRANCH  47  49
ENDBRANCH  46  47
ENDBRANCH  45  46
ENDBRANCH  11  45
BRANCH  18  51
HETATM   51  C   UNK     0      -7.354 -34.995  51.928  0.00  0.00     0.051 C 
BRANCH  51  52
HETATM   52  C   UNK     0      -8.527 -35.960  52.011  0.00  0.00     0.114 C 
BRANCH  52  53
HETATM   53  C   UNK     0      -8.216 -37.132  52.852  0.00  0.00     0.139 C 
HETATM   54  O   UNK     0      -7.302 -37.907  52.525  0.00  0.00    -0.650 OA
BRANCH  53  55
HETATM   55  O   UNK     0      -8.944 -37.362  53.994  0.00  0.00    -0.776 OA
HETATM   56  H   UNK     0      -8.623 -37.241  54.926  0.00  0.00     0.167 HD
ENDBRANCH  53  55
ENDBRANCH  52  53
ENDBRANCH  51  52
ENDBRANCH  18  51
TORSDOF 16
ENDMDL
MODEL 20
REMARK VINA RESULT:      -6.8     15.870     21.303
REMARK  16 active torsions:
REMARK  status: ('A' for Active; 'I' for Inactive)
REMARK    1  A    between atoms: C_6  and  C_7 
REMARK    2  A    between atoms: C_7  and  C_8 
REMARK    3  A    between atoms: C_8  and  C_9 
REMARK    4  A    between atoms: C_9  and  O_11 
REMARK    5  A    between atoms: C_16  and  C_17 
REMARK    6  A    between atoms: C_17  and  C_18 
REMARK    7  A    between atoms: C_18  and  C_19 
REMARK    8  A    between atoms: C_19  and  O_21 
REMARK    9  A    between atoms: C_28  and  C_29 
REMARK   10  A    between atoms: C_29  and  C_30 
REMARK   11  A    between atoms: C_30  and  C_31 
REMARK   12  A    between atoms: C_31  and  O_33 
REMARK   13  A    between atoms: C_42  and  C_43 
REMARK   14  A    between atoms: C_43  and  C_44 
REMARK   15  A    between atoms: C_44  and  C_45 
REMARK   16  A    between atoms: C_45  and  O_47 
ROOT
HETATM    1  C   UNK     0     -12.166 -31.712  52.384  0.00  0.00     0.051 C 
HETATM    2  C   UNK     0     -11.230 -32.793  51.882  0.00  0.00    -0.031 A 
HETATM    3  C   UNK     0     -11.317 -33.569  50.737  0.00  0.00     0.021 A 
HETATM    4  N   UNK     0     -10.273 -34.431  50.708  0.00  0.00    -0.361 N 
HETATM    5  C   UNK     0      -9.518 -34.215  51.805  0.00  0.00     0.022 A 
HETATM    6  C   UNK     0     -10.090 -33.198  52.563  0.00  0.00    -0.027 A 
HETATM    7  C   UNK     0      -8.213 -34.832  52.198  0.00  0.00     0.115 C 
HETATM    8  C   UNK     0      -7.181 -35.004  51.098  0.00  0.00     0.021 A 
HETATM    9  N   UNK     0      -6.930 -34.199  50.054  0.00  0.00    -0.361 N 
HETATM   10  C   UNK     0      -5.993 -34.791  49.283  0.00  0.00     0.022 A 
HETATM   11  C   UNK     0      -5.624 -36.007  49.851  0.00  0.00    -0.027 A 
HETATM   12  C   UNK     0      -6.368 -36.147  50.995  0.00  0.00    -0.031 A 
HETATM   13  C   UNK     0      -6.297 -37.321  51.945  0.00  0.00     0.051 C 
HETATM   14  C   UNK     0      -5.450 -34.263  47.958  0.00  0.00     0.115 C 
HETATM   15  C   UNK     0      -6.508 -34.106  46.878  0.00  0.00     0.021 A 
HETATM   16  N   UNK     0      -7.623 -33.353  46.923  0.00  0.00    -0.361 N 
HETATM   17  C   UNK     0      -8.326 -33.542  45.804  0.00  0.00     0.022 A 
HETATM   18  C   UNK     0      -7.630 -34.453  44.985  0.00  0.00    -0.027 A 
HETATM   19  C   UNK     0      -6.492 -34.798  45.669  0.00  0.00    -0.031 A 
HETATM   20  C   UNK     0      -5.434 -35.739  45.125  0.00  0.00     0.051 C 
HETATM   21  C   UNK     0      -9.674 -32.991  45.398  0.00  0.00     0.115 C 
HETATM   22  C   UNK     0     -10.696 -32.774  46.490  0.00  0.00     0.022 A 
HETATM   23  N   UNK     0     -10.964 -33.557  47.543  0.00  0.00    -0.361 N 
HETATM   24  C   UNK     0     -11.842 -32.912  48.337  0.00  0.00     0.021 A 
HETATM   25  C   UNK     0     -12.154 -31.688  47.776  0.00  0.00    -0.031 A 
HETATM   26  C   UNK     0     -13.119 -30.630  48.272  0.00  0.00     0.051 C 
HETATM   27  C   UNK     0     -11.433 -31.578  46.593  0.00  0.00    -0.027 A 
HETATM   28  C   UNK     0     -12.373 -33.356  49.689  0.00  0.00     0.115 C 
HETATM   29  H   UNK     0     -10.099 -35.212  49.933  0.00  0.00     0.165 HD
HETATM   30  H   UNK     0      -7.376 -33.188  49.884  0.00  0.00     0.165 HD
HETATM   31  H   UNK     0      -7.898 -32.638  47.741  0.00  0.00     0.165 HD
HETATM   32  H   UNK     0     -10.569 -34.592  47.714  0.00  0.00     0.165 HD
ENDROOT
BRANCH   6  33
HETATM   33  C   UNK     0      -9.642 -32.593  53.869  0.00  0.00     0.051 C 
BRANCH  33  34
HETATM   34  C   UNK     0      -9.962 -33.514  55.023  0.00  0.00     0.114 C 
BRANCH  34  35
HETATM   35  C   UNK     0     -11.169 -32.968  55.708  0.00  0.00     0.139 C 
HETATM   36  O   UNK     0     -12.327 -33.299  55.319  0.00  0.00    -0.650 OA
BRANCH  35  37
HETATM   37  O   UNK     0     -11.087 -32.091  56.783  0.00  0.00    -0.776 OA
HETATM   38  H   UNK     0     -10.374 -31.383  56.843  0.00  0.00     0.167 HD
ENDBRANCH  35  37
ENDBRANCH  34  35
ENDBRANCH  33  34
ENDBRANCH   6  33
BRANCH  27  39
HETATM   39  C   UNK     0     -11.564 -30.418  45.669  0.00  0.00     0.051 C 
BRANCH  39  40
HETATM   40  C   UNK     0     -10.773 -29.219  45.944  0.00  0.00     0.114 C 
BRANCH  40  41
HETATM   41  C   UNK     0     -11.029 -27.959  45.283  0.00  0.00     0.139 C 
HETATM   42  O   UNK     0     -12.135 -27.638  44.828  0.00  0.00    -0.650 OA
BRANCH  41  43
HETATM   43  O   UNK     0      -9.964 -27.025  45.139  0.00  0.00    -0.776 OA
HETATM   44  H   UNK     0      -9.433 -26.861  45.986  0.00  0.00     0.167 HD
ENDBRANCH  41  43
ENDBRANCH  40  41
ENDBRANCH  39  40
ENDBRANCH  27  39
BRANCH  11  45
HETATM   45  C   UNK     0      -4.614 -37.008  49.358  0.00  0.00     0.051 C 
BRANCH  45  46
HETATM   46  C   UNK     0      -5.113 -37.886  48.268  0.00  0.00     0.114 C 
BRANCH  46  47
HETATM   47  C   UNK     0      -5.052 -39.289  48.769  0.00  0.00     0.139 C 
HETATM   48  O   UNK     0      -6.008 -39.726  49.424  0.00  0.00    -0.650 OA
BRANCH  47  49
HETATM   49  O   UNK     0      -3.961 -40.080  48.510  0.00  0.00    -0.776 OA
HETATM   50  H   UNK     0      -3.690 -40.854  49.129  0.00  0.00     0.167 HD
ENDBRANCH  47  49
ENDBRANCH  46  47
ENDBRANCH  45  46
ENDBRANCH  11  45
BRANCH  18  51
HETATM   51  C   UNK     0      -8.017 -34.952  43.617  0.00  0.00     0.051 C 
BRANCH  51  52
HETATM   52  C   UNK     0      -8.795 -36.241  43.838  0.00  0.00     0.114 C 
BRANCH  52  53
HETATM   53  C   UNK     0      -8.207 -37.372  43.095  0.00  0.00     0.139 C 
HETATM   54  O   UNK     0      -7.163 -37.212  42.443  0.00  0.00    -0.650 OA
BRANCH  53  55
HETATM   55  O   UNK     0      -8.824 -38.600  43.128  0.00  0.00    -0.776 OA
HETATM   56  H   UNK     0      -9.407 -38.941  43.854  0.00  0.00     0.167 HD
ENDBRANCH  53  55
ENDBRANCH  52  53
ENDBRANCH  51  52
ENDBRANCH  18  51
TORSDOF 16
ENDMDL
