MODEL 1
REMARK VINA RESULT:      -8.5      0.000      0.000
REMARK  16 active torsions:
REMARK  status: ('A' for Active; 'I' for Inactive)
REMARK    1  A    between atoms: C_6  and  C_7 
REMARK    2  A    between atoms: C_7  and  C_8 
REMARK    3  A    between atoms: C_8  and  C_9 
REMARK    4  A    between atoms: C_9  and  O_11 
REMARK    5  A    between atoms: C_16  and  C_17 
REMARK    6  A    between atoms: C_17  and  C_18 
REMARK    7  A    between atoms: C_18  and  C_19 
REMARK    8  A    between atoms: C_19  and  O_21 
REMARK    9  A    between atoms: C_28  and  C_29 
REMARK   10  A    between atoms: C_29  and  C_30 
REMARK   11  A    between atoms: C_30  and  C_31 
REMARK   12  A    between atoms: C_31  and  O_33 
REMARK   13  A    between atoms: C_42  and  C_43 
REMARK   14  A    between atoms: C_43  and  C_44 
REMARK   15  A    between atoms: C_44  and  C_45 
REMARK   16  A    between atoms: C_45  and  O_47 
ROOT
HETATM    1  C   UNK     0       1.532 -11.094  -4.758  0.00  0.00     0.051 C 
HETATM    2  C   UNK     0       3.042 -11.116  -4.883  0.00  0.00    -0.031 A 
HETATM    3  C   UNK     0       3.863 -12.069  -5.465  0.00  0.00     0.021 A 
HETATM    4  N   UNK     0       5.154 -11.689  -5.317  0.00  0.00    -0.361 N 
HETATM    5  C   UNK     0       5.174 -10.509  -4.662  0.00  0.00     0.022 A 
HETATM    6  C   UNK     0       3.869 -10.124  -4.373  0.00  0.00    -0.027 A 
HETATM    7  C   UNK     0       6.334  -9.623  -4.332  0.00  0.00     0.115 C 
HETATM    8  C   UNK     0       7.375  -9.429  -5.421  0.00  0.00     0.021 A 
HETATM    9  N   UNK     0       7.192  -9.352  -6.748  0.00  0.00    -0.361 N 
HETATM   10  C   UNK     0       8.406  -9.273  -7.334  0.00  0.00     0.022 A 
HETATM   11  C   UNK     0       9.397  -9.289  -6.357  0.00  0.00    -0.027 A 
HETATM   12  C   UNK     0       8.754  -9.388  -5.149  0.00  0.00    -0.031 A 
HETATM   13  C   UNK     0       9.433  -9.434  -3.799  0.00  0.00     0.051 C 
HETATM   14  C   UNK     0       8.682  -9.232  -8.834  0.00  0.00     0.115 C 
HETATM   15  C   UNK     0       8.194 -10.461  -9.584  0.00  0.00     0.021 A 
HETATM   16  N   UNK     0       6.937 -10.938  -9.649  0.00  0.00    -0.361 N 
HETATM   17  C   UNK     0       6.935 -12.075 -10.348  0.00  0.00     0.022 A 
HETATM   18  C   UNK     0       8.252 -12.347 -10.767  0.00  0.00    -0.027 A 
HETATM   19  C   UNK     0       9.031 -11.328 -10.283  0.00  0.00    -0.031 A 
HETATM   20  C   UNK     0      10.522 -11.211 -10.538  0.00  0.00     0.051 C 
HETATM   21  C   UNK     0       5.802 -13.031 -10.646  0.00  0.00     0.115 C 
HETATM   22  C   UNK     0       4.735 -13.199  -9.590  0.00  0.00     0.022 A 
HETATM   23  N   UNK     0       4.887 -13.275  -8.261  0.00  0.00    -0.361 N 
HETATM   24  C   UNK     0       3.664 -13.275  -7.694  0.00  0.00     0.021 A 
HETATM   25  C   UNK     0       2.701 -13.208  -8.682  0.00  0.00    -0.031 A 
HETATM   26  C   UNK     0       1.192 -13.222  -8.545  0.00  0.00     0.051 C 
HETATM   27  C   UNK     0       3.362 -13.159  -9.904  0.00  0.00    -0.027 A 
HETATM   28  C   UNK     0       3.326 -13.256  -6.213  0.00  0.00     0.115 C 
HETATM   29  H   UNK     0       6.045 -12.275  -5.642  0.00  0.00     0.165 HD
HETATM   30  H   UNK     0       6.206  -9.304  -7.272  0.00  0.00     0.165 HD
HETATM   31  H   UNK     0       6.023 -10.438  -9.233  0.00  0.00     0.165 HD
HETATM   32  H   UNK     0       5.860 -13.373  -7.713  0.00  0.00     0.165 HD
ENDROOT
BRANCH   6  33
HETATM   33  C   UNK     0       3.356  -8.901  -3.655  0.00  0.00     0.051 C 
BRANCH  33  34
HETATM   34  C   UNK     0       3.514  -7.670  -4.516  0.00  0.00     0.114 C 
BRANCH  34  35
HETATM   35  C   UNK     0       4.230  -6.645  -3.703  0.00  0.00     0.139 C 
HETATM   36  O   UNK     0       4.520  -6.881  -2.494  0.00  0.00    -0.650 OA
BRANCH  35  37
HETATM   37  O   UNK     0       4.609  -5.411  -4.217  0.00  0.00    -0.776 OA
HETATM   38  H   UNK     0       4.316  -5.100  -5.129  0.00  0.00     0.167 HD
ENDBRANCH  35  37
ENDBRANCH  34  35
ENDBRANCH  33  34
ENDBRANCH   6  33
BRANCH  27  39
HETATM   39  C   UNK     0       2.650 -13.153 -11.211  0.00  0.00     0.051 C 
BRANCH  39  40
HETATM   40  C   UNK     0       2.268 -11.863 -11.787  0.00  0.00     0.114 C 
BRANCH  40  41
HETATM   41  C   UNK     0       2.772 -10.610 -11.272  0.00  0.00     0.139 C 
HETATM   42  O   UNK     0       3.871 -10.133 -11.587  0.00  0.00    -0.650 OA
BRANCH  41  43
HETATM   43  O   UNK     0       1.975  -9.871 -10.352  0.00  0.00    -0.776 OA
HETATM   44  H   UNK     0       1.197  -9.379 -10.773  0.00  0.00     0.167 HD
ENDBRANCH  41  43
ENDBRANCH  40  41
ENDBRANCH  39  40
ENDBRANCH  27  39
BRANCH  11  45
HETATM   45  C   UNK     0      10.890  -9.214  -6.528  0.00  0.00     0.051 C 
BRANCH  45  46
HETATM   46  C   UNK     0      11.458  -7.859  -6.309  0.00  0.00     0.114 C 
BRANCH  46  47
HETATM   47  C   UNK     0      12.839  -8.040  -5.776  0.00  0.00     0.139 C 
HETATM   48  O   UNK     0      13.067  -9.010  -5.039  0.00  0.00    -0.650 OA
BRANCH  47  49
HETATM   49  O   UNK     0      13.836  -7.152  -6.092  0.00  0.00    -0.776 OA
HETATM   50  H   UNK     0      13.692  -6.386  -6.761  0.00  0.00     0.167 HD
ENDBRANCH  47  49
ENDBRANCH  46  47
ENDBRANCH  45  46
ENDBRANCH  11  45
BRANCH  18  51
HETATM   51  C   UNK     0       8.739 -13.503 -11.602  0.00  0.00     0.051 C 
BRANCH  51  52
HETATM   52  C   UNK     0       9.182 -14.579 -10.621  0.00  0.00     0.114 C 
BRANCH  52  53
HETATM   53  C   UNK     0      10.652 -14.675 -10.538  0.00  0.00     0.139 C 
HETATM   54  O   UNK     0      11.217 -14.628  -9.433  0.00  0.00    -0.650 OA
BRANCH  53  55
HETATM   55  O   UNK     0      11.391 -14.812 -11.688  0.00  0.00    -0.776 OA
HETATM   56  H   UNK     0      11.054 -14.702 -12.615  0.00  0.00     0.167 HD
ENDBRANCH  53  55
ENDBRANCH  52  53
ENDBRANCH  51  52
ENDBRANCH  18  51
TORSDOF 16
ENDMDL
MODEL 2
REMARK VINA RESULT:      -7.9     23.102     26.556
REMARK  16 active torsions:
REMARK  status: ('A' for Active; 'I' for Inactive)
REMARK    1  A    between atoms: C_6  and  C_7 
REMARK    2  A    between atoms: C_7  and  C_8 
REMARK    3  A    between atoms: C_8  and  C_9 
REMARK    4  A    between atoms: C_9  and  O_11 
REMARK    5  A    between atoms: C_16  and  C_17 
REMARK    6  A    between atoms: C_17  and  C_18 
REMARK    7  A    between atoms: C_18  and  C_19 
REMARK    8  A    between atoms: C_19  and  O_21 
REMARK    9  A    between atoms: C_28  and  C_29 
REMARK   10  A    between atoms: C_29  and  C_30 
REMARK   11  A    between atoms: C_30  and  C_31 
REMARK   12  A    between atoms: C_31  and  O_33 
REMARK   13  A    between atoms: C_42  and  C_43 
REMARK   14  A    between atoms: C_43  and  C_44 
REMARK   15  A    between atoms: C_44  and  C_45 
REMARK   16  A    between atoms: C_45  and  O_47 
ROOT
HETATM    1  C   UNK     0      -3.465  13.724 -16.345  0.00  0.00     0.051 C 
HETATM    2  C   UNK     0      -4.043  12.330 -16.483  0.00  0.00    -0.031 A 
HETATM    3  C   UNK     0      -5.159  11.907 -17.188  0.00  0.00     0.021 A 
HETATM    4  N   UNK     0      -5.318  10.574 -17.004  0.00  0.00    -0.361 N 
HETATM    5  C   UNK     0      -4.323  10.138 -16.204  0.00  0.00     0.022 A 
HETATM    6  C   UNK     0      -3.509  11.211 -15.857  0.00  0.00    -0.027 A 
HETATM    7  C   UNK     0      -3.990   8.744 -15.773  0.00  0.00     0.115 C 
HETATM    8  C   UNK     0      -4.076   7.663 -16.836  0.00  0.00     0.021 A 
HETATM    9  N   UNK     0      -3.776   7.748 -18.141  0.00  0.00    -0.361 N 
HETATM   10  C   UNK     0      -4.093   6.571 -18.722  0.00  0.00     0.022 A 
HETATM   11  C   UNK     0      -4.603   5.701 -17.763  0.00  0.00    -0.027 A 
HETATM   12  C   UNK     0      -4.595   6.383 -16.572  0.00  0.00    -0.031 A 
HETATM   13  C   UNK     0      -5.059   5.828 -15.244  0.00  0.00     0.051 C 
HETATM   14  C   UNK     0      -3.978   6.239 -20.207  0.00  0.00     0.115 C 
HETATM   15  C   UNK     0      -4.830   7.124 -21.103  0.00  0.00     0.021 A 
HETATM   16  N   UNK     0      -4.783   8.464 -21.218  0.00  0.00    -0.361 N 
HETATM   17  C   UNK     0      -5.740   8.866 -22.057  0.00  0.00     0.022 A 
HETATM   18  C   UNK     0      -6.439   7.733 -22.518  0.00  0.00    -0.027 A 
HETATM   19  C   UNK     0      -5.858   6.648 -21.914  0.00  0.00    -0.031 A 
HETATM   20  C   UNK     0      -6.287   5.213 -22.164  0.00  0.00     0.051 C 
HETATM   21  C   UNK     0      -6.151  10.263 -22.465  0.00  0.00     0.115 C 
HETATM   22  C   UNK     0      -6.028  11.357 -21.431  0.00  0.00     0.022 A 
HETATM   23  N   UNK     0      -6.316  11.299 -20.124  0.00  0.00    -0.361 N 
HETATM   24  C   UNK     0      -5.920  12.454 -19.552  0.00  0.00     0.021 A 
HETATM   25  C   UNK     0      -5.373  13.280 -20.515  0.00  0.00    -0.031 A 
HETATM   26  C   UNK     0      -4.830  14.686 -20.369  0.00  0.00     0.051 C 
HETATM   27  C   UNK     0      -5.431  12.599 -21.726  0.00  0.00    -0.027 A 
HETATM   28  C   UNK     0      -5.953  12.821 -18.078  0.00  0.00     0.115 C 
HETATM   29  H   UNK     0      -6.155   9.959 -17.408  0.00  0.00     0.165 HD
HETATM   30  H   UNK     0      -3.294   8.620 -18.647  0.00  0.00     0.165 HD
HETATM   31  H   UNK     0      -4.027   9.138 -20.735  0.00  0.00     0.165 HD
HETATM   32  H   UNK     0      -6.841  10.459 -19.600  0.00  0.00     0.165 HD
ENDROOT
BRANCH   6  33
HETATM   33  C   UNK     0      -2.279  11.254 -14.986  0.00  0.00     0.051 C 
BRANCH  33  34
HETATM   34  C   UNK     0      -2.652  11.522 -13.547  0.00  0.00     0.114 C 
BRANCH  34  35
HETATM   35  C   UNK     0      -2.475  10.246 -12.795  0.00  0.00     0.139 C 
HETATM   36  O   UNK     0      -3.476   9.663 -12.286  0.00  0.00    -0.650 OA
BRANCH  35  37
HETATM   37  O   UNK     0      -1.234   9.645 -12.621  0.00  0.00    -0.776 OA
HETATM   38  H   UNK     0      -1.096   8.657 -12.757  0.00  0.00     0.167 HD
ENDBRANCH  35  37
ENDBRANCH  34  35
ENDBRANCH  33  34
ENDBRANCH   6  33
BRANCH  27  39
HETATM   39  C   UNK     0      -4.997  13.202 -23.016  0.00  0.00     0.051 C 
BRANCH  39  40
HETATM   40  C   UNK     0      -3.723  12.769 -23.590  0.00  0.00     0.114 C 
BRANCH  40  41
HETATM   41  C   UNK     0      -2.599  12.382 -22.767  0.00  0.00     0.139 C 
HETATM   42  O   UNK     0      -2.265  11.205 -22.576  0.00  0.00    -0.650 OA
BRANCH  41  43
HETATM   43  O   UNK     0      -1.825  13.396 -22.134  0.00  0.00    -0.776 OA
HETATM   44  H   UNK     0      -1.290  13.077 -21.334  0.00  0.00     0.167 HD
ENDBRANCH  41  43
ENDBRANCH  40  41
ENDBRANCH  39  40
ENDBRANCH  27  39
BRANCH  11  45
HETATM   45  C   UNK     0      -5.080   4.284 -17.935  0.00  0.00     0.051 C 
BRANCH  45  46
HETATM   46  C   UNK     0      -3.995   3.270 -17.895  0.00  0.00     0.114 C 
BRANCH  46  47
HETATM   47  C   UNK     0      -4.287   2.269 -18.961  0.00  0.00     0.139 C 
HETATM   48  O   UNK     0      -4.849   2.653 -19.996  0.00  0.00    -0.650 OA
BRANCH  47  49
HETATM   49  O   UNK     0      -3.942   0.951 -18.800  0.00  0.00    -0.776 OA
HETATM   50  H   UNK     0      -4.604   0.255 -18.438  0.00  0.00     0.167 HD
ENDBRANCH  47  49
ENDBRANCH  46  47
ENDBRANCH  45  46
ENDBRANCH  11  45
BRANCH  18  51
HETATM   51  C   UNK     0      -7.583   7.685 -23.496  0.00  0.00     0.051 C 
BRANCH  51  52
HETATM   52  C   UNK     0      -8.841   7.994 -22.697  0.00  0.00     0.114 C 
BRANCH  52  53
HETATM   53  C   UNK     0      -9.994   7.197 -23.157  0.00  0.00     0.139 C 
HETATM   54  O   UNK     0     -10.838   7.704 -23.914  0.00  0.00    -0.650 OA
BRANCH  53  55
HETATM   55  O   UNK     0     -10.130   5.895 -22.741  0.00  0.00    -0.776 OA
HETATM   56  H   UNK     0      -9.614   5.458 -22.014  0.00  0.00     0.167 HD
ENDBRANCH  53  55
ENDBRANCH  52  53
ENDBRANCH  51  52
ENDBRANCH  18  51
TORSDOF 16
ENDMDL
MODEL 3
REMARK VINA RESULT:      -7.7     23.025     26.468
REMARK  16 active torsions:
REMARK  status: ('A' for Active; 'I' for Inactive)
REMARK    1  A    between atoms: C_6  and  C_7 
REMARK    2  A    between atoms: C_7  and  C_8 
REMARK    3  A    between atoms: C_8  and  C_9 
REMARK    4  A    between atoms: C_9  and  O_11 
REMARK    5  A    between atoms: C_16  and  C_17 
REMARK    6  A    between atoms: C_17  and  C_18 
REMARK    7  A    between atoms: C_18  and  C_19 
REMARK    8  A    between atoms: C_19  and  O_21 
REMARK    9  A    between atoms: C_28  and  C_29 
REMARK   10  A    between atoms: C_29  and  C_30 
REMARK   11  A    between atoms: C_30  and  C_31 
REMARK   12  A    between atoms: C_31  and  O_33 
REMARK   13  A    between atoms: C_42  and  C_43 
REMARK   14  A    between atoms: C_43  and  C_44 
REMARK   15  A    between atoms: C_44  and  C_45 
REMARK   16  A    between atoms: C_45  and  O_47 
ROOT
HETATM    1  C   UNK     0      -3.212  12.731 -14.857  0.00  0.00     0.051 C 
HETATM    2  C   UNK     0      -3.814  11.406 -15.278  0.00  0.00    -0.031 A 
HETATM    3  C   UNK     0      -4.914  11.154 -16.083  0.00  0.00     0.021 A 
HETATM    4  N   UNK     0      -5.106   9.816 -16.162  0.00  0.00    -0.361 N 
HETATM    5  C   UNK     0      -4.147   9.209 -15.432  0.00  0.00     0.022 A 
HETATM    6  C   UNK     0      -3.323  10.174 -14.863  0.00  0.00    -0.027 A 
HETATM    7  C   UNK     0      -3.857   7.750 -15.267  0.00  0.00     0.115 C 
HETATM    8  C   UNK     0      -3.930   6.895 -16.520  0.00  0.00     0.021 A 
HETATM    9  N   UNK     0      -3.585   7.220 -17.776  0.00  0.00    -0.361 N 
HETATM   10  C   UNK     0      -3.906   6.184 -18.580  0.00  0.00     0.022 A 
HETATM   11  C   UNK     0      -4.465   5.161 -17.821  0.00  0.00    -0.027 A 
HETATM   12  C   UNK     0      -4.483   5.602 -16.522  0.00  0.00    -0.031 A 
HETATM   13  C   UNK     0      -5.002   4.815 -15.339  0.00  0.00     0.051 C 
HETATM   14  C   UNK     0      -3.749   6.139 -20.097  0.00  0.00     0.115 C 
HETATM   15  C   UNK     0      -4.552   7.201 -20.831  0.00  0.00     0.021 A 
HETATM   16  N   UNK     0      -4.473   8.537 -20.686  0.00  0.00    -0.361 N 
HETATM   17  C   UNK     0      -5.394   9.117 -21.459  0.00  0.00     0.022 A 
HETATM   18  C   UNK     0      -6.100   8.111 -22.149  0.00  0.00    -0.027 A 
HETATM   19  C   UNK     0      -5.562   6.916 -21.748  0.00  0.00    -0.031 A 
HETATM   20  C   UNK     0      -6.011   5.568 -22.280  0.00  0.00     0.051 C 
HETATM   21  C   UNK     0      -5.762  10.576 -21.603  0.00  0.00     0.115 C 
HETATM   22  C   UNK     0      -5.652  11.449 -20.375  0.00  0.00     0.022 A 
HETATM   23  N   UNK     0      -5.984  11.150 -19.112  0.00  0.00    -0.361 N 
HETATM   24  C   UNK     0      -5.584  12.163 -18.318  0.00  0.00     0.021 A 
HETATM   25  C   UNK     0      -4.989  13.143 -19.089  0.00  0.00    -0.031 A 
HETATM   26  C   UNK     0      -4.422  14.481 -18.661  0.00  0.00     0.051 C 
HETATM   27  C   UNK     0      -5.021  12.709 -20.409  0.00  0.00    -0.027 A 
HETATM   28  C   UNK     0      -5.659  12.242 -16.803  0.00  0.00     0.115 C 
HETATM   29  H   UNK     0      -5.941   9.311 -16.700  0.00  0.00     0.165 HD
HETATM   30  H   UNK     0      -3.068   8.159 -18.090  0.00  0.00     0.165 HD
HETATM   31  H   UNK     0      -3.721   9.085 -20.061  0.00  0.00     0.165 HD
HETATM   32  H   UNK     0      -6.544  10.239 -18.775  0.00  0.00     0.165 HD
ENDROOT
BRANCH   6  33
HETATM   33  C   UNK     0      -2.123  10.017 -13.964  0.00  0.00     0.051 C 
BRANCH  33  34
HETATM   34  C   UNK     0      -0.847  10.293 -14.724  0.00  0.00     0.114 C 
BRANCH  34  35
HETATM   35  C   UNK     0      -0.631   9.155 -15.663  0.00  0.00     0.139 C 
HETATM   36  O   UNK     0      -0.342   8.007 -15.216  0.00  0.00    -0.650 OA
BRANCH  35  37
HETATM   37  O   UNK     0      -0.735   9.291 -17.042  0.00  0.00    -0.776 OA
HETATM   38  H   UNK     0      -0.806   8.494 -17.654  0.00  0.00     0.167 HD
ENDBRANCH  35  37
ENDBRANCH  34  35
ENDBRANCH  33  34
ENDBRANCH   6  33
BRANCH  27  39
HETATM   39  C   UNK     0      -4.531  13.535 -21.547  0.00  0.00     0.051 C 
BRANCH  39  40
HETATM   40  C   UNK     0      -5.514  14.260 -22.351  0.00  0.00     0.114 C 
BRANCH  40  41
HETATM   41  C   UNK     0      -6.903  14.365 -21.961  0.00  0.00     0.139 C 
HETATM   42  O   UNK     0      -7.339  15.253 -21.217  0.00  0.00    -0.650 OA
BRANCH  41  43
HETATM   43  O   UNK     0      -7.832  13.403 -22.450  0.00  0.00    -0.776 OA
HETATM   44  H   UNK     0      -7.534  12.921 -23.290  0.00  0.00     0.167 HD
ENDBRANCH  41  43
ENDBRANCH  40  41
ENDBRANCH  39  40
ENDBRANCH  27  39
BRANCH  11  45
HETATM   45  C   UNK     0      -4.965   3.816 -18.275  0.00  0.00     0.051 C 
BRANCH  45  46
HETATM   46  C   UNK     0      -3.927   2.754 -18.283  0.00  0.00     0.114 C 
BRANCH  46  47
HETATM   47  C   UNK     0      -4.083   1.992 -19.555  0.00  0.00     0.139 C 
HETATM   48  O   UNK     0      -3.970   2.602 -20.628  0.00  0.00    -0.650 OA
BRANCH  47  49
HETATM   49  O   UNK     0      -4.348   0.646 -19.540  0.00  0.00    -0.776 OA
HETATM   50  H   UNK     0      -3.724  -0.027 -19.080  0.00  0.00     0.167 HD
ENDBRANCH  47  49
ENDBRANCH  46  47
ENDBRANCH  45  46
ENDBRANCH  11  45
BRANCH  18  51
HETATM   51  C   UNK     0      -7.212   8.281 -23.151  0.00  0.00     0.051 C 
BRANCH  51  52
HETATM   52  C   UNK     0      -8.497   8.402 -22.345  0.00  0.00     0.114 C 
BRANCH  52  53
HETATM   53  C   UNK     0      -9.276   9.596 -22.729  0.00  0.00     0.139 C 
HETATM   54  O   UNK     0      -8.884  10.726 -22.397  0.00  0.00    -0.650 OA
BRANCH  53  55
HETATM   55  O   UNK     0     -10.435   9.448 -23.450  0.00  0.00    -0.776 OA
HETATM   56  H   UNK     0     -10.770  10.066 -24.151  0.00  0.00     0.167 HD
ENDBRANCH  53  55
ENDBRANCH  52  53
ENDBRANCH  51  52
ENDBRANCH  18  51
TORSDOF 16
ENDMDL
MODEL 4
REMARK VINA RESULT:      -7.6     21.136     24.831
REMARK  16 active torsions:
REMARK  status: ('A' for Active; 'I' for Inactive)
REMARK    1  A    between atoms: C_6  and  C_7 
REMARK    2  A    between atoms: C_7  and  C_8 
REMARK    3  A    between atoms: C_8  and  C_9 
REMARK    4  A    between atoms: C_9  and  O_11 
REMARK    5  A    between atoms: C_16  and  C_17 
REMARK    6  A    between atoms: C_17  and  C_18 
REMARK    7  A    between atoms: C_18  and  C_19 
REMARK    8  A    between atoms: C_19  and  O_21 
REMARK    9  A    between atoms: C_28  and  C_29 
REMARK   10  A    between atoms: C_29  and  C_30 
REMARK   11  A    between atoms: C_30  and  C_31 
REMARK   12  A    between atoms: C_31  and  O_33 
REMARK   13  A    between atoms: C_42  and  C_43 
REMARK   14  A    between atoms: C_43  and  C_44 
REMARK   15  A    between atoms: C_44  and  C_45 
REMARK   16  A    between atoms: C_45  and  O_47 
ROOT
HETATM    1  C   UNK     0      -4.379   1.126 -22.981  0.00  0.00     0.051 C 
HETATM    2  C   UNK     0      -3.746   2.381 -22.416  0.00  0.00    -0.031 A 
HETATM    3  C   UNK     0      -4.032   3.709 -22.687  0.00  0.00     0.021 A 
HETATM    4  N   UNK     0      -3.192   4.496 -21.974  0.00  0.00    -0.361 N 
HETATM    5  C   UNK     0      -2.382   3.698 -21.248  0.00  0.00     0.022 A 
HETATM    6  C   UNK     0      -2.699   2.368 -21.503  0.00  0.00    -0.027 A 
HETATM    7  C   UNK     0      -1.346   4.065 -20.231  0.00  0.00     0.115 C 
HETATM    8  C   UNK     0      -1.712   5.166 -19.252  0.00  0.00     0.021 A 
HETATM    9  N   UNK     0      -2.907   5.434 -18.703  0.00  0.00    -0.361 N 
HETATM   10  C   UNK     0      -2.787   6.558 -17.966  0.00  0.00     0.022 A 
HETATM   11  C   UNK     0      -1.477   7.023 -18.036  0.00  0.00    -0.027 A 
HETATM   12  C   UNK     0      -0.795   6.151 -18.844  0.00  0.00    -0.031 A 
HETATM   13  C   UNK     0       0.671   6.256 -19.203  0.00  0.00     0.051 C 
HETATM   14  C   UNK     0      -3.910   7.267 -17.214  0.00  0.00     0.115 C 
HETATM   15  C   UNK     0      -5.042   7.749 -18.107  0.00  0.00     0.021 A 
HETATM   16  N   UNK     0      -5.816   7.010 -18.924  0.00  0.00    -0.361 N 
HETATM   17  C   UNK     0      -6.646   7.816 -19.590  0.00  0.00     0.022 A 
HETATM   18  C   UNK     0      -6.408   9.143 -19.180  0.00  0.00    -0.027 A 
HETATM   19  C   UNK     0      -5.402   9.087 -18.251  0.00  0.00    -0.031 A 
HETATM   20  C   UNK     0      -4.858  10.303 -17.522  0.00  0.00     0.051 C 
HETATM   21  C   UNK     0      -7.656   7.495 -20.668  0.00  0.00     0.115 C 
HETATM   22  C   UNK     0      -7.324   6.371 -21.622  0.00  0.00     0.022 A 
HETATM   23  N   UNK     0      -6.143   6.079 -22.181  0.00  0.00    -0.361 N 
HETATM   24  C   UNK     0      -6.267   4.913 -22.847  0.00  0.00     0.021 A 
HETATM   25  C   UNK     0      -7.562   4.448 -22.721  0.00  0.00    -0.031 A 
HETATM   26  C   UNK     0      -8.192   3.208 -23.321  0.00  0.00     0.051 C 
HETATM   27  C   UNK     0      -8.258   5.365 -21.942  0.00  0.00    -0.027 A 
HETATM   28  C   UNK     0      -5.178   4.131 -23.562  0.00  0.00     0.115 C 
HETATM   29  H   UNK     0      -3.151   5.609 -22.018  0.00  0.00     0.165 HD
HETATM   30  H   UNK     0      -3.825   4.802 -18.792  0.00  0.00     0.165 HD
HETATM   31  H   UNK     0      -5.809   5.891 -18.998  0.00  0.00     0.165 HD
HETATM   32  H   UNK     0      -5.221   6.716 -22.148  0.00  0.00     0.165 HD
ENDROOT
BRANCH   6  33
HETATM   33  C   UNK     0      -2.090   1.103 -20.954  0.00  0.00     0.051 C 
BRANCH  33  34
HETATM   34  C   UNK     0      -1.936   1.190 -19.454  0.00  0.00     0.114 C 
BRANCH  34  35
HETATM   35  C   UNK     0      -3.303   1.311 -18.871  0.00  0.00     0.139 C 
HETATM   36  O   UNK     0      -3.608   2.315 -18.164  0.00  0.00    -0.650 OA
BRANCH  35  37
HETATM   37  O   UNK     0      -4.290   0.354 -19.071  0.00  0.00    -0.776 OA
HETATM   38  H   UNK     0      -4.344  -0.483 -18.513  0.00  0.00     0.167 HD
ENDBRANCH  35  37
ENDBRANCH  34  35
ENDBRANCH  33  34
ENDBRANCH   6  33
BRANCH  27  39
HETATM   39  C   UNK     0      -9.711   5.239 -21.646  0.00  0.00     0.051 C 
BRANCH  39  40
HETATM   40  C   UNK     0     -10.629   6.199 -22.257  0.00  0.00     0.114 C 
BRANCH  40  41
HETATM   41  C   UNK     0     -10.280   6.955 -23.439  0.00  0.00     0.139 C 
HETATM   42  O   UNK     0     -10.160   8.187 -23.452  0.00  0.00    -0.650 OA
BRANCH  41  43
HETATM   43  O   UNK     0     -10.059   6.261 -24.662  0.00  0.00    -0.776 OA
HETATM   44  H   UNK     0     -10.118   6.842 -25.490  0.00  0.00     0.167 HD
ENDBRANCH  41  43
ENDBRANCH  40  41
ENDBRANCH  39  40
ENDBRANCH  27  39
BRANCH  11  45
HETATM   45  C   UNK     0      -0.871   8.232 -17.376  0.00  0.00     0.051 C 
BRANCH  45  46
HETATM   46  C   UNK     0      -0.401   7.993 -15.987  0.00  0.00     0.114 C 
BRANCH  46  47
HETATM   47  C   UNK     0      -1.095   8.979 -15.110  0.00  0.00     0.139 C 
HETATM   48  O   UNK     0      -0.560  10.080 -14.916  0.00  0.00    -0.650 OA
BRANCH  47  49
HETATM   49  O   UNK     0      -2.300   8.676 -14.528  0.00  0.00    -0.776 OA
HETATM   50  H   UNK     0      -2.947   9.405 -14.203  0.00  0.00     0.167 HD
ENDBRANCH  47  49
ENDBRANCH  46  47
ENDBRANCH  45  46
ENDBRANCH  11  45
BRANCH  18  51
HETATM   51  C   UNK     0      -7.115  10.393 -19.634  0.00  0.00     0.051 C 
BRANCH  51  52
HETATM   52  C   UNK     0      -6.380  10.871 -20.878  0.00  0.00     0.114 C 
BRANCH  52  53
HETATM   53  C   UNK     0      -7.165  10.633 -22.105  0.00  0.00     0.139 C 
HETATM   54  O   UNK     0      -8.273  11.174 -22.249  0.00  0.00    -0.650 OA
BRANCH  53  55
HETATM   55  O   UNK     0      -6.665   9.808 -23.083  0.00  0.00    -0.776 OA
HETATM   56  H   UNK     0      -6.925   9.813 -24.041  0.00  0.00     0.167 HD
ENDBRANCH  53  55
ENDBRANCH  52  53
ENDBRANCH  51  52
ENDBRANCH  18  51
TORSDOF 16
ENDMDL
MODEL 5
REMARK VINA RESULT:      -7.5      2.123      2.687
REMARK  16 active torsions:
REMARK  status: ('A' for Active; 'I' for Inactive)
REMARK    1  A    between atoms: C_6  and  C_7 
REMARK    2  A    between atoms: C_7  and  C_8 
REMARK    3  A    between atoms: C_8  and  C_9 
REMARK    4  A    between atoms: C_9  and  O_11 
REMARK    5  A    between atoms: C_16  and  C_17 
REMARK    6  A    between atoms: C_17  and  C_18 
REMARK    7  A    between atoms: C_18  and  C_19 
REMARK    8  A    between atoms: C_19  and  O_21 
REMARK    9  A    between atoms: C_28  and  C_29 
REMARK   10  A    between atoms: C_29  and  C_30 
REMARK   11  A    between atoms: C_30  and  C_31 
REMARK   12  A    between atoms: C_31  and  O_33 
REMARK   13  A    between atoms: C_42  and  C_43 
REMARK   14  A    between atoms: C_43  and  C_44 
REMARK   15  A    between atoms: C_44  and  C_45 
REMARK   16  A    between atoms: C_45  and  O_47 
ROOT
HETATM    1  C   UNK     0       1.027 -10.664  -4.762  0.00  0.00     0.051 C 
HETATM    2  C   UNK     0       2.478 -11.092  -4.851  0.00  0.00    -0.031 A 
HETATM    3  C   UNK     0       3.028 -12.221  -5.438  0.00  0.00     0.021 A 
HETATM    4  N   UNK     0       4.369 -12.208  -5.249  0.00  0.00    -0.361 N 
HETATM    5  C   UNK     0       4.686 -11.091  -4.563  0.00  0.00     0.022 A 
HETATM    6  C   UNK     0       3.527 -10.371  -4.295  0.00  0.00    -0.027 A 
HETATM    7  C   UNK     0       6.032 -10.558  -4.182  0.00  0.00     0.115 C 
HETATM    8  C   UNK     0       7.120 -10.634  -5.239  0.00  0.00     0.021 A 
HETATM    9  N   UNK     0       7.006 -10.485  -6.568  0.00  0.00    -0.361 N 
HETATM   10  C   UNK     0       8.213 -10.726  -7.122  0.00  0.00     0.022 A 
HETATM   11  C   UNK     0       9.132 -11.030  -6.121  0.00  0.00    -0.027 A 
HETATM   12  C   UNK     0       8.450 -10.973  -4.933  0.00  0.00    -0.031 A 
HETATM   13  C   UNK     0       9.049 -11.228  -3.568  0.00  0.00     0.051 C 
HETATM   14  C   UNK     0       8.535 -10.733  -8.613  0.00  0.00     0.115 C 
HETATM   15  C   UNK     0       7.756 -11.769  -9.407  0.00  0.00     0.021 A 
HETATM   16  N   UNK     0       6.419 -11.886  -9.515  0.00  0.00    -0.361 N 
HETATM   17  C   UNK     0       6.131 -12.967 -10.244  0.00  0.00     0.022 A 
HETATM   18  C   UNK     0       7.338 -13.578 -10.638  0.00  0.00    -0.027 A 
HETATM   19  C   UNK     0       8.348 -12.817 -10.109  0.00  0.00    -0.031 A 
HETATM   20  C   UNK     0       9.823 -13.105 -10.324  0.00  0.00     0.051 C 
HETATM   21  C   UNK     0       4.791 -13.574 -10.595  0.00  0.00     0.115 C 
HETATM   22  C   UNK     0       3.687 -13.467  -9.569  0.00  0.00     0.022 A 
HETATM   23  N   UNK     0       3.772 -13.606  -8.240  0.00  0.00    -0.361 N 
HETATM   24  C   UNK     0       2.578 -13.285  -7.703  0.00  0.00     0.021 A 
HETATM   25  C   UNK     0       1.699 -12.941  -8.712  0.00  0.00    -0.031 A 
HETATM   26  C   UNK     0       0.240 -12.547  -8.612  0.00  0.00     0.051 C 
HETATM   27  C   UNK     0       2.386 -13.049  -9.916  0.00  0.00    -0.027 A 
HETATM   28  C   UNK     0       2.213 -13.203  -6.231  0.00  0.00     0.115 C 
HETATM   29  H   UNK     0       5.076 -13.008  -5.568  0.00  0.00     0.165 HD
HETATM   30  H   UNK     0       6.086 -10.161  -7.114  0.00  0.00     0.165 HD
HETATM   31  H   UNK     0       5.663 -11.165  -9.108  0.00  0.00     0.165 HD
HETATM   32  H   UNK     0       4.665 -13.975  -7.671  0.00  0.00     0.165 HD
ENDROOT
BRANCH   6  33
HETATM   33  C   UNK     0       3.342  -9.069  -3.558  0.00  0.00     0.051 C 
BRANCH  33  34
HETATM   34  C   UNK     0       3.535  -7.895  -4.489  0.00  0.00     0.114 C 
BRANCH  34  35
HETATM   35  C   UNK     0       4.228  -6.823  -3.718  0.00  0.00     0.139 C 
HETATM   36  O   UNK     0       4.437  -6.964  -2.478  0.00  0.00    -0.650 OA
BRANCH  35  37
HETATM   37  O   UNK     0       4.672  -5.645  -4.306  0.00  0.00    -0.776 OA
HETATM   38  H   UNK     0       4.461  -4.741  -3.917  0.00  0.00     0.167 HD
ENDBRANCH  35  37
ENDBRANCH  34  35
ENDBRANCH  33  34
ENDBRANCH   6  33
BRANCH  27  39
HETATM   39  C   UNK     0       1.743 -12.825 -11.239  0.00  0.00     0.051 C 
BRANCH  39  40
HETATM   40  C   UNK     0       2.389 -11.908 -12.178  0.00  0.00     0.114 C 
BRANCH  40  41
HETATM   41  C   UNK     0       2.883 -12.344 -13.464  0.00  0.00     0.139 C 
HETATM   42  O   UNK     0       2.963 -13.534 -13.798  0.00  0.00    -0.650 OA
BRANCH  41  43
HETATM   43  O   UNK     0       3.305 -11.367 -14.410  0.00  0.00    -0.776 OA
HETATM   44  H   UNK     0       3.853 -10.612 -14.016  0.00  0.00     0.167 HD
ENDBRANCH  41  43
ENDBRANCH  40  41
ENDBRANCH  39  40
ENDBRANCH  27  39
BRANCH  11  45
HETATM   45  C   UNK     0      10.594 -11.359  -6.255  0.00  0.00     0.051 C 
BRANCH  45  46
HETATM   46  C   UNK     0      10.878 -12.810  -6.400  0.00  0.00     0.114 C 
BRANCH  46  47
HETATM   47  C   UNK     0      11.667 -13.228  -5.206  0.00  0.00     0.139 C 
HETATM   48  O   UNK     0      12.293 -12.362  -4.577  0.00  0.00    -0.650 OA
BRANCH  47  49
HETATM   49  O   UNK     0      11.703 -14.541  -4.812  0.00  0.00    -0.776 OA
HETATM   50  H   UNK     0      12.525 -15.136  -4.971  0.00  0.00     0.167 HD
ENDBRANCH  47  49
ENDBRANCH  46  47
ENDBRANCH  45  46
ENDBRANCH  11  45
BRANCH  18  51
HETATM   51  C   UNK     0       7.519 -14.806 -11.491  0.00  0.00     0.051 C 
BRANCH  51  52
HETATM   52  C   UNK     0       7.787 -14.309 -12.904  0.00  0.00     0.114 C 
BRANCH  52  53
HETATM   53  C   UNK     0       6.536 -14.064 -13.647  0.00  0.00     0.139 C 
HETATM   54  O   UNK     0       6.343 -12.968 -14.195  0.00  0.00    -0.650 OA
BRANCH  53  55
HETATM   55  O   UNK     0       5.586 -15.054 -13.724  0.00  0.00    -0.776 OA
HETATM   56  H   UNK     0       5.320 -15.667 -12.989  0.00  0.00     0.167 HD
ENDBRANCH  53  55
ENDBRANCH  52  53
ENDBRANCH  51  52
ENDBRANCH  18  51
TORSDOF 16
ENDMDL
MODEL 6
REMARK VINA RESULT:      -7.5      1.728      2.119
REMARK  16 active torsions:
REMARK  status: ('A' for Active; 'I' for Inactive)
REMARK    1  A    between atoms: C_6  and  C_7 
REMARK    2  A    between atoms: C_7  and  C_8 
REMARK    3  A    between atoms: C_8  and  C_9 
REMARK    4  A    between atoms: C_9  and  O_11 
REMARK    5  A    between atoms: C_16  and  C_17 
REMARK    6  A    between atoms: C_17  and  C_18 
REMARK    7  A    between atoms: C_18  and  C_19 
REMARK    8  A    between atoms: C_19  and  O_21 
REMARK    9  A    between atoms: C_28  and  C_29 
REMARK   10  A    between atoms: C_29  and  C_30 
REMARK   11  A    between atoms: C_30  and  C_31 
REMARK   12  A    between atoms: C_31  and  O_33 
REMARK   13  A    between atoms: C_42  and  C_43 
REMARK   14  A    between atoms: C_43  and  C_44 
REMARK   15  A    between atoms: C_44  and  C_45 
REMARK   16  A    between atoms: C_45  and  O_47 
ROOT
HETATM    1  C   UNK     0       1.169 -11.101  -4.784  0.00  0.00     0.051 C 
HETATM    2  C   UNK     0       2.666 -11.277  -4.929  0.00  0.00    -0.031 A 
HETATM    3  C   UNK     0       3.375 -12.209  -5.672  0.00  0.00     0.021 A 
HETATM    4  N   UNK     0       4.700 -12.012  -5.479  0.00  0.00    -0.361 N 
HETATM    5  C   UNK     0       4.853 -10.969  -4.636  0.00  0.00     0.022 A 
HETATM    6  C   UNK     0       3.600 -10.488  -4.270  0.00  0.00    -0.027 A 
HETATM    7  C   UNK     0       6.106 -10.292  -4.177  0.00  0.00     0.115 C 
HETATM    8  C   UNK     0       7.171 -10.042  -5.230  0.00  0.00     0.021 A 
HETATM    9  N   UNK     0       7.009  -9.723  -6.523  0.00  0.00    -0.361 N 
HETATM   10  C   UNK     0       8.228  -9.688  -7.102  0.00  0.00     0.022 A 
HETATM   11  C   UNK     0       9.202  -9.984  -6.154  0.00  0.00    -0.027 A 
HETATM   12  C   UNK     0       8.543 -10.207  -4.972  0.00  0.00    -0.031 A 
HETATM   13  C   UNK     0       9.202 -10.558  -3.657  0.00  0.00     0.051 C 
HETATM   14  C   UNK     0       8.518  -9.428  -8.578  0.00  0.00     0.115 C 
HETATM   15  C   UNK     0       7.895 -10.449  -9.517  0.00  0.00     0.021 A 
HETATM   16  N   UNK     0       6.591 -10.759  -9.645  0.00  0.00    -0.361 N 
HETATM   17  C   UNK     0       6.462 -11.755 -10.525  0.00  0.00     0.022 A 
HETATM   18  C   UNK     0       7.742 -12.104 -10.999  0.00  0.00    -0.027 A 
HETATM   19  C   UNK     0       8.630 -11.278 -10.361  0.00  0.00    -0.031 A 
HETATM   20  C   UNK     0      10.127 -11.295 -10.611  0.00  0.00     0.051 C 
HETATM   21  C   UNK     0       5.227 -12.509 -10.965  0.00  0.00     0.115 C 
HETATM   22  C   UNK     0       4.140 -12.726  -9.939  0.00  0.00     0.022 A 
HETATM   23  N   UNK     0       4.272 -13.041  -8.643  0.00  0.00    -0.361 N 
HETATM   24  C   UNK     0       3.053 -12.993  -8.069  0.00  0.00     0.021 A 
HETATM   25  C   UNK     0       2.112 -12.650  -9.021  0.00  0.00    -0.031 A 
HETATM   26  C   UNK     0       0.611 -12.510  -8.869  0.00  0.00     0.051 C 
HETATM   27  C   UNK     0       2.783 -12.474 -10.225  0.00  0.00    -0.027 A 
HETATM   28  C   UNK     0       2.708 -13.183  -6.602  0.00  0.00     0.115 C 
HETATM   29  H   UNK     0       5.519 -12.635  -5.908  0.00  0.00     0.165 HD
HETATM   30  H   UNK     0       6.039  -9.472  -7.020  0.00  0.00     0.165 HD
HETATM   31  H   UNK     0       5.740 -10.233  -9.141  0.00  0.00     0.165 HD
HETATM   32  H   UNK     0       5.223 -13.342  -8.131  0.00  0.00     0.165 HD
ENDROOT
BRANCH   6  33
HETATM   33  C   UNK     0       3.228  -9.351  -3.352  0.00  0.00     0.051 C 
BRANCH  33  34
HETATM   34  C   UNK     0       3.180  -8.045  -4.110  0.00  0.00     0.114 C 
BRANCH  34  35
HETATM   35  C   UNK     0       4.367  -7.244  -3.694  0.00  0.00     0.139 C 
HETATM   36  O   UNK     0       4.517  -6.910  -2.483  0.00  0.00    -0.650 OA
BRANCH  35  37
HETATM   37  O   UNK     0       5.347  -6.836  -4.590  0.00  0.00    -0.776 OA
HETATM   38  H   UNK     0       6.267  -7.247  -4.600  0.00  0.00     0.167 HD
ENDBRANCH  35  37
ENDBRANCH  34  35
ENDBRANCH  33  34
ENDBRANCH   6  33
BRANCH  27  39
HETATM   39  C   UNK     0       2.087 -12.165 -11.504  0.00  0.00     0.051 C 
BRANCH  39  40
HETATM   40  C   UNK     0       2.102 -13.174 -12.563  0.00  0.00     0.114 C 
BRANCH  40  41
HETATM   41  C   UNK     0       2.265 -12.825 -13.957  0.00  0.00     0.139 C 
HETATM   42  O   UNK     0       1.746 -13.460 -14.885  0.00  0.00    -0.650 OA
BRANCH  41  43
HETATM   43  O   UNK     0       3.061 -11.695 -14.298  0.00  0.00    -0.776 OA
HETATM   44  H   UNK     0       3.930 -11.921 -14.767  0.00  0.00     0.167 HD
ENDBRANCH  41  43
ENDBRANCH  40  41
ENDBRANCH  39  40
ENDBRANCH  27  39
BRANCH  11  45
HETATM   45  C   UNK     0      10.695 -10.055  -6.328  0.00  0.00     0.051 C 
BRANCH  45  46
HETATM   46  C   UNK     0      11.334  -8.748  -6.627  0.00  0.00     0.114 C 
BRANCH  46  47
HETATM   47  C   UNK     0      12.580  -8.669  -5.812  0.00  0.00     0.139 C 
HETATM   48  O   UNK     0      12.526  -8.984  -4.615  0.00  0.00    -0.650 OA
BRANCH  47  49
HETATM   49  O   UNK     0      13.762  -8.255  -6.373  0.00  0.00    -0.776 OA
HETATM   50  H   UNK     0      14.643  -8.762  -6.225  0.00  0.00     0.167 HD
ENDBRANCH  47  49
ENDBRANCH  46  47
ENDBRANCH  45  46
ENDBRANCH  11  45
BRANCH  18  51
HETATM   51  C   UNK     0       8.096 -13.153 -12.021  0.00  0.00     0.051 C 
BRANCH  51  52
HETATM   52  C   UNK     0       7.935 -12.494 -13.383  0.00  0.00     0.114 C 
BRANCH  52  53
HETATM   53  C   UNK     0       6.843 -13.106 -14.164  0.00  0.00     0.139 C 
HETATM   54  O   UNK     0       5.959 -12.391 -14.664  0.00  0.00    -0.650 OA
BRANCH  53  55
HETATM   55  O   UNK     0       6.808 -14.469 -14.331  0.00  0.00    -0.776 OA
HETATM   56  H   UNK     0       7.023 -14.961 -15.166  0.00  0.00     0.167 HD
ENDBRANCH  53  55
ENDBRANCH  52  53
ENDBRANCH  51  52
ENDBRANCH  18  51
TORSDOF 16
ENDMDL
MODEL 7
REMARK VINA RESULT:      -7.5      2.563      7.186
REMARK  16 active torsions:
REMARK  status: ('A' for Active; 'I' for Inactive)
REMARK    1  A    between atoms: C_6  and  C_7 
REMARK    2  A    between atoms: C_7  and  C_8 
REMARK    3  A    between atoms: C_8  and  C_9 
REMARK    4  A    between atoms: C_9  and  O_11 
REMARK    5  A    between atoms: C_16  and  C_17 
REMARK    6  A    between atoms: C_17  and  C_18 
REMARK    7  A    between atoms: C_18  and  C_19 
REMARK    8  A    between atoms: C_19  and  O_21 
REMARK    9  A    between atoms: C_28  and  C_29 
REMARK   10  A    between atoms: C_29  and  C_30 
REMARK   11  A    between atoms: C_30  and  C_31 
REMARK   12  A    between atoms: C_31  and  O_33 
REMARK   13  A    between atoms: C_42  and  C_43 
REMARK   14  A    between atoms: C_43  and  C_44 
REMARK   15  A    between atoms: C_44  and  C_45 
REMARK   16  A    between atoms: C_45  and  O_47 
ROOT
HETATM    1  C   UNK     0       7.145  -8.579  -3.287  0.00  0.00     0.051 C 
HETATM    2  C   UNK     0       6.760  -9.029  -4.682  0.00  0.00    -0.031 A 
HETATM    3  C   UNK     0       7.565  -9.257  -5.787  0.00  0.00     0.021 A 
HETATM    4  N   UNK     0       6.785  -9.617  -6.834  0.00  0.00    -0.361 N 
HETATM    5  C   UNK     0       5.502  -9.632  -6.418  0.00  0.00     0.022 A 
HETATM    6  C   UNK     0       5.449  -9.266  -5.077  0.00  0.00    -0.027 A 
HETATM    7  C   UNK     0       4.267 -10.049  -7.155  0.00  0.00     0.115 C 
HETATM    8  C   UNK     0       4.370 -11.306  -8.000  0.00  0.00     0.021 A 
HETATM    9  N   UNK     0       5.071 -12.424  -7.754  0.00  0.00    -0.361 N 
HETATM   10  C   UNK     0       4.943 -13.242  -8.820  0.00  0.00     0.022 A 
HETATM   11  C   UNK     0       4.129 -12.639  -9.774  0.00  0.00    -0.027 A 
HETATM   12  C   UNK     0       3.764 -11.420  -9.264  0.00  0.00    -0.031 A 
HETATM   13  C   UNK     0       2.872 -10.414  -9.956  0.00  0.00     0.051 C 
HETATM   14  C   UNK     0       5.622 -14.596  -9.004  0.00  0.00     0.115 C 
HETATM   15  C   UNK     0       7.141 -14.528  -9.004  0.00  0.00     0.021 A 
HETATM   16  N   UNK     0       7.942 -14.060  -8.029  0.00  0.00    -0.361 N 
HETATM   17  C   UNK     0       9.210 -14.107  -8.443  0.00  0.00     0.022 A 
HETATM   18  C   UNK     0       9.238 -14.641  -9.747  0.00  0.00    -0.027 A 
HETATM   19  C   UNK     0       7.935 -14.901 -10.086  0.00  0.00    -0.031 A 
HETATM   20  C   UNK     0       7.515 -15.523 -11.406  0.00  0.00     0.051 C 
HETATM   21  C   UNK     0      10.474 -13.637  -7.759  0.00  0.00     0.115 C 
HETATM   22  C   UNK     0      10.377 -12.412  -6.880  0.00  0.00     0.022 A 
HETATM   23  N   UNK     0       9.683 -11.287  -7.097  0.00  0.00    -0.361 N 
HETATM   24  C   UNK     0       9.762 -10.521  -5.991  0.00  0.00     0.021 A 
HETATM   25  C   UNK     0      10.534 -11.163  -5.042  0.00  0.00    -0.031 A 
HETATM   26  C   UNK     0      10.941 -10.687  -3.663  0.00  0.00     0.051 C 
HETATM   27  C   UNK     0      10.939 -12.375  -5.588  0.00  0.00    -0.027 A 
HETATM   28  C   UNK     0       9.065  -9.197  -5.725  0.00  0.00     0.115 C 
HETATM   29  H   UNK     0       7.143  -9.820  -7.870  0.00  0.00     0.165 HD
HETATM   30  H   UNK     0       5.618 -12.659  -6.808  0.00  0.00     0.165 HD
HETATM   31  H   UNK     0       7.611 -13.733  -7.009  0.00  0.00     0.165 HD
HETATM   32  H   UNK     0       9.166 -11.004  -8.051  0.00  0.00     0.165 HD
ENDROOT
BRANCH   6  33
HETATM   33  C   UNK     0       4.264  -9.123  -4.156  0.00  0.00     0.051 C 
BRANCH  33  34
HETATM   34  C   UNK     0       3.500  -7.856  -4.460  0.00  0.00     0.114 C 
BRANCH  34  35
HETATM   35  C   UNK     0       4.167  -6.745  -3.721  0.00  0.00     0.139 C 
HETATM   36  O   UNK     0       4.307  -6.809  -2.465  0.00  0.00    -0.650 OA
BRANCH  35  37
HETATM   37  O   UNK     0       4.659  -5.612  -4.358  0.00  0.00    -0.776 OA
HETATM   38  H   UNK     0       4.051  -4.937  -4.793  0.00  0.00     0.167 HD
ENDBRANCH  35  37
ENDBRANCH  34  35
ENDBRANCH  33  34
ENDBRANCH   6  33
BRANCH  27  39
HETATM   39  C   UNK     0      11.850 -13.318  -4.883  0.00  0.00     0.051 C 
BRANCH  39  40
HETATM   40  C   UNK     0      11.256 -14.390  -4.084  0.00  0.00     0.114 C 
BRANCH  40  41
HETATM   41  C   UNK     0       9.849 -14.416  -3.754  0.00  0.00     0.139 C 
HETATM   42  O   UNK     0       9.371 -13.858  -2.757  0.00  0.00    -0.650 OA
BRANCH  41  43
HETATM   43  O   UNK     0       8.951 -15.115  -4.609  0.00  0.00    -0.776 OA
HETATM   44  H   UNK     0       8.018 -14.723  -4.648  0.00  0.00     0.167 HD
ENDBRANCH  41  43
ENDBRANCH  40  41
ENDBRANCH  39  40
ENDBRANCH  27  39
BRANCH  11  45
HETATM   45  C   UNK     0       3.696 -13.171 -11.115  0.00  0.00     0.051 C 
BRANCH  45  46
HETATM   46  C   UNK     0       2.228 -13.352 -11.250  0.00  0.00     0.114 C 
BRANCH  46  47
HETATM   47  C   UNK     0       1.841 -12.831 -12.592  0.00  0.00     0.139 C 
HETATM   48  O   UNK     0       2.239 -13.435 -13.599  0.00  0.00    -0.650 OA
BRANCH  47  49
HETATM   49  O   UNK     0       1.062 -11.708 -12.713  0.00  0.00    -0.776 OA
HETATM   50  H   UNK     0       0.417 -11.574 -13.500  0.00  0.00     0.167 HD
ENDBRANCH  47  49
ENDBRANCH  46  47
ENDBRANCH  45  46
ENDBRANCH  11  45
BRANCH  18  51
HETATM   51  C   UNK     0      10.441 -14.908 -10.613  0.00  0.00     0.051 C 
BRANCH  51  52
HETATM   52  C   UNK     0      10.340 -13.949 -11.790  0.00  0.00     0.114 C 
BRANCH  52  53
HETATM   53  C   UNK     0      10.443 -12.540 -11.361  0.00  0.00     0.139 C 
HETATM   54  O   UNK     0      11.489 -12.126 -10.837  0.00  0.00    -0.650 OA
BRANCH  53  55
HETATM   55  O   UNK     0       9.376 -11.694 -11.543  0.00  0.00    -0.776 OA
HETATM   56  H   UNK     0       8.471 -11.955 -11.857  0.00  0.00     0.167 HD
ENDBRANCH  53  55
ENDBRANCH  52  53
ENDBRANCH  51  52
ENDBRANCH  18  51
TORSDOF 16
ENDMDL
MODEL 8
REMARK VINA RESULT:      -7.5     21.980     25.994
REMARK  16 active torsions:
REMARK  status: ('A' for Active; 'I' for Inactive)
REMARK    1  A    between atoms: C_6  and  C_7 
REMARK    2  A    between atoms: C_7  and  C_8 
REMARK    3  A    between atoms: C_8  and  C_9 
REMARK    4  A    between atoms: C_9  and  O_11 
REMARK    5  A    between atoms: C_16  and  C_17 
REMARK    6  A    between atoms: C_17  and  C_18 
REMARK    7  A    between atoms: C_18  and  C_19 
REMARK    8  A    between atoms: C_19  and  O_21 
REMARK    9  A    between atoms: C_28  and  C_29 
REMARK   10  A    between atoms: C_29  and  C_30 
REMARK   11  A    between atoms: C_30  and  C_31 
REMARK   12  A    between atoms: C_31  and  O_33 
REMARK   13  A    between atoms: C_42  and  C_43 
REMARK   14  A    between atoms: C_43  and  C_44 
REMARK   15  A    between atoms: C_44  and  C_45 
REMARK   16  A    between atoms: C_45  and  O_47 
ROOT
HETATM    1  C   UNK     0      15.008  17.720  -8.334  0.00  0.00     0.051 C 
HETATM    2  C   UNK     0      13.700  17.335  -8.996  0.00  0.00    -0.031 A 
HETATM    3  C   UNK     0      13.472  16.483 -10.064  0.00  0.00     0.021 A 
HETATM    4  N   UNK     0      12.146  16.463 -10.338  0.00  0.00    -0.361 N 
HETATM    5  C   UNK     0      11.523  17.277  -9.461  0.00  0.00     0.022 A 
HETATM    6  C   UNK     0      12.466  17.842  -8.609  0.00  0.00    -0.027 A 
HETATM    7  C   UNK     0      10.060  17.535  -9.275  0.00  0.00     0.115 C 
HETATM    8  C   UNK     0       9.142  16.326  -9.335  0.00  0.00     0.021 A 
HETATM    9  N   UNK     0       9.375  15.078  -8.902  0.00  0.00    -0.361 N 
HETATM   10  C   UNK     0       8.318  14.311  -9.245  0.00  0.00     0.022 A 
HETATM   11  C   UNK     0       7.374  15.090  -9.909  0.00  0.00    -0.027 A 
HETATM   12  C   UNK     0       7.887  16.361  -9.969  0.00  0.00    -0.031 A 
HETATM   13  C   UNK     0       7.202  17.551 -10.601  0.00  0.00     0.051 C 
HETATM   14  C   UNK     0       8.178  12.810  -9.008  0.00  0.00     0.115 C 
HETATM   15  C   UNK     0       9.244  11.976  -9.700  0.00  0.00     0.021 A 
HETATM   16  N   UNK     0      10.579  12.056  -9.544  0.00  0.00    -0.361 N 
HETATM   17  C   UNK     0      11.171  11.202 -10.382  0.00  0.00     0.022 A 
HETATM   18  C   UNK     0      10.173  10.526 -11.113  0.00  0.00    -0.027 A 
HETATM   19  C   UNK     0       8.971  11.019 -10.676  0.00  0.00    -0.031 A 
HETATM   20  C   UNK     0       7.625  10.533 -11.181  0.00  0.00     0.051 C 
HETATM   21  C   UNK     0      12.639  10.960 -10.647  0.00  0.00     0.115 C 
HETATM   22  C   UNK     0      13.570  12.145 -10.548  0.00  0.00     0.022 A 
HETATM   23  N   UNK     0      13.364  13.401 -10.967  0.00  0.00    -0.361 N 
HETATM   24  C   UNK     0      14.394  14.162 -10.546  0.00  0.00     0.021 A 
HETATM   25  C   UNK     0      15.290  13.376  -9.848  0.00  0.00    -0.031 A 
HETATM   26  C   UNK     0      16.612  13.767  -9.220  0.00  0.00     0.051 C 
HETATM   27  C   UNK     0      14.785  12.081  -9.836  0.00  0.00    -0.027 A 
HETATM   28  C   UNK     0      14.561  15.664 -10.698  0.00  0.00     0.115 C 
HETATM   29  H   UNK     0      11.664  15.904 -11.173  0.00  0.00     0.165 HD
HETATM   30  H   UNK     0      10.262  14.745  -8.309  0.00  0.00     0.165 HD
HETATM   31  H   UNK     0      11.114  12.694  -8.793  0.00  0.00     0.165 HD
HETATM   32  H   UNK     0      12.509  13.752 -11.601  0.00  0.00     0.165 HD
ENDROOT
BRANCH   6  33
HETATM   33  C   UNK     0      12.286  18.815  -7.471  0.00  0.00     0.051 C 
BRANCH  33  34
HETATM   34  C   UNK     0      11.975  18.085  -6.186  0.00  0.00     0.114 C 
BRANCH  34  35
HETATM   35  C   UNK     0      10.609  18.500  -5.757  0.00  0.00     0.139 C 
HETATM   36  O   UNK     0      10.053  19.507  -6.284  0.00  0.00    -0.650 OA
BRANCH  35  37
HETATM   37  O   UNK     0       9.891  17.818  -4.781  0.00  0.00    -0.776 OA
HETATM   38  H   UNK     0      10.331  17.452  -3.952  0.00  0.00     0.167 HD
ENDBRANCH  35  37
ENDBRANCH  34  35
ENDBRANCH  33  34
ENDBRANCH   6  33
BRANCH  27  39
HETATM   39  C   UNK     0      15.515  10.932  -9.233  0.00  0.00     0.051 C 
BRANCH  39  40
HETATM   40  C   UNK     0      15.866   9.804 -10.095  0.00  0.00     0.114 C 
BRANCH  40  41
HETATM   41  C   UNK     0      16.994   8.944  -9.817  0.00  0.00     0.139 C 
HETATM   42  O   UNK     0      17.103   8.273  -8.782  0.00  0.00    -0.650 OA
BRANCH  41  43
HETATM   43  O   UNK     0      18.044   8.850 -10.774  0.00  0.00    -0.776 OA
HETATM   44  H   UNK     0      18.623   8.025 -10.681  0.00  0.00     0.167 HD
ENDBRANCH  41  43
ENDBRANCH  40  41
ENDBRANCH  39  40
ENDBRANCH  27  39
BRANCH  11  45
HETATM   45  C   UNK     0       6.039  14.678 -10.469  0.00  0.00     0.051 C 
BRANCH  45  46
HETATM   46  C   UNK     0       6.116  14.030 -11.803  0.00  0.00     0.114 C 
BRANCH  46  47
HETATM   47  C   UNK     0       4.818  13.332 -12.030  0.00  0.00     0.139 C 
HETATM   48  O   UNK     0       3.786  13.836 -11.566  0.00  0.00    -0.650 OA
BRANCH  47  49
HETATM   49  O   UNK     0       4.767  12.156 -12.736  0.00  0.00    -0.776 OA
HETATM   50  H   UNK     0       4.756  12.137 -13.762  0.00  0.00     0.167 HD
ENDBRANCH  47  49
ENDBRANCH  46  47
ENDBRANCH  45  46
ENDBRANCH  11  45
BRANCH  18  51
HETATM   51  C   UNK     0      10.355   9.454 -12.156  0.00  0.00     0.051 C 
BRANCH  51  52
HETATM   52  C   UNK     0      10.437   8.135 -11.401  0.00  0.00     0.114 C 
BRANCH  52  53
HETATM   53  C   UNK     0      11.658   7.381 -11.743  0.00  0.00     0.139 C 
HETATM   54  O   UNK     0      11.737   6.785 -12.829  0.00  0.00    -0.650 OA
BRANCH  53  55
HETATM   55  O   UNK     0      12.704   7.342 -10.853  0.00  0.00    -0.776 OA
HETATM   56  H   UNK     0      13.669   7.365 -11.084  0.00  0.00     0.167 HD
ENDBRANCH  53  55
ENDBRANCH  52  53
ENDBRANCH  51  52
ENDBRANCH  18  51
TORSDOF 16
ENDMDL
MODEL 9
REMARK VINA RESULT:      -7.3     21.640     25.451
REMARK  16 active torsions:
REMARK  status: ('A' for Active; 'I' for Inactive)
REMARK    1  A    between atoms: C_6  and  C_7 
REMARK    2  A    between atoms: C_7  and  C_8 
REMARK    3  A    between atoms: C_8  and  C_9 
REMARK    4  A    between atoms: C_9  and  O_11 
REMARK    5  A    between atoms: C_16  and  C_17 
REMARK    6  A    between atoms: C_17  and  C_18 
REMARK    7  A    between atoms: C_18  and  C_19 
REMARK    8  A    between atoms: C_19  and  O_21 
REMARK    9  A    between atoms: C_28  and  C_29 
REMARK   10  A    between atoms: C_29  and  C_30 
REMARK   11  A    between atoms: C_30  and  C_31 
REMARK   12  A    between atoms: C_31  and  O_33 
REMARK   13  A    between atoms: C_42  and  C_43 
REMARK   14  A    between atoms: C_43  and  C_44 
REMARK   15  A    between atoms: C_44  and  C_45 
REMARK   16  A    between atoms: C_45  and  O_47 
ROOT
HETATM    1  C   UNK     0      11.431  17.207  -6.998  0.00  0.00     0.051 C 
HETATM    2  C   UNK     0      10.620  16.384  -7.978  0.00  0.00    -0.031 A 
HETATM    3  C   UNK     0      10.887  16.080  -9.304  0.00  0.00     0.021 A 
HETATM    4  N   UNK     0       9.867  15.340  -9.801  0.00  0.00    -0.361 N 
HETATM    5  C   UNK     0       8.961  15.159  -8.818  0.00  0.00     0.022 A 
HETATM    6  C   UNK     0       9.399  15.801  -7.665  0.00  0.00    -0.027 A 
HETATM    7  C   UNK     0       7.706  14.342  -8.819  0.00  0.00     0.115 C 
HETATM    8  C   UNK     0       7.784  12.973  -9.473  0.00  0.00     0.021 A 
HETATM    9  N   UNK     0       8.810  12.108  -9.482  0.00  0.00    -0.361 N 
HETATM   10  C   UNK     0       8.469  11.061 -10.261  0.00  0.00     0.022 A 
HETATM   11  C   UNK     0       7.184  11.252 -10.761  0.00  0.00    -0.027 A 
HETATM   12  C   UNK     0       6.747  12.455 -10.268  0.00  0.00    -0.031 A 
HETATM   13  C   UNK     0       5.395  13.073 -10.544  0.00  0.00     0.051 C 
HETATM   14  C   UNK     0       9.356   9.868 -10.608  0.00  0.00     0.115 C 
HETATM   15  C   UNK     0      10.629  10.243 -11.348  0.00  0.00     0.021 A 
HETATM   16  N   UNK     0      11.605  11.074 -10.936  0.00  0.00    -0.361 N 
HETATM   17  C   UNK     0      12.517  11.194 -11.903  0.00  0.00     0.022 A 
HETATM   18  C   UNK     0      12.122  10.395 -12.994  0.00  0.00    -0.027 A 
HETATM   19  C   UNK     0      10.939   9.804 -12.634  0.00  0.00    -0.031 A 
HETATM   20  C   UNK     0      10.181   8.827 -13.514  0.00  0.00     0.051 C 
HETATM   21  C   UNK     0      13.758  12.055 -11.967  0.00  0.00     0.115 C 
HETATM   22  C   UNK     0      13.709  13.401 -11.283  0.00  0.00     0.022 A 
HETATM   23  N   UNK     0      12.700  14.281 -11.255  0.00  0.00    -0.361 N 
HETATM   24  C   UNK     0      13.032  15.279 -10.410  0.00  0.00     0.021 A 
HETATM   25  C   UNK     0      14.289  15.041  -9.891  0.00  0.00    -0.031 A 
HETATM   26  C   UNK     0      15.104  15.890  -8.937  0.00  0.00     0.051 C 
HETATM   27  C   UNK     0      14.744  13.845 -10.435  0.00  0.00    -0.027 A 
HETATM   28  C   UNK     0      12.174  16.457  -9.980  0.00  0.00     0.115 C 
HETATM   29  H   UNK     0       9.776  14.984 -10.853  0.00  0.00     0.165 HD
HETATM   30  H   UNK     0       9.758  12.211  -8.898  0.00  0.00     0.165 HD
HETATM   31  H   UNK     0      11.676  11.549  -9.923  0.00  0.00     0.165 HD
HETATM   32  H   UNK     0      11.760  14.229 -11.864  0.00  0.00     0.165 HD
ENDROOT
BRANCH   6  33
HETATM   33  C   UNK     0       8.752  15.904  -6.307  0.00  0.00     0.051 C 
BRANCH  33  34
HETATM   34  C   UNK     0       7.894  17.144  -6.215  0.00  0.00     0.114 C 
BRANCH  34  35
HETATM   35  C   UNK     0       7.935  17.612  -4.800  0.00  0.00     0.139 C 
HETATM   36  O   UNK     0       6.872  17.973  -4.217  0.00  0.00    -0.650 OA
BRANCH  35  37
HETATM   37  O   UNK     0       9.113  17.671  -4.064  0.00  0.00    -0.776 OA
HETATM   38  H   UNK     0       9.326  18.447  -3.459  0.00  0.00     0.167 HD
ENDBRANCH  35  37
ENDBRANCH  34  35
ENDBRANCH  33  34
ENDBRANCH   6  33
BRANCH  27  39
HETATM   39  C   UNK     0      16.099  13.293 -10.163  0.00  0.00     0.051 C 
BRANCH  39  40
HETATM   40  C   UNK     0      16.288  12.476  -8.965  0.00  0.00     0.114 C 
BRANCH  40  41
HETATM   41  C   UNK     0      16.031  11.053  -8.955  0.00  0.00     0.139 C 
HETATM   42  O   UNK     0      14.894  10.564  -8.981  0.00  0.00    -0.650 OA
BRANCH  41  43
HETATM   43  O   UNK     0      17.133  10.152  -8.912  0.00  0.00    -0.776 OA
HETATM   44  H   UNK     0      16.901   9.222  -8.585  0.00  0.00     0.167 HD
ENDBRANCH  41  43
ENDBRANCH  40  41
ENDBRANCH  39  40
ENDBRANCH  27  39
BRANCH  11  45
HETATM   45  C   UNK     0       6.381  10.353 -11.662  0.00  0.00     0.051 C 
BRANCH  45  46
HETATM   46  C   UNK     0       6.637  10.562 -13.110  0.00  0.00     0.114 C 
BRANCH  46  47
HETATM   47  C   UNK     0       5.387  11.114 -13.705  0.00  0.00     0.139 C 
HETATM   48  O   UNK     0       4.299  10.655 -13.330  0.00  0.00    -0.650 OA
BRANCH  47  49
HETATM   49  O   UNK     0       5.437  12.109 -14.649  0.00  0.00    -0.776 OA
HETATM   50  H   UNK     0       5.471  13.103 -14.392  0.00  0.00     0.167 HD
ENDBRANCH  47  49
ENDBRANCH  46  47
ENDBRANCH  45  46
ENDBRANCH  11  45
BRANCH  18  51
HETATM   51  C   UNK     0      12.844  10.190 -14.301  0.00  0.00     0.051 C 
BRANCH  51  52
HETATM   52  C   UNK     0      12.363  11.293 -15.232  0.00  0.00     0.114 C 
BRANCH  52  53
HETATM   53  C   UNK     0      13.389  11.660 -16.226  0.00  0.00     0.139 C 
HETATM   54  O   UNK     0      13.868  12.805 -16.231  0.00  0.00    -0.650 OA
BRANCH  53  55
HETATM   55  O   UNK     0      13.808  10.729 -17.146  0.00  0.00    -0.776 OA
HETATM   56  H   UNK     0      13.221  10.153 -17.702  0.00  0.00     0.167 HD
ENDBRANCH  53  55
ENDBRANCH  52  53
ENDBRANCH  51  52
ENDBRANCH  18  51
TORSDOF 16
ENDMDL
MODEL 10
REMARK VINA RESULT:      -7.2     19.294     22.740
REMARK  16 active torsions:
REMARK  status: ('A' for Active; 'I' for Inactive)
REMARK    1  A    between atoms: C_6  and  C_7 
REMARK    2  A    between atoms: C_7  and  C_8 
REMARK    3  A    between atoms: C_8  and  C_9 
REMARK    4  A    between atoms: C_9  and  O_11 
REMARK    5  A    between atoms: C_16  and  C_17 
REMARK    6  A    between atoms: C_17  and  C_18 
REMARK    7  A    between atoms: C_18  and  C_19 
REMARK    8  A    between atoms: C_19  and  O_21 
REMARK    9  A    between atoms: C_28  and  C_29 
REMARK   10  A    between atoms: C_29  and  C_30 
REMARK   11  A    between atoms: C_30  and  C_31 
REMARK   12  A    between atoms: C_31  and  O_33 
REMARK   13  A    between atoms: C_42  and  C_43 
REMARK   14  A    between atoms: C_43  and  C_44 
REMARK   15  A    between atoms: C_44  and  C_45 
REMARK   16  A    between atoms: C_45  and  O_47 
ROOT
HETATM    1  C   UNK     0       3.939   4.629 -18.254  0.00  0.00     0.051 C 
HETATM    2  C   UNK     0       2.868   5.695 -18.139  0.00  0.00    -0.031 A 
HETATM    3  C   UNK     0       1.900   6.073 -19.056  0.00  0.00     0.021 A 
HETATM    4  N   UNK     0       1.176   7.093 -18.539  0.00  0.00    -0.361 N 
HETATM    5  C   UNK     0       1.655   7.368 -17.308  0.00  0.00     0.022 A 
HETATM    6  C   UNK     0       2.716   6.514 -17.027  0.00  0.00    -0.027 A 
HETATM    7  C   UNK     0       1.151   8.337 -16.285  0.00  0.00     0.115 C 
HETATM    8  C   UNK     0      -0.353   8.404 -16.092  0.00  0.00     0.021 A 
HETATM    9  N   UNK     0      -1.249   7.406 -16.156  0.00  0.00    -0.361 N 
HETATM   10  C   UNK     0      -2.481   7.940 -16.011  0.00  0.00     0.022 A 
HETATM   11  C   UNK     0      -2.375   9.317 -15.841  0.00  0.00    -0.027 A 
HETATM   12  C   UNK     0      -1.037   9.616 -15.890  0.00  0.00    -0.031 A 
HETATM   13  C   UNK     0      -0.445  11.000 -15.745  0.00  0.00     0.051 C 
HETATM   14  C   UNK     0      -3.805   7.183 -16.082  0.00  0.00     0.115 C 
HETATM   15  C   UNK     0      -4.053   6.500 -17.417  0.00  0.00     0.021 A 
HETATM   16  N   UNK     0      -3.287   5.571 -18.020  0.00  0.00    -0.361 N 
HETATM   17  C   UNK     0      -3.812   5.276 -19.211  0.00  0.00     0.022 A 
HETATM   18  C   UNK     0      -4.981   6.042 -19.389  0.00  0.00    -0.027 A 
HETATM   19  C   UNK     0      -5.121   6.803 -18.258  0.00  0.00    -0.031 A 
HETATM   20  C   UNK     0      -6.280   7.754 -18.020  0.00  0.00     0.051 C 
HETATM   21  C   UNK     0      -3.300   4.357 -20.297  0.00  0.00     0.115 C 
HETATM   22  C   UNK     0      -1.804   4.247 -20.471  0.00  0.00     0.022 A 
HETATM   23  N   UNK     0      -0.888   5.222 -20.409  0.00  0.00    -0.361 N 
HETATM   24  C   UNK     0       0.335   4.659 -20.477  0.00  0.00     0.021 A 
HETATM   25  C   UNK     0       0.203   3.289 -20.596  0.00  0.00    -0.031 A 
HETATM   26  C   UNK     0       1.282   2.236 -20.745  0.00  0.00     0.051 C 
HETATM   27  C   UNK     0      -1.157   3.001 -20.595  0.00  0.00    -0.027 A 
HETATM   28  C   UNK     0       1.684   5.347 -20.354  0.00  0.00     0.115 C 
HETATM   29  H   UNK     0       0.357   7.638 -19.063  0.00  0.00     0.165 HD
HETATM   30  H   UNK     0      -1.012   6.319 -16.252  0.00  0.00     0.165 HD
HETATM   31  H   UNK     0      -2.383   5.079 -17.576  0.00  0.00     0.165 HD
HETATM   32  H   UNK     0      -1.097   6.322 -20.360  0.00  0.00     0.165 HD
ENDROOT
BRANCH   6  33
HETATM   33  C   UNK     0       3.587   6.419 -15.800  0.00  0.00     0.051 C 
BRANCH  33  34
HETATM   34  C   UNK     0       4.853   7.223 -15.978  0.00  0.00     0.114 C 
BRANCH  34  35
HETATM   35  C   UNK     0       6.002   6.308 -15.725  0.00  0.00     0.139 C 
HETATM   36  O   UNK     0       7.167   6.630 -16.100  0.00  0.00    -0.650 OA
BRANCH  35  37
HETATM   37  O   UNK     0       5.860   5.087 -15.078  0.00  0.00    -0.776 OA
HETATM   38  H   UNK     0       6.287   4.244 -15.427  0.00  0.00     0.167 HD
ENDBRANCH  35  37
ENDBRANCH  34  35
ENDBRANCH  33  34
ENDBRANCH   6  33
BRANCH  27  39
HETATM   39  C   UNK     0      -1.695   1.626 -20.779  0.00  0.00     0.051 C 
BRANCH  39  40
HETATM   40  C   UNK     0      -1.990   0.831 -19.587  0.00  0.00     0.114 C 
BRANCH  40  41
HETATM   41  C   UNK     0      -3.192   1.028 -18.809  0.00  0.00     0.139 C 
HETATM   42  O   UNK     0      -3.275   1.832 -17.870  0.00  0.00    -0.650 OA
BRANCH  41  43
HETATM   43  O   UNK     0      -4.352   0.265 -19.124  0.00  0.00    -0.776 OA
HETATM   44  H   UNK     0      -5.117   0.805 -19.510  0.00  0.00     0.167 HD
ENDBRANCH  41  43
ENDBRANCH  40  41
ENDBRANCH  39  40
ENDBRANCH  27  39
BRANCH  11  45
HETATM   45  C   UNK     0      -3.471  10.328 -15.635  0.00  0.00     0.051 C 
BRANCH  45  46
HETATM   46  C   UNK     0      -3.499  10.923 -14.275  0.00  0.00     0.114 C 
BRANCH  46  47
HETATM   47  C   UNK     0      -4.181   9.945 -13.379  0.00  0.00     0.139 C 
HETATM   48  O   UNK     0      -3.643   9.654 -12.301  0.00  0.00    -0.650 OA
BRANCH  47  49
HETATM   49  O   UNK     0      -5.377   9.378 -13.739  0.00  0.00    -0.776 OA
HETATM   50  H   UNK     0      -6.279   9.805 -13.494  0.00  0.00     0.167 HD
ENDBRANCH  47  49
ENDBRANCH  46  47
ENDBRANCH  45  46
ENDBRANCH  11  45
BRANCH  18  51
HETATM   51  C   UNK     0      -5.924   6.033 -20.564  0.00  0.00     0.051 C 
BRANCH  51  52
HETATM   52  C   UNK     0      -5.496   7.183 -21.463  0.00  0.00     0.114 C 
BRANCH  52  53
HETATM   53  C   UNK     0      -6.656   7.904 -22.023  0.00  0.00     0.139 C 
HETATM   54  O   UNK     0      -7.447   8.490 -21.267  0.00  0.00    -0.650 OA
BRANCH  53  55
HETATM   55  O   UNK     0      -6.856   7.919 -23.382  0.00  0.00    -0.776 OA
HETATM   56  H   UNK     0      -7.251   7.185 -23.922  0.00  0.00     0.167 HD
ENDBRANCH  53  55
ENDBRANCH  52  53
ENDBRANCH  51  52
ENDBRANCH  18  51
TORSDOF 16
ENDMDL
MODEL 11
REMARK VINA RESULT:      -7.2     17.895     20.214
REMARK  16 active torsions:
REMARK  status: ('A' for Active; 'I' for Inactive)
REMARK    1  A    between atoms: C_6  and  C_7 
REMARK    2  A    between atoms: C_7  and  C_8 
REMARK    3  A    between atoms: C_8  and  C_9 
REMARK    4  A    between atoms: C_9  and  O_11 
REMARK    5  A    between atoms: C_16  and  C_17 
REMARK    6  A    between atoms: C_17  and  C_18 
REMARK    7  A    between atoms: C_18  and  C_19 
REMARK    8  A    between atoms: C_19  and  O_21 
REMARK    9  A    between atoms: C_28  and  C_29 
REMARK   10  A    between atoms: C_29  and  C_30 
REMARK   11  A    between atoms: C_30  and  C_31 
REMARK   12  A    between atoms: C_31  and  O_33 
REMARK   13  A    between atoms: C_42  and  C_43 
REMARK   14  A    between atoms: C_43  and  C_44 
REMARK   15  A    between atoms: C_44  and  C_45 
REMARK   16  A    between atoms: C_45  and  O_47 
ROOT
HETATM    1  C   UNK     0      -4.837  -9.917   7.659  0.00  0.00     0.051 C 
HETATM    2  C   UNK     0      -4.028  -9.139   8.677  0.00  0.00    -0.031 A 
HETATM    3  C   UNK     0      -3.581  -9.530   9.929  0.00  0.00     0.021 A 
HETATM    4  N   UNK     0      -2.921  -8.497  10.504  0.00  0.00    -0.361 N 
HETATM    5  C   UNK     0      -2.929  -7.460   9.642  0.00  0.00     0.022 A 
HETATM    6  C   UNK     0      -3.616  -7.826   8.489  0.00  0.00    -0.027 A 
HETATM    7  C   UNK     0      -2.262  -6.124   9.753  0.00  0.00     0.115 C 
HETATM    8  C   UNK     0      -0.841  -6.115  10.290  0.00  0.00     0.021 A 
HETATM    9  N   UNK     0       0.131  -7.020  10.099  0.00  0.00    -0.361 N 
HETATM   10  C   UNK     0       1.198  -6.652  10.841  0.00  0.00     0.022 A 
HETATM   11  C   UNK     0       0.907  -5.472  11.520  0.00  0.00    -0.027 A 
HETATM   12  C   UNK     0      -0.376  -5.128  11.178  0.00  0.00    -0.031 A 
HETATM   13  C   UNK     0      -1.116  -3.908  11.676  0.00  0.00     0.051 C 
HETATM   14  C   UNK     0       2.508  -7.422  10.979  0.00  0.00     0.115 C 
HETATM   15  C   UNK     0       2.344  -8.814  11.567  0.00  0.00     0.021 A 
HETATM   16  N   UNK     0       1.596  -9.825  11.088  0.00  0.00    -0.361 N 
HETATM   17  C   UNK     0       1.664 -10.859  11.930  0.00  0.00     0.022 A 
HETATM   18  C   UNK     0       2.506 -10.508  13.004  0.00  0.00    -0.027 A 
HETATM   19  C   UNK     0       2.926  -9.225  12.764  0.00  0.00    -0.031 A 
HETATM   20  C   UNK     0       3.884  -8.469  13.666  0.00  0.00     0.051 C 
HETATM   21  C   UNK     0       0.957 -12.194  11.889  0.00  0.00     0.115 C 
HETATM   22  C   UNK     0      -0.440 -12.226  11.316  0.00  0.00     0.022 A 
HETATM   23  N   UNK     0      -1.428 -11.337  11.486  0.00  0.00    -0.361 N 
HETATM   24  C   UNK     0      -2.451 -11.681  10.678  0.00  0.00     0.021 A 
HETATM   25  C   UNK     0      -2.119 -12.826   9.979  0.00  0.00    -0.031 A 
HETATM   26  C   UNK     0      -2.951 -13.613   8.988  0.00  0.00     0.051 C 
HETATM   27  C   UNK     0      -0.837 -13.194  10.370  0.00  0.00    -0.027 A 
HETATM   28  C   UNK     0      -3.751 -10.928  10.453  0.00  0.00     0.115 C 
HETATM   29  H   UNK     0      -2.487  -8.495  11.531  0.00  0.00     0.165 HD
HETATM   30  H   UNK     0       0.086  -7.893   9.403  0.00  0.00     0.165 HD
HETATM   31  H   UNK     0       1.045  -9.828  10.111  0.00  0.00     0.165 HD
HETATM   32  H   UNK     0      -1.428 -10.482  12.210  0.00  0.00     0.165 HD
ENDROOT
BRANCH   6  33
HETATM   33  C   UNK     0      -3.909  -7.033   7.241  0.00  0.00     0.051 C 
BRANCH  33  34
HETATM   34  C   UNK     0      -4.999  -6.019   7.495  0.00  0.00     0.114 C 
BRANCH  34  35
HETATM   35  C   UNK     0      -4.511  -4.704   6.989  0.00  0.00     0.139 C 
HETATM   36  O   UNK     0      -4.751  -4.351   5.798  0.00  0.00    -0.650 OA
BRANCH  35  37
HETATM   37  O   UNK     0      -3.788  -3.818   7.779  0.00  0.00    -0.776 OA
HETATM   38  H   UNK     0      -3.179  -3.122   7.381  0.00  0.00     0.167 HD
ENDBRANCH  35  37
ENDBRANCH  34  35
ENDBRANCH  33  34
ENDBRANCH   6  33
BRANCH  27  39
HETATM   39  C   UNK     0      -0.162 -14.426   9.880  0.00  0.00     0.051 C 
BRANCH  39  40
HETATM   40  C   UNK     0       0.753 -14.312   8.745  0.00  0.00     0.114 C 
BRANCH  40  41
HETATM   41  C   UNK     0       1.711 -13.236   8.633  0.00  0.00     0.139 C 
HETATM   42  O   UNK     0       1.469 -12.161   8.067  0.00  0.00    -0.650 OA
BRANCH  41  43
HETATM   43  O   UNK     0       3.008 -13.403   9.197  0.00  0.00    -0.776 OA
HETATM   44  H   UNK     0       3.033 -13.364  10.209  0.00  0.00     0.167 HD
ENDBRANCH  41  43
ENDBRANCH  40  41
ENDBRANCH  39  40
ENDBRANCH  27  39
BRANCH  11  45
HETATM   45  C   UNK     0       1.785  -4.684  12.455  0.00  0.00     0.051 C 
BRANCH  45  46
HETATM   46  C   UNK     0       2.488  -3.546  11.810  0.00  0.00     0.114 C 
BRANCH  46  47
HETATM   47  C   UNK     0       3.004  -2.670  12.901  0.00  0.00     0.139 C 
HETATM   48  O   UNK     0       2.219  -2.300  13.784  0.00  0.00    -0.650 OA
BRANCH  47  49
HETATM   49  O   UNK     0       4.320  -2.281  12.926  0.00  0.00    -0.776 OA
HETATM   50  H   UNK     0       5.080  -2.942  13.123  0.00  0.00     0.167 HD
ENDBRANCH  47  49
ENDBRANCH  46  47
ENDBRANCH  45  46
ENDBRANCH  11  45
BRANCH  18  51
HETATM   51  C   UNK     0       2.904 -11.356  14.184  0.00  0.00     0.051 C 
BRANCH  51  52
HETATM   52  C   UNK     0       4.237 -11.992  13.821  0.00  0.00     0.114 C 
BRANCH  52  53
HETATM   53  C   UNK     0       4.069 -13.368  13.313  0.00  0.00     0.139 C 
HETATM   54  O   UNK     0       3.777 -14.287  14.095  0.00  0.00    -0.650 OA
BRANCH  53  55
HETATM   55  O   UNK     0       4.241 -13.624  11.975  0.00  0.00    -0.776 OA
HETATM   56  H   UNK     0       4.409 -14.513  11.567  0.00  0.00     0.167 HD
ENDBRANCH  53  55
ENDBRANCH  52  53
ENDBRANCH  51  52
ENDBRANCH  18  51
TORSDOF 16
ENDMDL
MODEL 12
REMARK VINA RESULT:      -7.2     18.787     21.425
REMARK  16 active torsions:
REMARK  status: ('A' for Active; 'I' for Inactive)
REMARK    1  A    between atoms: C_6  and  C_7 
REMARK    2  A    between atoms: C_7  and  C_8 
REMARK    3  A    between atoms: C_8  and  C_9 
REMARK    4  A    between atoms: C_9  and  O_11 
REMARK    5  A    between atoms: C_16  and  C_17 
REMARK    6  A    between atoms: C_17  and  C_18 
REMARK    7  A    between atoms: C_18  and  C_19 
REMARK    8  A    between atoms: C_19  and  O_21 
REMARK    9  A    between atoms: C_28  and  C_29 
REMARK   10  A    between atoms: C_29  and  C_30 
REMARK   11  A    between atoms: C_30  and  C_31 
REMARK   12  A    between atoms: C_31  and  O_33 
REMARK   13  A    between atoms: C_42  and  C_43 
REMARK   14  A    between atoms: C_43  and  C_44 
REMARK   15  A    between atoms: C_44  and  C_45 
REMARK   16  A    between atoms: C_45  and  O_47 
ROOT
HETATM    1  C   UNK     0      -4.776   9.656 -16.178  0.00  0.00     0.051 C 
HETATM    2  C   UNK     0      -3.567   8.742 -16.183  0.00  0.00    -0.031 A 
HETATM    3  C   UNK     0      -3.505   7.366 -16.335  0.00  0.00     0.021 A 
HETATM    4  N   UNK     0      -2.214   6.969 -16.241  0.00  0.00    -0.361 N 
HETATM    5  C   UNK     0      -1.451   8.063 -16.042  0.00  0.00     0.022 A 
HETATM    6  C   UNK     0      -2.266   9.190 -15.997  0.00  0.00    -0.027 A 
HETATM    7  C   UNK     0       0.039   8.183 -15.964  0.00  0.00     0.115 C 
HETATM    8  C   UNK     0       0.841   7.384 -16.976  0.00  0.00     0.021 A 
HETATM    9  N   UNK     0       0.539   7.113 -18.256  0.00  0.00    -0.361 N 
HETATM   10  C   UNK     0       1.493   6.294 -18.747  0.00  0.00     0.022 A 
HETATM   11  C   UNK     0       2.440   6.037 -17.759  0.00  0.00    -0.027 A 
HETATM   12  C   UNK     0       2.035   6.721 -16.642  0.00  0.00    -0.031 A 
HETATM   13  C   UNK     0       2.765   6.741 -15.317  0.00  0.00     0.051 C 
HETATM   14  C   UNK     0       1.522   5.679 -20.143  0.00  0.00     0.115 C 
HETATM   15  C   UNK     0       0.333   4.782 -20.446  0.00  0.00     0.021 A 
HETATM   16  N   UNK     0      -0.972   5.113 -20.426  0.00  0.00    -0.361 N 
HETATM   17  C   UNK     0      -1.704   4.027 -20.681  0.00  0.00     0.022 A 
HETATM   18  C   UNK     0      -0.834   2.937 -20.886  0.00  0.00    -0.027 A 
HETATM   19  C   UNK     0       0.438   3.424 -20.738  0.00  0.00    -0.031 A 
HETATM   20  C   UNK     0       1.689   2.583 -20.913  0.00  0.00     0.051 C 
HETATM   21  C   UNK     0      -3.205   3.850 -20.703  0.00  0.00     0.115 C 
HETATM   22  C   UNK     0      -4.019   4.672 -19.731  0.00  0.00     0.022 A 
HETATM   23  N   UNK     0      -3.741   4.961 -18.453  0.00  0.00    -0.361 N 
HETATM   24  C   UNK     0      -4.662   5.840 -18.008  0.00  0.00     0.021 A 
HETATM   25  C   UNK     0      -5.560   6.115 -19.021  0.00  0.00    -0.031 A 
HETATM   26  C   UNK     0      -6.785   7.005 -18.993  0.00  0.00     0.051 C 
HETATM   27  C   UNK     0      -5.170   5.379 -20.134  0.00  0.00    -0.027 A 
HETATM   28  C   UNK     0      -4.711   6.529 -16.655  0.00  0.00     0.115 C 
HETATM   29  H   UNK     0      -1.855   5.914 -16.277  0.00  0.00     0.165 HD
HETATM   30  H   UNK     0      -0.320   7.539 -18.830  0.00  0.00     0.165 HD
HETATM   31  H   UNK     0      -1.384   6.145 -20.277  0.00  0.00     0.165 HD
HETATM   32  H   UNK     0      -2.917   4.514 -17.839  0.00  0.00     0.165 HD
ENDROOT
BRANCH   6  33
HETATM   33  C   UNK     0      -1.906  10.640 -15.792  0.00  0.00     0.051 C 
BRANCH  33  34
HETATM   34  C   UNK     0      -2.581  11.188 -14.557  0.00  0.00     0.114 C 
BRANCH  34  35
HETATM   35  C   UNK     0      -2.122  10.372 -13.397  0.00  0.00     0.139 C 
HETATM   36  O   UNK     0      -0.887  10.258 -13.146  0.00  0.00    -0.650 OA
BRANCH  35  37
HETATM   37  O   UNK     0      -3.004   9.712 -12.550  0.00  0.00    -0.776 OA
HETATM   38  H   UNK     0      -3.527  10.197 -11.838  0.00  0.00     0.167 HD
ENDBRANCH  35  37
ENDBRANCH  34  35
ENDBRANCH  33  34
ENDBRANCH   6  33
BRANCH  27  39
HETATM   39  C   UNK     0      -5.942   5.362 -21.406  0.00  0.00     0.051 C 
BRANCH  39  40
HETATM   40  C   UNK     0      -6.804   4.212 -21.679  0.00  0.00     0.114 C 
BRANCH  40  41
HETATM   41  C   UNK     0      -6.332   3.046 -22.391  0.00  0.00     0.139 C 
HETATM   42  O   UNK     0      -6.198   3.004 -23.621  0.00  0.00    -0.650 OA
BRANCH  41  43
HETATM   43  O   UNK     0      -5.998   1.875 -21.654  0.00  0.00    -0.776 OA
HETATM   44  H   UNK     0      -6.693   1.598 -20.970  0.00  0.00     0.167 HD
ENDBRANCH  41  43
ENDBRANCH  40  41
ENDBRANCH  39  40
ENDBRANCH  27  39
BRANCH  11  45
HETATM   45  C   UNK     0       3.682   5.191 -17.843  0.00  0.00     0.051 C 
BRANCH  45  46
HETATM   46  C   UNK     0       3.449   3.747 -17.585  0.00  0.00     0.114 C 
BRANCH  46  47
HETATM   47  C   UNK     0       4.054   3.432 -16.259  0.00  0.00     0.139 C 
HETATM   48  O   UNK     0       5.289   3.445 -16.153  0.00  0.00    -0.650 OA
BRANCH  47  49
HETATM   49  O   UNK     0       3.263   3.132 -15.179  0.00  0.00    -0.776 OA
HETATM   50  H   UNK     0       2.299   2.794 -15.287  0.00  0.00     0.167 HD
ENDBRANCH  47  49
ENDBRANCH  46  47
ENDBRANCH  45  46
ENDBRANCH  11  45
BRANCH  18  51
HETATM   51  C   UNK     0      -1.196   1.514 -21.226  0.00  0.00     0.051 C 
BRANCH  51  52
HETATM   52  C   UNK     0      -1.686   0.879 -19.933  0.00  0.00     0.114 C 
BRANCH  52  53
HETATM   53  C   UNK     0      -3.105   0.485 -20.018  0.00  0.00     0.139 C 
HETATM   54  O   UNK     0      -3.585   0.117 -21.102  0.00  0.00    -0.650 OA
BRANCH  53  55
HETATM   55  O   UNK     0      -3.892   0.533 -18.892  0.00  0.00    -0.776 OA
HETATM   56  H   UNK     0      -3.810  -0.056 -18.098  0.00  0.00     0.167 HD
ENDBRANCH  53  55
ENDBRANCH  52  53
ENDBRANCH  51  52
ENDBRANCH  18  51
TORSDOF 16
ENDMDL
MODEL 13
REMARK VINA RESULT:      -7.2      2.609      9.313
REMARK  16 active torsions:
REMARK  status: ('A' for Active; 'I' for Inactive)
REMARK    1  A    between atoms: C_6  and  C_7 
REMARK    2  A    between atoms: C_7  and  C_8 
REMARK    3  A    between atoms: C_8  and  C_9 
REMARK    4  A    between atoms: C_9  and  O_11 
REMARK    5  A    between atoms: C_16  and  C_17 
REMARK    6  A    between atoms: C_17  and  C_18 
REMARK    7  A    between atoms: C_18  and  C_19 
REMARK    8  A    between atoms: C_19  and  O_21 
REMARK    9  A    between atoms: C_28  and  C_29 
REMARK   10  A    between atoms: C_29  and  C_30 
REMARK   11  A    between atoms: C_30  and  C_31 
REMARK   12  A    between atoms: C_31  and  O_33 
REMARK   13  A    between atoms: C_42  and  C_43 
REMARK   14  A    between atoms: C_43  and  C_44 
REMARK   15  A    between atoms: C_44  and  C_45 
REMARK   16  A    between atoms: C_45  and  O_47 
ROOT
HETATM    1  C   UNK     0      11.234 -10.251  -8.124  0.00  0.00     0.051 C 
HETATM    2  C   UNK     0      10.173 -11.085  -8.813  0.00  0.00    -0.031 A 
HETATM    3  C   UNK     0       9.277 -11.992  -8.270  0.00  0.00     0.021 A 
HETATM    4  N   UNK     0       8.533 -12.528  -9.266  0.00  0.00    -0.361 N 
HETATM    5  C   UNK     0       8.929 -11.976 -10.432  0.00  0.00     0.022 A 
HETATM    6  C   UNK     0       9.956 -11.071 -10.185  0.00  0.00    -0.027 A 
HETATM    7  C   UNK     0       8.369 -12.154 -11.808  0.00  0.00     0.115 C 
HETATM    8  C   UNK     0       6.856 -12.169 -11.932  0.00  0.00     0.021 A 
HETATM    9  N   UNK     0       5.953 -11.464 -11.234  0.00  0.00    -0.361 N 
HETATM   10  C   UNK     0       4.721 -11.866 -11.615  0.00  0.00     0.022 A 
HETATM   11  C   UNK     0       4.835 -12.851 -12.592  0.00  0.00    -0.027 A 
HETATM   12  C   UNK     0       6.177 -13.047 -12.796  0.00  0.00    -0.031 A 
HETATM   13  C   UNK     0       6.777 -14.027 -13.779  0.00  0.00     0.051 C 
HETATM   14  C   UNK     0       3.395 -11.378 -11.038  0.00  0.00     0.115 C 
HETATM   15  C   UNK     0       3.231 -11.656  -9.552  0.00  0.00     0.021 A 
HETATM   16  N   UNK     0       4.023 -11.242  -8.546  0.00  0.00    -0.361 N 
HETATM   17  C   UNK     0       3.579 -11.756  -7.397  0.00  0.00     0.022 A 
HETATM   18  C   UNK     0       2.435 -12.534  -7.667  0.00  0.00    -0.027 A 
HETATM   19  C   UNK     0       2.227 -12.463  -9.020  0.00  0.00    -0.031 A 
HETATM   20  C   UNK     0       1.068 -13.135  -9.732  0.00  0.00     0.051 C 
HETATM   21  C   UNK     0       4.151 -11.655  -6.002  0.00  0.00     0.115 C 
HETATM   22  C   UNK     0       5.654 -11.595  -5.867  0.00  0.00     0.022 A 
HETATM   23  N   UNK     0       6.577 -12.283  -6.551  0.00  0.00    -0.361 N 
HETATM   24  C   UNK     0       7.794 -11.811  -6.212  0.00  0.00     0.021 A 
HETATM   25  C   UNK     0       7.651 -10.802  -5.279  0.00  0.00    -0.031 A 
HETATM   26  C   UNK     0       8.723  -9.999  -4.572  0.00  0.00     0.051 C 
HETATM   27  C   UNK     0       6.291 -10.645  -5.042  0.00  0.00    -0.027 A 
HETATM   28  C   UNK     0       9.140 -12.212  -6.790  0.00  0.00     0.115 C 
HETATM   29  H   UNK     0       7.759 -13.321  -9.144  0.00  0.00     0.165 HD
HETATM   30  H   UNK     0       6.180 -10.645 -10.508  0.00  0.00     0.165 HD
HETATM   31  H   UNK     0       4.887 -10.534  -8.641  0.00  0.00     0.165 HD
HETATM   32  H   UNK     0       6.381 -13.138  -7.248  0.00  0.00     0.165 HD
ENDROOT
BRANCH   6  33
HETATM   33  C   UNK     0      10.738 -10.207 -11.142  0.00  0.00     0.051 C 
BRANCH  33  34
HETATM   34  C   UNK     0      11.929 -10.957 -11.689  0.00  0.00     0.114 C 
BRANCH  34  35
HETATM   35  C   UNK     0      13.087 -10.018 -11.688  0.00  0.00     0.139 C 
HETATM   36  O   UNK     0      13.553  -9.580 -12.780  0.00  0.00    -0.650 OA
BRANCH  35  37
HETATM   37  O   UNK     0      13.699  -9.584 -10.518  0.00  0.00    -0.776 OA
HETATM   38  H   UNK     0      13.247  -9.655  -9.621  0.00  0.00     0.167 HD
ENDBRANCH  35  37
ENDBRANCH  34  35
ENDBRANCH  33  34
ENDBRANCH   6  33
BRANCH  27  39
HETATM   39  C   UNK     0       5.748  -9.693  -4.036  0.00  0.00     0.051 C 
BRANCH  39  40
HETATM   40  C   UNK     0       5.264  -8.393  -4.501  0.00  0.00     0.114 C 
BRANCH  40  41
HETATM   41  C   UNK     0       5.959  -7.161  -4.204  0.00  0.00     0.139 C 
HETATM   42  O   UNK     0       6.940  -7.094  -3.451  0.00  0.00    -0.650 OA
BRANCH  41  43
HETATM   43  O   UNK     0       5.505  -5.950  -4.801  0.00  0.00    -0.776 OA
HETATM   44  H   UNK     0       5.440  -5.167  -4.162  0.00  0.00     0.167 HD
ENDBRANCH  41  43
ENDBRANCH  40  41
ENDBRANCH  39  40
ENDBRANCH  27  39
BRANCH  11  45
HETATM   45  C   UNK     0       3.741 -13.587 -13.317  0.00  0.00     0.051 C 
BRANCH  45  46
HETATM   46  C   UNK     0       3.252 -12.897 -14.538  0.00  0.00     0.114 C 
BRANCH  46  47
HETATM   47  C   UNK     0       1.772 -12.769 -14.410  0.00  0.00     0.139 C 
HETATM   48  O   UNK     0       1.124 -12.383 -15.393  0.00  0.00    -0.650 OA
BRANCH  47  49
HETATM   49  O   UNK     0       1.140 -13.071 -13.230  0.00  0.00    -0.776 OA
HETATM   50  H   UNK     0       0.583 -13.926 -13.114  0.00  0.00     0.167 HD
ENDBRANCH  47  49
ENDBRANCH  46  47
ENDBRANCH  45  46
ENDBRANCH  11  45
BRANCH  18  51
HETATM   51  C   UNK     0       1.576 -13.288  -6.685  0.00  0.00     0.051 C 
BRANCH  51  52
HETATM   52  C   UNK     0       0.612 -12.270  -6.093  0.00  0.00     0.114 C 
BRANCH  52  53
HETATM   53  C   UNK     0      -0.773 -12.496  -6.547  0.00  0.00     0.139 C 
HETATM   54  O   UNK     0      -1.103 -13.599  -7.013  0.00  0.00    -0.650 OA
BRANCH  53  55
HETATM   55  O   UNK     0      -1.693 -11.480  -6.455  0.00  0.00    -0.776 OA
HETATM   56  H   UNK     0      -2.491 -11.359  -7.034  0.00  0.00     0.167 HD
ENDBRANCH  53  55
ENDBRANCH  52  53
ENDBRANCH  51  52
ENDBRANCH  18  51
TORSDOF 16
ENDMDL
MODEL 14
REMARK VINA RESULT:      -7.1     19.663     22.491
REMARK  16 active torsions:
REMARK  status: ('A' for Active; 'I' for Inactive)
REMARK    1  A    between atoms: C_6  and  C_7 
REMARK    2  A    between atoms: C_7  and  C_8 
REMARK    3  A    between atoms: C_8  and  C_9 
REMARK    4  A    between atoms: C_9  and  O_11 
REMARK    5  A    between atoms: C_16  and  C_17 
REMARK    6  A    between atoms: C_17  and  C_18 
REMARK    7  A    between atoms: C_18  and  C_19 
REMARK    8  A    between atoms: C_19  and  O_21 
REMARK    9  A    between atoms: C_28  and  C_29 
REMARK   10  A    between atoms: C_29  and  C_30 
REMARK   11  A    between atoms: C_30  and  C_31 
REMARK   12  A    between atoms: C_31  and  O_33 
REMARK   13  A    between atoms: C_42  and  C_43 
REMARK   14  A    between atoms: C_43  and  C_44 
REMARK   15  A    between atoms: C_44  and  C_45 
REMARK   16  A    between atoms: C_45  and  O_47 
ROOT
HETATM    1  C   UNK     0       4.887   5.999 -15.709  0.00  0.00     0.051 C 
HETATM    2  C   UNK     0       5.512   6.143 -17.081  0.00  0.00    -0.031 A 
HETATM    3  C   UNK     0       6.088   7.257 -17.673  0.00  0.00     0.021 A 
HETATM    4  N   UNK     0       6.490   6.933 -18.925  0.00  0.00    -0.361 N 
HETATM    5  C   UNK     0       6.189   5.636 -19.141  0.00  0.00     0.022 A 
HETATM    6  C   UNK     0       5.574   5.112 -18.009  0.00  0.00    -0.027 A 
HETATM    7  C   UNK     0       6.504   4.770 -20.321  0.00  0.00     0.115 C 
HETATM    8  C   UNK     0       7.895   4.906 -20.915  0.00  0.00     0.021 A 
HETATM    9  N   UNK     0       9.056   5.134 -20.281  0.00  0.00    -0.361 N 
HETATM   10  C   UNK     0      10.022   5.271 -21.213  0.00  0.00     0.022 A 
HETATM   11  C   UNK     0       9.471   5.117 -22.482  0.00  0.00    -0.027 A 
HETATM   12  C   UNK     0       8.131   4.887 -22.301  0.00  0.00    -0.031 A 
HETATM   13  C   UNK     0       7.127   4.654 -23.408  0.00  0.00     0.051 C 
HETATM   14  C   UNK     0      11.488   5.604 -20.950  0.00  0.00     0.115 C 
HETATM   15  C   UNK     0      11.701   6.943 -20.262  0.00  0.00     0.021 A 
HETATM   16  N   UNK     0      11.213   7.343 -19.073  0.00  0.00    -0.361 N 
HETATM   17  C   UNK     0      11.570   8.611 -18.857  0.00  0.00     0.022 A 
HETATM   18  C   UNK     0      12.335   9.056 -19.953  0.00  0.00    -0.027 A 
HETATM   19  C   UNK     0      12.411   8.001 -20.826  0.00  0.00    -0.031 A 
HETATM   20  C   UNK     0      13.182   8.042 -22.133  0.00  0.00     0.051 C 
HETATM   21  C   UNK     0      11.220   9.538 -17.715  0.00  0.00     0.115 C 
HETATM   22  C   UNK     0       9.855   9.384 -17.086  0.00  0.00     0.022 A 
HETATM   23  N   UNK     0       8.683   9.152 -17.692  0.00  0.00    -0.361 N 
HETATM   24  C   UNK     0       7.749   8.942 -16.742  0.00  0.00     0.021 A 
HETATM   25  C   UNK     0       8.332   9.051 -15.494  0.00  0.00    -0.031 A 
HETATM   26  C   UNK     0       7.688   8.938 -14.128  0.00  0.00     0.051 C 
HETATM   27  C   UNK     0       9.679   9.334 -15.688  0.00  0.00    -0.027 A 
HETATM   28  C   UNK     0       6.295   8.551 -16.939  0.00  0.00     0.115 C 
HETATM   29  H   UNK     0       6.946   7.634 -19.661  0.00  0.00     0.165 HD
HETATM   30  H   UNK     0       9.205   5.149 -19.174  0.00  0.00     0.165 HD
HETATM   31  H   UNK     0      10.645   6.703 -18.349  0.00  0.00     0.165 HD
HETATM   32  H   UNK     0       8.495   9.178 -18.797  0.00  0.00     0.165 HD
ENDROOT
BRANCH   6  33
HETATM   33  C   UNK     0       5.046   3.724 -17.747  0.00  0.00     0.051 C 
BRANCH  33  34
HETATM   34  C   UNK     0       6.129   2.837 -17.181  0.00  0.00     0.114 C 
BRANCH  34  35
HETATM   35  C   UNK     0       5.795   2.582 -15.750  0.00  0.00     0.139 C 
HETATM   36  O   UNK     0       4.857   1.789 -15.446  0.00  0.00    -0.650 OA
BRANCH  35  37
HETATM   37  O   UNK     0       6.480   3.185 -14.702  0.00  0.00    -0.776 OA
HETATM   38  H   UNK     0       7.475   3.343 -14.734  0.00  0.00     0.167 HD
ENDBRANCH  35  37
ENDBRANCH  34  35
ENDBRANCH  33  34
ENDBRANCH   6  33
BRANCH  27  39
HETATM   39  C   UNK     0      10.623   9.593 -14.567  0.00  0.00     0.051 C 
BRANCH  39  40
HETATM   40  C   UNK     0      11.491   8.502 -14.124  0.00  0.00     0.114 C 
BRANCH  40  41
HETATM   41  C   UNK     0      11.192   7.707 -12.955  0.00  0.00     0.139 C 
HETATM   42  O   UNK     0      10.349   8.028 -12.106  0.00  0.00    -0.650 OA
BRANCH  41  43
HETATM   43  O   UNK     0      11.895   6.485 -12.752  0.00  0.00    -0.776 OA
HETATM   44  H   UNK     0      11.452   5.673 -13.164  0.00  0.00     0.167 HD
ENDBRANCH  41  43
ENDBRANCH  40  41
ENDBRANCH  39  40
ENDBRANCH  27  39
BRANCH  11  45
HETATM   45  C   UNK     0      10.156   5.178 -23.821  0.00  0.00     0.051 C 
BRANCH  45  46
HETATM   46  C   UNK     0      10.321   6.554 -24.355  0.00  0.00     0.114 C 
BRANCH  46  47
HETATM   47  C   UNK     0      11.609   6.585 -25.104  0.00  0.00     0.139 C 
HETATM   48  O   UNK     0      12.362   5.604 -25.030  0.00  0.00    -0.650 OA
BRANCH  47  49
HETATM   49  O   UNK     0      11.957   7.677 -25.858  0.00  0.00    -0.776 OA
HETATM   50  H   UNK     0      12.390   8.511 -25.443  0.00  0.00     0.167 HD
ENDBRANCH  47  49
ENDBRANCH  46  47
ENDBRANCH  45  46
ENDBRANCH  11  45
BRANCH  18  51
HETATM   51  C   UNK     0      12.977  10.405 -20.149  0.00  0.00     0.051 C 
BRANCH  51  52
HETATM   52  C   UNK     0      14.355  10.318 -19.509  0.00  0.00     0.114 C 
BRANCH  52  53
HETATM   53  C   UNK     0      14.671  11.523 -18.718  0.00  0.00     0.139 C 
HETATM   54  O   UNK     0      14.008  11.792 -17.704  0.00  0.00    -0.650 OA
BRANCH  53  55
HETATM   55  O   UNK     0      15.699  12.344 -19.112  0.00  0.00    -0.776 OA
HETATM   56  H   UNK     0      15.719  13.334 -19.035  0.00  0.00     0.167 HD
ENDBRANCH  53  55
ENDBRANCH  52  53
ENDBRANCH  51  52
ENDBRANCH  18  51
TORSDOF 16
ENDMDL
MODEL 15
REMARK VINA RESULT:      -7.0     18.244     21.738
REMARK  16 active torsions:
REMARK  status: ('A' for Active; 'I' for Inactive)
REMARK    1  A    between atoms: C_6  and  C_7 
REMARK    2  A    between atoms: C_7  and  C_8 
REMARK    3  A    between atoms: C_8  and  C_9 
REMARK    4  A    between atoms: C_9  and  O_11 
REMARK    5  A    between atoms: C_16  and  C_17 
REMARK    6  A    between atoms: C_17  and  C_18 
REMARK    7  A    between atoms: C_18  and  C_19 
REMARK    8  A    between atoms: C_19  and  O_21 
REMARK    9  A    between atoms: C_28  and  C_29 
REMARK   10  A    between atoms: C_29  and  C_30 
REMARK   11  A    between atoms: C_30  and  C_31 
REMARK   12  A    between atoms: C_31  and  O_33 
REMARK   13  A    between atoms: C_42  and  C_43 
REMARK   14  A    between atoms: C_43  and  C_44 
REMARK   15  A    between atoms: C_44  and  C_45 
REMARK   16  A    between atoms: C_45  and  O_47 
ROOT
HETATM    1  C   UNK     0      -4.352   0.796 -22.489  0.00  0.00     0.051 C 
HETATM    2  C   UNK     0      -4.077   1.554 -21.206  0.00  0.00    -0.031 A 
HETATM    3  C   UNK     0      -2.964   1.512 -20.381  0.00  0.00     0.021 A 
HETATM    4  N   UNK     0      -3.167   2.336 -19.325  0.00  0.00    -0.361 N 
HETATM    5  C   UNK     0      -4.380   2.908 -19.464  0.00  0.00     0.022 A 
HETATM    6  C   UNK     0      -4.979   2.439 -20.629  0.00  0.00    -0.027 A 
HETATM    7  C   UNK     0      -5.039   3.958 -18.625  0.00  0.00     0.115 C 
HETATM    8  C   UNK     0      -4.165   5.112 -18.166  0.00  0.00     0.021 A 
HETATM    9  N   UNK     0      -3.162   5.713 -18.824  0.00  0.00    -0.361 N 
HETATM   10  C   UNK     0      -2.607   6.625 -17.998  0.00  0.00     0.022 A 
HETATM   11  C   UNK     0      -3.277   6.617 -16.778  0.00  0.00    -0.027 A 
HETATM   12  C   UNK     0      -4.260   5.666 -16.877  0.00  0.00    -0.031 A 
HETATM   13  C   UNK     0      -5.246   5.311 -15.787  0.00  0.00     0.051 C 
HETATM   14  C   UNK     0      -1.394   7.500 -18.305  0.00  0.00     0.115 C 
HETATM   15  C   UNK     0      -0.125   6.713 -18.593  0.00  0.00     0.021 A 
HETATM   16  N   UNK     0       0.071   5.795 -19.557  0.00  0.00    -0.361 N 
HETATM   17  C   UNK     0       1.298   5.284 -19.433  0.00  0.00     0.022 A 
HETATM   18  C   UNK     0       1.935   5.905 -18.341  0.00  0.00    -0.027 A 
HETATM   19  C   UNK     0       1.034   6.800 -17.824  0.00  0.00    -0.031 A 
HETATM   20  C   UNK     0       1.331   7.713 -16.649  0.00  0.00     0.051 C 
HETATM   21  C   UNK     0       1.974   4.180 -20.214  0.00  0.00     0.115 C 
HETATM   22  C   UNK     0       1.108   3.048 -20.715  0.00  0.00     0.022 A 
HETATM   23  N   UNK     0       0.100   2.433 -20.084  0.00  0.00    -0.361 N 
HETATM   24  C   UNK     0      -0.487   1.584 -20.951  0.00  0.00     0.021 A 
HETATM   25  C   UNK     0       0.165   1.647 -22.168  0.00  0.00    -0.031 A 
HETATM   26  C   UNK     0      -0.099   0.858 -23.433  0.00  0.00     0.051 C 
HETATM   27  C   UNK     0       1.190   2.577 -22.041  0.00  0.00    -0.027 A 
HETATM   28  C   UNK     0      -1.726   0.734 -20.726  0.00  0.00     0.115 C 
HETATM   29  H   UNK     0      -2.467   2.477 -18.469  0.00  0.00     0.165 HD
HETATM   30  H   UNK     0      -2.875   5.532 -19.888  0.00  0.00     0.165 HD
HETATM   31  H   UNK     0      -0.654   5.536 -20.373  0.00  0.00     0.165 HD
HETATM   32  H   UNK     0      -0.179   2.560 -19.006  0.00  0.00     0.165 HD
ENDROOT
BRANCH   6  33
HETATM   33  C   UNK     0      -6.325   2.762 -21.226  0.00  0.00     0.051 C 
BRANCH  33  34
HETATM   34  C   UNK     0      -6.265   4.045 -22.020  0.00  0.00     0.114 C 
BRANCH  34  35
HETATM   35  C   UNK     0      -7.645   4.607 -22.065  0.00  0.00     0.139 C 
HETATM   36  O   UNK     0      -7.853   5.812 -21.738  0.00  0.00    -0.650 OA
BRANCH  35  37
HETATM   37  O   UNK     0      -8.746   3.859 -22.462  0.00  0.00    -0.776 OA
HETATM   38  H   UNK     0      -9.315   3.354 -21.802  0.00  0.00     0.167 HD
ENDBRANCH  35  37
ENDBRANCH  34  35
ENDBRANCH  33  34
ENDBRANCH   6  33
BRANCH  27  39
HETATM   39  C   UNK     0       2.162   2.867 -23.131  0.00  0.00     0.051 C 
BRANCH  39  40
HETATM   40  C   UNK     0       3.412   2.108 -23.166  0.00  0.00     0.114 C 
BRANCH  40  41
HETATM   41  C   UNK     0       4.201   1.869 -21.978  0.00  0.00     0.139 C 
HETATM   42  O   UNK     0       4.259   0.772 -21.406  0.00  0.00    -0.650 OA
BRANCH  41  43
HETATM   43  O   UNK     0       4.958   2.939 -21.424  0.00  0.00    -0.776 OA
HETATM   44  H   UNK     0       5.110   3.716 -22.056  0.00  0.00     0.167 HD
ENDBRANCH  41  43
ENDBRANCH  40  41
ENDBRANCH  39  40
ENDBRANCH  27  39
BRANCH  11  45
HETATM   45  C   UNK     0      -3.023   7.462 -15.558  0.00  0.00     0.051 C 
BRANCH  45  46
HETATM   46  C   UNK     0      -3.710   8.778 -15.578  0.00  0.00     0.114 C 
BRANCH  46  47
HETATM   47  C   UNK     0      -4.535   8.864 -14.339  0.00  0.00     0.139 C 
HETATM   48  O   UNK     0      -4.005   9.290 -13.303  0.00  0.00    -0.650 OA
BRANCH  47  49
HETATM   49  O   UNK     0      -5.852   8.480 -14.344  0.00  0.00    -0.776 OA
HETATM   50  H   UNK     0      -6.363   8.295 -15.215  0.00  0.00     0.167 HD
ENDBRANCH  47  49
ENDBRANCH  46  47
ENDBRANCH  45  46
ENDBRANCH  11  45
BRANCH  18  51
HETATM   51  C   UNK     0       3.334   5.675 -17.831  0.00  0.00     0.051 C 
BRANCH  51  52
HETATM   52  C   UNK     0       3.235   4.553 -16.808  0.00  0.00     0.114 C 
BRANCH  52  53
HETATM   53  C   UNK     0       3.980   3.353 -17.236  0.00  0.00     0.139 C 
HETATM   54  O   UNK     0       3.918   2.311 -16.564  0.00  0.00    -0.650 OA
BRANCH  53  55
HETATM   55  O   UNK     0       4.743   3.398 -18.377  0.00  0.00    -0.776 OA
HETATM   56  H   UNK     0       5.200   2.627 -18.805  0.00  0.00     0.167 HD
ENDBRANCH  53  55
ENDBRANCH  52  53
ENDBRANCH  51  52
ENDBRANCH  18  51
TORSDOF 16
ENDMDL
MODEL 16
REMARK VINA RESULT:      -7.0     23.150     27.047
REMARK  16 active torsions:
REMARK  status: ('A' for Active; 'I' for Inactive)
REMARK    1  A    between atoms: C_6  and  C_7 
REMARK    2  A    between atoms: C_7  and  C_8 
REMARK    3  A    between atoms: C_8  and  C_9 
REMARK    4  A    between atoms: C_9  and  O_11 
REMARK    5  A    between atoms: C_16  and  C_17 
REMARK    6  A    between atoms: C_17  and  C_18 
REMARK    7  A    between atoms: C_18  and  C_19 
REMARK    8  A    between atoms: C_19  and  O_21 
REMARK    9  A    between atoms: C_28  and  C_29 
REMARK   10  A    between atoms: C_29  and  C_30 
REMARK   11  A    between atoms: C_30  and  C_31 
REMARK   12  A    between atoms: C_31  and  O_33 
REMARK   13  A    between atoms: C_42  and  C_43 
REMARK   14  A    between atoms: C_43  and  C_44 
REMARK   15  A    between atoms: C_44  and  C_45 
REMARK   16  A    between atoms: C_45  and  O_47 
ROOT
HETATM    1  C   UNK     0      -4.422   4.376 -17.089  0.00  0.00     0.051 C 
HETATM    2  C   UNK     0      -4.746   5.198 -18.320  0.00  0.00    -0.031 A 
HETATM    3  C   UNK     0      -5.599   6.282 -18.453  0.00  0.00     0.021 A 
HETATM    4  N   UNK     0      -5.603   6.683 -19.747  0.00  0.00    -0.361 N 
HETATM    5  C   UNK     0      -4.765   5.884 -20.438  0.00  0.00     0.022 A 
HETATM    6  C   UNK     0      -4.214   4.941 -19.576  0.00  0.00    -0.027 A 
HETATM    7  C   UNK     0      -4.342   5.960 -21.872  0.00  0.00     0.115 C 
HETATM    8  C   UNK     0      -4.027   7.343 -22.417  0.00  0.00     0.021 A 
HETATM    9  N   UNK     0      -3.452   8.378 -21.787  0.00  0.00    -0.361 N 
HETATM   10  C   UNK     0      -3.455   9.435 -22.627  0.00  0.00     0.022 A 
HETATM   11  C   UNK     0      -4.040   9.066 -23.835  0.00  0.00    -0.027 A 
HETATM   12  C   UNK     0      -4.403   7.750 -23.710  0.00  0.00    -0.031 A 
HETATM   13  C   UNK     0      -5.073   6.921 -24.783  0.00  0.00     0.051 C 
HETATM   14  C   UNK     0      -2.958  10.842 -22.309  0.00  0.00     0.115 C 
HETATM   15  C   UNK     0      -3.700  11.513 -21.164  0.00  0.00     0.021 A 
HETATM   16  N   UNK     0      -3.821  11.077 -19.896  0.00  0.00    -0.361 N 
HETATM   17  C   UNK     0      -4.609  11.914 -19.218  0.00  0.00     0.022 A 
HETATM   18  C   UNK     0      -5.014  12.950 -20.083  0.00  0.00    -0.027 A 
HETATM   19  C   UNK     0      -4.437  12.688 -21.299  0.00  0.00    -0.031 A 
HETATM   20  C   UNK     0      -4.586  13.583 -22.515  0.00  0.00     0.051 C 
HETATM   21  C   UNK     0      -5.112  11.838 -17.794  0.00  0.00     0.115 C 
HETATM   22  C   UNK     0      -5.387  10.466 -17.225  0.00  0.00     0.022 A 
HETATM   23  N   UNK     0      -5.955   9.415 -17.830  0.00  0.00    -0.361 N 
HETATM   24  C   UNK     0      -5.870   8.353 -17.003  0.00  0.00     0.021 A 
HETATM   25  C   UNK     0      -5.242   8.733 -15.832  0.00  0.00    -0.031 A 
HETATM   26  C   UNK     0      -4.954   7.909 -14.595  0.00  0.00     0.051 C 
HETATM   27  C   UNK     0      -4.924  10.081 -15.950  0.00  0.00    -0.027 A 
HETATM   28  C   UNK     0      -6.292   6.921 -17.283  0.00  0.00     0.115 C 
HETATM   29  H   UNK     0      -6.228   7.504 -20.170  0.00  0.00     0.165 HD
HETATM   30  H   UNK     0      -2.997   8.353 -20.766  0.00  0.00     0.165 HD
HETATM   31  H   UNK     0      -3.301  10.187 -19.457  0.00  0.00     0.165 HD
HETATM   32  H   UNK     0      -6.460   9.423 -18.831  0.00  0.00     0.165 HD
ENDROOT
BRANCH   6  33
HETATM   33  C   UNK     0      -3.235   3.828 -19.853  0.00  0.00     0.051 C 
BRANCH  33  34
HETATM   34  C   UNK     0      -3.959   2.570 -20.271  0.00  0.00     0.114 C 
BRANCH  34  35
HETATM   35  C   UNK     0      -3.586   1.498 -19.304  0.00  0.00     0.139 C 
HETATM   36  O   UNK     0      -2.599   1.656 -18.528  0.00  0.00    -0.650 OA
BRANCH  35  37
HETATM   37  O   UNK     0      -4.285   0.301 -19.205  0.00  0.00    -0.776 OA
HETATM   38  H   UNK     0      -4.908  -0.015 -19.931  0.00  0.00     0.167 HD
ENDBRANCH  35  37
ENDBRANCH  34  35
ENDBRANCH  33  34
ENDBRANCH   6  33
BRANCH  27  39
HETATM   39  C   UNK     0      -4.297  10.865 -14.852  0.00  0.00     0.051 C 
BRANCH  39  40
HETATM   40  C   UNK     0      -2.859  10.720 -14.628  0.00  0.00     0.114 C 
BRANCH  40  41
HETATM   41  C   UNK     0      -2.314  10.331 -13.347  0.00  0.00     0.139 C 
HETATM   42  O   UNK     0      -1.106  10.367 -13.079  0.00  0.00    -0.650 OA
BRANCH  41  43
HETATM   43  O   UNK     0      -3.199   9.879 -12.327  0.00  0.00    -0.776 OA
HETATM   44  H   UNK     0      -3.945  10.527 -12.103  0.00  0.00     0.167 HD
ENDBRANCH  41  43
ENDBRANCH  40  41
ENDBRANCH  39  40
ENDBRANCH  27  39
BRANCH  11  45
HETATM   45  C   UNK     0      -4.257   9.900 -25.070  0.00  0.00     0.051 C 
BRANCH  45  46
HETATM   46  C   UNK     0      -3.085   9.949 -25.981  0.00  0.00     0.114 C 
BRANCH  46  47
HETATM   47  C   UNK     0      -3.574  10.439 -27.302  0.00  0.00     0.139 C 
HETATM   48  O   UNK     0      -3.020  10.023 -28.330  0.00  0.00    -0.650 OA
BRANCH  47  49
HETATM   49  O   UNK     0      -4.612  11.332 -27.380  0.00  0.00    -0.776 OA
HETATM   50  H   UNK     0      -5.544  11.119 -27.004  0.00  0.00     0.167 HD
ENDBRANCH  47  49
ENDBRANCH  46  47
ENDBRANCH  45  46
ENDBRANCH  11  45
BRANCH  18  51
HETATM   51  C   UNK     0      -5.885  14.137 -19.764  0.00  0.00     0.051 C 
BRANCH  51  52
HETATM   52  C   UNK     0      -4.944  15.254 -19.336  0.00  0.00     0.114 C 
BRANCH  52  53
HETATM   53  C   UNK     0      -4.660  15.209 -17.889  0.00  0.00     0.139 C 
HETATM   54  O   UNK     0      -5.593  15.141 -17.074  0.00  0.00    -0.650 OA
BRANCH  53  55
HETATM   55  O   UNK     0      -3.358  15.246 -17.451  0.00  0.00    -0.776 OA
HETATM   56  H   UNK     0      -2.861  16.056 -17.165  0.00  0.00     0.167 HD
ENDBRANCH  53  55
ENDBRANCH  52  53
ENDBRANCH  51  52
ENDBRANCH  18  51
TORSDOF 16
ENDMDL
MODEL 17
REMARK VINA RESULT:      -7.0     23.484     27.321
REMARK  16 active torsions:
REMARK  status: ('A' for Active; 'I' for Inactive)
REMARK    1  A    between atoms: C_6  and  C_7 
REMARK    2  A    between atoms: C_7  and  C_8 
REMARK    3  A    between atoms: C_8  and  C_9 
REMARK    4  A    between atoms: C_9  and  O_11 
REMARK    5  A    between atoms: C_16  and  C_17 
REMARK    6  A    between atoms: C_17  and  C_18 
REMARK    7  A    between atoms: C_18  and  C_19 
REMARK    8  A    between atoms: C_19  and  O_21 
REMARK    9  A    between atoms: C_28  and  C_29 
REMARK   10  A    between atoms: C_29  and  C_30 
REMARK   11  A    between atoms: C_30  and  C_31 
REMARK   12  A    between atoms: C_31  and  O_33 
REMARK   13  A    between atoms: C_42  and  C_43 
REMARK   14  A    between atoms: C_43  and  C_44 
REMARK   15  A    between atoms: C_44  and  C_45 
REMARK   16  A    between atoms: C_45  and  O_47 
ROOT
HETATM    1  C   UNK     0      -4.803   5.703 -15.300  0.00  0.00     0.051 C 
HETATM    2  C   UNK     0      -5.152   6.269 -16.661  0.00  0.00    -0.031 A 
HETATM    3  C   UNK     0      -5.840   7.429 -16.982  0.00  0.00     0.021 A 
HETATM    4  N   UNK     0      -5.946   7.521 -18.329  0.00  0.00    -0.361 N 
HETATM    5  C   UNK     0      -5.334   6.450 -18.874  0.00  0.00     0.022 A 
HETATM    6  C   UNK     0      -4.829   5.644 -17.859  0.00  0.00    -0.027 A 
HETATM    7  C   UNK     0      -5.090   6.124 -20.314  0.00  0.00     0.115 C 
HETATM    8  C   UNK     0      -4.640   7.268 -21.205  0.00  0.00     0.021 A 
HETATM    9  N   UNK     0      -3.838   8.300 -20.900  0.00  0.00    -0.361 N 
HETATM   10  C   UNK     0      -3.787   9.122 -21.969  0.00  0.00     0.022 A 
HETATM   11  C   UNK     0      -4.569   8.600 -22.995  0.00  0.00    -0.027 A 
HETATM   12  C   UNK     0      -5.109   7.432 -22.520  0.00  0.00    -0.031 A 
HETATM   13  C   UNK     0      -6.028   6.515 -23.296  0.00  0.00     0.051 C 
HETATM   14  C   UNK     0      -3.045  10.453 -22.048  0.00  0.00     0.115 C 
HETATM   15  C   UNK     0      -3.525  11.487 -21.043  0.00  0.00     0.021 A 
HETATM   16  N   UNK     0      -3.549  11.378 -19.701  0.00  0.00    -0.361 N 
HETATM   17  C   UNK     0      -4.108  12.474 -19.182  0.00  0.00     0.022 A 
HETATM   18  C   UNK     0      -4.457  13.342 -20.236  0.00  0.00    -0.027 A 
HETATM   19  C   UNK     0      -4.085  12.713 -21.396  0.00  0.00    -0.031 A 
HETATM   20  C   UNK     0      -4.249  13.322 -22.776  0.00  0.00     0.051 C 
HETATM   21  C   UNK     0      -4.432  12.812 -17.745  0.00  0.00     0.115 C 
HETATM   22  C   UNK     0      -4.839  11.676 -16.836  0.00  0.00     0.022 A 
HETATM   23  N   UNK     0      -5.632  10.633 -17.114  0.00  0.00    -0.361 N 
HETATM   24  C   UNK     0      -5.606   9.789 -16.063  0.00  0.00     0.021 A 
HETATM   25  C   UNK     0      -4.785  10.305 -15.080  0.00  0.00    -0.031 A 
HETATM   26  C   UNK     0      -4.471   9.745 -13.708  0.00  0.00     0.051 C 
HETATM   27  C   UNK     0      -4.282  11.513 -15.551  0.00  0.00    -0.027 A 
HETATM   28  C   UNK     0      -6.273   8.429 -15.947  0.00  0.00     0.115 C 
HETATM   29  H   UNK     0      -6.487   8.322 -18.883  0.00  0.00     0.165 HD
HETATM   30  H   UNK     0      -3.267   8.426 -19.947  0.00  0.00     0.165 HD
HETATM   31  H   UNK     0      -3.120  10.532 -19.104  0.00  0.00     0.165 HD
HETATM   32  H   UNK     0      -6.253  10.504 -18.039  0.00  0.00     0.165 HD
ENDROOT
BRANCH   6  33
HETATM   33  C   UNK     0      -4.074   4.341 -17.940  0.00  0.00     0.051 C 
BRANCH  33  34
HETATM   34  C   UNK     0      -4.994   3.214 -18.345  0.00  0.00     0.114 C 
BRANCH  34  35
HETATM   35  C   UNK     0      -4.168   2.200 -19.061  0.00  0.00     0.139 C 
HETATM   36  O   UNK     0      -2.917   2.151 -18.876  0.00  0.00    -0.650 OA
BRANCH  35  37
HETATM   37  O   UNK     0      -4.715   1.277 -19.945  0.00  0.00    -0.776 OA
HETATM   38  H   UNK     0      -4.744   1.440 -20.938  0.00  0.00     0.167 HD
ENDBRANCH  35  37
ENDBRANCH  34  35
ENDBRANCH  33  34
ENDBRANCH   6  33
BRANCH  27  39
HETATM   39  C   UNK     0      -3.410  12.401 -14.736  0.00  0.00     0.051 C 
BRANCH  39  40
HETATM   40  C   UNK     0      -1.984  12.084 -14.650  0.00  0.00     0.114 C 
BRANCH  40  41
HETATM   41  C   UNK     0      -1.384  11.556 -13.446  0.00  0.00     0.139 C 
HETATM   42  O   UNK     0      -0.808  10.460 -13.393  0.00  0.00    -0.650 OA
BRANCH  41  43
HETATM   43  O   UNK     0      -1.448  12.323 -12.248  0.00  0.00    -0.776 OA
HETATM   44  H   UNK     0      -0.827  12.004 -11.513  0.00  0.00     0.167 HD
ENDBRANCH  41  43
ENDBRANCH  40  41
ENDBRANCH  39  40
ENDBRANCH  27  39
BRANCH  11  45
HETATM   45  C   UNK     0      -4.811   9.158 -24.372  0.00  0.00     0.051 C 
BRANCH  45  46
HETATM   46  C   UNK     0      -3.624   9.108 -25.263  0.00  0.00     0.114 C 
BRANCH  46  47
HETATM   47  C   UNK     0      -3.519  10.436 -25.933  0.00  0.00     0.139 C 
HETATM   48  O   UNK     0      -4.272  10.679 -26.887  0.00  0.00    -0.650 OA
BRANCH  47  49
HETATM   49  O   UNK     0      -2.609  11.369 -25.506  0.00  0.00    -0.776 OA
HETATM   50  H   UNK     0      -2.591  11.709 -24.537  0.00  0.00     0.167 HD
ENDBRANCH  47  49
ENDBRANCH  46  47
ENDBRANCH  45  46
ENDBRANCH  11  45
BRANCH  18  51
HETATM   51  C   UNK     0      -5.090  14.706 -20.141  0.00  0.00     0.051 C 
BRANCH  51  52
HETATM   52  C   UNK     0      -6.586  14.472 -19.993  0.00  0.00     0.114 C 
BRANCH  52  53
HETATM   53  C   UNK     0      -7.364  15.257 -20.970  0.00  0.00     0.139 C 
HETATM   54  O   UNK     0      -7.549  14.816 -22.116  0.00  0.00    -0.650 OA
BRANCH  53  55
HETATM   55  O   UNK     0      -7.880  16.477 -20.606  0.00  0.00    -0.776 OA
HETATM   56  H   UNK     0      -8.738  16.630 -20.132  0.00  0.00     0.167 HD
ENDBRANCH  53  55
ENDBRANCH  52  53
ENDBRANCH  51  52
ENDBRANCH  18  51
TORSDOF 16
ENDMDL
MODEL 18
REMARK VINA RESULT:      -6.9     18.847     22.650
REMARK  16 active torsions:
REMARK  status: ('A' for Active; 'I' for Inactive)
REMARK    1  A    between atoms: C_6  and  C_7 
REMARK    2  A    between atoms: C_7  and  C_8 
REMARK    3  A    between atoms: C_8  and  C_9 
REMARK    4  A    between atoms: C_9  and  O_11 
REMARK    5  A    between atoms: C_16  and  C_17 
REMARK    6  A    between atoms: C_17  and  C_18 
REMARK    7  A    between atoms: C_18  and  C_19 
REMARK    8  A    between atoms: C_19  and  O_21 
REMARK    9  A    between atoms: C_28  and  C_29 
REMARK   10  A    between atoms: C_29  and  C_30 
REMARK   11  A    between atoms: C_30  and  C_31 
REMARK   12  A    between atoms: C_31  and  O_33 
REMARK   13  A    between atoms: C_42  and  C_43 
REMARK   14  A    between atoms: C_43  and  C_44 
REMARK   15  A    between atoms: C_44  and  C_45 
REMARK   16  A    between atoms: C_45  and  O_47 
ROOT
HETATM    1  C   UNK     0       5.500   7.694 -18.082  0.00  0.00     0.051 C 
HETATM    2  C   UNK     0       4.510   6.552 -18.200  0.00  0.00    -0.031 A 
HETATM    3  C   UNK     0       3.476   6.193 -17.350  0.00  0.00     0.021 A 
HETATM    4  N   UNK     0       2.870   5.084 -17.837  0.00  0.00    -0.361 N 
HETATM    5  C   UNK     0       3.490   4.734 -18.983  0.00  0.00     0.022 A 
HETATM    6  C   UNK     0       4.523   5.630 -19.238  0.00  0.00    -0.027 A 
HETATM    7  C   UNK     0       3.152   3.646 -19.954  0.00  0.00     0.115 C 
HETATM    8  C   UNK     0       1.682   3.462 -20.287  0.00  0.00     0.021 A 
HETATM    9  N   UNK     0       0.728   4.398 -20.407  0.00  0.00    -0.361 N 
HETATM   10  C   UNK     0      -0.449   3.772 -20.620  0.00  0.00     0.022 A 
HETATM   11  C   UNK     0      -0.246   2.396 -20.648  0.00  0.00    -0.027 A 
HETATM   12  C   UNK     0       1.095   2.193 -20.439  0.00  0.00    -0.031 A 
HETATM   13  C   UNK     0       1.778   0.845 -20.393  0.00  0.00     0.051 C 
HETATM   14  C   UNK     0      -1.814   4.441 -20.752  0.00  0.00     0.115 C 
HETATM   15  C   UNK     0      -2.239   5.222 -19.518  0.00  0.00     0.021 A 
HETATM   16  N   UNK     0      -1.595   6.250 -18.935  0.00  0.00    -0.361 N 
HETATM   17  C   UNK     0      -2.257   6.614 -17.834  0.00  0.00     0.022 A 
HETATM   18  C   UNK     0      -3.392   5.789 -17.700  0.00  0.00    -0.027 A 
HETATM   19  C   UNK     0      -3.370   4.923 -18.761  0.00  0.00    -0.031 A 
HETATM   20  C   UNK     0      -4.441   3.879 -19.021  0.00  0.00     0.051 C 
HETATM   21  C   UNK     0      -1.916   7.658 -16.796  0.00  0.00     0.115 C 
HETATM   22  C   UNK     0      -0.455   7.883 -16.486  0.00  0.00     0.022 A 
HETATM   23  N   UNK     0       0.518   6.970 -16.365  0.00  0.00    -0.361 N 
HETATM   24  C   UNK     0       1.693   7.618 -16.231  0.00  0.00     0.021 A 
HETATM   25  C   UNK     0       1.470   8.982 -16.256  0.00  0.00    -0.031 A 
HETATM   26  C   UNK     0       2.464  10.113 -16.102  0.00  0.00     0.051 C 
HETATM   27  C   UNK     0       0.103   9.176 -16.418  0.00  0.00    -0.027 A 
HETATM   28  C   UNK     0       3.084   7.014 -16.155  0.00  0.00     0.115 C 
HETATM   29  H   UNK     0       2.034   4.533 -17.347  0.00  0.00     0.165 HD
HETATM   30  H   UNK     0       0.890   5.503 -20.391  0.00  0.00     0.165 HD
HETATM   31  H   UNK     0      -0.680   6.761 -19.332  0.00  0.00     0.165 HD
HETATM   32  H   UNK     0       0.379   5.858 -16.330  0.00  0.00     0.165 HD
ENDROOT
BRANCH   6  33
HETATM   33  C   UNK     0       5.510   5.673 -20.378  0.00  0.00     0.051 C 
BRANCH  33  34
HETATM   34  C   UNK     0       6.615   4.666 -20.167  0.00  0.00     0.114 C 
BRANCH  34  35
HETATM   35  C   UNK     0       7.911   5.389 -20.314  0.00  0.00     0.139 C 
HETATM   36  O   UNK     0       8.336   6.131 -19.381  0.00  0.00    -0.650 OA
BRANCH  35  37
HETATM   37  O   UNK     0       8.702   5.287 -21.452  0.00  0.00    -0.776 OA
HETATM   38  H   UNK     0       9.559   4.758 -21.462  0.00  0.00     0.167 HD
ENDBRANCH  35  37
ENDBRANCH  34  35
ENDBRANCH  33  34
ENDBRANCH   6  33
BRANCH  27  39
HETATM   39  C   UNK     0      -0.530  10.523 -16.419  0.00  0.00     0.051 C 
BRANCH  39  40
HETATM   40  C   UNK     0      -0.872  11.130 -15.134  0.00  0.00     0.114 C 
BRANCH  40  41
HETATM   41  C   UNK     0      -1.480  10.375 -14.061  0.00  0.00     0.139 C 
HETATM   42  O   UNK     0      -0.900  10.106 -13.000  0.00  0.00    -0.650 OA
BRANCH  41  43
HETATM   43  O   UNK     0      -2.816   9.907 -14.217  0.00  0.00    -0.776 OA
HETATM   44  H   UNK     0      -3.500  10.401 -13.657  0.00  0.00     0.167 HD
ENDBRANCH  41  43
ENDBRANCH  40  41
ENDBRANCH  39  40
ENDBRANCH  27  39
BRANCH  11  45
HETATM   45  C   UNK     0      -1.254   1.299 -20.863  0.00  0.00     0.051 C 
BRANCH  45  46
HETATM   46  C   UNK     0      -1.990   0.903 -19.635  0.00  0.00     0.114 C 
BRANCH  46  47
HETATM   47  C   UNK     0      -3.358   0.486 -20.055  0.00  0.00     0.139 C 
HETATM   48  O   UNK     0      -3.589   0.345 -21.264  0.00  0.00    -0.650 OA
BRANCH  47  49
HETATM   49  O   UNK     0      -4.342   0.264 -19.125  0.00  0.00    -0.776 OA
HETATM   50  H   UNK     0      -5.336   0.407 -19.338  0.00  0.00     0.167 HD
ENDBRANCH  47  49
ENDBRANCH  46  47
ENDBRANCH  45  46
ENDBRANCH  11  45
BRANCH  18  51
HETATM   51  C   UNK     0      -4.452   5.839 -16.629  0.00  0.00     0.051 C 
BRANCH  51  52
HETATM   52  C   UNK     0      -5.440   6.914 -17.058  0.00  0.00     0.114 C 
BRANCH  52  53
HETATM   53  C   UNK     0      -5.625   7.939 -16.012  0.00  0.00     0.139 C 
HETATM   54  O   UNK     0      -4.974   7.875 -14.957  0.00  0.00    -0.650 OA
BRANCH  53  55
HETATM   55  O   UNK     0      -6.521   8.960 -16.213  0.00  0.00    -0.776 OA
HETATM   56  H   UNK     0      -7.480   8.857 -16.450  0.00  0.00     0.167 HD
ENDBRANCH  53  55
ENDBRANCH  52  53
ENDBRANCH  51  52
ENDBRANCH  18  51
TORSDOF 16
ENDMDL
MODEL 19
REMARK VINA RESULT:      -6.9     21.368     25.296
REMARK  16 active torsions:
REMARK  status: ('A' for Active; 'I' for Inactive)
REMARK    1  A    between atoms: C_6  and  C_7 
REMARK    2  A    between atoms: C_7  and  C_8 
REMARK    3  A    between atoms: C_8  and  C_9 
REMARK    4  A    between atoms: C_9  and  O_11 
REMARK    5  A    between atoms: C_16  and  C_17 
REMARK    6  A    between atoms: C_17  and  C_18 
REMARK    7  A    between atoms: C_18  and  C_19 
REMARK    8  A    between atoms: C_19  and  O_21 
REMARK    9  A    between atoms: C_28  and  C_29 
REMARK   10  A    between atoms: C_29  and  C_30 
REMARK   11  A    between atoms: C_30  and  C_31 
REMARK   12  A    between atoms: C_31  and  O_33 
REMARK   13  A    between atoms: C_42  and  C_43 
REMARK   14  A    between atoms: C_43  and  C_44 
REMARK   15  A    between atoms: C_44  and  C_45 
REMARK   16  A    between atoms: C_45  and  O_47 
ROOT
HETATM    1  C   UNK     0      14.216  17.271  -8.154  0.00  0.00     0.051 C 
HETATM    2  C   UNK     0      13.102  16.686  -8.997  0.00  0.00    -0.031 A 
HETATM    3  C   UNK     0      13.179  15.859 -10.106  0.00  0.00     0.021 A 
HETATM    4  N   UNK     0      11.927  15.609 -10.559  0.00  0.00    -0.361 N 
HETATM    5  C   UNK     0      11.054  16.252  -9.757  0.00  0.00     0.022 A 
HETATM    6  C   UNK     0      11.755  16.938  -8.771  0.00  0.00    -0.027 A 
HETATM    7  C   UNK     0       9.557  16.228  -9.767  0.00  0.00     0.115 C 
HETATM    8  C   UNK     0       8.899  14.876  -9.980  0.00  0.00     0.021 A 
HETATM    9  N   UNK     0       9.304  13.671  -9.549  0.00  0.00    -0.361 N 
HETATM   10  C   UNK     0       8.463  12.742 -10.051  0.00  0.00     0.022 A 
HETATM   11  C   UNK     0       7.485  13.366 -10.820  0.00  0.00    -0.027 A 
HETATM   12  C   UNK     0       7.753  14.710 -10.779  0.00  0.00    -0.031 A 
HETATM   13  C   UNK     0       6.944  15.784 -11.471  0.00  0.00     0.051 C 
HETATM   14  C   UNK     0       8.580  11.231  -9.871  0.00  0.00     0.115 C 
HETATM   15  C   UNK     0       9.865  10.641 -10.430  0.00  0.00     0.021 A 
HETATM   16  N   UNK     0      11.129  10.957 -10.091  0.00  0.00    -0.361 N 
HETATM   17  C   UNK     0      11.974  10.267 -10.860  0.00  0.00     0.022 A 
HETATM   18  C   UNK     0      11.225   9.456 -11.736  0.00  0.00    -0.027 A 
HETATM   19  C   UNK     0       9.905   9.699 -11.455  0.00  0.00    -0.031 A 
HETATM   20  C   UNK     0       8.752   8.999 -12.152  0.00  0.00     0.051 C 
HETATM   21  C   UNK     0      13.484  10.312 -10.927  0.00  0.00     0.115 C 
HETATM   22  C   UNK     0      14.154  11.641 -10.673  0.00  0.00     0.022 A 
HETATM   23  N   UNK     0      13.771  12.856 -11.087  0.00  0.00    -0.361 N 
HETATM   24  C   UNK     0      14.576  13.773 -10.512  0.00  0.00     0.021 A 
HETATM   25  C   UNK     0      15.506  13.132  -9.716  0.00  0.00    -0.031 A 
HETATM   26  C   UNK     0      16.638  13.727  -8.904  0.00  0.00     0.051 C 
HETATM   27  C   UNK     0      15.256  11.767  -9.803  0.00  0.00    -0.027 A 
HETATM   28  C   UNK     0      14.476  15.286 -10.604  0.00  0.00     0.115 C 
HETATM   29  H   UNK     0      11.672  15.013 -11.466  0.00  0.00     0.165 HD
HETATM   30  H   UNK     0      10.153  13.478  -8.848  0.00  0.00     0.165 HD
HETATM   31  H   UNK     0      11.432  11.645  -9.259  0.00  0.00     0.165 HD
HETATM   32  H   UNK     0      12.956  13.076 -11.824  0.00  0.00     0.165 HD
ENDROOT
BRANCH   6  33
HETATM   33  C   UNK     0      11.248  17.805  -7.647  0.00  0.00     0.051 C 
BRANCH  33  34
HETATM   34  C   UNK     0      10.686  16.959  -6.529  0.00  0.00     0.114 C 
BRANCH  34  35
HETATM   35  C   UNK     0      10.017  17.879  -5.566  0.00  0.00     0.139 C 
HETATM   36  O   UNK     0      10.059  19.131  -5.746  0.00  0.00    -0.650 OA
BRANCH  35  37
HETATM   37  O   UNK     0       9.327  17.422  -4.449  0.00  0.00    -0.776 OA
HETATM   38  H   UNK     0       9.679  17.549  -3.514  0.00  0.00     0.167 HD
ENDBRANCH  35  37
ENDBRANCH  34  35
ENDBRANCH  33  34
ENDBRANCH   6  33
BRANCH  27  39
HETATM   39  C   UNK     0      16.104  10.743  -9.134  0.00  0.00     0.051 C 
BRANCH  39  40
HETATM   40  C   UNK     0      15.500   9.917  -8.089  0.00  0.00     0.114 C 
BRANCH  40  41
HETATM   41  C   UNK     0      16.142   8.725  -7.581  0.00  0.00     0.139 C 
HETATM   42  O   UNK     0      17.327   8.687  -7.224  0.00  0.00    -0.650 OA
BRANCH  41  43
HETATM   43  O   UNK     0      15.387   7.523  -7.479  0.00  0.00    -0.776 OA
HETATM   44  H   UNK     0      14.566   7.592  -6.889  0.00  0.00     0.167 HD
ENDBRANCH  41  43
ENDBRANCH  40  41
ENDBRANCH  39  40
ENDBRANCH  27  39
BRANCH  11  45
HETATM   45  C   UNK     0       6.336  12.744 -11.567  0.00  0.00     0.051 C 
BRANCH  45  46
HETATM   46  C   UNK     0       6.640  12.416 -12.983  0.00  0.00     0.114 C 
BRANCH  46  47
HETATM   47  C   UNK     0       5.931  11.145 -13.305  0.00  0.00     0.139 C 
HETATM   48  O   UNK     0       6.374  10.433 -14.217  0.00  0.00    -0.650 OA
BRANCH  47  49
HETATM   49  O   UNK     0       4.810  10.770 -12.607  0.00  0.00    -0.776 OA
HETATM   50  H   UNK     0       4.768  10.808 -11.582  0.00  0.00     0.167 HD
ENDBRANCH  47  49
ENDBRANCH  46  47
ENDBRANCH  45  46
ENDBRANCH  11  45
BRANCH  18  51
HETATM   51  C   UNK     0      11.739   8.487 -12.768  0.00  0.00     0.051 C 
BRANCH  51  52
HETATM   52  C   UNK     0      12.093   9.318 -13.993  0.00  0.00     0.114 C 
BRANCH  52  53
HETATM   53  C   UNK     0      11.391   8.842 -15.201  0.00  0.00     0.139 C 
HETATM   54  O   UNK     0      10.189   8.539 -15.142  0.00  0.00    -0.650 OA
BRANCH  53  55
HETATM   55  O   UNK     0      12.076   8.735 -16.387  0.00  0.00    -0.776 OA
HETATM   56  H   UNK     0      12.426   7.895 -16.785  0.00  0.00     0.167 HD
ENDBRANCH  53  55
ENDBRANCH  52  53
ENDBRANCH  51  52
ENDBRANCH  18  51
TORSDOF 16
ENDMDL
MODEL 20
REMARK VINA RESULT:      -6.8     19.496     23.032
REMARK  16 active torsions:
REMARK  status: ('A' for Active; 'I' for Inactive)
REMARK    1  A    between atoms: C_6  and  C_7 
REMARK    2  A    between atoms: C_7  and  C_8 
REMARK    3  A    between atoms: C_8  and  C_9 
REMARK    4  A    between atoms: C_9  and  O_11 
REMARK    5  A    between atoms: C_16  and  C_17 
REMARK    6  A    between atoms: C_17  and  C_18 
REMARK    7  A    between atoms: C_18  and  C_19 
REMARK    8  A    between atoms: C_19  and  O_21 
REMARK    9  A    between atoms: C_28  and  C_29 
REMARK   10  A    between atoms: C_29  and  C_30 
REMARK   11  A    between atoms: C_30  and  C_31 
REMARK   12  A    between atoms: C_31  and  O_33 
REMARK   13  A    between atoms: C_42  and  C_43 
REMARK   14  A    between atoms: C_43  and  C_44 
REMARK   15  A    between atoms: C_44  and  C_45 
REMARK   16  A    between atoms: C_45  and  O_47 
ROOT
HETATM    1  C   UNK     0       2.731   3.673 -20.211  0.00  0.00     0.051 C 
HETATM    2  C   UNK     0       2.065   4.943 -19.723  0.00  0.00    -0.031 A 
HETATM    3  C   UNK     0       1.010   5.652 -20.276  0.00  0.00     0.021 A 
HETATM    4  N   UNK     0       0.767   6.746 -19.516  0.00  0.00    -0.361 N 
HETATM    5  C   UNK     0       1.638   6.746 -18.486  0.00  0.00     0.022 A 
HETATM    6  C   UNK     0       2.467   5.633 -18.586  0.00  0.00    -0.027 A 
HETATM    7  C   UNK     0       1.731   7.676 -17.317  0.00  0.00     0.115 C 
HETATM    8  C   UNK     0       0.422   8.079 -16.661  0.00  0.00     0.021 A 
HETATM    9  N   UNK     0      -0.686   7.343 -16.484  0.00  0.00    -0.361 N 
HETATM   10  C   UNK     0      -1.634   8.136 -15.941  0.00  0.00     0.022 A 
HETATM   11  C   UNK     0      -1.119   9.415 -15.754  0.00  0.00    -0.027 A 
HETATM   12  C   UNK     0       0.175   9.387 -16.206  0.00  0.00    -0.031 A 
HETATM   13  C   UNK     0       1.131  10.559 -16.195  0.00  0.00     0.051 C 
HETATM   14  C   UNK     0      -3.073   7.735 -15.626  0.00  0.00     0.115 C 
HETATM   15  C   UNK     0      -3.871   7.300 -16.845  0.00  0.00     0.021 A 
HETATM   16  N   UNK     0      -3.590   6.294 -17.694  0.00  0.00    -0.361 N 
HETATM   17  C   UNK     0      -4.496   6.281 -18.674  0.00  0.00     0.022 A 
HETATM   18  C   UNK     0      -5.418   7.322 -18.446  0.00  0.00    -0.027 A 
HETATM   19  C   UNK     0      -5.016   7.951 -17.297  0.00  0.00    -0.031 A 
HETATM   20  C   UNK     0      -5.758   9.117 -16.669  0.00  0.00     0.051 C 
HETATM   21  C   UNK     0      -4.587   5.404 -19.902  0.00  0.00     0.115 C 
HETATM   22  C   UNK     0      -3.292   4.960 -20.539  0.00  0.00     0.022 A 
HETATM   23  N   UNK     0      -2.172   5.670 -20.725  0.00  0.00    -0.361 N 
HETATM   24  C   UNK     0      -1.218   4.841 -21.195  0.00  0.00     0.021 A 
HETATM   25  C   UNK     0      -1.739   3.568 -21.325  0.00  0.00    -0.031 A 
HETATM   26  C   UNK     0      -1.072   2.313 -21.847  0.00  0.00     0.051 C 
HETATM   27  C   UNK     0      -3.066   3.619 -20.911  0.00  0.00    -0.027 A 
HETATM   28  C   UNK     0       0.241   5.164 -21.471  0.00  0.00     0.115 C 
HETATM   29  H   UNK     0       0.008   7.533 -19.735  0.00  0.00     0.165 HD
HETATM   30  H   UNK     0      -0.787   6.250 -16.696  0.00  0.00     0.165 HD
HETATM   31  H   UNK     0      -2.762   5.547 -17.576  0.00  0.00     0.165 HD
HETATM   32  H   UNK     0      -2.056   6.774 -20.567  0.00  0.00     0.165 HD
ENDROOT
BRANCH   6  33
HETATM   33  C   UNK     0       3.598   5.183 -17.697  0.00  0.00     0.051 C 
BRANCH  33  34
HETATM   34  C   UNK     0       3.073   4.392 -16.522  0.00  0.00     0.114 C 
BRANCH  34  35
HETATM   35  C   UNK     0       3.968   3.214 -16.341  0.00  0.00     0.139 C 
HETATM   36  O   UNK     0       4.840   3.211 -15.423  0.00  0.00    -0.650 OA
BRANCH  35  37
HETATM   37  O   UNK     0       3.894   2.085 -17.147  0.00  0.00    -0.776 OA
HETATM   38  H   UNK     0       4.368   2.029 -18.034  0.00  0.00     0.167 HD
ENDBRANCH  35  37
ENDBRANCH  34  35
ENDBRANCH  33  34
ENDBRANCH   6  33
BRANCH  27  39
HETATM   39  C   UNK     0      -3.980   2.447 -20.975  0.00  0.00     0.051 C 
BRANCH  39  40
HETATM   40  C   UNK     0      -4.242   1.703 -19.744  0.00  0.00     0.114 C 
BRANCH  40  41
HETATM   41  C   UNK     0      -3.354   1.761 -18.605  0.00  0.00     0.139 C 
HETATM   42  O   UNK     0      -3.593   2.421 -17.585  0.00  0.00    -0.650 OA
BRANCH  41  43
HETATM   43  O   UNK     0      -2.136   1.025 -18.641  0.00  0.00    -0.776 OA
HETATM   44  H   UNK     0      -1.320   1.552 -18.352  0.00  0.00     0.167 HD
ENDBRANCH  41  43
ENDBRANCH  40  41
ENDBRANCH  39  40
ENDBRANCH  27  39
BRANCH  11  45
HETATM   45  C   UNK     0      -1.798  10.628 -15.175  0.00  0.00     0.051 C 
BRANCH  45  46
HETATM   46  C   UNK     0      -1.864  10.634 -13.691  0.00  0.00     0.114 C 
BRANCH  46  47
HETATM   47  C   UNK     0      -3.288  10.409 -13.312  0.00  0.00     0.139 C 
HETATM   48  O   UNK     0      -4.175  10.938 -13.998  0.00  0.00    -0.650 OA
BRANCH  47  49
HETATM   49  O   UNK     0      -3.613   9.634 -12.227  0.00  0.00    -0.776 OA
HETATM   50  H   UNK     0      -4.507   9.736 -11.732  0.00  0.00     0.167 HD
ENDBRANCH  47  49
ENDBRANCH  46  47
ENDBRANCH  45  46
ENDBRANCH  11  45
BRANCH  18  51
HETATM   51  C   UNK     0      -6.629   7.683 -19.267  0.00  0.00     0.051 C 
BRANCH  51  52
HETATM   52  C   UNK     0      -6.140   8.629 -20.354  0.00  0.00     0.114 C 
BRANCH  52  53
HETATM   53  C   UNK     0      -6.971   9.845 -20.440  0.00  0.00     0.139 C 
HETATM   54  O   UNK     0      -6.984  10.517 -21.484  0.00  0.00    -0.650 OA
BRANCH  53  55
HETATM   55  O   UNK     0      -7.727  10.229 -19.359  0.00  0.00    -0.776 OA
HETATM   56  H   UNK     0      -8.282   9.632 -18.793  0.00  0.00     0.167 HD
ENDBRANCH  53  55
ENDBRANCH  52  53
ENDBRANCH  51  52
ENDBRANCH  18  51
TORSDOF 16
ENDMDL
