MODEL 1
REMARK VINA RESULT:      -9.2      0.000      0.000
REMARK  28 active torsions:
REMARK  status: ('A' for Active; 'I' for Inactive)
REMARK    1  A    between atoms: C_2  and  O_3 
REMARK    2  A    between atoms: C_2  and  C_4 
REMARK    3  A    between atoms: C_4  and  C_5 
REMARK    4  A    between atoms: C_5  and  C_6 
REMARK    5  A    between atoms: C_7  and  C_8 
REMARK    6  A    between atoms: C_8  and  C_9 
REMARK    7  A    between atoms: C_9  and  O_11 
REMARK    8  A    between atoms: C_28  and  C_29 
REMARK    9  A    between atoms: C_29  and  C_30 
REMARK   10  A    between atoms: C_30  and  O_32 
REMARK   11  A    between atoms: C_33  and  C_34 
REMARK   12  A    between atoms: C_34  and  C_35 
REMARK   13  A    between atoms: C_35  and  C_36 
REMARK   14  A    between atoms: C_36  and  O_38 
REMARK   15  A    between atoms: C_39  and  C_40 
REMARK   16  A    between atoms: C_40  and  C_41 
REMARK   17  A    between atoms: C_41  and  C_42 
REMARK   18  A    between atoms: C_42  and  O_44 
REMARK   19  A    between atoms: C_45  and  C_46 
REMARK   20  A    between atoms: C_46  and  C_47 
REMARK   21  A    between atoms: C_47  and  O_49 
REMARK   22  A    between atoms: C_50  and  C_51 
REMARK   23  A    between atoms: C_51  and  C_52 
REMARK   24  A    between atoms: C_52  and  O_54 
REMARK   25  A    between atoms: C_55  and  C_56 
REMARK   26  A    between atoms: C_56  and  C_57 
REMARK   27  A    between atoms: C_57  and  C_58 
REMARK   28  A    between atoms: C_58  and  O_60 
ROOT
ATOM      1  O   UNK d   0      11.450  -8.171  16.579  0.00  0.00    -0.650 OA
ATOM      2  C   UNK d   0      11.831  -7.614  15.525  0.00  0.00     0.139 C 
ENDROOT
BRANCH   2   3
ATOM      3  O   UNK d   0      11.982  -8.364  14.384  0.00  0.00    -0.776 OA
ATOM      4  H   UNK d   0      12.074  -7.918  13.468  0.00  0.00     0.167 HD
ENDBRANCH   2   3
BRANCH   2   5
ATOM      5  C   UNK d   0      12.117  -6.151  15.514  0.00  0.00     0.115 C 
BRANCH   5   6
ATOM      6  C   UNK d   0      10.929  -5.395  14.984  0.00  0.00     0.052 C 
BRANCH   6   7
ATOM      7  C   UNK d   0      11.236  -4.652  13.706  0.00  0.00    -0.020 A 
ATOM      8  C   UNK d   0      11.713  -3.440  13.582  0.00  0.00    -0.011 A 
ATOM      9  C   UNK d   0      11.833  -3.152  12.163  0.00  0.00     0.067 A 
ATOM     10  C   UNK d   0      12.283  -2.075  11.383  0.00  0.00     0.062 C 
ATOM     11  N   UNK d   0      11.401  -4.242  11.495  0.00  0.00    -0.248 NA
ATOM     12  C   UNK d   0      12.584  -2.086  10.016  0.00  0.00     0.041 A 
ATOM     13  N   UNK d   0      11.945  -2.648   8.972  0.00  0.00    -0.355 N 
ATOM     14  C   UNK d   0      13.771  -1.473   9.576  0.00  0.00    -0.022 A 
ATOM     15  C   UNK d   0      12.701  -2.413   7.883  0.00  0.00     0.042 A 
ATOM     16  H   UNK d   0      10.970  -3.182   9.002  0.00  0.00     0.166 HD
ATOM     17  C   UNK d   0      12.499  -2.777   6.536  0.00  0.00     0.062 C 
ATOM     18  C   UNK d   0      13.854  -1.680   8.222  0.00  0.00    -0.013 A 
ATOM     19  C   UNK d   0      12.095  -3.981   6.019  0.00  0.00     0.067 A 
ATOM     20  N   UNK d   0      11.637  -4.888   6.886  0.00  0.00    -0.248 NA
ATOM     21  C   UNK d   0      12.038  -4.585   4.699  0.00  0.00    -0.011 A 
ATOM     22  C   UNK d   0      11.286  -6.042   6.228  0.00  0.00     0.066 A 
ATOM     23  C   UNK d   0      10.756  -7.059   7.008  0.00  0.00     0.062 C 
ATOM     24  C   UNK d   0      11.568  -5.792   4.828  0.00  0.00    -0.020 A 
ATOM     25  C   UNK d   0      10.449  -7.023   8.377  0.00  0.00     0.041 A 
ATOM     26  N   UNK d   0      11.091  -6.478   9.417  0.00  0.00    -0.355 N 
ATOM     27  C   UNK d   0       9.255  -7.635   8.817  0.00  0.00    -0.022 A 
ATOM     28  C   UNK d   0      10.345  -6.718  10.506  0.00  0.00     0.042 A 
ATOM     29  H   UNK d   0      12.076  -5.950   9.387  0.00  0.00     0.166 HD
ATOM     30  C   UNK d   0      10.538  -6.370  11.852  0.00  0.00     0.062 C 
ATOM     31  C   UNK d   0       9.181  -7.446  10.163  0.00  0.00    -0.013 A 
ATOM     32  C   UNK d   0      11.028  -5.180  12.366  0.00  0.00     0.066 A 
BRANCH   8  33
ATOM     33  C   UNK d   0      12.068  -2.513  14.673  0.00  0.00     0.151 C 
BRANCH  33  34
ATOM     34  C   UNK d   0      10.997  -1.545  14.970  0.00  0.00     0.143 C 
ATOM     35  O   UNK d   0      10.946  -0.453  14.386  0.00  0.00    -0.650 OA
BRANCH  34  36
ATOM     36  O   UNK d   0      10.044  -1.860  15.911  0.00  0.00    -0.776 OA
ATOM     37  H   UNK d   0       9.835  -1.226  16.693  0.00  0.00     0.167 HD
ENDBRANCH  34  36
ENDBRANCH  33  34
ENDBRANCH   8  33
BRANCH  31  38
ATOM     38  C   UNK d   0       8.067  -7.916  11.069  0.00  0.00     0.151 C 
BRANCH  38  39
ATOM     39  C   UNK d   0       7.002  -6.944  11.200  0.00  0.00     0.143 C 
ATOM     40  O   UNK d   0       6.577  -6.288  10.233  0.00  0.00    -0.650 OA
BRANCH  39  41
ATOM     41  O   UNK d   0       6.422  -6.726  12.449  0.00  0.00    -0.776 OA
ATOM     42  H   UNK d   0       5.877  -7.497  12.846  0.00  0.00     0.167 HD
ENDBRANCH  39  41
ENDBRANCH  38  39
ENDBRANCH  31  38
BRANCH  27  43
ATOM     43  C   UNK d   0       8.209  -8.377   8.023  0.00  0.00     0.052 C 
BRANCH  43  44
ATOM     44  C   UNK d   0       8.531  -9.823   7.828  0.00  0.00     0.115 C 
BRANCH  44  45
ATOM     45  C   UNK d   0       7.554 -10.589   8.644  0.00  0.00     0.139 C 
ATOM     46  O   UNK d   0       6.465 -10.035   8.938  0.00  0.00    -0.650 OA
BRANCH  45  47
ATOM     47  O   UNK d   0       7.790 -11.874   9.082  0.00  0.00    -0.776 OA
ATOM     48  H   UNK d   0       8.738 -12.281   9.140  0.00  0.00     0.167 HD
ENDBRANCH  45  47
ENDBRANCH  44  45
ENDBRANCH  43  44
ENDBRANCH  27  43
BRANCH  24  49
ATOM     49  C   UNK d   0      11.310  -6.745   3.735  0.00  0.00     0.052 C 
BRANCH  49  50
ATOM     50  C   UNK d   0      12.524  -7.605   3.491  0.00  0.00     0.115 C 
BRANCH  50  51
ATOM     51  C   UNK d   0      13.386  -7.235   2.376  0.00  0.00     0.139 C 
ATOM     52  O   UNK d   0      13.033  -7.355   1.179  0.00  0.00    -0.650 OA
BRANCH  51  53
ATOM     53  O   UNK d   0      14.653  -6.731   2.627  0.00  0.00    -0.776 OA
ATOM     54  H   UNK d   0      14.731  -5.785   2.957  0.00  0.00     0.167 HD
ENDBRANCH  51  53
ENDBRANCH  50  51
ENDBRANCH  49  50
ENDBRANCH  24  49
BRANCH  21  55
ATOM     55  C   UNK d   0      12.456  -3.891   3.445  0.00  0.00     0.151 C 
BRANCH  55  56
ATOM     56  C   UNK d   0      13.849  -3.424   3.511  0.00  0.00     0.143 C 
ATOM     57  O   UNK d   0      14.785  -4.146   3.906  0.00  0.00    -0.650 OA
BRANCH  56  58
ATOM     58  O   UNK d   0      14.115  -2.116   3.110  0.00  0.00    -0.776 OA
ATOM     59  H   UNK d   0      13.465  -1.738   2.397  0.00  0.00     0.167 HD
ENDBRANCH  56  58
ENDBRANCH  55  56
ENDBRANCH  21  55
BRANCH  18  60
ATOM     60  C   UNK d   0      14.979  -1.196   7.341  0.00  0.00     0.151 C 
BRANCH  60  61
ATOM     61  C   UNK d   0      14.494   0.042   6.711  0.00  0.00     0.143 C 
ATOM     62  O   UNK d   0      14.335   1.137   7.253  0.00  0.00    -0.650 OA
BRANCH  61  63
ATOM     63  O   UNK d   0      14.186  -0.063   5.334  0.00  0.00    -0.776 OA
ATOM     64  H   UNK d   0      14.843  -0.456   4.684  0.00  0.00     0.167 HD
ENDBRANCH  61  63
ENDBRANCH  60  61
ENDBRANCH  18  60
BRANCH  14  65
ATOM     65  C   UNK d   0      14.772  -0.631  10.315  0.00  0.00     0.052 C 
BRANCH  65  66
ATOM     66  C   UNK d   0      15.766  -1.439  11.073  0.00  0.00     0.115 C 
BRANCH  66  67
ATOM     67  C   UNK d   0      16.820  -2.114  10.369  0.00  0.00     0.139 C 
ATOM     68  O   UNK d   0      17.654  -1.409   9.690  0.00  0.00    -0.650 OA
BRANCH  67  69
ATOM     69  O   UNK d   0      17.071  -3.484  10.319  0.00  0.00    -0.776 OA
ATOM     70  H   UNK d   0      17.986  -3.758   9.933  0.00  0.00     0.167 HD
ENDBRANCH  67  69
ENDBRANCH  66  67
ENDBRANCH  65  66
ENDBRANCH  14  65
ENDBRANCH   6   7
ENDBRANCH   5   6
ENDBRANCH   2   5
TORSDOF 28
ENDMDL
MODEL 2
REMARK VINA RESULT:      -9.2      2.111      2.882
REMARK  28 active torsions:
REMARK  status: ('A' for Active; 'I' for Inactive)
REMARK    1  A    between atoms: C_2  and  O_3 
REMARK    2  A    between atoms: C_2  and  C_4 
REMARK    3  A    between atoms: C_4  and  C_5 
REMARK    4  A    between atoms: C_5  and  C_6 
REMARK    5  A    between atoms: C_7  and  C_8 
REMARK    6  A    between atoms: C_8  and  C_9 
REMARK    7  A    between atoms: C_9  and  O_11 
REMARK    8  A    between atoms: C_28  and  C_29 
REMARK    9  A    between atoms: C_29  and  C_30 
REMARK   10  A    between atoms: C_30  and  O_32 
REMARK   11  A    between atoms: C_33  and  C_34 
REMARK   12  A    between atoms: C_34  and  C_35 
REMARK   13  A    between atoms: C_35  and  C_36 
REMARK   14  A    between atoms: C_36  and  O_38 
REMARK   15  A    between atoms: C_39  and  C_40 
REMARK   16  A    between atoms: C_40  and  C_41 
REMARK   17  A    between atoms: C_41  and  C_42 
REMARK   18  A    between atoms: C_42  and  O_44 
REMARK   19  A    between atoms: C_45  and  C_46 
REMARK   20  A    between atoms: C_46  and  C_47 
REMARK   21  A    between atoms: C_47  and  O_49 
REMARK   22  A    between atoms: C_50  and  C_51 
REMARK   23  A    between atoms: C_51  and  C_52 
REMARK   24  A    between atoms: C_52  and  O_54 
REMARK   25  A    between atoms: C_55  and  C_56 
REMARK   26  A    between atoms: C_56  and  C_57 
REMARK   27  A    between atoms: C_57  and  C_58 
REMARK   28  A    between atoms: C_58  and  O_60 
ROOT
ATOM      1  O   UNK d   0       9.391  -5.177  17.048  0.00  0.00    -0.650 OA
ATOM      2  C   UNK d   0      10.376  -4.835  16.357  0.00  0.00     0.139 C 
ENDROOT
BRANCH   2   3
ATOM      3  O   UNK d   0      11.215  -5.800  15.855  0.00  0.00    -0.776 OA
ATOM      4  H   UNK d   0      11.953  -6.210  16.432  0.00  0.00     0.167 HD
ENDBRANCH   2   3
BRANCH   2   5
ATOM      5  C   UNK d   0      10.634  -3.392  16.084  0.00  0.00     0.115 C 
BRANCH   5   6
ATOM      6  C   UNK d   0      12.045  -3.201  15.599  0.00  0.00     0.052 C 
BRANCH   6   7
ATOM      7  C   UNK d   0      12.110  -2.546  14.240  0.00  0.00    -0.020 A 
ATOM      8  C   UNK d   0      12.435  -1.309  13.965  0.00  0.00    -0.011 A 
ATOM      9  C   UNK d   0      12.346  -1.135  12.525  0.00  0.00     0.067 A 
ATOM     10  C   UNK d   0      12.577  -0.092  11.615  0.00  0.00     0.062 C 
ATOM     11  N   UNK d   0      11.955  -2.316  12.002  0.00  0.00    -0.248 NA
ATOM     12  C   UNK d   0      12.707  -0.193  10.225  0.00  0.00     0.041 A 
ATOM     13  N   UNK d   0      12.008  -0.903   9.319  0.00  0.00    -0.355 N 
ATOM     14  C   UNK d   0      13.758   0.492   9.588  0.00  0.00    -0.022 A 
ATOM     15  C   UNK d   0      12.593  -0.692   8.125  0.00  0.00     0.042 A 
ATOM     16  H   UNK d   0      11.108  -1.525   9.517  0.00  0.00     0.166 HD
ATOM     17  C   UNK d   0      12.267  -1.190   6.848  0.00  0.00     0.062 C 
ATOM     18  C   UNK d   0      13.694   0.177   8.254  0.00  0.00    -0.013 A 
ATOM     19  C   UNK d   0      11.934  -2.468   6.479  0.00  0.00     0.067 A 
ATOM     20  N   UNK d   0      11.687  -3.336   7.464  0.00  0.00    -0.248 NA
ATOM     21  C   UNK d   0      11.780  -3.188   5.226  0.00  0.00    -0.011 A 
ATOM     22  C   UNK d   0      11.384  -4.571   6.945  0.00  0.00     0.066 A 
ATOM     23  C   UNK d   0      11.067  -5.564   7.861  0.00  0.00     0.062 C 
ATOM     24  C   UNK d   0      11.462  -4.419   5.505  0.00  0.00    -0.020 A 
ATOM     25  C   UNK d   0      10.930  -5.438   9.252  0.00  0.00     0.041 A 
ATOM     26  N   UNK d   0      11.634  -4.745  10.155  0.00  0.00    -0.355 N 
ATOM     27  C   UNK d   0       9.873  -6.123   9.890  0.00  0.00    -0.022 A 
ATOM     28  C   UNK d   0      11.057  -4.960  11.348  0.00  0.00     0.042 A 
ATOM     29  H   UNK d   0      12.545  -4.128   9.956  0.00  0.00     0.166 HD
ATOM     30  C   UNK d   0      11.377  -4.479  12.627  0.00  0.00     0.062 C 
ATOM     31  C   UNK d   0       9.945  -5.825  11.216  0.00  0.00    -0.013 A 
ATOM     32  C   UNK d   0      11.796  -3.207  12.982  0.00  0.00     0.066 A 
BRANCH   8  33
ATOM     33  C   UNK d   0      12.820  -0.260  14.928  0.00  0.00     0.151 C 
BRANCH  33  34
ATOM     34  C   UNK d   0      11.773   0.762  15.107  0.00  0.00     0.143 C 
ATOM     35  O   UNK d   0      10.808   0.560  15.858  0.00  0.00    -0.650 OA
BRANCH  34  36
ATOM     36  O   UNK d   0      11.871   1.955  14.429  0.00  0.00    -0.776 OA
ATOM     37  H   UNK d   0      12.604   2.110  13.723  0.00  0.00     0.167 HD
ENDBRANCH  34  36
ENDBRANCH  33  34
ENDBRANCH   8  33
BRANCH  31  38
ATOM     38  C   UNK d   0       9.009  -6.320  12.293  0.00  0.00     0.151 C 
BRANCH  38  39
ATOM     39  C   UNK d   0       9.577  -7.394  13.081  0.00  0.00     0.143 C 
ATOM     40  O   UNK d   0       9.273  -7.577  14.273  0.00  0.00    -0.650 OA
BRANCH  39  41
ATOM     41  O   UNK d   0      10.498  -8.262  12.495  0.00  0.00    -0.776 OA
ATOM     42  H   UNK d   0      11.237  -8.629  13.103  0.00  0.00     0.167 HD
ENDBRANCH  39  41
ENDBRANCH  38  39
ENDBRANCH  31  38
BRANCH  27  43
ATOM     43  C   UNK d   0       8.823  -7.029   9.298  0.00  0.00     0.052 C 
BRANCH  43  44
ATOM     44  C   UNK d   0       9.218  -8.471   9.299  0.00  0.00     0.115 C 
BRANCH  44  45
ATOM     45  C   UNK d   0       8.796  -9.027   7.987  0.00  0.00     0.139 C 
ATOM     46  O   UNK d   0       8.810  -8.265   6.989  0.00  0.00    -0.650 OA
BRANCH  45  47
ATOM     47  O   UNK d   0       8.400 -10.337   7.824  0.00  0.00    -0.776 OA
ATOM     48  H   UNK d   0       7.963 -10.686   6.955  0.00  0.00     0.167 HD
ENDBRANCH  45  47
ENDBRANCH  44  45
ENDBRANCH  43  44
ENDBRANCH  27  43
BRANCH  24  49
ATOM     49  C   UNK d   0      11.175  -5.484   4.530  0.00  0.00     0.052 C 
BRANCH  49  50
ATOM     50  C   UNK d   0      12.455  -5.997   3.920  0.00  0.00     0.115 C 
BRANCH  50  51
ATOM     51  C   UNK d   0      12.418  -7.320   3.312  0.00  0.00     0.139 C 
ATOM     52  O   UNK d   0      11.414  -7.756   2.702  0.00  0.00    -0.650 OA
BRANCH  51  53
ATOM     53  O   UNK d   0      13.528  -8.146   3.401  0.00  0.00    -0.776 OA
ATOM     54  H   UNK d   0      14.408  -7.799   3.063  0.00  0.00     0.167 HD
ENDBRANCH  51  53
ENDBRANCH  50  51
ENDBRANCH  49  50
ENDBRANCH  24  49
BRANCH  21  55
ATOM     55  C   UNK d   0      11.962  -2.568   3.880  0.00  0.00     0.151 C 
BRANCH  55  56
ATOM     56  C   UNK d   0      13.329  -2.059   3.688  0.00  0.00     0.143 C 
ATOM     57  O   UNK d   0      14.328  -2.803   3.652  0.00  0.00    -0.650 OA
BRANCH  56  58
ATOM     58  O   UNK d   0      13.493  -0.682   3.540  0.00  0.00    -0.776 OA
ATOM     59  H   UNK d   0      12.613  -0.147   3.428  0.00  0.00     0.167 HD
ENDBRANCH  56  58
ENDBRANCH  55  56
ENDBRANCH  21  55
BRANCH  18  60
ATOM     60  C   UNK d   0      14.642   0.690   7.198  0.00  0.00     0.151 C 
BRANCH  60  61
ATOM     61  C   UNK d   0      15.950   0.091   7.506  0.00  0.00     0.143 C 
ATOM     62  O   UNK d   0      16.170  -1.062   7.877  0.00  0.00    -0.650 OA
BRANCH  61  63
ATOM     63  O   UNK d   0      17.060   0.955   7.349  0.00  0.00    -0.776 OA
ATOM     64  H   UNK d   0      17.110   1.601   6.581  0.00  0.00     0.167 HD
ENDBRANCH  61  63
ENDBRANCH  60  61
ENDBRANCH  18  60
BRANCH  14  65
ATOM     65  C   UNK d   0      14.746   1.489  10.124  0.00  0.00     0.052 C 
BRANCH  65  66
ATOM     66  C   UNK d   0      14.171   2.853  10.278  0.00  0.00     0.115 C 
BRANCH  66  67
ATOM     67  C   UNK d   0      13.955   3.390  11.592  0.00  0.00     0.139 C 
ATOM     68  O   UNK d   0      12.750   3.460  12.035  0.00  0.00    -0.650 OA
BRANCH  67  69
ATOM     69  O   UNK d   0      14.912   3.864  12.488  0.00  0.00    -0.776 OA
ATOM     70  H   UNK d   0      15.470   3.145  12.971  0.00  0.00     0.167 HD
ENDBRANCH  67  69
ENDBRANCH  66  67
ENDBRANCH  65  66
ENDBRANCH  14  65
ENDBRANCH   6   7
ENDBRANCH   5   6
ENDBRANCH   2   5
TORSDOF 28
ENDMDL
MODEL 3
REMARK VINA RESULT:      -9.2     29.871     33.331
REMARK  28 active torsions:
REMARK  status: ('A' for Active; 'I' for Inactive)
REMARK    1  A    between atoms: C_2  and  O_3 
REMARK    2  A    between atoms: C_2  and  C_4 
REMARK    3  A    between atoms: C_4  and  C_5 
REMARK    4  A    between atoms: C_5  and  C_6 
REMARK    5  A    between atoms: C_7  and  C_8 
REMARK    6  A    between atoms: C_8  and  C_9 
REMARK    7  A    between atoms: C_9  and  O_11 
REMARK    8  A    between atoms: C_28  and  C_29 
REMARK    9  A    between atoms: C_29  and  C_30 
REMARK   10  A    between atoms: C_30  and  O_32 
REMARK   11  A    between atoms: C_33  and  C_34 
REMARK   12  A    between atoms: C_34  and  C_35 
REMARK   13  A    between atoms: C_35  and  C_36 
REMARK   14  A    between atoms: C_36  and  O_38 
REMARK   15  A    between atoms: C_39  and  C_40 
REMARK   16  A    between atoms: C_40  and  C_41 
REMARK   17  A    between atoms: C_41  and  C_42 
REMARK   18  A    between atoms: C_42  and  O_44 
REMARK   19  A    between atoms: C_45  and  C_46 
REMARK   20  A    between atoms: C_46  and  C_47 
REMARK   21  A    between atoms: C_47  and  O_49 
REMARK   22  A    between atoms: C_50  and  C_51 
REMARK   23  A    between atoms: C_51  and  C_52 
REMARK   24  A    between atoms: C_52  and  O_54 
REMARK   25  A    between atoms: C_55  and  C_56 
REMARK   26  A    between atoms: C_56  and  C_57 
REMARK   27  A    between atoms: C_57  and  C_58 
REMARK   28  A    between atoms: C_58  and  O_60 
ROOT
ATOM      1  O   UNK d   0     -12.632   5.966  -6.276  0.00  0.00    -0.650 OA
ATOM      2  C   UNK d   0     -12.953   5.072  -5.463  0.00  0.00     0.139 C 
ENDROOT
BRANCH   2   3
ATOM      3  O   UNK d   0     -12.215   4.909  -4.315  0.00  0.00    -0.776 OA
ATOM      4  H   UNK d   0     -12.502   5.346  -3.437  0.00  0.00     0.167 HD
ENDBRANCH   2   3
BRANCH   2   5
ATOM      5  C   UNK d   0     -14.124   4.193  -5.740  0.00  0.00     0.115 C 
BRANCH   5   6
ATOM      6  C   UNK d   0     -14.066   2.964  -4.874  0.00  0.00     0.052 C 
BRANCH   6   7
ATOM      7  C   UNK d   0     -14.463   1.710  -5.615  0.00  0.00    -0.020 A 
ATOM      8  C   UNK d   0     -15.276   0.767  -5.212  0.00  0.00    -0.011 A 
ATOM      9  C   UNK d   0     -15.343  -0.240  -6.257  0.00  0.00     0.067 A 
ATOM     10  C   UNK d   0     -16.025  -1.451  -6.454  0.00  0.00     0.062 C 
ATOM     11  N   UNK d   0     -14.535   0.168  -7.259  0.00  0.00    -0.248 NA
ATOM     12  C   UNK d   0     -16.177  -2.152  -7.656  0.00  0.00     0.041 A 
ATOM     13  N   UNK d   0     -15.301  -2.421  -8.642  0.00  0.00    -0.355 N 
ATOM     14  C   UNK d   0     -17.448  -2.650  -7.996  0.00  0.00    -0.022 A 
ATOM     15  C   UNK d   0     -15.984  -3.070  -9.603  0.00  0.00     0.042 A 
ATOM     16  H   UNK d   0     -14.216  -2.174  -8.650  0.00  0.00     0.166 HD
ATOM     17  C   UNK d   0     -15.554  -3.580 -10.844  0.00  0.00     0.062 C 
ATOM     18  C   UNK d   0     -17.334  -3.232  -9.234  0.00  0.00    -0.013 A 
ATOM     19  C   UNK d   0     -14.752  -2.989 -11.788  0.00  0.00     0.067 A 
ATOM     20  N   UNK d   0     -14.122  -1.868 -11.430  0.00  0.00    -0.248 NA
ATOM     21  C   UNK d   0     -14.388  -3.263 -13.168  0.00  0.00    -0.011 A 
ATOM     22  C   UNK d   0     -13.374  -1.387 -12.476  0.00  0.00     0.066 A 
ATOM     23  C   UNK d   0     -12.634  -0.240 -12.229  0.00  0.00     0.062 C 
ATOM     24  C   UNK d   0     -13.585  -2.319 -13.566  0.00  0.00    -0.020 A 
ATOM     25  C   UNK d   0     -12.484   0.441 -11.011  0.00  0.00     0.041 A 
ATOM     26  N   UNK d   0     -13.359   0.722 -10.038  0.00  0.00    -0.355 N 
ATOM     27  C   UNK d   0     -11.208   0.937 -10.668  0.00  0.00    -0.022 A 
ATOM     28  C   UNK d   0     -12.681   1.377  -9.082  0.00  0.00     0.042 A 
ATOM     29  H   UNK d   0     -14.451   0.483 -10.036  0.00  0.00     0.166 HD
ATOM     30  C   UNK d   0     -13.099   1.898  -7.847  0.00  0.00     0.062 C 
ATOM     31  C   UNK d   0     -11.323   1.530  -9.448  0.00  0.00    -0.013 A 
ATOM     32  C   UNK d   0     -13.977   1.335  -6.934  0.00  0.00     0.066 A 
BRANCH   8  33
ATOM     33  C   UNK d   0     -16.000   0.713  -3.928  0.00  0.00     0.151 C 
BRANCH  33  34
ATOM     34  C   UNK d   0     -15.324  -0.132  -2.927  0.00  0.00     0.143 C 
ATOM     35  O   UNK d   0     -15.568  -1.344  -2.848  0.00  0.00    -0.650 OA
BRANCH  34  36
ATOM     36  O   UNK d   0     -14.411   0.437  -2.069  0.00  0.00    -0.776 OA
ATOM     37  H   UNK d   0     -13.582  -0.082  -1.750  0.00  0.00     0.167 HD
ENDBRANCH  34  36
ENDBRANCH  33  34
ENDBRANCH   8  33
BRANCH  31  38
ATOM     38  C   UNK d   0     -10.210   2.192  -8.670  0.00  0.00     0.151 C 
BRANCH  38  39
ATOM     39  C   UNK d   0     -10.107   3.611  -8.932  0.00  0.00     0.143 C 
ATOM     40  O   UNK d   0     -11.108   4.340  -9.052  0.00  0.00    -0.650 OA
BRANCH  39  41
ATOM     41  O   UNK d   0      -8.848   4.197  -9.057  0.00  0.00    -0.776 OA
ATOM     42  H   UNK d   0      -8.724   5.121  -8.631  0.00  0.00     0.167 HD
ENDBRANCH  39  41
ENDBRANCH  38  39
ENDBRANCH  31  38
BRANCH  27  43
ATOM     43  C   UNK d   0      -9.914   0.871 -11.441  0.00  0.00     0.052 C 
BRANCH  43  44
ATOM     44  C   UNK d   0      -9.539   2.170 -12.078  0.00  0.00     0.115 C 
BRANCH  44  45
ATOM     45  C   UNK d   0      -9.302   1.884 -13.517  0.00  0.00     0.139 C 
ATOM     46  O   UNK d   0     -10.300   1.683 -14.252  0.00  0.00    -0.650 OA
BRANCH  45  47
ATOM     47  O   UNK d   0      -8.042   1.836 -14.072  0.00  0.00    -0.776 OA
ATOM     48  H   UNK d   0      -7.348   2.592 -13.952  0.00  0.00     0.167 HD
ENDBRANCH  45  47
ENDBRANCH  44  45
ENDBRANCH  43  44
ENDBRANCH  27  43
BRANCH  24  49
ATOM     49  C   UNK d   0     -12.943  -2.225 -14.889  0.00  0.00     0.052 C 
BRANCH  49  50
ATOM     50  C   UNK d   0     -13.307  -0.924 -15.557  0.00  0.00     0.115 C 
BRANCH  50  51
ATOM     51  C   UNK d   0     -14.719  -0.684 -15.822  0.00  0.00     0.139 C 
ATOM     52  O   UNK d   0     -15.418   0.084 -15.119  0.00  0.00    -0.650 OA
BRANCH  51  53
ATOM     53  O   UNK d   0     -15.336  -1.323 -16.886  0.00  0.00    -0.776 OA
ATOM     54  H   UNK d   0     -16.134  -1.903 -16.695  0.00  0.00     0.167 HD
ENDBRANCH  51  53
ENDBRANCH  50  51
ENDBRANCH  49  50
ENDBRANCH  24  49
BRANCH  21  55
ATOM     55  C   UNK d   0     -14.877  -4.441 -13.943  0.00  0.00     0.151 C 
BRANCH  55  56
ATOM     56  C   UNK d   0     -14.336  -5.706 -13.424  0.00  0.00     0.143 C 
ATOM     57  O   UNK d   0     -15.060  -6.670 -13.105  0.00  0.00    -0.650 OA
BRANCH  56  58
ATOM     58  O   UNK d   0     -12.952  -5.814 -13.291  0.00  0.00    -0.776 OA
ATOM     59  H   UNK d   0     -12.420  -5.714 -14.174  0.00  0.00     0.167 HD
ENDBRANCH  56  58
ENDBRANCH  55  56
ENDBRANCH  21  55
BRANCH  18  60
ATOM     60  C   UNK d   0     -18.464  -3.889  -9.988  0.00  0.00     0.151 C 
BRANCH  60  61
ATOM     61  C   UNK d   0     -18.955  -2.880 -10.939  0.00  0.00     0.143 C 
ATOM     62  O   UNK d   0     -19.650  -1.896 -10.684  0.00  0.00    -0.650 OA
BRANCH  61  63
ATOM     63  O   UNK d   0     -18.573  -3.086 -12.287  0.00  0.00    -0.776 OA
ATOM     64  H   UNK d   0     -19.144  -2.755 -13.044  0.00  0.00     0.167 HD
ENDBRANCH  61  63
ENDBRANCH  60  61
ENDBRANCH  18  60
BRANCH  14  65
ATOM     65  C   UNK d   0     -18.724  -2.704  -7.206  0.00  0.00     0.052 C 
BRANCH  65  66
ATOM     66  C   UNK d   0     -19.600  -1.523  -7.434  0.00  0.00     0.115 C 
BRANCH  66  67
ATOM     67  C   UNK d   0     -19.815  -0.581  -6.372  0.00  0.00     0.139 C 
ATOM     68  O   UNK d   0     -20.823   0.213  -6.451  0.00  0.00    -0.650 OA
BRANCH  67  69
ATOM     69  O   UNK d   0     -19.048  -0.403  -5.222  0.00  0.00    -0.776 OA
ATOM     70  H   UNK d   0     -19.302  -0.994  -4.417  0.00  0.00     0.167 HD
ENDBRANCH  67  69
ENDBRANCH  66  67
ENDBRANCH  65  66
ENDBRANCH  14  65
ENDBRANCH   6   7
ENDBRANCH   5   6
ENDBRANCH   2   5
TORSDOF 28
ENDMDL
MODEL 4
REMARK VINA RESULT:      -9.2      2.036      9.918
REMARK  28 active torsions:
REMARK  status: ('A' for Active; 'I' for Inactive)
REMARK    1  A    between atoms: C_2  and  O_3 
REMARK    2  A    between atoms: C_2  and  C_4 
REMARK    3  A    between atoms: C_4  and  C_5 
REMARK    4  A    between atoms: C_5  and  C_6 
REMARK    5  A    between atoms: C_7  and  C_8 
REMARK    6  A    between atoms: C_8  and  C_9 
REMARK    7  A    between atoms: C_9  and  O_11 
REMARK    8  A    between atoms: C_28  and  C_29 
REMARK    9  A    between atoms: C_29  and  C_30 
REMARK   10  A    between atoms: C_30  and  O_32 
REMARK   11  A    between atoms: C_33  and  C_34 
REMARK   12  A    between atoms: C_34  and  C_35 
REMARK   13  A    between atoms: C_35  and  C_36 
REMARK   14  A    between atoms: C_36  and  O_38 
REMARK   15  A    between atoms: C_39  and  C_40 
REMARK   16  A    between atoms: C_40  and  C_41 
REMARK   17  A    between atoms: C_41  and  C_42 
REMARK   18  A    between atoms: C_42  and  O_44 
REMARK   19  A    between atoms: C_45  and  C_46 
REMARK   20  A    between atoms: C_46  and  C_47 
REMARK   21  A    between atoms: C_47  and  O_49 
REMARK   22  A    between atoms: C_50  and  C_51 
REMARK   23  A    between atoms: C_51  and  C_52 
REMARK   24  A    between atoms: C_52  and  O_54 
REMARK   25  A    between atoms: C_55  and  C_56 
REMARK   26  A    between atoms: C_56  and  C_57 
REMARK   27  A    between atoms: C_57  and  C_58 
REMARK   28  A    between atoms: C_58  and  O_60 
ROOT
ATOM      1  O   UNK d   0      17.867   0.874   8.045  0.00  0.00    -0.650 OA
ATOM      2  C   UNK d   0      16.717   0.469   7.765  0.00  0.00     0.139 C 
ENDROOT
BRANCH   2   3
ATOM      3  O   UNK d   0      16.163   0.801   6.552  0.00  0.00    -0.776 OA
ATOM      4  H   UNK d   0      16.710   0.749   5.690  0.00  0.00     0.167 HD
ENDBRANCH   2   3
BRANCH   2   5
ATOM      5  C   UNK d   0      15.958  -0.364   8.741  0.00  0.00     0.115 C 
BRANCH   5   6
ATOM      6  C   UNK d   0      16.168  -1.825   8.448  0.00  0.00     0.052 C 
BRANCH   6   7
ATOM      7  C   UNK d   0      14.898  -2.631   8.575  0.00  0.00    -0.020 A 
ATOM      8  C   UNK d   0      14.241  -3.241   7.622  0.00  0.00    -0.011 A 
ATOM      9  C   UNK d   0      13.079  -3.877   8.220  0.00  0.00     0.067 A 
ATOM     10  C   UNK d   0      12.018  -4.676   7.767  0.00  0.00     0.062 C 
ATOM     11  N   UNK d   0      13.104  -3.598   9.540  0.00  0.00    -0.248 NA
ATOM     12  C   UNK d   0      11.135  -5.433   8.546  0.00  0.00     0.041 A 
ATOM     13  N   UNK d   0      10.501  -5.147   9.698  0.00  0.00    -0.355 N 
ATOM     14  C   UNK d   0      10.847  -6.755   8.158  0.00  0.00    -0.022 A 
ATOM     15  C   UNK d   0       9.824  -6.255  10.056  0.00  0.00     0.042 A 
ATOM     16  H   UNK d   0      10.516  -4.175  10.239  0.00  0.00     0.166 HD
ATOM     17  C   UNK d   0       8.999  -6.501  11.171  0.00  0.00     0.062 C 
ATOM     18  C   UNK d   0      10.017  -7.284   9.114  0.00  0.00    -0.013 A 
ATOM     19  C   UNK d   0       9.212  -6.184  12.488  0.00  0.00     0.067 A 
ATOM     20  N   UNK d   0      10.231  -5.363  12.756  0.00  0.00    -0.248 NA
ATOM     21  C   UNK d   0       8.598  -6.532  13.759  0.00  0.00    -0.011 A 
ATOM     22  C   UNK d   0      10.329  -5.151  14.109  0.00  0.00     0.066 A 
ATOM     23  C   UNK d   0      11.327  -4.283  14.526  0.00  0.00     0.062 C 
ATOM     24  C   UNK d   0       9.259  -5.928  14.704  0.00  0.00    -0.020 A 
ATOM     25  C   UNK d   0      12.195  -3.522  13.727  0.00  0.00     0.041 A 
ATOM     26  N   UNK d   0      12.837  -3.812  12.589  0.00  0.00    -0.355 N 
ATOM     27  C   UNK d   0      12.480  -2.195  14.115  0.00  0.00    -0.022 A 
ATOM     28  C   UNK d   0      13.520  -2.712  12.235  0.00  0.00     0.042 A 
ATOM     29  H   UNK d   0      12.830  -4.793  12.053  0.00  0.00     0.166 HD
ATOM     30  C   UNK d   0      14.352  -2.456  11.134  0.00  0.00     0.062 C 
ATOM     31  C   UNK d   0      13.317  -1.675  13.176  0.00  0.00    -0.013 A 
ATOM     32  C   UNK d   0      14.174  -2.852   9.818  0.00  0.00     0.066 A 
BRANCH   8  33
ATOM     33  C   UNK d   0      14.594  -3.283   6.191  0.00  0.00     0.151 C 
BRANCH  33  34
ATOM     34  C   UNK d   0      13.812  -2.332   5.382  0.00  0.00     0.143 C 
ATOM     35  O   UNK d   0      12.728  -2.663   4.880  0.00  0.00    -0.650 OA
BRANCH  34  36
ATOM     36  O   UNK d   0      14.294  -1.059   5.181  0.00  0.00    -0.776 OA
ATOM     37  H   UNK d   0      13.714  -0.231   5.373  0.00  0.00     0.167 HD
ENDBRANCH  34  36
ENDBRANCH  33  34
ENDBRANCH   8  33
BRANCH  31  38
ATOM     38  C   UNK d   0      13.881  -0.273  13.164  0.00  0.00     0.151 C 
BRANCH  38  39
ATOM     39  C   UNK d   0      13.048   0.661  12.437  0.00  0.00     0.143 C 
ATOM     40  O   UNK d   0      13.321   1.872  12.355  0.00  0.00    -0.650 OA
BRANCH  39  41
ATOM     41  O   UNK d   0      11.895   0.202  11.801  0.00  0.00    -0.776 OA
ATOM     42  H   UNK d   0      11.250  -0.361  12.365  0.00  0.00     0.167 HD
ENDBRANCH  39  41
ENDBRANCH  38  39
ENDBRANCH  31  38
BRANCH  27  43
ATOM     43  C   UNK d   0      11.998  -1.424  15.318  0.00  0.00     0.052 C 
BRANCH  43  44
ATOM     44  C   UNK d   0      10.592  -0.937  15.184  0.00  0.00     0.115 C 
BRANCH  44  45
ATOM     45  C   UNK d   0      10.664   0.542  15.065  0.00  0.00     0.139 C 
ATOM     46  O   UNK d   0      11.319   1.174  15.929  0.00  0.00    -0.650 OA
BRANCH  45  47
ATOM     47  O   UNK d   0      10.049   1.241  14.048  0.00  0.00    -0.776 OA
ATOM     48  H   UNK d   0      10.311   1.132  13.055  0.00  0.00     0.167 HD
ENDBRANCH  45  47
ENDBRANCH  44  45
ENDBRANCH  43  44
ENDBRANCH  27  43
BRANCH  24  49
ATOM     49  C   UNK d   0       8.953  -5.973  16.144  0.00  0.00     0.052 C 
BRANCH  49  50
ATOM     50  C   UNK d   0      10.026  -6.728  16.885  0.00  0.00     0.115 C 
BRANCH  50  51
ATOM     51  C   UNK d   0      10.191  -8.139  16.561  0.00  0.00     0.139 C 
ATOM     52  O   UNK d   0       9.439  -9.031  17.021  0.00  0.00    -0.650 OA
BRANCH  51  53
ATOM     53  O   UNK d   0      11.215  -8.534  15.714  0.00  0.00    -0.776 OA
ATOM     54  H   UNK d   0      11.784  -7.821  15.291  0.00  0.00     0.167 HD
ENDBRANCH  51  53
ENDBRANCH  50  51
ENDBRANCH  49  50
ENDBRANCH  24  49
BRANCH  21  55
ATOM     55  C   UNK d   0       7.413  -7.429  13.896  0.00  0.00     0.151 C 
BRANCH  55  56
ATOM     56  C   UNK d   0       7.691  -8.790  13.411  0.00  0.00     0.143 C 
ATOM     57  O   UNK d   0       6.989  -9.357  12.552  0.00  0.00    -0.650 OA
BRANCH  56  58
ATOM     58  O   UNK d   0       8.792  -9.457  13.947  0.00  0.00    -0.776 OA
ATOM     59  H   UNK d   0       9.672  -8.909  13.956  0.00  0.00     0.167 HD
ENDBRANCH  56  58
ENDBRANCH  55  56
ENDBRANCH  21  55
BRANCH  18  60
ATOM     60  C   UNK d   0       9.466  -8.688   9.099  0.00  0.00     0.151 C 
BRANCH  60  61
ATOM     61  C   UNK d   0       8.094  -8.578   8.582  0.00  0.00     0.143 C 
ATOM     62  O   UNK d   0       7.754  -8.255   7.443  0.00  0.00    -0.650 OA
BRANCH  61  63
ATOM     63  O   UNK d   0       7.072  -8.881   9.514  0.00  0.00    -0.776 OA
ATOM     64  H   UNK d   0       6.617  -8.156  10.038  0.00  0.00     0.167 HD
ENDBRANCH  61  63
ENDBRANCH  60  61
ENDBRANCH  18  60
BRANCH  14  65
ATOM     65  C   UNK d   0      11.214  -7.514   6.914  0.00  0.00     0.052 C 
BRANCH  65  66
ATOM     66  C   UNK d   0      10.444  -7.077   5.718  0.00  0.00     0.115 C 
BRANCH  66  67
ATOM     67  C   UNK d   0      11.059  -6.208   4.755  0.00  0.00     0.139 C 
ATOM     68  O   UNK d   0      12.194  -6.549   4.256  0.00  0.00    -0.650 OA
BRANCH  67  69
ATOM     69  O   UNK d   0      10.573  -4.995   4.268  0.00  0.00    -0.776 OA
ATOM     70  H   UNK d   0      10.169  -5.022   3.320  0.00  0.00     0.167 HD
ENDBRANCH  67  69
ENDBRANCH  66  67
ENDBRANCH  65  66
ENDBRANCH  14  65
ENDBRANCH   6   7
ENDBRANCH   5   6
ENDBRANCH   2   5
TORSDOF 28
ENDMDL
MODEL 5
REMARK VINA RESULT:      -9.0      1.943      8.129
REMARK  28 active torsions:
REMARK  status: ('A' for Active; 'I' for Inactive)
REMARK    1  A    between atoms: C_2  and  O_3 
REMARK    2  A    between atoms: C_2  and  C_4 
REMARK    3  A    between atoms: C_4  and  C_5 
REMARK    4  A    between atoms: C_5  and  C_6 
REMARK    5  A    between atoms: C_7  and  C_8 
REMARK    6  A    between atoms: C_8  and  C_9 
REMARK    7  A    between atoms: C_9  and  O_11 
REMARK    8  A    between atoms: C_28  and  C_29 
REMARK    9  A    between atoms: C_29  and  C_30 
REMARK   10  A    between atoms: C_30  and  O_32 
REMARK   11  A    between atoms: C_33  and  C_34 
REMARK   12  A    between atoms: C_34  and  C_35 
REMARK   13  A    between atoms: C_35  and  C_36 
REMARK   14  A    between atoms: C_36  and  O_38 
REMARK   15  A    between atoms: C_39  and  C_40 
REMARK   16  A    between atoms: C_40  and  C_41 
REMARK   17  A    between atoms: C_41  and  C_42 
REMARK   18  A    between atoms: C_42  and  O_44 
REMARK   19  A    between atoms: C_45  and  C_46 
REMARK   20  A    between atoms: C_46  and  C_47 
REMARK   21  A    between atoms: C_47  and  O_49 
REMARK   22  A    between atoms: C_50  and  C_51 
REMARK   23  A    between atoms: C_51  and  C_52 
REMARK   24  A    between atoms: C_52  and  O_54 
REMARK   25  A    between atoms: C_55  and  C_56 
REMARK   26  A    between atoms: C_56  and  C_57 
REMARK   27  A    between atoms: C_57  and  C_58 
REMARK   28  A    between atoms: C_58  and  O_60 
ROOT
ATOM      1  O   UNK d   0       6.648 -11.441   8.773  0.00  0.00    -0.650 OA
ATOM      2  C   UNK d   0       7.801 -11.740   8.390  0.00  0.00     0.139 C 
ENDROOT
BRANCH   2   3
ATOM      3  O   UNK d   0       8.103 -13.054   8.126  0.00  0.00    -0.776 OA
ATOM      4  H   UNK d   0       9.025 -13.324   7.776  0.00  0.00     0.167 HD
ENDBRANCH   2   3
BRANCH   2   5
ATOM      5  C   UNK d   0       8.833 -10.678   8.222  0.00  0.00     0.115 C 
BRANCH   5   6
ATOM      6  C   UNK d   0       8.172  -9.342   8.014  0.00  0.00     0.052 C 
BRANCH   6   7
ATOM      7  C   UNK d   0       8.684  -8.286   8.965  0.00  0.00    -0.020 A 
ATOM      8  C   UNK d   0       8.264  -8.033  10.178  0.00  0.00    -0.011 A 
ATOM      9  C   UNK d   0       9.049  -6.927  10.699  0.00  0.00     0.067 A 
ATOM     10  C   UNK d   0       9.113  -6.210  11.904  0.00  0.00     0.062 C 
ATOM     11  N   UNK d   0       9.920  -6.564   9.734  0.00  0.00    -0.248 NA
ATOM     12  C   UNK d   0      10.133  -5.349  12.324  0.00  0.00     0.041 A 
ATOM     13  N   UNK d   0      10.825  -4.403  11.660  0.00  0.00    -0.355 N 
ATOM     14  C   UNK d   0      10.617  -5.460  13.640  0.00  0.00    -0.022 A 
ATOM     15  C   UNK d   0      11.741  -3.917  12.519  0.00  0.00     0.042 A 
ATOM     16  H   UNK d   0      10.656  -4.073  10.612  0.00  0.00     0.166 HD
ATOM     17  C   UNK d   0      12.717  -2.916  12.343  0.00  0.00     0.062 C 
ATOM     18  C   UNK d   0      11.642  -4.555  13.771  0.00  0.00    -0.013 A 
ATOM     19  C   UNK d   0      13.575  -2.723  11.290  0.00  0.00     0.067 A 
ATOM     20  N   UNK d   0      13.349  -3.442  10.187  0.00  0.00    -0.248 NA
ATOM     21  C   UNK d   0      14.749  -1.906  11.036  0.00  0.00    -0.011 A 
ATOM     22  C   UNK d   0      14.292  -3.155   9.231  0.00  0.00     0.066 A 
ATOM     23  C   UNK d   0      14.153  -3.806   8.014  0.00  0.00     0.062 C 
ATOM     24  C   UNK d   0      15.167  -2.166   9.830  0.00  0.00    -0.020 A 
ATOM     25  C   UNK d   0      13.114  -4.657   7.607  0.00  0.00     0.041 A 
ATOM     26  N   UNK d   0      12.437  -5.607   8.262  0.00  0.00    -0.355 N 
ATOM     27  C   UNK d   0      12.626  -4.542   6.287  0.00  0.00    -0.022 A 
ATOM     28  C   UNK d   0      11.528  -6.100   7.405  0.00  0.00     0.042 A 
ATOM     29  H   UNK d   0      12.615  -5.946   9.312  0.00  0.00     0.166 HD
ATOM     30  C   UNK d   0      10.558  -7.102   7.564  0.00  0.00     0.062 C 
ATOM     31  C   UNK d   0      11.622  -5.451   6.151  0.00  0.00    -0.013 A 
ATOM     32  C   UNK d   0       9.752  -7.344   8.665  0.00  0.00     0.066 A 
BRANCH   8  33
ATOM     33  C   UNK d   0       7.185  -8.729  10.904  0.00  0.00     0.151 C 
BRANCH  33  34
ATOM     34  C   UNK d   0       5.930  -7.957  10.937  0.00  0.00     0.143 C 
ATOM     35  O   UNK d   0       5.598  -7.241   9.981  0.00  0.00    -0.650 OA
BRANCH  34  36
ATOM     36  O   UNK d   0       5.119  -8.033  12.045  0.00  0.00    -0.776 OA
ATOM     37  H   UNK d   0       4.832  -7.187  12.557  0.00  0.00     0.167 HD
ENDBRANCH  34  36
ENDBRANCH  33  34
ENDBRANCH   8  33
BRANCH  31  38
ATOM     38  C   UNK d   0      10.790  -5.682   4.911  0.00  0.00     0.151 C 
BRANCH  38  39
ATOM     39  C   UNK d   0      11.483  -6.464   3.908  0.00  0.00     0.143 C 
ATOM     40  O   UNK d   0      12.217  -7.423   4.203  0.00  0.00    -0.650 OA
BRANCH  39  41
ATOM     41  O   UNK d   0      11.329  -6.141   2.560  0.00  0.00    -0.776 OA
ATOM     42  H   UNK d   0      11.902  -6.665   1.892  0.00  0.00     0.167 HD
ENDBRANCH  39  41
ENDBRANCH  38  39
ENDBRANCH  31  38
BRANCH  27  43
ATOM     43  C   UNK d   0      13.070  -3.623   5.177  0.00  0.00     0.052 C 
BRANCH  43  44
ATOM     44  C   UNK d   0      12.303  -2.341   5.128  0.00  0.00     0.115 C 
BRANCH  44  45
ATOM     45  C   UNK d   0      11.764  -2.222   3.749  0.00  0.00     0.139 C 
ATOM     46  O   UNK d   0      12.006  -3.149   2.936  0.00  0.00    -0.650 OA
BRANCH  45  47
ATOM     47  O   UNK d   0      11.009  -1.147   3.332  0.00  0.00    -0.776 OA
ATOM     48  H   UNK d   0      11.340  -0.471   2.624  0.00  0.00     0.167 HD
ENDBRANCH  45  47
ENDBRANCH  44  45
ENDBRANCH  43  44
ENDBRANCH  27  43
BRANCH  24  49
ATOM     49  C   UNK d   0      16.309  -1.532   9.151  0.00  0.00     0.052 C 
BRANCH  49  50
ATOM     50  C   UNK d   0      15.873  -0.264   8.464  0.00  0.00     0.115 C 
BRANCH  50  51
ATOM     51  C   UNK d   0      16.882   0.462   7.704  0.00  0.00     0.139 C 
ATOM     52  O   UNK d   0      16.638   1.003   6.600  0.00  0.00    -0.650 OA
BRANCH  51  53
ATOM     53  O   UNK d   0      18.171   0.570   8.204  0.00  0.00    -0.776 OA
ATOM     54  H   UNK d   0      18.548   1.489   8.353  0.00  0.00     0.167 HD
ENDBRANCH  51  53
ENDBRANCH  50  51
ENDBRANCH  49  50
ENDBRANCH  24  49
BRANCH  21  55
ATOM     55  C   UNK d   0      15.330  -0.948  12.022  0.00  0.00     0.151 C 
BRANCH  55  56
ATOM     56  C   UNK d   0      16.256  -1.609  12.954  0.00  0.00     0.143 C 
ATOM     57  O   UNK d   0      16.732  -1.035  13.954  0.00  0.00    -0.650 OA
BRANCH  56  58
ATOM     58  O   UNK d   0      16.606  -2.933  12.692  0.00  0.00    -0.776 OA
ATOM     59  H   UNK d   0      17.580  -3.183  12.938  0.00  0.00     0.167 HD
ENDBRANCH  56  58
ENDBRANCH  55  56
ENDBRANCH  21  55
BRANCH  18  60
ATOM     60  C   UNK d   0      12.454  -4.343  15.024  0.00  0.00     0.151 C 
BRANCH  60  61
ATOM     61  C   UNK d   0      13.711  -5.079  14.820  0.00  0.00     0.143 C 
ATOM     62  O   UNK d   0      14.769  -4.632  14.375  0.00  0.00    -0.650 OA
BRANCH  61  63
ATOM     63  O   UNK d   0      13.674  -6.447  15.182  0.00  0.00    -0.776 OA
ATOM     64  H   UNK d   0      13.838  -7.168  14.502  0.00  0.00     0.167 HD
ENDBRANCH  61  63
ENDBRANCH  60  61
ENDBRANCH  18  60
BRANCH  14  65
ATOM     65  C   UNK d   0      10.126  -6.277  14.801  0.00  0.00     0.052 C 
BRANCH  65  66
ATOM     66  C   UNK d   0      10.196  -7.742  14.552  0.00  0.00     0.115 C 
BRANCH  66  67
ATOM     67  C   UNK d   0      11.177  -8.535  15.238  0.00  0.00     0.139 C 
ATOM     68  O   UNK d   0      11.558  -8.162  16.408  0.00  0.00    -0.650 OA
BRANCH  67  69
ATOM     69  O   UNK d   0      11.798  -9.700  14.790  0.00  0.00    -0.776 OA
ATOM     70  H   UNK d   0      11.656 -10.536  15.374  0.00  0.00     0.167 HD
ENDBRANCH  67  69
ENDBRANCH  66  67
ENDBRANCH  65  66
ENDBRANCH  14  65
ENDBRANCH   6   7
ENDBRANCH   5   6
ENDBRANCH   2   5
TORSDOF 28
ENDMDL
MODEL 6
REMARK VINA RESULT:      -8.8     28.812     31.457
REMARK  28 active torsions:
REMARK  status: ('A' for Active; 'I' for Inactive)
REMARK    1  A    between atoms: C_2  and  O_3 
REMARK    2  A    between atoms: C_2  and  C_4 
REMARK    3  A    between atoms: C_4  and  C_5 
REMARK    4  A    between atoms: C_5  and  C_6 
REMARK    5  A    between atoms: C_7  and  C_8 
REMARK    6  A    between atoms: C_8  and  C_9 
REMARK    7  A    between atoms: C_9  and  O_11 
REMARK    8  A    between atoms: C_28  and  C_29 
REMARK    9  A    between atoms: C_29  and  C_30 
REMARK   10  A    between atoms: C_30  and  O_32 
REMARK   11  A    between atoms: C_33  and  C_34 
REMARK   12  A    between atoms: C_34  and  C_35 
REMARK   13  A    between atoms: C_35  and  C_36 
REMARK   14  A    between atoms: C_36  and  O_38 
REMARK   15  A    between atoms: C_39  and  C_40 
REMARK   16  A    between atoms: C_40  and  C_41 
REMARK   17  A    between atoms: C_41  and  C_42 
REMARK   18  A    between atoms: C_42  and  O_44 
REMARK   19  A    between atoms: C_45  and  C_46 
REMARK   20  A    between atoms: C_46  and  C_47 
REMARK   21  A    between atoms: C_47  and  O_49 
REMARK   22  A    between atoms: C_50  and  C_51 
REMARK   23  A    between atoms: C_51  and  C_52 
REMARK   24  A    between atoms: C_52  and  O_54 
REMARK   25  A    between atoms: C_55  and  C_56 
REMARK   26  A    between atoms: C_56  and  C_57 
REMARK   27  A    between atoms: C_57  and  C_58 
REMARK   28  A    between atoms: C_58  and  O_60 
ROOT
ATOM      1  O   UNK d   0     -17.516  -5.744  -6.589  0.00  0.00    -0.650 OA
ATOM      2  C   UNK d   0     -16.328  -5.559  -6.242  0.00  0.00     0.139 C 
ENDROOT
BRANCH   2   3
ATOM      3  O   UNK d   0     -15.440  -6.606  -6.293  0.00  0.00    -0.776 OA
ATOM      4  H   UNK d   0     -14.476  -6.496  -5.974  0.00  0.00     0.167 HD
ENDBRANCH   2   3
BRANCH   2   5
ATOM      5  C   UNK d   0     -15.886  -4.214  -5.776  0.00  0.00     0.115 C 
BRANCH   5   6
ATOM      6  C   UNK d   0     -16.367  -3.153  -6.727  0.00  0.00     0.052 C 
BRANCH   6   7
ATOM      7  C   UNK d   0     -15.239  -2.323  -7.291  0.00  0.00    -0.020 A 
ATOM      8  C   UNK d   0     -14.430  -2.636  -8.271  0.00  0.00    -0.011 A 
ATOM      9  C   UNK d   0     -13.503  -1.532  -8.453  0.00  0.00     0.067 A 
ATOM     10  C   UNK d   0     -12.438  -1.236  -9.318  0.00  0.00     0.062 C 
ATOM     11  N   UNK d   0     -13.816  -0.591  -7.538  0.00  0.00    -0.248 NA
ATOM     12  C   UNK d   0     -11.835   0.010  -9.524  0.00  0.00     0.041 A 
ATOM     13  N   UNK d   0     -11.470   0.973  -8.656  0.00  0.00    -0.355 N 
ATOM     14  C   UNK d   0     -11.579   0.432 -10.841  0.00  0.00    -0.022 A 
ATOM     15  C   UNK d   0     -10.997   1.998  -9.389  0.00  0.00     0.042 A 
ATOM     16  H   UNK d   0     -11.528   0.921  -7.547  0.00  0.00     0.166 HD
ATOM     17  C   UNK d   0     -10.484   3.248  -8.988  0.00  0.00     0.062 C 
ATOM     18  C   UNK d   0     -11.049   1.696 -10.764  0.00  0.00    -0.013 A 
ATOM     19  C   UNK d   0     -10.975   4.121  -8.051  0.00  0.00     0.067 A 
ATOM     20  N   UNK d   0     -11.954   3.672  -7.260  0.00  0.00    -0.248 NA
ATOM     21  C   UNK d   0     -10.714   5.498  -7.668  0.00  0.00    -0.011 A 
ATOM     22  C   UNK d   0     -12.352   4.656  -6.389  0.00  0.00     0.066 A 
ATOM     23  C   UNK d   0     -13.341   4.311  -5.480  0.00  0.00     0.062 C 
ATOM     24  C   UNK d   0     -11.525   5.806  -6.697  0.00  0.00    -0.020 A 
ATOM     25  C   UNK d   0     -13.924   3.050  -5.280  0.00  0.00     0.041 A 
ATOM     26  N   UNK d   0     -14.301   2.100  -6.144  0.00  0.00    -0.355 N 
ATOM     27  C   UNK d   0     -14.177   2.625  -3.958  0.00  0.00    -0.022 A 
ATOM     28  C   UNK d   0     -14.782   1.079  -5.416  0.00  0.00     0.042 A 
ATOM     29  H   UNK d   0     -14.252   2.158  -7.259  0.00  0.00     0.166 HD
ATOM     30  C   UNK d   0     -15.303  -0.165  -5.802  0.00  0.00     0.062 C 
ATOM     31  C   UNK d   0     -14.718   1.379  -4.034  0.00  0.00    -0.013 A 
ATOM     32  C   UNK d   0     -14.853  -1.005  -6.808  0.00  0.00     0.066 A 
BRANCH   8  33
ATOM     33  C   UNK d   0     -14.435  -3.883  -9.059  0.00  0.00     0.151 C 
BRANCH  33  34
ATOM     34  C   UNK d   0     -13.283  -4.752  -8.759  0.00  0.00     0.143 C 
ATOM     35  O   UNK d   0     -12.539  -5.157  -9.664  0.00  0.00    -0.650 OA
BRANCH  34  36
ATOM     36  O   UNK d   0     -13.032  -5.117  -7.457  0.00  0.00    -0.776 OA
ATOM     37  H   UNK d   0     -13.189  -6.081  -7.133  0.00  0.00     0.167 HD
ENDBRANCH  34  36
ENDBRANCH  33  34
ENDBRANCH   8  33
BRANCH  31  38
ATOM     38  C   UNK d   0     -15.139   0.517  -2.867  0.00  0.00     0.151 C 
BRANCH  38  39
ATOM     39  C   UNK d   0     -16.528   0.704  -2.503  0.00  0.00     0.143 C 
ATOM     40  O   UNK d   0     -17.460   0.479  -3.295  0.00  0.00    -0.650 OA
BRANCH  39  41
ATOM     41  O   UNK d   0     -16.847   1.150  -1.220  0.00  0.00    -0.776 OA
ATOM     42  H   UNK d   0     -17.776   0.906  -0.864  0.00  0.00     0.167 HD
ENDBRANCH  39  41
ENDBRANCH  38  39
ENDBRANCH  31  38
BRANCH  27  43
ATOM     43  C   UNK d   0     -13.929   3.346  -2.656  0.00  0.00     0.052 C 
BRANCH  43  44
ATOM     44  C   UNK d   0     -15.052   4.248  -2.257  0.00  0.00     0.115 C 
BRANCH  44  45
ATOM     45  C   UNK d   0     -15.053   4.294  -0.772  0.00  0.00     0.139 C 
ATOM     46  O   UNK d   0     -15.270   3.226  -0.147  0.00  0.00    -0.650 OA
BRANCH  45  47
ATOM     47  O   UNK d   0     -14.820   5.450  -0.059  0.00  0.00    -0.776 OA
ATOM     48  H   UNK d   0     -14.749   5.469   0.971  0.00  0.00     0.167 HD
ENDBRANCH  45  47
ENDBRANCH  44  45
ENDBRANCH  43  44
ENDBRANCH  27  43
BRANCH  24  49
ATOM     49  C   UNK d   0     -11.575   7.093  -5.982  0.00  0.00     0.052 C 
BRANCH  49  50
ATOM     50  C   UNK d   0     -12.060   8.185  -6.901  0.00  0.00     0.115 C 
BRANCH  50  51
ATOM     51  C   UNK d   0     -13.365   8.000  -7.522  0.00  0.00     0.139 C 
ATOM     52  O   UNK d   0     -14.354   7.549  -6.898  0.00  0.00    -0.650 OA
BRANCH  51  53
ATOM     53  O   UNK d   0     -13.541   8.327  -8.858  0.00  0.00    -0.776 OA
ATOM     54  H   UNK d   0     -13.009   7.823  -9.545  0.00  0.00     0.167 HD
ENDBRANCH  51  53
ENDBRANCH  50  51
ENDBRANCH  49  50
ENDBRANCH  24  49
BRANCH  21  55
ATOM     55  C   UNK d   0      -9.677   6.361  -8.308  0.00  0.00     0.151 C 
BRANCH  55  56
ATOM     56  C   UNK d   0      -8.357   6.195  -7.680  0.00  0.00     0.143 C 
ATOM     57  O   UNK d   0      -7.980   6.882  -6.711  0.00  0.00    -0.650 OA
BRANCH  56  58
ATOM     58  O   UNK d   0      -7.506   5.224  -8.205  0.00  0.00    -0.776 OA
ATOM     59  H   UNK d   0      -6.967   5.521  -9.039  0.00  0.00     0.167 HD
ENDBRANCH  56  58
ENDBRANCH  55  56
ENDBRANCH  21  55
BRANCH  18  60
ATOM     60  C   UNK d   0     -10.635   2.534 -11.948  0.00  0.00     0.151 C 
BRANCH  60  61
ATOM     61  C   UNK d   0      -9.201   2.272 -12.146  0.00  0.00     0.143 C 
ATOM     62  O   UNK d   0      -8.274   2.627 -11.417  0.00  0.00    -0.650 OA
BRANCH  61  63
ATOM     63  O   UNK d   0      -8.879   1.528 -13.307  0.00  0.00    -0.776 OA
ATOM     64  H   UNK d   0      -9.375   1.672 -14.169  0.00  0.00     0.167 HD
ENDBRANCH  61  63
ENDBRANCH  60  61
ENDBRANCH  18  60
BRANCH  14  65
ATOM     65  C   UNK d   0     -11.704  -0.299 -12.148  0.00  0.00     0.052 C 
BRANCH  65  66
ATOM     66  C   UNK d   0     -12.857   0.164 -12.965  0.00  0.00     0.115 C 
BRANCH  66  67
ATOM     67  C   UNK d   0     -14.119   0.427 -12.332  0.00  0.00     0.139 C 
ATOM     68  O   UNK d   0     -14.889  -0.568 -12.062  0.00  0.00    -0.650 OA
BRANCH  67  69
ATOM     69  O   UNK d   0     -14.644   1.662 -11.956  0.00  0.00    -0.776 OA
ATOM     70  H   UNK d   0     -14.219   2.486 -12.406  0.00  0.00     0.167 HD
ENDBRANCH  67  69
ENDBRANCH  66  67
ENDBRANCH  65  66
ENDBRANCH  14  65
ENDBRANCH   6   7
ENDBRANCH   5   6
ENDBRANCH   2   5
TORSDOF 28
ENDMDL
MODEL 7
REMARK VINA RESULT:      -8.7      2.535      7.848
REMARK  28 active torsions:
REMARK  status: ('A' for Active; 'I' for Inactive)
REMARK    1  A    between atoms: C_2  and  O_3 
REMARK    2  A    between atoms: C_2  and  C_4 
REMARK    3  A    between atoms: C_4  and  C_5 
REMARK    4  A    between atoms: C_5  and  C_6 
REMARK    5  A    between atoms: C_7  and  C_8 
REMARK    6  A    between atoms: C_8  and  C_9 
REMARK    7  A    between atoms: C_9  and  O_11 
REMARK    8  A    between atoms: C_28  and  C_29 
REMARK    9  A    between atoms: C_29  and  C_30 
REMARK   10  A    between atoms: C_30  and  O_32 
REMARK   11  A    between atoms: C_33  and  C_34 
REMARK   12  A    between atoms: C_34  and  C_35 
REMARK   13  A    between atoms: C_35  and  C_36 
REMARK   14  A    between atoms: C_36  and  O_38 
REMARK   15  A    between atoms: C_39  and  C_40 
REMARK   16  A    between atoms: C_40  and  C_41 
REMARK   17  A    between atoms: C_41  and  C_42 
REMARK   18  A    between atoms: C_42  and  O_44 
REMARK   19  A    between atoms: C_45  and  C_46 
REMARK   20  A    between atoms: C_46  and  C_47 
REMARK   21  A    between atoms: C_47  and  O_49 
REMARK   22  A    between atoms: C_50  and  C_51 
REMARK   23  A    between atoms: C_51  and  C_52 
REMARK   24  A    between atoms: C_52  and  O_54 
REMARK   25  A    between atoms: C_55  and  C_56 
REMARK   26  A    between atoms: C_56  and  C_57 
REMARK   27  A    between atoms: C_57  and  C_58 
REMARK   28  A    between atoms: C_58  and  O_60 
ROOT
ATOM      1  O   UNK d   0       9.031  -2.245  18.962  0.00  0.00    -0.650 OA
ATOM      2  C   UNK d   0       9.196  -1.594  17.906  0.00  0.00     0.139 C 
ENDROOT
BRANCH   2   3
ATOM      3  O   UNK d   0       8.144  -0.882  17.383  0.00  0.00    -0.776 OA
ATOM      4  H   UNK d   0       7.973   0.087  17.661  0.00  0.00     0.167 HD
ENDBRANCH   2   3
BRANCH   2   5
ATOM      5  C   UNK d   0      10.522  -1.596  17.226  0.00  0.00     0.115 C 
BRANCH   5   6
ATOM      6  C   UNK d   0      11.135  -2.968  17.289  0.00  0.00     0.052 C 
BRANCH   6   7
ATOM      7  C   UNK d   0      10.821  -3.802  16.070  0.00  0.00    -0.020 A 
ATOM      8  C   UNK d   0       9.989  -4.808  15.983  0.00  0.00    -0.011 A 
ATOM      9  C   UNK d   0      10.027  -5.300  14.616  0.00  0.00     0.067 A 
ATOM     10  C   UNK d   0       9.381  -6.309  13.885  0.00  0.00     0.062 C 
ATOM     11  N   UNK d   0      10.914  -4.539  13.941  0.00  0.00    -0.248 NA
ATOM     12  C   UNK d   0       9.344  -6.456  12.494  0.00  0.00     0.041 A 
ATOM     13  N   UNK d   0      10.307  -6.321  11.562  0.00  0.00    -0.355 N 
ATOM     14  C   UNK d   0       8.115  -6.742  11.872  0.00  0.00    -0.022 A 
ATOM     15  C   UNK d   0       9.719  -6.506  10.365  0.00  0.00     0.042 A 
ATOM     16  H   UNK d   0      11.385  -6.118  11.748  0.00  0.00     0.166 HD
ATOM     17  C   UNK d   0      10.263  -6.476   9.066  0.00  0.00     0.062 C 
ATOM     18  C   UNK d   0       8.344  -6.772  10.519  0.00  0.00    -0.013 A 
ATOM     19  C   UNK d   0      11.136  -5.572   8.517  0.00  0.00     0.067 A 
ATOM     20  N   UNK d   0      11.717  -4.708   9.354  0.00  0.00    -0.248 NA
ATOM     21  C   UNK d   0      11.624  -5.268   7.182  0.00  0.00    -0.011 A 
ATOM     22  C   UNK d   0      12.548  -3.861   8.662  0.00  0.00     0.066 A 
ATOM     23  C   UNK d   0      13.248  -2.932   9.418  0.00  0.00     0.062 C 
ATOM     24  C   UNK d   0      12.446  -4.263   7.273  0.00  0.00    -0.020 A 
ATOM     25  C   UNK d   0      13.282  -2.809  10.816  0.00  0.00     0.041 A 
ATOM     26  N   UNK d   0      12.322  -2.929  11.741  0.00  0.00    -0.355 N 
ATOM     27  C   UNK d   0      14.517  -2.526  11.439  0.00  0.00    -0.022 A 
ATOM     28  C   UNK d   0      12.904  -2.736  12.935  0.00  0.00     0.042 A 
ATOM     29  H   UNK d   0      11.237  -3.122  11.552  0.00  0.00     0.166 HD
ATOM     30  C   UNK d   0      12.373  -2.754  14.234  0.00  0.00     0.062 C 
ATOM     31  C   UNK d   0      14.287  -2.479  12.780  0.00  0.00    -0.013 A 
ATOM     32  C   UNK d   0      11.426  -3.619  14.759  0.00  0.00     0.066 A 
BRANCH   8  33
ATOM     33  C   UNK d   0       9.156  -5.363  17.066  0.00  0.00     0.151 C 
BRANCH  33  34
ATOM     34  C   UNK d   0       7.737  -4.984  16.945  0.00  0.00     0.143 C 
ATOM     35  O   UNK d   0       7.046  -5.394  16.002  0.00  0.00    -0.650 OA
BRANCH  34  36
ATOM     36  O   UNK d   0       7.175  -4.161  17.894  0.00  0.00    -0.776 OA
ATOM     37  H   UNK d   0       6.511  -3.420  17.633  0.00  0.00     0.167 HD
ENDBRANCH  34  36
ENDBRANCH  33  34
ENDBRANCH   8  33
BRANCH  31  38
ATOM     38  C   UNK d   0      15.319  -2.219  13.852  0.00  0.00     0.151 C 
BRANCH  38  39
ATOM     39  C   UNK d   0      15.692  -0.823  13.946  0.00  0.00     0.143 C 
ATOM     40  O   UNK d   0      14.920   0.095  13.619  0.00  0.00    -0.650 OA
BRANCH  39  41
ATOM     41  O   UNK d   0      16.959  -0.482  14.418  0.00  0.00    -0.776 OA
ATOM     42  H   UNK d   0      17.311   0.447  14.166  0.00  0.00     0.167 HD
ENDBRANCH  39  41
ENDBRANCH  38  39
ENDBRANCH  31  38
BRANCH  27  43
ATOM     43  C   UNK d   0      15.874  -2.303  10.820  0.00  0.00     0.052 C 
BRANCH  43  44
ATOM     44  C   UNK d   0      16.631  -3.569  10.583  0.00  0.00     0.115 C 
BRANCH  44  45
ATOM     45  C   UNK d   0      17.087  -3.532   9.169  0.00  0.00     0.139 C 
ATOM     46  O   UNK d   0      17.563  -2.456   8.729  0.00  0.00    -0.650 OA
BRANCH  45  47
ATOM     47  O   UNK d   0      17.015  -4.624   8.332  0.00  0.00    -0.776 OA
ATOM     48  H   UNK d   0      16.155  -5.184   8.213  0.00  0.00     0.167 HD
ENDBRANCH  45  47
ENDBRANCH  44  45
ENDBRANCH  43  44
ENDBRANCH  27  43
BRANCH  24  49
ATOM     49  C   UNK d   0      13.199  -3.654   6.164  0.00  0.00     0.052 C 
BRANCH  49  50
ATOM     50  C   UNK d   0      12.770  -2.223   5.961  0.00  0.00     0.115 C 
BRANCH  50  51
ATOM     51  C   UNK d   0      11.505  -2.000   5.274  0.00  0.00     0.139 C 
ATOM     52  O   UNK d   0      11.085  -2.757   4.367  0.00  0.00    -0.650 OA
BRANCH  51  53
ATOM     53  O   UNK d   0      10.719  -0.911   5.619  0.00  0.00    -0.776 OA
ATOM     54  H   UNK d   0       9.783  -0.867   5.258  0.00  0.00     0.167 HD
ENDBRANCH  51  53
ENDBRANCH  50  51
ENDBRANCH  49  50
ENDBRANCH  24  49
BRANCH  21  55
ATOM     55  C   UNK d   0      11.220  -6.016   5.955  0.00  0.00     0.151 C 
BRANCH  55  56
ATOM     56  C   UNK d   0      11.239  -7.472   6.166  0.00  0.00     0.143 C 
ATOM     57  O   UNK d   0      12.260  -8.088   6.527  0.00  0.00    -0.650 OA
BRANCH  56  58
ATOM     58  O   UNK d   0      10.055  -8.175   5.948  0.00  0.00    -0.776 OA
ATOM     59  H   UNK d   0       9.407  -8.200   6.756  0.00  0.00     0.167 HD
ENDBRANCH  56  58
ENDBRANCH  55  56
ENDBRANCH  21  55
BRANCH  18  60
ATOM     60  C   UNK d   0       7.294  -7.038   9.470  0.00  0.00     0.151 C 
BRANCH  60  61
ATOM     61  C   UNK d   0       7.679  -8.302   8.824  0.00  0.00     0.143 C 
ATOM     62  O   UNK d   0       7.857  -8.496   7.621  0.00  0.00    -0.650 OA
BRANCH  61  63
ATOM     63  O   UNK d   0       7.858  -9.397   9.702  0.00  0.00    -0.776 OA
ATOM     64  H   UNK d   0       8.258 -10.261   9.379  0.00  0.00     0.167 HD
ENDBRANCH  61  63
ENDBRANCH  60  61
ENDBRANCH  18  60
BRANCH  14  65
ATOM     65  C   UNK d   0       6.775  -7.083  12.460  0.00  0.00     0.052 C 
BRANCH  65  66
ATOM     66  C   UNK d   0       6.638  -8.525  12.799  0.00  0.00     0.115 C 
BRANCH  66  67
ATOM     67  C   UNK d   0       6.762  -8.950  14.165  0.00  0.00     0.139 C 
ATOM     68  O   UNK d   0       6.988 -10.193  14.403  0.00  0.00    -0.650 OA
BRANCH  67  69
ATOM     69  O   UNK d   0       6.667  -8.166  15.314  0.00  0.00    -0.776 OA
ATOM     70  H   UNK d   0       6.979  -7.189  15.217  0.00  0.00     0.167 HD
ENDBRANCH  67  69
ENDBRANCH  66  67
ENDBRANCH  65  66
ENDBRANCH  14  65
ENDBRANCH   6   7
ENDBRANCH   5   6
ENDBRANCH   2   5
TORSDOF 28
ENDMDL
MODEL 8
REMARK VINA RESULT:      -8.7      1.822      7.840
REMARK  28 active torsions:
REMARK  status: ('A' for Active; 'I' for Inactive)
REMARK    1  A    between atoms: C_2  and  O_3 
REMARK    2  A    between atoms: C_2  and  C_4 
REMARK    3  A    between atoms: C_4  and  C_5 
REMARK    4  A    between atoms: C_5  and  C_6 
REMARK    5  A    between atoms: C_7  and  C_8 
REMARK    6  A    between atoms: C_8  and  C_9 
REMARK    7  A    between atoms: C_9  and  O_11 
REMARK    8  A    between atoms: C_28  and  C_29 
REMARK    9  A    between atoms: C_29  and  C_30 
REMARK   10  A    between atoms: C_30  and  O_32 
REMARK   11  A    between atoms: C_33  and  C_34 
REMARK   12  A    between atoms: C_34  and  C_35 
REMARK   13  A    between atoms: C_35  and  C_36 
REMARK   14  A    between atoms: C_36  and  O_38 
REMARK   15  A    between atoms: C_39  and  C_40 
REMARK   16  A    between atoms: C_40  and  C_41 
REMARK   17  A    between atoms: C_41  and  C_42 
REMARK   18  A    between atoms: C_42  and  O_44 
REMARK   19  A    between atoms: C_45  and  C_46 
REMARK   20  A    between atoms: C_46  and  C_47 
REMARK   21  A    between atoms: C_47  and  O_49 
REMARK   22  A    between atoms: C_50  and  C_51 
REMARK   23  A    between atoms: C_51  and  C_52 
REMARK   24  A    between atoms: C_52  and  O_54 
REMARK   25  A    between atoms: C_55  and  C_56 
REMARK   26  A    between atoms: C_56  and  C_57 
REMARK   27  A    between atoms: C_57  and  C_58 
REMARK   28  A    between atoms: C_58  and  O_60 
ROOT
ATOM      1  O   UNK d   0       6.281  -8.622  13.526  0.00  0.00    -0.650 OA
ATOM      2  C   UNK d   0       6.798  -9.670  13.080  0.00  0.00     0.139 C 
ENDROOT
BRANCH   2   3
ATOM      3  O   UNK d   0       7.566 -10.449  13.911  0.00  0.00    -0.776 OA
ATOM      4  H   UNK d   0       7.917 -11.360  13.606  0.00  0.00     0.167 HD
ENDBRANCH   2   3
BRANCH   2   5
ATOM      5  C   UNK d   0       6.581 -10.065  11.659  0.00  0.00     0.115 C 
BRANCH   5   6
ATOM      6  C   UNK d   0       6.283  -8.850  10.824  0.00  0.00     0.052 C 
BRANCH   6   7
ATOM      7  C   UNK d   0       7.489  -8.361  10.058  0.00  0.00    -0.020 A 
ATOM      8  C   UNK d   0       7.878  -8.725   8.863  0.00  0.00    -0.011 A 
ATOM      9  C   UNK d   0       9.094  -7.993   8.549  0.00  0.00     0.067 A 
ATOM     10  C   UNK d   0       9.972  -7.909   7.456  0.00  0.00     0.062 C 
ATOM     11  N   UNK d   0       9.376  -7.210   9.611  0.00  0.00    -0.248 NA
ATOM     12  C   UNK d   0      10.945  -6.932   7.225  0.00  0.00     0.041 A 
ATOM     13  N   UNK d   0      11.834  -6.352   8.054  0.00  0.00    -0.355 N 
ATOM     14  C   UNK d   0      11.047  -6.363   5.942  0.00  0.00    -0.022 A 
ATOM     15  C   UNK d   0      12.491  -5.424   7.332  0.00  0.00     0.042 A 
ATOM     16  H   UNK d   0      12.007  -6.606   9.123  0.00  0.00     0.166 HD
ATOM     17  C   UNK d   0      13.519  -4.536   7.706  0.00  0.00     0.062 C 
ATOM     18  C   UNK d   0      12.024  -5.401   6.004  0.00  0.00    -0.013 A 
ATOM     19  C   UNK d   0      13.620  -3.759   8.832  0.00  0.00     0.067 A 
ATOM     20  N   UNK d   0      12.745  -3.997   9.812  0.00  0.00    -0.248 NA
ATOM     21  C   UNK d   0      14.469  -2.664   9.272  0.00  0.00    -0.011 A 
ATOM     22  C   UNK d   0      12.959  -3.136  10.861  0.00  0.00     0.066 A 
ATOM     23  C   UNK d   0      12.140  -3.299  11.968  0.00  0.00     0.062 C 
ATOM     24  C   UNK d   0      14.074  -2.301  10.459  0.00  0.00    -0.020 A 
ATOM     25  C   UNK d   0      11.176  -4.296  12.186  0.00  0.00     0.041 A 
ATOM     26  N   UNK d   0      10.283  -4.862  11.366  0.00  0.00    -0.355 N 
ATOM     27  C   UNK d   0      11.078  -4.869  13.473  0.00  0.00    -0.022 A 
ATOM     28  C   UNK d   0       9.620  -5.782  12.086  0.00  0.00     0.042 A 
ATOM     29  H   UNK d   0      10.103  -4.597  10.295  0.00  0.00     0.166 HD
ATOM     30  C   UNK d   0       8.589  -6.665  11.729  0.00  0.00     0.062 C 
ATOM     31  C   UNK d   0      10.097  -5.811  13.418  0.00  0.00    -0.013 A 
ATOM     32  C   UNK d   0       8.448  -7.384  10.553  0.00  0.00     0.066 A 
BRANCH   8  33
ATOM     33  C   UNK d   0       7.221  -9.705   7.979  0.00  0.00     0.151 C 
BRANCH  33  34
ATOM     34  C   UNK d   0       7.453 -11.099   8.400  0.00  0.00     0.143 C 
ATOM     35  O   UNK d   0       6.504 -11.844   8.684  0.00  0.00    -0.650 OA
BRANCH  34  36
ATOM     36  O   UNK d   0       8.741 -11.575   8.478  0.00  0.00    -0.776 OA
ATOM     37  H   UNK d   0       9.007 -12.469   8.042  0.00  0.00     0.167 HD
ENDBRANCH  34  36
ENDBRANCH  33  34
ENDBRANCH   8  33
BRANCH  31  38
ATOM     38  C   UNK d   0       9.645  -6.696  14.556  0.00  0.00     0.151 C 
BRANCH  38  39
ATOM     39  C   UNK d   0      10.423  -7.912  14.665  0.00  0.00     0.143 C 
ATOM     40  O   UNK d   0      11.411  -8.005  15.413  0.00  0.00    -0.650 OA
BRANCH  39  41
ATOM     41  O   UNK d   0      10.062  -9.027  13.909  0.00  0.00    -0.776 OA
ATOM     42  H   UNK d   0       9.812  -8.859  12.929  0.00  0.00     0.167 HD
ENDBRANCH  39  41
ENDBRANCH  38  39
ENDBRANCH  31  38
BRANCH  27  43
ATOM     43  C   UNK d   0      11.864  -4.560  14.723  0.00  0.00     0.052 C 
BRANCH  43  44
ATOM     44  C   UNK d   0      11.098  -3.747  15.716  0.00  0.00     0.115 C 
BRANCH  44  45
ATOM     45  C   UNK d   0      11.364  -2.321  15.391  0.00  0.00     0.139 C 
ATOM     46  O   UNK d   0      12.553  -1.972  15.187  0.00  0.00    -0.650 OA
BRANCH  45  47
ATOM     47  O   UNK d   0      10.365  -1.377  15.301  0.00  0.00    -0.776 OA
ATOM     48  H   UNK d   0       9.384  -1.617  15.084  0.00  0.00     0.167 HD
ENDBRANCH  45  47
ENDBRANCH  44  45
ENDBRANCH  43  44
ENDBRANCH  27  43
BRANCH  24  49
ATOM     49  C   UNK d   0      14.682  -1.251  11.293  0.00  0.00     0.052 C 
BRANCH  49  50
ATOM     50  C   UNK d   0      15.097  -1.815  12.627  0.00  0.00     0.115 C 
BRANCH  50  51
ATOM     51  C   UNK d   0      16.447  -1.516  13.085  0.00  0.00     0.139 C 
ATOM     52  O   UNK d   0      17.470  -1.927  12.488  0.00  0.00    -0.650 OA
BRANCH  51  53
ATOM     53  O   UNK d   0      16.631  -0.749  14.225  0.00  0.00    -0.776 OA
ATOM     54  H   UNK d   0      17.521  -0.303  14.360  0.00  0.00     0.167 HD
ENDBRANCH  51  53
ENDBRANCH  50  51
ENDBRANCH  49  50
ENDBRANCH  24  49
BRANCH  21  55
ATOM     55  C   UNK d   0      15.588  -2.097   8.463  0.00  0.00     0.151 C 
BRANCH  55  56
ATOM     56  C   UNK d   0      16.879  -2.719   8.797  0.00  0.00     0.143 C 
ATOM     57  O   UNK d   0      17.830  -2.078   9.286  0.00  0.00    -0.650 OA
BRANCH  56  58
ATOM     58  O   UNK d   0      17.026  -4.082   8.549  0.00  0.00    -0.776 OA
ATOM     59  H   UNK d   0      16.663  -4.401   7.632  0.00  0.00     0.167 HD
ENDBRANCH  56  58
ENDBRANCH  55  56
ENDBRANCH  21  55
BRANCH  18  60
ATOM     60  C   UNK d   0      12.457  -4.533   4.848  0.00  0.00     0.151 C 
BRANCH  60  61
ATOM     61  C   UNK d   0      11.518  -3.401   4.819  0.00  0.00     0.143 C 
ATOM     62  O   UNK d   0      11.399  -2.515   5.666  0.00  0.00    -0.650 OA
BRANCH  61  63
ATOM     63  O   UNK d   0      10.672  -3.349   3.686  0.00  0.00    -0.776 OA
ATOM     64  H   UNK d   0       9.927  -4.011   3.564  0.00  0.00     0.167 HD
ENDBRANCH  61  63
ENDBRANCH  60  61
ENDBRANCH  18  60
BRANCH  14  65
ATOM     65  C   UNK d   0      10.365  -6.723   4.652  0.00  0.00     0.052 C 
BRANCH  65  66
ATOM     66  C   UNK d   0      11.123  -7.724   3.854  0.00  0.00     0.115 C 
BRANCH  66  67
ATOM     67  C   UNK d   0      11.746  -7.328   2.622  0.00  0.00     0.139 C 
ATOM     68  O   UNK d   0      13.025  -7.201   2.594  0.00  0.00    -0.650 OA
BRANCH  67  69
ATOM     69  O   UNK d   0      11.127  -7.050   1.404  0.00  0.00    -0.776 OA
ATOM     70  H   UNK d   0      11.464  -6.211   0.911  0.00  0.00     0.167 HD
ENDBRANCH  67  69
ENDBRANCH  66  67
ENDBRANCH  65  66
ENDBRANCH  14  65
ENDBRANCH   6   7
ENDBRANCH   5   6
ENDBRANCH   2   5
TORSDOF 28
ENDMDL
MODEL 9
REMARK VINA RESULT:      -8.7      1.894      7.838
REMARK  28 active torsions:
REMARK  status: ('A' for Active; 'I' for Inactive)
REMARK    1  A    between atoms: C_2  and  O_3 
REMARK    2  A    between atoms: C_2  and  C_4 
REMARK    3  A    between atoms: C_4  and  C_5 
REMARK    4  A    between atoms: C_5  and  C_6 
REMARK    5  A    between atoms: C_7  and  C_8 
REMARK    6  A    between atoms: C_8  and  C_9 
REMARK    7  A    between atoms: C_9  and  O_11 
REMARK    8  A    between atoms: C_28  and  C_29 
REMARK    9  A    between atoms: C_29  and  C_30 
REMARK   10  A    between atoms: C_30  and  O_32 
REMARK   11  A    between atoms: C_33  and  C_34 
REMARK   12  A    between atoms: C_34  and  C_35 
REMARK   13  A    between atoms: C_35  and  C_36 
REMARK   14  A    between atoms: C_36  and  O_38 
REMARK   15  A    between atoms: C_39  and  C_40 
REMARK   16  A    between atoms: C_40  and  C_41 
REMARK   17  A    between atoms: C_41  and  C_42 
REMARK   18  A    between atoms: C_42  and  O_44 
REMARK   19  A    between atoms: C_45  and  C_46 
REMARK   20  A    between atoms: C_46  and  C_47 
REMARK   21  A    between atoms: C_47  and  O_49 
REMARK   22  A    between atoms: C_50  and  C_51 
REMARK   23  A    between atoms: C_51  and  C_52 
REMARK   24  A    between atoms: C_52  and  O_54 
REMARK   25  A    between atoms: C_55  and  C_56 
REMARK   26  A    between atoms: C_56  and  C_57 
REMARK   27  A    between atoms: C_57  and  C_58 
REMARK   28  A    between atoms: C_58  and  O_60 
ROOT
ATOM      1  O   UNK d   0       6.157 -10.663   9.557  0.00  0.00    -0.650 OA
ATOM      2  C   UNK d   0       6.781  -9.622   9.859  0.00  0.00     0.139 C 
ENDROOT
BRANCH   2   3
ATOM      3  O   UNK d   0       6.971  -9.310  11.183  0.00  0.00    -0.776 OA
ATOM      4  H   UNK d   0       7.399  -8.425  11.461  0.00  0.00     0.167 HD
ENDBRANCH   2   3
BRANCH   2   5
ATOM      5  C   UNK d   0       7.312  -8.731   8.788  0.00  0.00     0.115 C 
BRANCH   5   6
ATOM      6  C   UNK d   0       8.732  -9.103   8.462  0.00  0.00     0.052 C 
BRANCH   6   7
ATOM      7  C   UNK d   0       9.648  -7.904   8.401  0.00  0.00    -0.020 A 
ATOM      8  C   UNK d   0      10.231  -7.397   7.345  0.00  0.00    -0.011 A 
ATOM      9  C   UNK d   0      11.020  -6.256   7.777  0.00  0.00     0.067 A 
ATOM     10  C   UNK d   0      11.839  -5.298   7.157  0.00  0.00     0.062 C 
ATOM     11  N   UNK d   0      10.864  -6.143   9.112  0.00  0.00    -0.248 NA
ATOM     12  C   UNK d   0      12.299  -4.096   7.705  0.00  0.00     0.041 A 
ATOM     13  N   UNK d   0      12.790  -3.808   8.925  0.00  0.00    -0.355 N 
ATOM     14  C   UNK d   0      12.221  -2.923   6.932  0.00  0.00    -0.022 A 
ATOM     15  C   UNK d   0      13.018  -2.481   8.949  0.00  0.00     0.042 A 
ATOM     16  H   UNK d   0      12.990  -4.531   9.746  0.00  0.00     0.166 HD
ATOM     17  C   UNK d   0      13.529  -1.660   9.975  0.00  0.00     0.062 C 
ATOM     18  C   UNK d   0      12.673  -1.892   7.718  0.00  0.00    -0.013 A 
ATOM     19  C   UNK d   0      13.210  -1.648  11.309  0.00  0.00     0.067 A 
ATOM     20  N   UNK d   0      12.468  -2.662  11.762  0.00  0.00    -0.248 NA
ATOM     21  C   UNK d   0      13.464  -0.766  12.436  0.00  0.00    -0.011 A 
ATOM     22  C   UNK d   0      12.217  -2.506  13.104  0.00  0.00     0.066 A 
ATOM     23  C   UNK d   0      11.485  -3.513  13.715  0.00  0.00     0.062 C 
ATOM     24  C   UNK d   0      12.877  -1.272  13.482  0.00  0.00    -0.020 A 
ATOM     25  C   UNK d   0      11.043  -4.720  13.150  0.00  0.00     0.041 A 
ATOM     26  N   UNK d   0      10.541  -5.003  11.943  0.00  0.00    -0.355 N 
ATOM     27  C   UNK d   0      11.126  -5.897  13.925  0.00  0.00    -0.022 A 
ATOM     28  C   UNK d   0      10.304  -6.324  11.919  0.00  0.00     0.042 A 
ATOM     29  H   UNK d   0      10.331  -4.274  11.122  0.00  0.00     0.166 HD
ATOM     30  C   UNK d   0       9.788  -7.152  10.909  0.00  0.00     0.062 C 
ATOM     31  C   UNK d   0      10.661  -6.918  13.153  0.00  0.00    -0.013 A 
ATOM     32  C   UNK d   0      10.050  -7.105   9.549  0.00  0.00     0.066 A 
BRANCH   8  33
ATOM     33  C   UNK d   0      10.125  -7.884   5.957  0.00  0.00     0.151 C 
BRANCH  33  34
ATOM     34  C   UNK d   0      11.058  -7.203   5.041  0.00  0.00     0.143 C 
ATOM     35  O   UNK d   0      12.219  -7.611   4.896  0.00  0.00    -0.650 OA
BRANCH  34  36
ATOM     36  O   UNK d   0      10.631  -6.099   4.340  0.00  0.00    -0.776 OA
ATOM     37  H   UNK d   0      10.221  -5.287   4.820  0.00  0.00     0.167 HD
ENDBRANCH  34  36
ENDBRANCH  33  34
ENDBRANCH   8  33
BRANCH  31  38
ATOM     38  C   UNK d   0      10.573  -8.371  13.556  0.00  0.00     0.151 C 
BRANCH  38  39
ATOM     39  C   UNK d   0       9.298  -8.712  14.151  0.00  0.00     0.143 C 
ATOM     40  O   UNK d   0       8.215  -8.381  13.638  0.00  0.00    -0.650 OA
BRANCH  39  41
ATOM     41  O   UNK d   0       9.268  -9.439  15.341  0.00  0.00    -0.776 OA
ATOM     42  H   UNK d   0       9.982  -9.210  16.039  0.00  0.00     0.167 HD
ENDBRANCH  39  41
ENDBRANCH  38  39
ENDBRANCH  31  38
BRANCH  27  43
ATOM     43  C   UNK d   0      11.618  -6.082  15.339  0.00  0.00     0.052 C 
BRANCH  43  44
ATOM     44  C   UNK d   0      10.550  -5.884  16.366  0.00  0.00     0.115 C 
BRANCH  44  45
ATOM     45  C   UNK d   0      10.404  -7.178  17.081  0.00  0.00     0.139 C 
ATOM     46  O   UNK d   0      11.352  -7.999  17.018  0.00  0.00    -0.650 OA
BRANCH  45  47
ATOM     47  O   UNK d   0       9.281  -7.507  17.808  0.00  0.00    -0.776 OA
ATOM     48  H   UNK d   0       8.951  -6.950  18.613  0.00  0.00     0.167 HD
ENDBRANCH  45  47
ENDBRANCH  44  45
ENDBRANCH  43  44
ENDBRANCH  27  43
BRANCH  24  49
ATOM     49  C   UNK d   0      12.910  -0.720  14.848  0.00  0.00     0.052 C 
BRANCH  49  50
ATOM     50  C   UNK d   0      11.539  -0.245  15.255  0.00  0.00     0.115 C 
BRANCH  50  51
ATOM     51  C   UNK d   0      11.044   0.973  14.627  0.00  0.00     0.139 C 
ATOM     52  O   UNK d   0       9.850   1.114  14.272  0.00  0.00    -0.650 OA
BRANCH  51  53
ATOM     53  O   UNK d   0      11.912   2.030  14.402  0.00  0.00    -0.776 OA
ATOM     54  H   UNK d   0      12.356   2.098  13.503  0.00  0.00     0.167 HD
ENDBRANCH  51  53
ENDBRANCH  50  51
ENDBRANCH  49  50
ENDBRANCH  24  49
BRANCH  21  55
ATOM     55  C   UNK d   0      14.271   0.487  12.350  0.00  0.00     0.151 C 
BRANCH  55  56
ATOM     56  C   UNK d   0      13.738   1.418  11.343  0.00  0.00     0.143 C 
ATOM     57  O   UNK d   0      14.392   1.779  10.345  0.00  0.00    -0.650 OA
BRANCH  56  58
ATOM     58  O   UNK d   0      12.446   1.906  11.530  0.00  0.00    -0.776 OA
ATOM     59  H   UNK d   0      12.107   1.881  12.508  0.00  0.00     0.167 HD
ENDBRANCH  56  58
ENDBRANCH  55  56
ENDBRANCH  21  55
BRANCH  18  60
ATOM     60  C   UNK d   0      12.753  -0.448   7.287  0.00  0.00     0.151 C 
BRANCH  60  61
ATOM     61  C   UNK d   0      14.182  -0.167   7.080  0.00  0.00     0.143 C 
ATOM     62  O   UNK d   0      15.045  -0.956   6.691  0.00  0.00    -0.650 OA
BRANCH  61  63
ATOM     63  O   UNK d   0      14.583   1.160   7.364  0.00  0.00    -0.776 OA
ATOM     64  H   UNK d   0      13.904   1.889   7.499  0.00  0.00     0.167 HD
ENDBRANCH  61  63
ENDBRANCH  60  61
ENDBRANCH  18  60
BRANCH  14  65
ATOM     65  C   UNK d   0      11.848  -2.720   5.491  0.00  0.00     0.052 C 
BRANCH  65  66
ATOM     66  C   UNK d   0      13.026  -2.699   4.583  0.00  0.00     0.115 C 
BRANCH  66  67
ATOM     67  C   UNK d   0      13.789  -3.898   4.379  0.00  0.00     0.139 C 
ATOM     68  O   UNK d   0      14.986  -3.951   4.846  0.00  0.00    -0.650 OA
BRANCH  67  69
ATOM     69  O   UNK d   0      13.393  -5.059   3.715  0.00  0.00    -0.776 OA
ATOM     70  H   UNK d   0      12.474  -5.439   3.987  0.00  0.00     0.167 HD
ENDBRANCH  67  69
ENDBRANCH  66  67
ENDBRANCH  65  66
ENDBRANCH  14  65
ENDBRANCH   6   7
ENDBRANCH   5   6
ENDBRANCH   2   5
TORSDOF 28
ENDMDL
MODEL 10
REMARK VINA RESULT:      -8.7     29.769     33.567
REMARK  28 active torsions:
REMARK  status: ('A' for Active; 'I' for Inactive)
REMARK    1  A    between atoms: C_2  and  O_3 
REMARK    2  A    between atoms: C_2  and  C_4 
REMARK    3  A    between atoms: C_4  and  C_5 
REMARK    4  A    between atoms: C_5  and  C_6 
REMARK    5  A    between atoms: C_7  and  C_8 
REMARK    6  A    between atoms: C_8  and  C_9 
REMARK    7  A    between atoms: C_9  and  O_11 
REMARK    8  A    between atoms: C_28  and  C_29 
REMARK    9  A    between atoms: C_29  and  C_30 
REMARK   10  A    between atoms: C_30  and  O_32 
REMARK   11  A    between atoms: C_33  and  C_34 
REMARK   12  A    between atoms: C_34  and  C_35 
REMARK   13  A    between atoms: C_35  and  C_36 
REMARK   14  A    between atoms: C_36  and  O_38 
REMARK   15  A    between atoms: C_39  and  C_40 
REMARK   16  A    between atoms: C_40  and  C_41 
REMARK   17  A    between atoms: C_41  and  C_42 
REMARK   18  A    between atoms: C_42  and  O_44 
REMARK   19  A    between atoms: C_45  and  C_46 
REMARK   20  A    between atoms: C_46  and  C_47 
REMARK   21  A    between atoms: C_47  and  O_49 
REMARK   22  A    between atoms: C_50  and  C_51 
REMARK   23  A    between atoms: C_51  and  C_52 
REMARK   24  A    between atoms: C_52  and  O_54 
REMARK   25  A    between atoms: C_55  and  C_56 
REMARK   26  A    between atoms: C_56  and  C_57 
REMARK   27  A    between atoms: C_57  and  C_58 
REMARK   28  A    between atoms: C_58  and  O_60 
ROOT
ATOM      1  O   UNK d   0      -9.988   2.698 -14.227  0.00  0.00    -0.650 OA
ATOM      2  C   UNK d   0      -9.248   2.030 -13.472  0.00  0.00     0.139 C 
ENDROOT
BRANCH   2   3
ATOM      3  O   UNK d   0      -7.909   1.922 -13.763  0.00  0.00    -0.776 OA
ATOM      4  H   UNK d   0      -7.426   2.646 -14.298  0.00  0.00     0.167 HD
ENDBRANCH   2   3
BRANCH   2   5
ATOM      5  C   UNK d   0      -9.817   1.358 -12.269  0.00  0.00     0.115 C 
BRANCH   5   6
ATOM      6  C   UNK d   0     -11.169   1.933 -11.946  0.00  0.00     0.052 C 
BRANCH   6   7
ATOM      7  C   UNK d   0     -12.234   0.872 -11.805  0.00  0.00    -0.020 A 
ATOM      8  C   UNK d   0     -12.788   0.166 -12.757  0.00  0.00    -0.011 A 
ATOM      9  C   UNK d   0     -13.763  -0.721 -12.143  0.00  0.00     0.067 A 
ATOM     10  C   UNK d   0     -14.651  -1.713 -12.588  0.00  0.00     0.062 C 
ATOM     11  N   UNK d   0     -13.739  -0.484 -10.815  0.00  0.00    -0.248 NA
ATOM     12  C   UNK d   0     -15.318  -2.664 -11.809  0.00  0.00     0.041 A 
ATOM     13  N   UNK d   0     -15.948  -2.554 -10.623  0.00  0.00    -0.355 N 
ATOM     14  C   UNK d   0     -15.338  -4.003 -12.238  0.00  0.00    -0.022 A 
ATOM     15  C   UNK d   0     -16.359  -3.791 -10.286  0.00  0.00     0.042 A 
ATOM     16  H   UNK d   0     -16.115  -1.618 -10.046  0.00  0.00     0.166 HD
ATOM     17  C   UNK d   0     -17.065  -4.241  -9.152  0.00  0.00     0.062 C 
ATOM     18  C   UNK d   0     -15.995  -4.726 -11.273  0.00  0.00    -0.013 A 
ATOM     19  C   UNK d   0     -16.866  -3.927  -7.832  0.00  0.00     0.067 A 
ATOM     20  N   UNK d   0     -16.032  -2.918  -7.569  0.00  0.00    -0.248 NA
ATOM     21  C   UNK d   0     -17.336  -4.437  -6.554  0.00  0.00    -0.011 A 
ATOM     22  C   UNK d   0     -15.921  -2.731  -6.213  0.00  0.00     0.066 A 
ATOM     23  C   UNK d   0     -15.111  -1.684  -5.798  0.00  0.00     0.062 C 
ATOM     24  C   UNK d   0     -16.776  -3.736  -5.611  0.00  0.00    -0.020 A 
ATOM     25  C   UNK d   0     -14.460  -0.733  -6.598  0.00  0.00     0.041 A 
ATOM     26  N   UNK d   0     -13.821  -0.844  -7.768  0.00  0.00    -0.355 N 
ATOM     27  C   UNK d   0     -14.444   0.613  -6.168  0.00  0.00    -0.022 A 
ATOM     28  C   UNK d   0     -13.402   0.387  -8.103  0.00  0.00     0.042 A 
ATOM     29  H   UNK d   0     -13.645  -1.787  -8.342  0.00  0.00     0.166 HD
ATOM     30  C   UNK d   0     -12.692   0.847  -9.223  0.00  0.00     0.062 C 
ATOM     31  C   UNK d   0     -13.778   1.328  -7.115  0.00  0.00    -0.013 A 
ATOM     32  C   UNK d   0     -12.839   0.463 -10.546  0.00  0.00     0.066 A 
BRANCH   8  33
ATOM     33  C   UNK d   0     -12.498   0.244 -14.200  0.00  0.00     0.151 C 
BRANCH  33  34
ATOM     34  C   UNK d   0     -12.047  -1.043 -14.762  0.00  0.00     0.143 C 
ATOM     35  O   UNK d   0     -12.480  -1.449 -15.849  0.00  0.00    -0.650 OA
BRANCH  34  36
ATOM     36  O   UNK d   0     -11.135  -1.801 -14.065  0.00  0.00    -0.776 OA
ATOM     37  H   UNK d   0     -10.125  -1.614 -14.130  0.00  0.00     0.167 HD
ENDBRANCH  34  36
ENDBRANCH  33  34
ENDBRANCH   8  33
BRANCH  31  38
ATOM     38  C   UNK d   0     -13.523   2.817  -7.093  0.00  0.00     0.151 C 
BRANCH  38  39
ATOM     39  C   UNK d   0     -14.676   3.590  -7.505  0.00  0.00     0.143 C 
ATOM     40  O   UNK d   0     -15.274   3.374  -8.573  0.00  0.00    -0.650 OA
BRANCH  39  41
ATOM     41  O   UNK d   0     -15.143   4.616  -6.683  0.00  0.00    -0.776 OA
ATOM     42  H   UNK d   0     -14.868   4.579  -5.697  0.00  0.00     0.167 HD
ENDBRANCH  39  41
ENDBRANCH  38  39
ENDBRANCH  31  38
BRANCH  27  43
ATOM     43  C   UNK d   0     -15.025   1.226  -4.919  0.00  0.00     0.052 C 
BRANCH  43  44
ATOM     44  C   UNK d   0     -14.121   1.119  -3.733  0.00  0.00     0.115 C 
BRANCH  44  45
ATOM     45  C   UNK d   0     -14.022   2.483  -3.151  0.00  0.00     0.139 C 
ATOM     46  O   UNK d   0     -15.087   3.104  -2.913  0.00  0.00    -0.650 OA
BRANCH  45  47
ATOM     47  O   UNK d   0     -12.817   3.085  -2.860  0.00  0.00    -0.776 OA
ATOM     48  H   UNK d   0     -11.955   2.550  -2.668  0.00  0.00     0.167 HD
ENDBRANCH  45  47
ENDBRANCH  44  45
ENDBRANCH  43  44
ENDBRANCH  27  43
BRANCH  24  49
ATOM     49  C   UNK d   0     -17.003  -3.890  -4.164  0.00  0.00     0.052 C 
BRANCH  49  50
ATOM     50  C   UNK d   0     -18.046  -2.911  -3.689  0.00  0.00     0.115 C 
BRANCH  50  51
ATOM     51  C   UNK d   0     -17.572  -1.675  -3.083  0.00  0.00     0.139 C 
ATOM     52  O   UNK d   0     -16.491  -1.602  -2.452  0.00  0.00    -0.650 OA
BRANCH  51  53
ATOM     53  O   UNK d   0     -18.331  -0.520  -3.194  0.00  0.00    -0.776 OA
ATOM     54  H   UNK d   0     -17.997   0.213  -3.794  0.00  0.00     0.167 HD
ENDBRANCH  51  53
ENDBRANCH  50  51
ENDBRANCH  49  50
ENDBRANCH  24  49
BRANCH  21  55
ATOM     55  C   UNK d   0     -18.298  -5.569  -6.410  0.00  0.00     0.151 C 
BRANCH  55  56
ATOM     56  C   UNK d   0     -17.650  -6.874  -6.612  0.00  0.00     0.143 C 
ATOM     57  O   UNK d   0     -18.268  -7.880  -7.011  0.00  0.00    -0.650 OA
BRANCH  56  58
ATOM     58  O   UNK d   0     -16.286  -6.969  -6.342  0.00  0.00    -0.776 OA
ATOM     59  H   UNK d   0     -15.916  -6.245  -5.699  0.00  0.00     0.167 HD
ENDBRANCH  56  58
ENDBRANCH  55  56
ENDBRANCH  21  55
BRANCH  18  60
ATOM     60  C   UNK d   0     -16.237  -6.214 -11.324  0.00  0.00     0.151 C 
BRANCH  60  61
ATOM     61  C   UNK d   0     -15.009  -6.842 -10.812  0.00  0.00     0.143 C 
ATOM     62  O   UNK d   0     -14.455  -6.618  -9.735  0.00  0.00    -0.650 OA
BRANCH  61  63
ATOM     63  O   UNK d   0     -14.421  -7.803 -11.669  0.00  0.00    -0.776 OA
ATOM     64  H   UNK d   0     -14.228  -8.734 -11.348  0.00  0.00     0.167 HD
ENDBRANCH  61  63
ENDBRANCH  60  61
ENDBRANCH  18  60
BRANCH  14  65
ATOM     65  C   UNK d   0     -14.874  -4.628 -13.523  0.00  0.00     0.052 C 
BRANCH  65  66
ATOM     66  C   UNK d   0     -13.487  -4.238 -13.892  0.00  0.00     0.115 C 
BRANCH  66  67
ATOM     67  C   UNK d   0     -12.419  -5.186 -13.745  0.00  0.00     0.139 C 
ATOM     68  O   UNK d   0     -12.713  -6.402 -13.448  0.00  0.00    -0.650 OA
BRANCH  67  69
ATOM     69  O   UNK d   0     -11.050  -4.958 -13.885  0.00  0.00    -0.776 OA
ATOM     70  H   UNK d   0     -10.703  -4.066 -13.503  0.00  0.00     0.167 HD
ENDBRANCH  67  69
ENDBRANCH  66  67
ENDBRANCH  65  66
ENDBRANCH  14  65
ENDBRANCH   6   7
ENDBRANCH   5   6
ENDBRANCH   2   5
TORSDOF 28
ENDMDL
MODEL 11
REMARK VINA RESULT:      -8.6      1.867     10.010
REMARK  28 active torsions:
REMARK  status: ('A' for Active; 'I' for Inactive)
REMARK    1  A    between atoms: C_2  and  O_3 
REMARK    2  A    between atoms: C_2  and  C_4 
REMARK    3  A    between atoms: C_4  and  C_5 
REMARK    4  A    between atoms: C_5  and  C_6 
REMARK    5  A    between atoms: C_7  and  C_8 
REMARK    6  A    between atoms: C_8  and  C_9 
REMARK    7  A    between atoms: C_9  and  O_11 
REMARK    8  A    between atoms: C_28  and  C_29 
REMARK    9  A    between atoms: C_29  and  C_30 
REMARK   10  A    between atoms: C_30  and  O_32 
REMARK   11  A    between atoms: C_33  and  C_34 
REMARK   12  A    between atoms: C_34  and  C_35 
REMARK   13  A    between atoms: C_35  and  C_36 
REMARK   14  A    between atoms: C_36  and  O_38 
REMARK   15  A    between atoms: C_39  and  C_40 
REMARK   16  A    between atoms: C_40  and  C_41 
REMARK   17  A    between atoms: C_41  and  C_42 
REMARK   18  A    between atoms: C_42  and  O_44 
REMARK   19  A    between atoms: C_45  and  C_46 
REMARK   20  A    between atoms: C_46  and  C_47 
REMARK   21  A    between atoms: C_47  and  O_49 
REMARK   22  A    between atoms: C_50  and  C_51 
REMARK   23  A    between atoms: C_51  and  C_52 
REMARK   24  A    between atoms: C_52  and  O_54 
REMARK   25  A    between atoms: C_55  and  C_56 
REMARK   26  A    between atoms: C_56  and  C_57 
REMARK   27  A    between atoms: C_57  and  C_58 
REMARK   28  A    between atoms: C_58  and  O_60 
ROOT
ATOM      1  O   UNK d   0      12.497  -7.408   4.057  0.00  0.00    -0.650 OA
ATOM      2  C   UNK d   0      11.259  -7.309   3.905  0.00  0.00     0.139 C 
ENDROOT
BRANCH   2   3
ATOM      3  O   UNK d   0      10.724  -7.418   2.644  0.00  0.00    -0.776 OA
ATOM      4  H   UNK d   0       9.822  -6.995   2.415  0.00  0.00     0.167 HD
ENDBRANCH   2   3
BRANCH   2   5
ATOM      5  C   UNK d   0      10.377  -7.074   5.083  0.00  0.00     0.115 C 
BRANCH   5   6
ATOM      6  C   UNK d   0      10.619  -8.128   6.130  0.00  0.00     0.052 C 
BRANCH   6   7
ATOM      7  C   UNK d   0      10.451  -7.601   7.535  0.00  0.00    -0.020 A 
ATOM      8  C   UNK d   0       9.691  -8.086   8.483  0.00  0.00    -0.011 A 
ATOM      9  C   UNK d   0       9.850  -7.242   9.656  0.00  0.00     0.067 A 
ATOM     10  C   UNK d   0       9.350  -7.225  10.967  0.00  0.00     0.062 C 
ATOM     11  N   UNK d   0      10.721  -6.264   9.330  0.00  0.00    -0.248 NA
ATOM     12  C   UNK d   0       9.836  -6.485  12.050  0.00  0.00     0.041 A 
ATOM     13  N   UNK d   0      10.253  -5.208  12.135  0.00  0.00    -0.355 N 
ATOM     14  C   UNK d   0       9.999  -7.124  13.293  0.00  0.00    -0.022 A 
ATOM     15  C   UNK d   0      10.685  -5.022  13.397  0.00  0.00     0.042 A 
ATOM     16  H   UNK d   0      10.226  -4.447  11.324  0.00  0.00     0.166 HD
ATOM     17  C   UNK d   0      11.219  -3.877  14.020  0.00  0.00     0.062 C 
ATOM     18  C   UNK d   0      10.541  -6.201  14.153  0.00  0.00    -0.013 A 
ATOM     19  C   UNK d   0      12.164  -3.000  13.549  0.00  0.00     0.067 A 
ATOM     20  N   UNK d   0      12.496  -3.104  12.260  0.00  0.00    -0.248 NA
ATOM     21  C   UNK d   0      12.965  -1.926  14.112  0.00  0.00    -0.011 A 
ATOM     22  C   UNK d   0      13.457  -2.178  11.939  0.00  0.00     0.066 A 
ATOM     23  C   UNK d   0      13.869  -2.150  10.615  0.00  0.00     0.062 C 
ATOM     24  C   UNK d   0      13.723  -1.452  13.166  0.00  0.00    -0.020 A 
ATOM     25  C   UNK d   0      13.359  -2.893   9.539  0.00  0.00     0.041 A 
ATOM     26  N   UNK d   0      12.958  -4.167   9.451  0.00  0.00    -0.355 N 
ATOM     27  C   UNK d   0      13.192  -2.250   8.294  0.00  0.00    -0.022 A 
ATOM     28  C   UNK d   0      12.536  -4.357   8.191  0.00  0.00     0.042 A 
ATOM     29  H   UNK d   0      12.996  -4.933  10.264  0.00  0.00     0.166 HD
ATOM     30  C   UNK d   0      12.010  -5.493   7.556  0.00  0.00     0.062 C 
ATOM     31  C   UNK d   0      12.671  -3.169   7.435  0.00  0.00    -0.013 A 
ATOM     32  C   UNK d   0      11.120  -6.424   8.067  0.00  0.00     0.066 A 
BRANCH   8  33
ATOM     33  C   UNK d   0       8.818  -9.271   8.399  0.00  0.00     0.151 C 
BRANCH  33  34
ATOM     34  C   UNK d   0       7.486  -9.041   8.986  0.00  0.00     0.143 C 
ATOM     35  O   UNK d   0       6.808  -8.056   8.661  0.00  0.00    -0.650 OA
BRANCH  34  36
ATOM     36  O   UNK d   0       6.991  -9.934   9.909  0.00  0.00    -0.776 OA
ATOM     37  H   UNK d   0       6.218 -10.571   9.675  0.00  0.00     0.167 HD
ENDBRANCH  34  36
ENDBRANCH  33  34
ENDBRANCH   8  33
BRANCH  31  38
ATOM     38  C   UNK d   0      12.309  -2.932   5.988  0.00  0.00     0.151 C 
BRANCH  38  39
ATOM     39  C   UNK d   0      13.376  -3.287   5.077  0.00  0.00     0.143 C 
ATOM     40  O   UNK d   0      14.245  -2.471   4.719  0.00  0.00    -0.650 OA
BRANCH  39  41
ATOM     41  O   UNK d   0      13.447  -4.586   4.575  0.00  0.00    -0.776 OA
ATOM     42  H   UNK d   0      14.383  -4.959   4.389  0.00  0.00     0.167 HD
ENDBRANCH  39  41
ENDBRANCH  38  39
ENDBRANCH  31  38
BRANCH  27  43
ATOM     43  C   UNK d   0      13.504  -0.828   7.900  0.00  0.00     0.052 C 
BRANCH  43  44
ATOM     44  C   UNK d   0      14.908  -0.642   7.421  0.00  0.00     0.115 C 
BRANCH  44  45
ATOM     45  C   UNK d   0      15.443   0.550   8.129  0.00  0.00     0.139 C 
ATOM     46  O   UNK d   0      14.826   0.963   9.142  0.00  0.00    -0.650 OA
BRANCH  45  47
ATOM     47  O   UNK d   0      16.582   1.211   7.724  0.00  0.00    -0.776 OA
ATOM     48  H   UNK d   0      17.004   1.080   6.790  0.00  0.00     0.167 HD
ENDBRANCH  45  47
ENDBRANCH  44  45
ENDBRANCH  43  44
ENDBRANCH  27  43
BRANCH  24  49
ATOM     49  C   UNK d   0      14.665  -0.327  13.290  0.00  0.00     0.052 C 
BRANCH  49  50
ATOM     50  C   UNK d   0      15.953  -0.789  13.922  0.00  0.00     0.115 C 
BRANCH  50  51
ATOM     51  C   UNK d   0      16.646  -1.899  13.282  0.00  0.00     0.139 C 
ATOM     52  O   UNK d   0      17.379  -1.750  12.276  0.00  0.00    -0.650 OA
BRANCH  51  53
ATOM     53  O   UNK d   0      16.502  -3.182  13.789  0.00  0.00    -0.776 OA
ATOM     54  H   UNK d   0      16.452  -3.947  13.140  0.00  0.00     0.167 HD
ENDBRANCH  51  53
ENDBRANCH  50  51
ENDBRANCH  49  50
ENDBRANCH  24  49
BRANCH  21  55
ATOM     55  C   UNK d   0      12.886  -1.484  15.535  0.00  0.00     0.151 C 
BRANCH  55  56
ATOM     56  C   UNK d   0      11.732  -0.603  15.776  0.00  0.00     0.143 C 
ATOM     57  O   UNK d   0      10.898  -0.815  16.678  0.00  0.00    -0.650 OA
BRANCH  56  58
ATOM     58  O   UNK d   0      11.582   0.510  14.951  0.00  0.00    -0.776 OA
ATOM     59  H   UNK d   0      11.354   1.392  15.445  0.00  0.00     0.167 HD
ENDBRANCH  56  58
ENDBRANCH  55  56
ENDBRANCH  21  55
BRANCH  18  60
ATOM     60  C   UNK d   0      10.889  -6.466  15.596  0.00  0.00     0.151 C 
BRANCH  60  61
ATOM     61  C   UNK d   0      12.255  -7.012  15.589  0.00  0.00     0.143 C 
ATOM     62  O   UNK d   0      13.283  -6.436  15.231  0.00  0.00    -0.650 OA
BRANCH  61  63
ATOM     63  O   UNK d   0      12.373  -8.346  16.048  0.00  0.00    -0.776 OA
ATOM     64  H   UNK d   0      12.352  -9.119  15.406  0.00  0.00     0.167 HD
ENDBRANCH  61  63
ENDBRANCH  60  61
ENDBRANCH  18  60
BRANCH  14  65
ATOM     65  C   UNK d   0       9.594  -8.496  13.751  0.00  0.00     0.052 C 
BRANCH  65  66
ATOM     66  C   UNK d   0       8.209  -8.544  14.292  0.00  0.00     0.115 C 
BRANCH  66  67
ATOM     67  C   UNK d   0       7.340  -9.628  13.930  0.00  0.00     0.139 C 
ATOM     68  O   UNK d   0       6.769  -9.599  12.779  0.00  0.00    -0.650 OA
BRANCH  67  69
ATOM     69  O   UNK d   0       7.019 -10.753  14.689  0.00  0.00    -0.776 OA
ATOM     70  H   UNK d   0       7.366 -11.653  14.326  0.00  0.00     0.167 HD
ENDBRANCH  67  69
ENDBRANCH  66  67
ENDBRANCH  65  66
ENDBRANCH  14  65
ENDBRANCH   6   7
ENDBRANCH   5   6
ENDBRANCH   2   5
TORSDOF 28
ENDMDL
MODEL 12
REMARK VINA RESULT:      -8.6     29.611     33.380
REMARK  28 active torsions:
REMARK  status: ('A' for Active; 'I' for Inactive)
REMARK    1  A    between atoms: C_2  and  O_3 
REMARK    2  A    between atoms: C_2  and  C_4 
REMARK    3  A    between atoms: C_4  and  C_5 
REMARK    4  A    between atoms: C_5  and  C_6 
REMARK    5  A    between atoms: C_7  and  C_8 
REMARK    6  A    between atoms: C_8  and  C_9 
REMARK    7  A    between atoms: C_9  and  O_11 
REMARK    8  A    between atoms: C_28  and  C_29 
REMARK    9  A    between atoms: C_29  and  C_30 
REMARK   10  A    between atoms: C_30  and  O_32 
REMARK   11  A    between atoms: C_33  and  C_34 
REMARK   12  A    between atoms: C_34  and  C_35 
REMARK   13  A    between atoms: C_35  and  C_36 
REMARK   14  A    between atoms: C_36  and  O_38 
REMARK   15  A    between atoms: C_39  and  C_40 
REMARK   16  A    between atoms: C_40  and  C_41 
REMARK   17  A    between atoms: C_41  and  C_42 
REMARK   18  A    between atoms: C_42  and  O_44 
REMARK   19  A    between atoms: C_45  and  C_46 
REMARK   20  A    between atoms: C_46  and  C_47 
REMARK   21  A    between atoms: C_47  and  O_49 
REMARK   22  A    between atoms: C_50  and  C_51 
REMARK   23  A    between atoms: C_51  and  C_52 
REMARK   24  A    between atoms: C_52  and  O_54 
REMARK   25  A    between atoms: C_55  and  C_56 
REMARK   26  A    between atoms: C_56  and  C_57 
REMARK   27  A    between atoms: C_57  and  C_58 
REMARK   28  A    between atoms: C_58  and  O_60 
ROOT
ATOM      1  O   UNK d   0     -13.252  -7.075 -13.737  0.00  0.00    -0.650 OA
ATOM      2  C   UNK d   0     -14.308  -7.191 -13.077  0.00  0.00     0.139 C 
ENDROOT
BRANCH   2   3
ATOM      3  O   UNK d   0     -14.256  -7.734 -11.815  0.00  0.00    -0.776 OA
ATOM      4  H   UNK d   0     -13.444  -7.589 -11.211  0.00  0.00     0.167 HD
ENDBRANCH   2   3
BRANCH   2   5
ATOM      5  C   UNK d   0     -15.606  -6.746 -13.656  0.00  0.00     0.115 C 
BRANCH   5   6
ATOM      6  C   UNK d   0     -15.551  -5.278 -13.983  0.00  0.00     0.052 C 
BRANCH   6   7
ATOM      7  C   UNK d   0     -15.032  -4.446 -12.834  0.00  0.00    -0.020 A 
ATOM      8  C   UNK d   0     -13.955  -3.705 -12.808  0.00  0.00    -0.011 A 
ATOM      9  C   UNK d   0     -13.861  -3.102 -11.489  0.00  0.00     0.067 A 
ATOM     10  C   UNK d   0     -12.986  -2.217 -10.840  0.00  0.00     0.062 C 
ATOM     11  N   UNK d   0     -14.920  -3.536 -10.774  0.00  0.00    -0.248 NA
ATOM     12  C   UNK d   0     -13.213  -1.526  -9.644  0.00  0.00     0.041 A 
ATOM     13  N   UNK d   0     -13.762  -1.923  -8.481  0.00  0.00    -0.355 N 
ATOM     14  C   UNK d   0     -12.889  -0.158  -9.577  0.00  0.00    -0.022 A 
ATOM     15  C   UNK d   0     -13.802  -0.842  -7.680  0.00  0.00     0.042 A 
ATOM     16  H   UNK d   0     -14.096  -2.953  -8.224  0.00  0.00     0.166 HD
ATOM     17  C   UNK d   0     -14.275  -0.700  -6.360  0.00  0.00     0.062 C 
ATOM     18  C   UNK d   0     -13.264   0.284  -8.333  0.00  0.00    -0.013 A 
ATOM     19  C   UNK d   0     -15.434  -1.178  -5.803  0.00  0.00     0.067 A 
ATOM     20  N   UNK d   0     -16.131  -2.061  -6.523  0.00  0.00    -0.248 NA
ATOM     21  C   UNK d   0     -16.165  -0.960  -4.567  0.00  0.00    -0.011 A 
ATOM     22  C   UNK d   0     -17.266  -2.435  -5.847  0.00  0.00     0.066 A 
ATOM     23  C   UNK d   0     -18.069  -3.382  -6.467  0.00  0.00     0.062 C 
ATOM     24  C   UNK d   0     -17.239  -1.696  -4.600  0.00  0.00    -0.020 A 
ATOM     25  C   UNK d   0     -17.817  -4.074  -7.661  0.00  0.00     0.041 A 
ATOM     26  N   UNK d   0     -17.285  -3.675  -8.823  0.00  0.00    -0.355 N 
ATOM     27  C   UNK d   0     -18.138  -5.447  -7.727  0.00  0.00    -0.022 A 
ATOM     28  C   UNK d   0     -17.252  -4.750  -9.627  0.00  0.00     0.042 A 
ATOM     29  H   UNK d   0     -16.959  -2.638  -9.083  0.00  0.00     0.166 HD
ATOM     30  C   UNK d   0     -16.793  -4.903 -10.944  0.00  0.00     0.062 C 
ATOM     31  C   UNK d   0     -17.783  -5.883  -8.966  0.00  0.00    -0.013 A 
ATOM     32  C   UNK d   0     -15.664  -4.348 -11.526  0.00  0.00     0.066 A 
BRANCH   8  33
ATOM     33  C   UNK d   0     -12.991  -3.506 -13.906  0.00  0.00     0.151 C 
BRANCH  33  34
ATOM     34  C   UNK d   0     -13.229  -2.260 -14.656  0.00  0.00     0.143 C 
ATOM     35  O   UNK d   0     -12.470  -1.288 -14.533  0.00  0.00    -0.650 OA
BRANCH  34  36
ATOM     36  O   UNK d   0     -14.311  -2.177 -15.502  0.00  0.00    -0.776 OA
ATOM     37  H   UNK d   0     -15.257  -2.431 -15.185  0.00  0.00     0.167 HD
ENDBRANCH  34  36
ENDBRANCH  33  34
ENDBRANCH   8  33
BRANCH  31  38
ATOM     38  C   UNK d   0     -17.926  -7.293  -9.490  0.00  0.00     0.151 C 
BRANCH  38  39
ATOM     39  C   UNK d   0     -16.776  -8.121  -9.196  0.00  0.00     0.143 C 
ATOM     40  O   UNK d   0     -15.609  -7.709  -9.324  0.00  0.00    -0.650 OA
BRANCH  39  41
ATOM     41  O   UNK d   0     -16.968  -9.429  -8.751  0.00  0.00    -0.776 OA
ATOM     42  H   UNK d   0     -16.771 -10.178  -9.422  0.00  0.00     0.167 HD
ENDBRANCH  39  41
ENDBRANCH  38  39
ENDBRANCH  31  38
BRANCH  27  43
ATOM     43  C   UNK d   0     -18.757  -6.338  -6.678  0.00  0.00     0.052 C 
BRANCH  43  44
ATOM     44  C   UNK d   0     -17.907  -6.494  -5.459  0.00  0.00     0.115 C 
BRANCH  44  45
ATOM     45  C   UNK d   0     -16.820  -7.443  -5.818  0.00  0.00     0.139 C 
ATOM     46  O   UNK d   0     -17.071  -8.673  -5.777  0.00  0.00    -0.650 OA
BRANCH  45  47
ATOM     47  O   UNK d   0     -15.562  -7.028  -6.197  0.00  0.00    -0.776 OA
ATOM     48  H   UNK d   0     -14.717  -7.212  -5.632  0.00  0.00     0.167 HD
ENDBRANCH  45  47
ENDBRANCH  44  45
ENDBRANCH  43  44
ENDBRANCH  27  43
BRANCH  24  49
ATOM     49  C   UNK d   0     -18.247  -1.810  -3.532  0.00  0.00     0.052 C 
BRANCH  49  50
ATOM     50  C   UNK d   0     -19.611  -1.441  -4.057  0.00  0.00     0.115 C 
BRANCH  50  51
ATOM     51  C   UNK d   0     -20.036  -0.058  -3.889  0.00  0.00     0.139 C 
ATOM     52  O   UNK d   0     -21.097   0.389  -4.386  0.00  0.00    -0.650 OA
BRANCH  51  53
ATOM     53  O   UNK d   0     -19.248   0.818  -3.157  0.00  0.00    -0.776 OA
ATOM     54  H   UNK d   0     -19.119   0.636  -2.178  0.00  0.00     0.167 HD
ENDBRANCH  51  53
ENDBRANCH  50  51
ENDBRANCH  49  50
ENDBRANCH  24  49
BRANCH  21  55
ATOM     55  C   UNK d   0     -15.713  -0.044  -3.479  0.00  0.00     0.151 C 
BRANCH  55  56
ATOM     56  C   UNK d   0     -14.512  -0.548  -2.796  0.00  0.00     0.143 C 
ATOM     57  O   UNK d   0     -13.524   0.171  -2.548  0.00  0.00    -0.650 OA
BRANCH  56  58
ATOM     58  O   UNK d   0     -14.495  -1.890  -2.419  0.00  0.00    -0.776 OA
ATOM     59  H   UNK d   0     -14.871  -2.082  -1.473  0.00  0.00     0.167 HD
ENDBRANCH  56  58
ENDBRANCH  55  56
ENDBRANCH  21  55
BRANCH  18  60
ATOM     60  C   UNK d   0     -13.106   1.699  -7.835  0.00  0.00     0.151 C 
BRANCH  60  61
ATOM     61  C   UNK d   0     -14.459   2.274  -7.816  0.00  0.00     0.143 C 
ATOM     62  O   UNK d   0     -15.056   2.737  -6.844  0.00  0.00    -0.650 OA
BRANCH  61  63
ATOM     63  O   UNK d   0     -15.126   2.286  -9.065  0.00  0.00    -0.776 OA
ATOM     64  H   UNK d   0     -14.828   2.895  -9.806  0.00  0.00     0.167 HD
ENDBRANCH  61  63
ENDBRANCH  60  61
ENDBRANCH  18  60
BRANCH  14  65
ATOM     65  C   UNK d   0     -12.170   0.729 -10.553  0.00  0.00     0.052 C 
BRANCH  65  66
ATOM     66  C   UNK d   0     -10.695   0.729 -10.362  0.00  0.00     0.115 C 
BRANCH  66  67
ATOM     67  C   UNK d   0      -9.992   1.976 -10.250  0.00  0.00     0.139 C 
ATOM     68  O   UNK d   0      -8.725   1.949 -10.033  0.00  0.00    -0.650 OA
BRANCH  67  69
ATOM     69  O   UNK d   0     -10.519   3.264 -10.346  0.00  0.00    -0.776 OA
ATOM     70  H   UNK d   0     -11.547   3.327 -10.372  0.00  0.00     0.167 HD
ENDBRANCH  67  69
ENDBRANCH  66  67
ENDBRANCH  65  66
ENDBRANCH  14  65
ENDBRANCH   6   7
ENDBRANCH   5   6
ENDBRANCH   2   5
TORSDOF 28
ENDMDL
MODEL 13
REMARK VINA RESULT:      -8.5      1.974      9.931
REMARK  28 active torsions:
REMARK  status: ('A' for Active; 'I' for Inactive)
REMARK    1  A    between atoms: C_2  and  O_3 
REMARK    2  A    between atoms: C_2  and  C_4 
REMARK    3  A    between atoms: C_4  and  C_5 
REMARK    4  A    between atoms: C_5  and  C_6 
REMARK    5  A    between atoms: C_7  and  C_8 
REMARK    6  A    between atoms: C_8  and  C_9 
REMARK    7  A    between atoms: C_9  and  O_11 
REMARK    8  A    between atoms: C_28  and  C_29 
REMARK    9  A    between atoms: C_29  and  C_30 
REMARK   10  A    between atoms: C_30  and  O_32 
REMARK   11  A    between atoms: C_33  and  C_34 
REMARK   12  A    between atoms: C_34  and  C_35 
REMARK   13  A    between atoms: C_35  and  C_36 
REMARK   14  A    between atoms: C_36  and  O_38 
REMARK   15  A    between atoms: C_39  and  C_40 
REMARK   16  A    between atoms: C_40  and  C_41 
REMARK   17  A    between atoms: C_41  and  C_42 
REMARK   18  A    between atoms: C_42  and  O_44 
REMARK   19  A    between atoms: C_45  and  C_46 
REMARK   20  A    between atoms: C_46  and  C_47 
REMARK   21  A    between atoms: C_47  and  O_49 
REMARK   22  A    between atoms: C_50  and  C_51 
REMARK   23  A    between atoms: C_51  and  C_52 
REMARK   24  A    between atoms: C_52  and  O_54 
REMARK   25  A    between atoms: C_55  and  C_56 
REMARK   26  A    between atoms: C_56  and  C_57 
REMARK   27  A    between atoms: C_57  and  C_58 
REMARK   28  A    between atoms: C_58  and  O_60 
ROOT
ATOM      1  O   UNK d   0      12.439  -6.677   3.893  0.00  0.00    -0.650 OA
ATOM      2  C   UNK d   0      11.275  -7.093   3.697  0.00  0.00     0.139 C 
ENDROOT
BRANCH   2   3
ATOM      3  O   UNK d   0      10.852  -7.333   2.412  0.00  0.00    -0.776 OA
ATOM      4  H   UNK d   0       9.944  -7.764   2.227  0.00  0.00     0.167 HD
ENDBRANCH   2   3
BRANCH   2   5
ATOM      5  C   UNK d   0      10.359  -7.323   4.851  0.00  0.00     0.115 C 
BRANCH   5   6
ATOM      6  C   UNK d   0      11.075  -8.077   5.938  0.00  0.00     0.052 C 
BRANCH   6   7
ATOM      7  C   UNK d   0      10.883  -7.455   7.300  0.00  0.00    -0.020 A 
ATOM      8  C   UNK d   0      10.213  -7.942   8.313  0.00  0.00    -0.011 A 
ATOM      9  C   UNK d   0      10.301  -6.987   9.405  0.00  0.00     0.067 A 
ATOM     10  C   UNK d   0       9.837  -6.916  10.728  0.00  0.00     0.062 C 
ATOM     11  N   UNK d   0      11.039  -5.945   8.968  0.00  0.00    -0.248 NA
ATOM     12  C   UNK d   0      10.260  -6.034  11.728  0.00  0.00     0.041 A 
ATOM     13  N   UNK d   0      10.524  -4.714  11.692  0.00  0.00    -0.355 N 
ATOM     14  C   UNK d   0      10.532  -6.540  13.012  0.00  0.00    -0.022 A 
ATOM     15  C   UNK d   0      10.964  -4.371  12.918  0.00  0.00     0.042 A 
ATOM     16  H   UNK d   0      10.384  -4.034  10.823  0.00  0.00     0.166 HD
ATOM     17  C   UNK d   0      11.374  -3.122  13.424  0.00  0.00     0.062 C 
ATOM     18  C   UNK d   0      10.983  -5.490  13.773  0.00  0.00    -0.013 A 
ATOM     19  C   UNK d   0      12.193  -2.185  12.849  0.00  0.00     0.067 A 
ATOM     20  N   UNK d   0      12.501  -2.360  11.561  0.00  0.00    -0.248 NA
ATOM     21  C   UNK d   0      12.875  -0.980  13.292  0.00  0.00    -0.011 A 
ATOM     22  C   UNK d   0      13.335  -1.358  11.130  0.00  0.00     0.066 A 
ATOM     23  C   UNK d   0      13.706  -1.396   9.794  0.00  0.00     0.062 C 
ATOM     24  C   UNK d   0      13.545  -0.503  12.282  0.00  0.00    -0.020 A 
ATOM     25  C   UNK d   0      13.259  -2.283   8.802  0.00  0.00     0.041 A 
ATOM     26  N   UNK d   0      13.012  -3.598   8.834  0.00  0.00    -0.355 N 
ATOM     27  C   UNK d   0      12.983  -1.774   7.515  0.00  0.00    -0.022 A 
ATOM     28  C   UNK d   0      12.581  -3.944   7.611  0.00  0.00     0.042 A 
ATOM     29  H   UNK d   0      13.163  -4.282   9.706  0.00  0.00     0.166 HD
ATOM     30  C   UNK d   0      12.179  -5.184   7.090  0.00  0.00     0.062 C 
ATOM     31  C   UNK d   0      12.553  -2.818   6.755  0.00  0.00    -0.013 A 
ATOM     32  C   UNK d   0      11.421  -6.165   7.709  0.00  0.00     0.066 A 
BRANCH   8  33
ATOM     33  C   UNK d   0       9.486  -9.224   8.358  0.00  0.00     0.151 C 
BRANCH  33  34
ATOM     34  C   UNK d   0       8.028  -9.048   8.485  0.00  0.00     0.143 C 
ATOM     35  O   UNK d   0       7.390  -8.395   7.647  0.00  0.00    -0.650 OA
BRANCH  34  36
ATOM     36  O   UNK d   0       7.369  -9.618   9.549  0.00  0.00    -0.776 OA
ATOM     37  H   UNK d   0       6.553 -10.230   9.408  0.00  0.00     0.167 HD
ENDBRANCH  34  36
ENDBRANCH  33  34
ENDBRANCH   8  33
BRANCH  31  38
ATOM     38  C   UNK d   0      12.126  -2.750   5.307  0.00  0.00     0.151 C 
BRANCH  38  39
ATOM     39  C   UNK d   0      13.229  -2.934   4.388  0.00  0.00     0.143 C 
ATOM     40  O   UNK d   0      13.552  -2.070   3.554  0.00  0.00    -0.650 OA
BRANCH  39  41
ATOM     41  O   UNK d   0      13.965  -4.118   4.428  0.00  0.00    -0.776 OA
ATOM     42  H   UNK d   0      13.575  -4.921   3.925  0.00  0.00     0.167 HD
ENDBRANCH  39  41
ENDBRANCH  38  39
ENDBRANCH  31  38
BRANCH  27  43
ATOM     43  C   UNK d   0      13.112  -0.364   6.994  0.00  0.00     0.052 C 
BRANCH  43  44
ATOM     44  C   UNK d   0      14.423  -0.098   6.329  0.00  0.00     0.115 C 
BRANCH  44  45
ATOM     45  C   UNK d   0      15.167   0.834   7.215  0.00  0.00     0.139 C 
ATOM     46  O   UNK d   0      16.417   0.892   7.097  0.00  0.00    -0.650 OA
BRANCH  45  47
ATOM     47  O   UNK d   0      14.546   1.634   8.149  0.00  0.00    -0.776 OA
ATOM     48  H   UNK d   0      14.644   2.662   8.160  0.00  0.00     0.167 HD
ENDBRANCH  45  47
ENDBRANCH  44  45
ENDBRANCH  43  44
ENDBRANCH  27  43
BRANCH  24  49
ATOM     49  C   UNK d   0      14.349   0.731  12.279  0.00  0.00     0.052 C 
BRANCH  49  50
ATOM     50  C   UNK d   0      13.487   1.918  11.932  0.00  0.00     0.115 C 
BRANCH  50  51
ATOM     51  C   UNK d   0      14.168   3.128  11.491  0.00  0.00     0.139 C 
ATOM     52  O   UNK d   0      14.860   3.833  12.262  0.00  0.00    -0.650 OA
BRANCH  51  53
ATOM     53  O   UNK d   0      14.057   3.534  10.170  0.00  0.00    -0.776 OA
ATOM     54  H   UNK d   0      13.712   4.460   9.985  0.00  0.00     0.167 HD
ENDBRANCH  51  53
ENDBRANCH  50  51
ENDBRANCH  49  50
ENDBRANCH  24  49
BRANCH  21  55
ATOM     55  C   UNK d   0      12.782  -0.429  14.676  0.00  0.00     0.151 C 
BRANCH  55  56
ATOM     56  C   UNK d   0      11.638   0.482  14.831  0.00  0.00     0.143 C 
ATOM     57  O   UNK d   0      11.466   1.184  15.847  0.00  0.00    -0.650 OA
BRANCH  56  58
ATOM     58  O   UNK d   0      10.716   0.550  13.787  0.00  0.00    -0.776 OA
ATOM     59  H   UNK d   0      10.388   1.506  13.557  0.00  0.00     0.167 HD
ENDBRANCH  56  58
ENDBRANCH  55  56
ENDBRANCH  21  55
BRANCH  18  60
ATOM     60  C   UNK d   0      11.399  -5.586  15.220  0.00  0.00     0.151 C 
BRANCH  60  61
ATOM     61  C   UNK d   0      12.787  -6.074  15.209  0.00  0.00     0.143 C 
ATOM     62  O   UNK d   0      13.169  -7.230  15.390  0.00  0.00    -0.650 OA
BRANCH  61  63
ATOM     63  O   UNK d   0      13.770  -5.086  14.961  0.00  0.00    -0.776 OA
ATOM     64  H   UNK d   0      13.513  -4.160  14.668  0.00  0.00     0.167 HD
ENDBRANCH  61  63
ENDBRANCH  60  61
ENDBRANCH  18  60
BRANCH  14  65
ATOM     65  C   UNK d   0      10.307  -7.906  13.596  0.00  0.00     0.052 C 
BRANCH  65  66
ATOM     66  C   UNK d   0       8.965  -8.058  14.221  0.00  0.00     0.115 C 
BRANCH  66  67
ATOM     67  C   UNK d   0       8.005  -8.950  13.636  0.00  0.00     0.139 C 
ATOM     68  O   UNK d   0       7.508  -9.883  14.369  0.00  0.00    -0.650 OA
BRANCH  67  69
ATOM     69  O   UNK d   0       7.519  -8.944  12.329  0.00  0.00    -0.776 OA
ATOM     70  H   UNK d   0       7.978  -9.595  11.677  0.00  0.00     0.167 HD
ENDBRANCH  67  69
ENDBRANCH  66  67
ENDBRANCH  65  66
ENDBRANCH  14  65
ENDBRANCH   6   7
ENDBRANCH   5   6
ENDBRANCH   2   5
TORSDOF 28
ENDMDL
MODEL 14
REMARK VINA RESULT:      -8.5      2.082      8.179
REMARK  28 active torsions:
REMARK  status: ('A' for Active; 'I' for Inactive)
REMARK    1  A    between atoms: C_2  and  O_3 
REMARK    2  A    between atoms: C_2  and  C_4 
REMARK    3  A    between atoms: C_4  and  C_5 
REMARK    4  A    between atoms: C_5  and  C_6 
REMARK    5  A    between atoms: C_7  and  C_8 
REMARK    6  A    between atoms: C_8  and  C_9 
REMARK    7  A    between atoms: C_9  and  O_11 
REMARK    8  A    between atoms: C_28  and  C_29 
REMARK    9  A    between atoms: C_29  and  C_30 
REMARK   10  A    between atoms: C_30  and  O_32 
REMARK   11  A    between atoms: C_33  and  C_34 
REMARK   12  A    between atoms: C_34  and  C_35 
REMARK   13  A    between atoms: C_35  and  C_36 
REMARK   14  A    between atoms: C_36  and  O_38 
REMARK   15  A    between atoms: C_39  and  C_40 
REMARK   16  A    between atoms: C_40  and  C_41 
REMARK   17  A    between atoms: C_41  and  C_42 
REMARK   18  A    between atoms: C_42  and  O_44 
REMARK   19  A    between atoms: C_45  and  C_46 
REMARK   20  A    between atoms: C_46  and  C_47 
REMARK   21  A    between atoms: C_47  and  O_49 
REMARK   22  A    between atoms: C_50  and  C_51 
REMARK   23  A    between atoms: C_51  and  C_52 
REMARK   24  A    between atoms: C_52  and  O_54 
REMARK   25  A    between atoms: C_55  and  C_56 
REMARK   26  A    between atoms: C_56  and  C_57 
REMARK   27  A    between atoms: C_57  and  C_58 
REMARK   28  A    between atoms: C_58  and  O_60 
ROOT
ATOM      1  O   UNK d   0      12.815  -1.981   2.687  0.00  0.00    -0.650 OA
ATOM      2  C   UNK d   0      12.278  -2.001   3.817  0.00  0.00     0.139 C 
ENDROOT
BRANCH   2   3
ATOM      3  O   UNK d   0      11.095  -2.678   3.988  0.00  0.00    -0.776 OA
ATOM      4  H   UNK d   0      10.808  -3.412   3.337  0.00  0.00     0.167 HD
ENDBRANCH   2   3
BRANCH   2   5
ATOM      5  C   UNK d   0      12.919  -1.296   4.963  0.00  0.00     0.115 C 
BRANCH   5   6
ATOM      6  C   UNK d   0      14.040  -2.130   5.522  0.00  0.00     0.052 C 
BRANCH   6   7
ATOM      7  C   UNK d   0      13.979  -2.251   7.026  0.00  0.00    -0.020 A 
ATOM      8  C   UNK d   0      14.710  -1.620   7.908  0.00  0.00    -0.011 A 
ATOM      9  C   UNK d   0      14.300  -2.067   9.229  0.00  0.00     0.067 A 
ATOM     10  C   UNK d   0      14.658  -1.774  10.554  0.00  0.00     0.062 C 
ATOM     11  N   UNK d   0      13.317  -2.975   9.056  0.00  0.00    -0.248 NA
ATOM     12  C   UNK d   0      13.952  -2.105  11.716  0.00  0.00     0.041 A 
ATOM     13  N   UNK d   0      13.324  -3.240  12.078  0.00  0.00    -0.355 N 
ATOM     14  C   UNK d   0      13.774  -1.123  12.707  0.00  0.00    -0.022 A 
ATOM     15  C   UNK d   0      12.746  -3.001  13.270  0.00  0.00     0.042 A 
ATOM     16  H   UNK d   0      13.307  -4.197  11.512  0.00  0.00     0.166 HD
ATOM     17  C   UNK d   0      11.971  -3.841  14.094  0.00  0.00     0.062 C 
ATOM     18  C   UNK d   0      13.005  -1.684  13.696  0.00  0.00    -0.013 A 
ATOM     19  C   UNK d   0      10.947  -4.685  13.746  0.00  0.00     0.067 A 
ATOM     20  N   UNK d   0      10.766  -4.910  12.442  0.00  0.00    -0.248 NA
ATOM     21  C   UNK d   0       9.929  -5.440  14.456  0.00  0.00    -0.011 A 
ATOM     22  C   UNK d   0       9.702  -5.757  12.248  0.00  0.00     0.066 A 
ATOM     23  C   UNK d   0       9.424  -6.107  10.935  0.00  0.00     0.062 C 
ATOM     24  C   UNK d   0       9.201  -6.062  13.574  0.00  0.00    -0.020 A 
ATOM     25  C   UNK d   0      10.154  -5.774   9.783  0.00  0.00     0.041 A 
ATOM     26  N   UNK d   0      10.765  -4.641   9.416  0.00  0.00    -0.355 N 
ATOM     27  C   UNK d   0      10.336  -6.761   8.791  0.00  0.00    -0.022 A 
ATOM     28  C   UNK d   0      11.336  -4.874   8.224  0.00  0.00     0.042 A 
ATOM     29  H   UNK d   0      10.773  -3.677   9.982  0.00  0.00     0.166 HD
ATOM     30  C   UNK d   0      12.101  -4.045   7.389  0.00  0.00     0.062 C 
ATOM     31  C   UNK d   0      11.083  -6.201   7.801  0.00  0.00    -0.013 A 
ATOM     32  C   UNK d   0      13.076  -3.131   7.754  0.00  0.00     0.066 A 
BRANCH   8  33
ATOM     33  C   UNK d   0      15.770  -0.632   7.635  0.00  0.00     0.151 C 
BRANCH  33  34
ATOM     34  C   UNK d   0      15.317   0.758   7.823  0.00  0.00     0.143 C 
ATOM     35  O   UNK d   0      15.871   1.502   8.646  0.00  0.00    -0.650 OA
BRANCH  34  36
ATOM     36  O   UNK d   0      14.265   1.233   7.075  0.00  0.00    -0.776 OA
ATOM     37  H   UNK d   0      13.470   1.714   7.517  0.00  0.00     0.167 HD
ENDBRANCH  34  36
ENDBRANCH  33  34
ENDBRANCH   8  33
BRANCH  31  38
ATOM     38  C   UNK d   0      11.543  -6.885   6.535  0.00  0.00     0.151 C 
BRANCH  38  39
ATOM     39  C   UNK d   0      10.706  -6.577   5.394  0.00  0.00     0.143 C 
ATOM     40  O   UNK d   0      10.895  -5.575   4.683  0.00  0.00    -0.650 OA
BRANCH  39  41
ATOM     41  O   UNK d   0       9.649  -7.426   5.069  0.00  0.00    -0.776 OA
ATOM     42  H   UNK d   0       8.748  -6.983   4.861  0.00  0.00     0.167 HD
ENDBRANCH  39  41
ENDBRANCH  38  39
ENDBRANCH  31  38
BRANCH  27  43
ATOM     43  C   UNK d   0       9.835  -8.183   8.750  0.00  0.00     0.052 C 
BRANCH  43  44
ATOM     44  C   UNK d   0       8.506  -8.323   8.083  0.00  0.00     0.115 C 
BRANCH  44  45
ATOM     45  C   UNK d   0       7.785  -9.411   8.794  0.00  0.00     0.139 C 
ATOM     46  O   UNK d   0       7.580 -10.486   8.178  0.00  0.00    -0.650 OA
BRANCH  45  47
ATOM     47  O   UNK d   0       7.342  -9.289  10.093  0.00  0.00    -0.776 OA
ATOM     48  H   UNK d   0       7.378 -10.066  10.773  0.00  0.00     0.167 HD
ENDBRANCH  45  47
ENDBRANCH  44  45
ENDBRANCH  43  44
ENDBRANCH  27  43
BRANCH  24  49
ATOM     49  C   UNK d   0       8.079  -6.973  13.860  0.00  0.00     0.052 C 
BRANCH  49  50
ATOM     50  C   UNK d   0       8.513  -8.407  13.697  0.00  0.00     0.115 C 
BRANCH  50  51
ATOM     51  C   UNK d   0       7.472  -9.390  13.429  0.00  0.00     0.139 C 
ATOM     52  O   UNK d   0       6.358  -9.081  12.944  0.00  0.00    -0.650 OA
BRANCH  51  53
ATOM     53  O   UNK d   0       7.700 -10.727  13.718  0.00  0.00    -0.776 OA
ATOM     54  H   UNK d   0       8.218 -10.952  14.549  0.00  0.00     0.167 HD
ENDBRANCH  51  53
ENDBRANCH  50  51
ENDBRANCH  49  50
ENDBRANCH  24  49
BRANCH  21  55
ATOM     55  C   UNK d   0       9.792  -5.466  15.943  0.00  0.00     0.151 C 
BRANCH  55  56
ATOM     56  C   UNK d   0      10.487  -6.616  16.541  0.00  0.00     0.143 C 
ATOM     57  O   UNK d   0      11.566  -7.058  16.099  0.00  0.00    -0.650 OA
BRANCH  56  58
ATOM     58  O   UNK d   0       9.898  -7.226  17.648  0.00  0.00    -0.776 OA
ATOM     59  H   UNK d   0      10.299  -8.146  17.904  0.00  0.00     0.167 HD
ENDBRANCH  56  58
ENDBRANCH  55  56
ENDBRANCH  21  55
BRANCH  18  60
ATOM     60  C   UNK d   0      12.563  -0.976  14.953  0.00  0.00     0.151 C 
BRANCH  60  61
ATOM     61  C   UNK d   0      11.142  -0.652  14.756  0.00  0.00     0.143 C 
ATOM     62  O   UNK d   0      10.660   0.067  13.881  0.00  0.00    -0.650 OA
BRANCH  61  63
ATOM     63  O   UNK d   0      10.255  -1.244  15.686  0.00  0.00    -0.776 OA
ATOM     64  H   UNK d   0       9.306  -1.457  15.434  0.00  0.00     0.167 HD
ENDBRANCH  61  63
ENDBRANCH  60  61
ENDBRANCH  18  60
BRANCH  14  65
ATOM     65  C   UNK d   0      14.351   0.258  12.835  0.00  0.00     0.052 C 
BRANCH  65  66
ATOM     66  C   UNK d   0      13.411   1.324  12.395  0.00  0.00     0.115 C 
BRANCH  66  67
ATOM     67  C   UNK d   0      13.792   2.215  11.335  0.00  0.00     0.139 C 
ATOM     68  O   UNK d   0      14.639   3.148  11.592  0.00  0.00    -0.650 OA
BRANCH  67  69
ATOM     69  O   UNK d   0      13.349   2.207  10.013  0.00  0.00    -0.776 OA
ATOM     70  H   UNK d   0      12.355   1.974   9.875  0.00  0.00     0.167 HD
ENDBRANCH  67  69
ENDBRANCH  66  67
ENDBRANCH  65  66
ENDBRANCH  14  65
ENDBRANCH   6   7
ENDBRANCH   5   6
ENDBRANCH   2   5
TORSDOF 28
ENDMDL
MODEL 15
REMARK VINA RESULT:      -8.4     29.634     34.083
REMARK  28 active torsions:
REMARK  status: ('A' for Active; 'I' for Inactive)
REMARK    1  A    between atoms: C_2  and  O_3 
REMARK    2  A    between atoms: C_2  and  C_4 
REMARK    3  A    between atoms: C_4  and  C_5 
REMARK    4  A    between atoms: C_5  and  C_6 
REMARK    5  A    between atoms: C_7  and  C_8 
REMARK    6  A    between atoms: C_8  and  C_9 
REMARK    7  A    between atoms: C_9  and  O_11 
REMARK    8  A    between atoms: C_28  and  C_29 
REMARK    9  A    between atoms: C_29  and  C_30 
REMARK   10  A    between atoms: C_30  and  O_32 
REMARK   11  A    between atoms: C_33  and  C_34 
REMARK   12  A    between atoms: C_34  and  C_35 
REMARK   13  A    between atoms: C_35  and  C_36 
REMARK   14  A    between atoms: C_36  and  O_38 
REMARK   15  A    between atoms: C_39  and  C_40 
REMARK   16  A    between atoms: C_40  and  C_41 
REMARK   17  A    between atoms: C_41  and  C_42 
REMARK   18  A    between atoms: C_42  and  O_44 
REMARK   19  A    between atoms: C_45  and  C_46 
REMARK   20  A    between atoms: C_46  and  C_47 
REMARK   21  A    between atoms: C_47  and  O_49 
REMARK   22  A    between atoms: C_50  and  C_51 
REMARK   23  A    between atoms: C_51  and  C_52 
REMARK   24  A    between atoms: C_52  and  O_54 
REMARK   25  A    between atoms: C_55  and  C_56 
REMARK   26  A    between atoms: C_56  and  C_57 
REMARK   27  A    between atoms: C_57  and  C_58 
REMARK   28  A    between atoms: C_58  and  O_60 
ROOT
ATOM      1  O   UNK d   0     -13.562  -0.966 -13.922  0.00  0.00    -0.650 OA
ATOM      2  C   UNK d   0     -12.607  -1.772 -13.988  0.00  0.00     0.139 C 
ENDROOT
BRANCH   2   3
ATOM      3  O   UNK d   0     -11.324  -1.313 -13.811  0.00  0.00    -0.776 OA
ATOM      4  H   UNK d   0     -10.544  -1.961 -13.684  0.00  0.00     0.167 HD
ENDBRANCH   2   3
BRANCH   2   5
ATOM      5  C   UNK d   0     -12.863  -3.216 -14.256  0.00  0.00     0.115 C 
BRANCH   5   6
ATOM      6  C   UNK d   0     -12.626  -4.024 -13.009  0.00  0.00     0.052 C 
BRANCH   6   7
ATOM      7  C   UNK d   0     -13.817  -4.023 -12.081  0.00  0.00    -0.020 A 
ATOM      8  C   UNK d   0     -14.889  -4.770 -12.158  0.00  0.00    -0.011 A 
ATOM      9  C   UNK d   0     -15.763  -4.409 -11.053  0.00  0.00     0.067 A 
ATOM     10  C   UNK d   0     -17.010  -4.832 -10.569  0.00  0.00     0.062 C 
ATOM     11  N   UNK d   0     -15.146  -3.430 -10.358  0.00  0.00    -0.248 NA
ATOM     12  C   UNK d   0     -17.572  -4.555  -9.318  0.00  0.00     0.041 A 
ATOM     13  N   UNK d   0     -17.617  -3.417  -8.599  0.00  0.00    -0.355 N 
ATOM     14  C   UNK d   0     -18.167  -5.602  -8.592  0.00  0.00    -0.022 A 
ATOM     15  C   UNK d   0     -18.218  -3.718  -7.432  0.00  0.00     0.042 A 
ATOM     16  H   UNK d   0     -17.248  -2.417  -8.918  0.00  0.00     0.166 HD
ATOM     17  C   UNK d   0     -18.520  -2.902  -6.324  0.00  0.00     0.062 C 
ATOM     18  C   UNK d   0     -18.577  -5.079  -7.391  0.00  0.00    -0.013 A 
ATOM     19  C   UNK d   0     -17.731  -1.971  -5.698  0.00  0.00     0.067 A 
ATOM     20  N   UNK d   0     -16.596  -1.628  -6.313  0.00  0.00    -0.248 NA
ATOM     21  C   UNK d   0     -17.790  -1.215  -4.458  0.00  0.00    -0.011 A 
ATOM     22  C   UNK d   0     -15.909  -0.704  -5.565  0.00  0.00     0.066 A 
ATOM     23  C   UNK d   0     -14.724  -0.230  -6.108  0.00  0.00     0.062 C 
ATOM     24  C   UNK d   0     -16.719  -0.479  -4.384  0.00  0.00    -0.020 A 
ATOM     25  C   UNK d   0     -14.183  -0.511  -7.372  0.00  0.00     0.041 A 
ATOM     26  N   UNK d   0     -14.126  -1.645  -8.081  0.00  0.00    -0.355 N 
ATOM     27  C   UNK d   0     -13.590   0.542  -8.102  0.00  0.00    -0.022 A 
ATOM     28  C   UNK d   0     -13.519  -1.350  -9.241  0.00  0.00     0.042 A 
ATOM     29  H   UNK d   0     -14.487  -2.651  -7.755  0.00  0.00     0.166 HD
ATOM     30  C   UNK d   0     -13.204  -2.153 -10.348  0.00  0.00     0.062 C 
ATOM     31  C   UNK d   0     -13.168   0.020  -9.286  0.00  0.00    -0.013 A 
ATOM     32  C   UNK d   0     -13.971  -3.153 -10.925  0.00  0.00     0.066 A 
BRANCH   8  33
ATOM     33  C   UNK d   0     -15.183  -5.796 -13.176  0.00  0.00     0.151 C 
BRANCH  33  34
ATOM     34  C   UNK d   0     -14.456  -7.056 -12.941  0.00  0.00     0.143 C 
ATOM     35  O   UNK d   0     -14.753  -7.795 -11.992  0.00  0.00    -0.650 OA
BRANCH  34  36
ATOM     36  O   UNK d   0     -13.433  -7.415 -13.789  0.00  0.00    -0.776 OA
ATOM     37  H   UNK d   0     -13.577  -7.468 -14.807  0.00  0.00     0.167 HD
ENDBRANCH  34  36
ENDBRANCH  33  34
ENDBRANCH   8  33
BRANCH  31  38
ATOM     38  C   UNK d   0     -12.483   0.777 -10.400  0.00  0.00     0.151 C 
BRANCH  38  39
ATOM     39  C   UNK d   0     -11.042   0.650 -10.363  0.00  0.00     0.143 C 
ATOM     40  O   UNK d   0     -10.385   0.818  -9.320  0.00  0.00    -0.650 OA
BRANCH  39  41
ATOM     41  O   UNK d   0     -10.351   0.326 -11.531  0.00  0.00    -0.776 OA
ATOM     42  H   UNK d   0     -10.279   1.060 -12.242  0.00  0.00     0.167 HD
ENDBRANCH  39  41
ENDBRANCH  38  39
ENDBRANCH  31  38
BRANCH  27  43
ATOM     43  C   UNK d   0     -13.413   1.991  -7.722  0.00  0.00     0.052 C 
BRANCH  43  44
ATOM     44  C   UNK d   0     -14.675   2.785  -7.817  0.00  0.00     0.115 C 
BRANCH  44  45
ATOM     45  C   UNK d   0     -14.353   4.154  -7.336  0.00  0.00     0.139 C 
ATOM     46  O   UNK d   0     -15.150   4.703  -6.537  0.00  0.00    -0.650 OA
BRANCH  45  47
ATOM     47  O   UNK d   0     -13.220   4.835  -7.726  0.00  0.00    -0.776 OA
ATOM     48  H   UNK d   0     -13.093   5.848  -7.568  0.00  0.00     0.167 HD
ENDBRANCH  45  47
ENDBRANCH  44  45
ENDBRANCH  43  44
ENDBRANCH  27  43
BRANCH  24  49
ATOM     49  C   UNK d   0     -16.392   0.473  -3.309  0.00  0.00     0.052 C 
BRANCH  49  50
ATOM     50  C   UNK d   0     -15.547  -0.197  -2.255  0.00  0.00     0.115 C 
BRANCH  50  51
ATOM     51  C   UNK d   0     -14.104  -0.023  -2.351  0.00  0.00     0.139 C 
ATOM     52  O   UNK d   0     -13.298  -0.973  -2.215  0.00  0.00    -0.650 OA
BRANCH  51  53
ATOM     53  O   UNK d   0     -13.579   1.236  -2.600  0.00  0.00    -0.776 OA
ATOM     54  H   UNK d   0     -12.582   1.352  -2.562  0.00  0.00     0.167 HD
ENDBRANCH  51  53
ENDBRANCH  50  51
ENDBRANCH  49  50
ENDBRANCH  24  49
BRANCH  21  55
ATOM     55  C   UNK d   0     -18.913  -1.304  -3.479  0.00  0.00     0.151 C 
BRANCH  55  56
ATOM     56  C   UNK d   0     -19.961  -0.308  -3.749  0.00  0.00     0.143 C 
ATOM     57  O   UNK d   0     -20.791  -0.434  -4.671  0.00  0.00    -0.650 OA
BRANCH  56  58
ATOM     58  O   UNK d   0     -20.014   0.818  -2.929  0.00  0.00    -0.776 OA
ATOM     59  H   UNK d   0     -20.655   1.564  -3.252  0.00  0.00     0.167 HD
ENDBRANCH  56  58
ENDBRANCH  55  56
ENDBRANCH  21  55
BRANCH  18  60
ATOM     60  C   UNK d   0     -19.262  -5.859  -6.297  0.00  0.00     0.151 C 
BRANCH  60  61
ATOM     61  C   UNK d   0     -18.185  -6.433  -5.475  0.00  0.00     0.143 C 
ATOM     62  O   UNK d   0     -17.153  -5.871  -5.107  0.00  0.00    -0.650 OA
BRANCH  61  63
ATOM     63  O   UNK d   0     -18.381  -7.778  -5.079  0.00  0.00    -0.776 OA
ATOM     64  H   UNK d   0     -19.025  -8.374  -5.568  0.00  0.00     0.167 HD
ENDBRANCH  61  63
ENDBRANCH  60  61
ENDBRANCH  18  60
BRANCH  14  65
ATOM     65  C   UNK d   0     -18.463  -7.022  -8.983  0.00  0.00     0.052 C 
BRANCH  65  66
ATOM     66  C   UNK d   0     -17.253  -7.887  -8.995  0.00  0.00     0.115 C 
BRANCH  66  67
ATOM     67  C   UNK d   0     -17.270  -9.145  -8.303  0.00  0.00     0.139 C 
ATOM     68  O   UNK d   0     -18.148  -9.326  -7.381  0.00  0.00    -0.650 OA
BRANCH  67  69
ATOM     69  O   UNK d   0     -16.429 -10.239  -8.501  0.00  0.00    -0.776 OA
ATOM     70  H   UNK d   0     -16.898 -11.150  -8.609  0.00  0.00     0.167 HD
ENDBRANCH  67  69
ENDBRANCH  66  67
ENDBRANCH  65  66
ENDBRANCH  14  65
ENDBRANCH   6   7
ENDBRANCH   5   6
ENDBRANCH   2   5
TORSDOF 28
ENDMDL
MODEL 16
REMARK VINA RESULT:      -8.4     29.962     33.621
REMARK  28 active torsions:
REMARK  status: ('A' for Active; 'I' for Inactive)
REMARK    1  A    between atoms: C_2  and  O_3 
REMARK    2  A    between atoms: C_2  and  C_4 
REMARK    3  A    between atoms: C_4  and  C_5 
REMARK    4  A    between atoms: C_5  and  C_6 
REMARK    5  A    between atoms: C_7  and  C_8 
REMARK    6  A    between atoms: C_8  and  C_9 
REMARK    7  A    between atoms: C_9  and  O_11 
REMARK    8  A    between atoms: C_28  and  C_29 
REMARK    9  A    between atoms: C_29  and  C_30 
REMARK   10  A    between atoms: C_30  and  O_32 
REMARK   11  A    between atoms: C_33  and  C_34 
REMARK   12  A    between atoms: C_34  and  C_35 
REMARK   13  A    between atoms: C_35  and  C_36 
REMARK   14  A    between atoms: C_36  and  O_38 
REMARK   15  A    between atoms: C_39  and  C_40 
REMARK   16  A    between atoms: C_40  and  C_41 
REMARK   17  A    between atoms: C_41  and  C_42 
REMARK   18  A    between atoms: C_42  and  O_44 
REMARK   19  A    between atoms: C_45  and  C_46 
REMARK   20  A    between atoms: C_46  and  C_47 
REMARK   21  A    between atoms: C_47  and  O_49 
REMARK   22  A    between atoms: C_50  and  C_51 
REMARK   23  A    between atoms: C_51  and  C_52 
REMARK   24  A    between atoms: C_52  and  O_54 
REMARK   25  A    between atoms: C_55  and  C_56 
REMARK   26  A    between atoms: C_56  and  C_57 
REMARK   27  A    between atoms: C_57  and  C_58 
REMARK   28  A    between atoms: C_58  and  O_60 
ROOT
ATOM      1  O   UNK d   0     -13.609   0.230 -15.968  0.00  0.00    -0.650 OA
ATOM      2  C   UNK d   0     -14.513  -0.628 -15.864  0.00  0.00     0.139 C 
ENDROOT
BRANCH   2   3
ATOM      3  O   UNK d   0     -15.827  -0.237 -15.963  0.00  0.00    -0.776 OA
ATOM      4  H   UNK d   0     -16.153   0.320 -16.756  0.00  0.00     0.167 HD
ENDBRANCH   2   3
BRANCH   2   5
ATOM      5  C   UNK d   0     -14.165  -2.059 -15.632  0.00  0.00     0.115 C 
BRANCH   5   6
ATOM      6  C   UNK d   0     -12.794  -2.165 -15.023  0.00  0.00     0.052 C 
BRANCH   6   7
ATOM      7  C   UNK d   0     -12.751  -1.669 -13.597  0.00  0.00    -0.020 A 
ATOM      8  C   UNK d   0     -11.849  -0.897 -13.048  0.00  0.00    -0.011 A 
ATOM      9  C   UNK d   0     -12.222  -0.696 -11.658  0.00  0.00     0.067 A 
ATOM     10  C   UNK d   0     -11.709   0.020 -10.565  0.00  0.00     0.062 C 
ATOM     11  N   UNK d   0     -13.362  -1.387 -11.445  0.00  0.00    -0.248 NA
ATOM     12  C   UNK d   0     -12.364   0.320  -9.365  0.00  0.00     0.041 A 
ATOM     13  N   UNK d   0     -13.152  -0.432  -8.574  0.00  0.00    -0.355 N 
ATOM     14  C   UNK d   0     -12.283   1.628  -8.854  0.00  0.00    -0.022 A 
ATOM     15  C   UNK d   0     -13.579   0.367  -7.577  0.00  0.00     0.042 A 
ATOM     16  H   UNK d   0     -13.386  -1.512  -8.706  0.00  0.00     0.166 HD
ATOM     17  C   UNK d   0     -14.420   0.090  -6.481  0.00  0.00     0.062 C 
ATOM     18  C   UNK d   0     -13.055   1.666  -7.719  0.00  0.00    -0.013 A 
ATOM     19  C   UNK d   0     -15.603  -0.604  -6.455  0.00  0.00     0.067 A 
ATOM     20  N   UNK d   0     -15.928  -1.286  -7.557  0.00  0.00    -0.248 NA
ATOM     21  C   UNK d   0     -16.677  -0.802  -5.497  0.00  0.00    -0.011 A 
ATOM     22  C   UNK d   0     -17.138  -1.914  -7.389  0.00  0.00     0.066 A 
ATOM     23  C   UNK d   0     -17.581  -2.692  -8.448  0.00  0.00     0.062 C 
ATOM     24  C   UNK d   0     -17.574  -1.566  -6.051  0.00  0.00    -0.020 A 
ATOM     25  C   UNK d   0     -16.901  -2.991  -9.639  0.00  0.00     0.041 A 
ATOM     26  N   UNK d   0     -16.131  -2.239 -10.434  0.00  0.00    -0.355 N 
ATOM     27  C   UNK d   0     -16.980  -4.305 -10.149  0.00  0.00    -0.022 A 
ATOM     28  C   UNK d   0     -15.711  -3.032 -11.433  0.00  0.00     0.042 A 
ATOM     29  H   UNK d   0     -15.905  -1.152 -10.306  0.00  0.00     0.166 HD
ATOM     30  C   UNK d   0     -14.882  -2.767 -12.535  0.00  0.00     0.062 C 
ATOM     31  C   UNK d   0     -16.229  -4.340 -11.284  0.00  0.00    -0.013 A 
ATOM     32  C   UNK d   0     -13.732  -1.994 -12.573  0.00  0.00     0.066 A 
BRANCH   8  33
ATOM     33  C   UNK d   0     -10.656  -0.326 -13.701  0.00  0.00     0.151 C 
BRANCH  33  34
ATOM     34  C   UNK d   0     -10.846   1.078 -14.109  0.00  0.00     0.143 C 
ATOM     35  O   UNK d   0     -10.729   2.000 -13.290  0.00  0.00    -0.650 OA
BRANCH  34  36
ATOM     36  O   UNK d   0     -11.158   1.364 -15.418  0.00  0.00    -0.776 OA
ATOM     37  H   UNK d   0     -10.431   1.630 -16.095  0.00  0.00     0.167 HD
ENDBRANCH  34  36
ENDBRANCH  33  34
ENDBRANCH   8  33
BRANCH  31  38
ATOM     38  C   UNK d   0     -16.005  -5.544 -12.168  0.00  0.00     0.151 C 
BRANCH  38  39
ATOM     39  C   UNK d   0     -14.880  -6.351 -11.744  0.00  0.00     0.143 C 
ATOM     40  O   UNK d   0     -13.802  -5.849 -11.379  0.00  0.00    -0.650 OA
BRANCH  39  41
ATOM     41  O   UNK d   0     -14.995  -7.740 -11.739  0.00  0.00    -0.776 OA
ATOM     42  H   UNK d   0     -14.765  -8.219 -10.863  0.00  0.00     0.167 HD
ENDBRANCH  39  41
ENDBRANCH  38  39
ENDBRANCH  31  38
BRANCH  27  43
ATOM     43  C   UNK d   0     -17.728  -5.499  -9.611  0.00  0.00     0.052 C 
BRANCH  43  44
ATOM     44  C   UNK d   0     -16.962  -6.258  -8.576  0.00  0.00     0.115 C 
BRANCH  44  45
ATOM     45  C   UNK d   0     -17.344  -7.686  -8.728  0.00  0.00     0.139 C 
ATOM     46  O   UNK d   0     -18.221  -8.150  -7.957  0.00  0.00    -0.650 OA
BRANCH  45  47
ATOM     47  O   UNK d   0     -16.782  -8.513  -9.677  0.00  0.00    -0.776 OA
ATOM     48  H   UNK d   0     -16.119  -8.175 -10.393  0.00  0.00     0.167 HD
ENDBRANCH  45  47
ENDBRANCH  44  45
ENDBRANCH  43  44
ENDBRANCH  27  43
BRANCH  24  49
ATOM     49  C   UNK d   0     -18.813  -2.050  -5.418  0.00  0.00     0.052 C 
BRANCH  49  50
ATOM     50  C   UNK d   0     -19.858  -0.964  -5.411  0.00  0.00     0.115 C 
BRANCH  50  51
ATOM     51  C   UNK d   0     -20.443  -0.597  -6.693  0.00  0.00     0.139 C 
ATOM     52  O   UNK d   0     -20.585  -1.416  -7.631  0.00  0.00    -0.650 OA
BRANCH  51  53
ATOM     53  O   UNK d   0     -20.866   0.707  -6.906  0.00  0.00    -0.776 OA
ATOM     54  H   UNK d   0     -21.271   0.935  -7.796  0.00  0.00     0.167 HD
ENDBRANCH  51  53
ENDBRANCH  50  51
ENDBRANCH  49  50
ENDBRANCH  24  49
BRANCH  21  55
ATOM     55  C   UNK d   0     -16.693  -0.211  -4.126  0.00  0.00     0.151 C 
BRANCH  55  56
ATOM     56  C   UNK d   0     -15.789  -0.921  -3.209  0.00  0.00     0.143 C 
ATOM     57  O   UNK d   0     -14.907  -0.340  -2.546  0.00  0.00    -0.650 OA
BRANCH  56  58
ATOM     58  O   UNK d   0     -15.939  -2.302  -3.089  0.00  0.00    -0.776 OA
ATOM     59  H   UNK d   0     -16.455  -2.754  -3.866  0.00  0.00     0.167 HD
ENDBRANCH  56  58
ENDBRANCH  55  56
ENDBRANCH  21  55
BRANCH  18  60
ATOM     60  C   UNK d   0     -13.259   2.884  -6.853  0.00  0.00     0.151 C 
BRANCH  60  61
ATOM     61  C   UNK d   0     -14.499   3.516  -7.330  0.00  0.00     0.143 C 
ATOM     62  O   UNK d   0     -15.136   3.228  -8.343  0.00  0.00    -0.650 OA
BRANCH  61  63
ATOM     63  O   UNK d   0     -14.991   4.565  -6.517  0.00  0.00    -0.776 OA
ATOM     64  H   UNK d   0     -15.344   5.413  -6.923  0.00  0.00     0.167 HD
ENDBRANCH  61  63
ENDBRANCH  60  61
ENDBRANCH  18  60
BRANCH  14  65
ATOM     65  C   UNK d   0     -11.461   2.805  -9.296  0.00  0.00     0.052 C 
BRANCH  65  66
ATOM     66  C   UNK d   0     -10.020   2.670  -8.951  0.00  0.00     0.115 C 
BRANCH  66  67
ATOM     67  C   UNK d   0      -9.040   2.606  -9.998  0.00  0.00     0.139 C 
ATOM     68  O   UNK d   0      -8.047   3.423  -9.961  0.00  0.00    -0.650 OA
BRANCH  67  69
ATOM     69  O   UNK d   0      -9.018   1.745 -11.095  0.00  0.00    -0.776 OA
ATOM     70  H   UNK d   0      -9.175   0.749 -10.885  0.00  0.00     0.167 HD
ENDBRANCH  67  69
ENDBRANCH  66  67
ENDBRANCH  65  66
ENDBRANCH  14  65
ENDBRANCH   6   7
ENDBRANCH   5   6
ENDBRANCH   2   5
TORSDOF 28
ENDMDL
MODEL 17
REMARK VINA RESULT:      -8.4     29.157     32.685
REMARK  28 active torsions:
REMARK  status: ('A' for Active; 'I' for Inactive)
REMARK    1  A    between atoms: C_2  and  O_3 
REMARK    2  A    between atoms: C_2  and  C_4 
REMARK    3  A    between atoms: C_4  and  C_5 
REMARK    4  A    between atoms: C_5  and  C_6 
REMARK    5  A    between atoms: C_7  and  C_8 
REMARK    6  A    between atoms: C_8  and  C_9 
REMARK    7  A    between atoms: C_9  and  O_11 
REMARK    8  A    between atoms: C_28  and  C_29 
REMARK    9  A    between atoms: C_29  and  C_30 
REMARK   10  A    between atoms: C_30  and  O_32 
REMARK   11  A    between atoms: C_33  and  C_34 
REMARK   12  A    between atoms: C_34  and  C_35 
REMARK   13  A    between atoms: C_35  and  C_36 
REMARK   14  A    between atoms: C_36  and  O_38 
REMARK   15  A    between atoms: C_39  and  C_40 
REMARK   16  A    between atoms: C_40  and  C_41 
REMARK   17  A    between atoms: C_41  and  C_42 
REMARK   18  A    between atoms: C_42  and  O_44 
REMARK   19  A    between atoms: C_45  and  C_46 
REMARK   20  A    between atoms: C_46  and  C_47 
REMARK   21  A    between atoms: C_47  and  O_49 
REMARK   22  A    between atoms: C_50  and  C_51 
REMARK   23  A    between atoms: C_51  and  C_52 
REMARK   24  A    between atoms: C_52  and  O_54 
REMARK   25  A    between atoms: C_55  and  C_56 
REMARK   26  A    between atoms: C_56  and  C_57 
REMARK   27  A    between atoms: C_57  and  C_58 
REMARK   28  A    between atoms: C_58  and  O_60 
ROOT
ATOM      1  O   UNK d   0     -12.892   3.439  -2.856  0.00  0.00    -0.650 OA
ATOM      2  C   UNK d   0     -14.025   2.913  -2.912  0.00  0.00     0.139 C 
ENDROOT
BRANCH   2   3
ATOM      3  O   UNK d   0     -15.142   3.706  -2.801  0.00  0.00    -0.776 OA
ATOM      4  H   UNK d   0     -15.939   3.418  -2.229  0.00  0.00     0.167 HD
ENDBRANCH   2   3
BRANCH   2   5
ATOM      5  C   UNK d   0     -14.158   1.440  -3.095  0.00  0.00     0.115 C 
BRANCH   5   6
ATOM      6  C   UNK d   0     -15.455   1.119  -3.788  0.00  0.00     0.052 C 
BRANCH   6   7
ATOM      7  C   UNK d   0     -15.329  -0.036  -4.752  0.00  0.00    -0.020 A 
ATOM      8  C   UNK d   0     -15.662  -1.285  -4.550  0.00  0.00    -0.011 A 
ATOM      9  C   UNK d   0     -15.350  -2.030  -5.758  0.00  0.00     0.067 A 
ATOM     10  C   UNK d   0     -15.478  -3.359  -6.189  0.00  0.00     0.062 C 
ATOM     11  N   UNK d   0     -14.825  -1.156  -6.643  0.00  0.00    -0.248 NA
ATOM     12  C   UNK d   0     -15.377  -3.838  -7.500  0.00  0.00     0.041 A 
ATOM     13  N   UNK d   0     -14.509  -3.544  -8.487  0.00  0.00    -0.355 N 
ATOM     14  C   UNK d   0     -16.341  -4.749  -7.968  0.00  0.00    -0.022 A 
ATOM     15  C   UNK d   0     -14.902  -4.239  -9.571  0.00  0.00     0.042 A 
ATOM     16  H   UNK d   0     -13.624  -2.874  -8.413  0.00  0.00     0.166 HD
ATOM     17  C   UNK d   0     -14.351  -4.299 -10.866  0.00  0.00     0.062 C 
ATOM     18  C   UNK d   0     -16.048  -5.006  -9.285  0.00  0.00    -0.013 A 
ATOM     19  C   UNK d   0     -13.904  -3.275 -11.662  0.00  0.00     0.067 A 
ATOM     20  N   UNK d   0     -13.780  -2.075 -11.090  0.00  0.00    -0.248 NA
ATOM     21  C   UNK d   0     -13.517  -3.128 -13.055  0.00  0.00    -0.011 A 
ATOM     22  C   UNK d   0     -13.340  -1.153 -12.008  0.00  0.00     0.066 A 
ATOM     23  C   UNK d   0     -13.131   0.135 -11.537  0.00  0.00     0.062 C 
ATOM     24  C   UNK d   0     -13.192  -1.882 -13.252  0.00  0.00    -0.020 A 
ATOM     25  C   UNK d   0     -13.226   0.593 -10.213  0.00  0.00     0.041 A 
ATOM     26  N   UNK d   0     -14.097   0.312  -9.237  0.00  0.00    -0.355 N 
ATOM     27  C   UNK d   0     -12.255   1.504  -9.743  0.00  0.00    -0.022 A 
ATOM     28  C   UNK d   0     -13.712   1.010  -8.158  0.00  0.00     0.042 A 
ATOM     29  H   UNK d   0     -14.992  -0.354  -9.317  0.00  0.00     0.166 HD
ATOM     30  C   UNK d   0     -14.257   1.087  -6.866  0.00  0.00     0.062 C 
ATOM     31  C   UNK d   0     -12.555   1.773  -8.443  0.00  0.00    -0.013 A 
ATOM     32  C   UNK d   0     -14.785   0.061  -6.099  0.00  0.00     0.066 A 
BRANCH   8  33
ATOM     33  C   UNK d   0     -16.246  -1.857  -3.323  0.00  0.00     0.151 C 
BRANCH  33  34
ATOM     34  C   UNK d   0     -15.236  -2.482  -2.449  0.00  0.00     0.143 C 
ATOM     35  O   UNK d   0     -15.510  -3.486  -1.776  0.00  0.00    -0.650 OA
BRANCH  34  36
ATOM     36  O   UNK d   0     -13.974  -1.939  -2.379  0.00  0.00    -0.776 OA
ATOM     37  H   UNK d   0     -13.206  -2.295  -2.964  0.00  0.00     0.167 HD
ENDBRANCH  34  36
ENDBRANCH  33  34
ENDBRANCH   8  33
BRANCH  31  38
ATOM     38  C   UNK d   0     -11.783   2.687  -7.521  0.00  0.00     0.151 C 
BRANCH  38  39
ATOM     39  C   UNK d   0     -12.112   4.084  -7.712  0.00  0.00     0.143 C 
ATOM     40  O   UNK d   0     -13.216   4.558  -7.391  0.00  0.00    -0.650 OA
BRANCH  39  41
ATOM     41  O   UNK d   0     -11.165   4.941  -8.274  0.00  0.00    -0.776 OA
ATOM     42  H   UNK d   0     -11.116   4.965  -9.298  0.00  0.00     0.167 HD
ENDBRANCH  39  41
ENDBRANCH  38  39
ENDBRANCH  31  38
BRANCH  27  43
ATOM     43  C   UNK d   0     -11.083   2.114 -10.469  0.00  0.00     0.052 C 
BRANCH  43  44
ATOM     44  C   UNK d   0      -9.775   1.481 -10.118  0.00  0.00     0.115 C 
BRANCH  44  45
ATOM     45  C   UNK d   0      -8.718   2.312 -10.750  0.00  0.00     0.139 C 
ATOM     46  O   UNK d   0      -8.088   3.121 -10.025  0.00  0.00    -0.650 OA
BRANCH  45  47
ATOM     47  O   UNK d   0      -8.400   2.226 -12.088  0.00  0.00    -0.776 OA
ATOM     48  H   UNK d   0      -8.962   2.677 -12.828  0.00  0.00     0.167 HD
ENDBRANCH  45  47
ENDBRANCH  44  45
ENDBRANCH  43  44
ENDBRANCH  27  43
BRANCH  24  49
ATOM     49  C   UNK d   0     -12.702  -1.302 -14.514  0.00  0.00     0.052 C 
BRANCH  49  50
ATOM     50  C   UNK d   0     -13.670  -0.268 -15.027  0.00  0.00     0.115 C 
BRANCH  50  51
ATOM     51  C   UNK d   0     -14.760  -0.739 -15.871  0.00  0.00     0.139 C 
ATOM     52  O   UNK d   0     -14.668  -1.765 -16.585  0.00  0.00    -0.650 OA
BRANCH  51  53
ATOM     53  O   UNK d   0     -15.956  -0.037 -15.903  0.00  0.00    -0.776 OA
ATOM     54  H   UNK d   0     -15.939   0.942 -15.676  0.00  0.00     0.167 HD
ENDBRANCH  51  53
ENDBRANCH  50  51
ENDBRANCH  49  50
ENDBRANCH  24  49
BRANCH  21  55
ATOM     55  C   UNK d   0     -13.507  -4.247 -14.042  0.00  0.00     0.151 C 
BRANCH  55  56
ATOM     56  C   UNK d   0     -12.510  -5.274 -13.702  0.00  0.00     0.143 C 
ATOM     57  O   UNK d   0     -11.282  -5.076 -13.785  0.00  0.00    -0.650 OA
BRANCH  56  58
ATOM     58  O   UNK d   0     -12.977  -6.514 -13.271  0.00  0.00    -0.776 OA
ATOM     59  H   UNK d   0     -13.980  -6.537 -13.011  0.00  0.00     0.167 HD
ENDBRANCH  56  58
ENDBRANCH  55  56
ENDBRANCH  21  55
BRANCH  18  60
ATOM     60  C   UNK d   0     -16.836  -5.928 -10.182  0.00  0.00     0.151 C 
BRANCH  60  61
ATOM     61  C   UNK d   0     -16.148  -7.227 -10.129  0.00  0.00     0.143 C 
ATOM     62  O   UNK d   0     -16.323  -8.126  -9.306  0.00  0.00    -0.650 OA
BRANCH  61  63
ATOM     63  O   UNK d   0     -15.187  -7.442 -11.146  0.00  0.00    -0.776 OA
ATOM     64  H   UNK d   0     -14.716  -8.325 -11.235  0.00  0.00     0.167 HD
ENDBRANCH  61  63
ENDBRANCH  60  61
ENDBRANCH  18  60
BRANCH  14  65
ATOM     65  C   UNK d   0     -17.448  -5.464  -7.246  0.00  0.00     0.052 C 
BRANCH  65  66
ATOM     66  C   UNK d   0     -18.777  -4.825  -7.441  0.00  0.00     0.115 C 
BRANCH  66  67
ATOM     67  C   UNK d   0     -19.016  -3.507  -6.924  0.00  0.00     0.139 C 
ATOM     68  O   UNK d   0     -19.277  -2.560  -7.754  0.00  0.00    -0.650 OA
BRANCH  67  69
ATOM     69  O   UNK d   0     -19.003  -3.099  -5.591  0.00  0.00    -0.776 OA
ATOM     70  H   UNK d   0     -18.966  -2.081  -5.435  0.00  0.00     0.167 HD
ENDBRANCH  67  69
ENDBRANCH  66  67
ENDBRANCH  65  66
ENDBRANCH  14  65
ENDBRANCH   6   7
ENDBRANCH   5   6
ENDBRANCH   2   5
TORSDOF 28
ENDMDL
MODEL 18
REMARK VINA RESULT:      -8.3     30.736     33.385
REMARK  28 active torsions:
REMARK  status: ('A' for Active; 'I' for Inactive)
REMARK    1  A    between atoms: C_2  and  O_3 
REMARK    2  A    between atoms: C_2  and  C_4 
REMARK    3  A    between atoms: C_4  and  C_5 
REMARK    4  A    between atoms: C_5  and  C_6 
REMARK    5  A    between atoms: C_7  and  C_8 
REMARK    6  A    between atoms: C_8  and  C_9 
REMARK    7  A    between atoms: C_9  and  O_11 
REMARK    8  A    between atoms: C_28  and  C_29 
REMARK    9  A    between atoms: C_29  and  C_30 
REMARK   10  A    between atoms: C_30  and  O_32 
REMARK   11  A    between atoms: C_33  and  C_34 
REMARK   12  A    between atoms: C_34  and  C_35 
REMARK   13  A    between atoms: C_35  and  C_36 
REMARK   14  A    between atoms: C_36  and  O_38 
REMARK   15  A    between atoms: C_39  and  C_40 
REMARK   16  A    between atoms: C_40  and  C_41 
REMARK   17  A    between atoms: C_41  and  C_42 
REMARK   18  A    between atoms: C_42  and  O_44 
REMARK   19  A    between atoms: C_45  and  C_46 
REMARK   20  A    between atoms: C_46  and  C_47 
REMARK   21  A    between atoms: C_47  and  O_49 
REMARK   22  A    between atoms: C_50  and  C_51 
REMARK   23  A    between atoms: C_51  and  C_52 
REMARK   24  A    between atoms: C_52  and  O_54 
REMARK   25  A    between atoms: C_55  and  C_56 
REMARK   26  A    between atoms: C_56  and  C_57 
REMARK   27  A    between atoms: C_57  and  C_58 
REMARK   28  A    between atoms: C_58  and  O_60 
ROOT
ATOM      1  O   UNK d   0     -17.399 -11.708  -9.228  0.00  0.00    -0.650 OA
ATOM      2  C   UNK d   0     -17.294 -11.094  -8.144  0.00  0.00     0.139 C 
ENDROOT
BRANCH   2   3
ATOM      3  O   UNK d   0     -17.738 -11.688  -6.987  0.00  0.00    -0.776 OA
ATOM      4  H   UNK d   0     -18.673 -11.498  -6.621  0.00  0.00     0.167 HD
ENDBRANCH   2   3
BRANCH   2   5
ATOM      5  C   UNK d   0     -16.695  -9.730  -8.111  0.00  0.00     0.115 C 
BRANCH   5   6
ATOM      6  C   UNK d   0     -17.559  -8.766  -8.878  0.00  0.00     0.052 C 
BRANCH   6   7
ATOM      7  C   UNK d   0     -17.480  -7.358  -8.337  0.00  0.00    -0.020 A 
ATOM      8  C   UNK d   0     -18.216  -6.821  -7.399  0.00  0.00    -0.011 A 
ATOM      9  C   UNK d   0     -17.782  -5.445  -7.225  0.00  0.00     0.067 A 
ATOM     10  C   UNK d   0     -18.133  -4.369  -6.395  0.00  0.00     0.062 C 
ATOM     11  N   UNK d   0     -16.780  -5.227  -8.103  0.00  0.00    -0.248 NA
ATOM     12  C   UNK d   0     -17.408  -3.192  -6.181  0.00  0.00     0.041 A 
ATOM     13  N   UNK d   0     -16.751  -2.387  -7.038  0.00  0.00    -0.355 N 
ATOM     14  C   UNK d   0     -17.242  -2.724  -4.865  0.00  0.00    -0.022 A 
ATOM     15  C   UNK d   0     -16.165  -1.426  -6.299  0.00  0.00     0.042 A 
ATOM     16  H   UNK d   0     -16.717  -2.486  -8.146  0.00  0.00     0.166 HD
ATOM     17  C   UNK d   0     -15.363  -0.335  -6.689  0.00  0.00     0.062 C 
ATOM     18  C   UNK d   0     -16.450  -1.605  -4.931  0.00  0.00    -0.013 A 
ATOM     19  C   UNK d   0     -14.324  -0.305  -7.583  0.00  0.00     0.067 A 
ATOM     20  N   UNK d   0     -14.151  -1.388  -8.346  0.00  0.00    -0.248 NA
ATOM     21  C   UNK d   0     -13.281   0.642  -7.942  0.00  0.00    -0.011 A 
ATOM     22  C   UNK d   0     -13.070  -1.218  -9.177  0.00  0.00     0.066 A 
ATOM     23  C   UNK d   0     -12.798  -2.257 -10.055  0.00  0.00     0.062 C 
ATOM     24  C   UNK d   0     -12.549   0.100  -8.872  0.00  0.00    -0.020 A 
ATOM     25  C   UNK d   0     -13.547  -3.425 -10.263  0.00  0.00     0.041 A 
ATOM     26  N   UNK d   0     -14.188  -4.233  -9.410  0.00  0.00    -0.355 N 
ATOM     27  C   UNK d   0     -13.717  -3.891 -11.585  0.00  0.00    -0.022 A 
ATOM     28  C   UNK d   0     -14.765  -5.197 -10.144  0.00  0.00     0.042 A 
ATOM     29  H   UNK d   0     -14.212  -4.139  -8.296  0.00  0.00     0.166 HD
ATOM     30  C   UNK d   0     -15.558  -6.293  -9.769  0.00  0.00     0.062 C 
ATOM     31  C   UNK d   0     -14.487  -5.012 -11.519  0.00  0.00    -0.013 A 
ATOM     32  C   UNK d   0     -16.550  -6.340  -8.802  0.00  0.00     0.066 A 
BRANCH   8  33
ATOM     33  C   UNK d   0     -19.302  -7.473  -6.643  0.00  0.00     0.151 C 
BRANCH  33  34
ATOM     34  C   UNK d   0     -18.802  -8.325  -5.548  0.00  0.00     0.143 C 
ATOM     35  O   UNK d   0     -19.001  -9.548  -5.552  0.00  0.00    -0.650 OA
BRANCH  34  36
ATOM     36  O   UNK d   0     -18.107  -7.751  -4.509  0.00  0.00    -0.776 OA
ATOM     37  H   UNK d   0     -17.523  -6.917  -4.653  0.00  0.00     0.167 HD
ENDBRANCH  34  36
ENDBRANCH  33  34
ENDBRANCH   8  33
BRANCH  31  38
ATOM     38  C   UNK d   0     -14.944  -5.850 -12.690  0.00  0.00     0.151 C 
BRANCH  38  39
ATOM     39  C   UNK d   0     -14.018  -6.913 -13.015  0.00  0.00     0.143 C 
ATOM     40  O   UNK d   0     -14.247  -8.103 -12.736  0.00  0.00    -0.650 OA
BRANCH  39  41
ATOM     41  O   UNK d   0     -12.822  -6.607 -13.665  0.00  0.00    -0.776 OA
ATOM     42  H   UNK d   0     -12.113  -7.346 -13.698  0.00  0.00     0.167 HD
ENDBRANCH  39  41
ENDBRANCH  38  39
ENDBRANCH  31  38
BRANCH  27  43
ATOM     43  C   UNK d   0     -13.184  -3.324 -12.877  0.00  0.00     0.052 C 
BRANCH  43  44
ATOM     44  C   UNK d   0     -14.256  -2.817 -13.786  0.00  0.00     0.115 C 
BRANCH  44  45
ATOM     45  C   UNK d   0     -14.695  -1.508 -13.237  0.00  0.00     0.139 C 
ATOM     46  O   UNK d   0     -15.825  -1.443 -12.693  0.00  0.00    -0.650 OA
BRANCH  45  47
ATOM     47  O   UNK d   0     -13.915  -0.374 -13.296  0.00  0.00    -0.776 OA
ATOM     48  H   UNK d   0     -14.232   0.502 -13.743  0.00  0.00     0.167 HD
ENDBRANCH  45  47
ENDBRANCH  44  45
ENDBRANCH  43  44
ENDBRANCH  27  43
BRANCH  24  49
ATOM     49  C   UNK d   0     -11.403   0.729  -9.552  0.00  0.00     0.052 C 
BRANCH  49  50
ATOM     50  C   UNK d   0     -11.739   1.010 -10.994  0.00  0.00     0.115 C 
BRANCH  50  51
ATOM     51  C   UNK d   0     -10.773   0.582 -11.997  0.00  0.00     0.139 C 
ATOM     52  O   UNK d   0     -11.061  -0.222 -12.914  0.00  0.00    -0.650 OA
BRANCH  51  53
ATOM     53  O   UNK d   0      -9.476   1.071 -11.953  0.00  0.00    -0.776 OA
ATOM     54  H   UNK d   0      -9.293   1.970 -12.361  0.00  0.00     0.167 HD
ENDBRANCH  51  53
ENDBRANCH  50  51
ENDBRANCH  49  50
ENDBRANCH  24  49
BRANCH  21  55
ATOM     55  C   UNK d   0     -13.129   1.991  -7.321  0.00  0.00     0.151 C 
BRANCH  55  56
ATOM     56  C   UNK d   0     -14.400   2.730  -7.289  0.00  0.00     0.143 C 
ATOM     57  O   UNK d   0     -15.037   3.023  -8.320  0.00  0.00    -0.650 OA
BRANCH  56  58
ATOM     58  O   UNK d   0     -14.898   3.110  -6.044  0.00  0.00    -0.776 OA
ATOM     59  H   UNK d   0     -14.179   3.400  -5.356  0.00  0.00     0.167 HD
ENDBRANCH  56  58
ENDBRANCH  55  56
ENDBRANCH  21  55
BRANCH  18  60
ATOM     60  C   UNK d   0     -16.011  -0.784  -3.743  0.00  0.00     0.151 C 
BRANCH  60  61
ATOM     61  C   UNK d   0     -16.840   0.431  -3.764  0.00  0.00     0.143 C 
ATOM     62  O   UNK d   0     -18.045   0.504  -4.005  0.00  0.00    -0.650 OA
BRANCH  61  63
ATOM     63  O   UNK d   0     -16.152   1.633  -3.471  0.00  0.00    -0.776 OA
ATOM     64  H   UNK d   0     -16.514   2.523  -3.767  0.00  0.00     0.167 HD
ENDBRANCH  61  63
ENDBRANCH  60  61
ENDBRANCH  18  60
BRANCH  14  65
ATOM     65  C   UNK d   0     -17.849  -3.193  -3.573  0.00  0.00     0.052 C 
BRANCH  65  66
ATOM     66  C   UNK d   0     -19.334  -3.113  -3.566  0.00  0.00     0.115 C 
BRANCH  66  67
ATOM     67  C   UNK d   0     -19.989  -2.116  -2.767  0.00  0.00     0.139 C 
ATOM     68  O   UNK d   0     -21.268  -2.012  -2.841  0.00  0.00    -0.650 OA
BRANCH  67  69
ATOM     69  O   UNK d   0     -19.402  -1.208  -1.886  0.00  0.00    -0.776 OA
ATOM     70  H   UNK d   0     -19.364  -0.231  -2.209  0.00  0.00     0.167 HD
ENDBRANCH  67  69
ENDBRANCH  66  67
ENDBRANCH  65  66
ENDBRANCH  14  65
ENDBRANCH   6   7
ENDBRANCH   5   6
ENDBRANCH   2   5
TORSDOF 28
ENDMDL
MODEL 19
REMARK VINA RESULT:      -8.3      2.398      9.933
REMARK  28 active torsions:
REMARK  status: ('A' for Active; 'I' for Inactive)
REMARK    1  A    between atoms: C_2  and  O_3 
REMARK    2  A    between atoms: C_2  and  C_4 
REMARK    3  A    between atoms: C_4  and  C_5 
REMARK    4  A    between atoms: C_5  and  C_6 
REMARK    5  A    between atoms: C_7  and  C_8 
REMARK    6  A    between atoms: C_8  and  C_9 
REMARK    7  A    between atoms: C_9  and  O_11 
REMARK    8  A    between atoms: C_28  and  C_29 
REMARK    9  A    between atoms: C_29  and  C_30 
REMARK   10  A    between atoms: C_30  and  O_32 
REMARK   11  A    between atoms: C_33  and  C_34 
REMARK   12  A    between atoms: C_34  and  C_35 
REMARK   13  A    between atoms: C_35  and  C_36 
REMARK   14  A    between atoms: C_36  and  O_38 
REMARK   15  A    between atoms: C_39  and  C_40 
REMARK   16  A    between atoms: C_40  and  C_41 
REMARK   17  A    between atoms: C_41  and  C_42 
REMARK   18  A    between atoms: C_42  and  O_44 
REMARK   19  A    between atoms: C_45  and  C_46 
REMARK   20  A    between atoms: C_46  and  C_47 
REMARK   21  A    between atoms: C_47  and  O_49 
REMARK   22  A    between atoms: C_50  and  C_51 
REMARK   23  A    between atoms: C_51  and  C_52 
REMARK   24  A    between atoms: C_52  and  O_54 
REMARK   25  A    between atoms: C_55  and  C_56 
REMARK   26  A    between atoms: C_56  and  C_57 
REMARK   27  A    between atoms: C_57  and  C_58 
REMARK   28  A    between atoms: C_58  and  O_60 
ROOT
ATOM      1  O   UNK d   0      18.034  -1.482   8.766  0.00  0.00    -0.650 OA
ATOM      2  C   UNK d   0      17.517  -2.311   9.547  0.00  0.00     0.139 C 
ENDROOT
BRANCH   2   3
ATOM      3  O   UNK d   0      17.527  -3.645   9.215  0.00  0.00    -0.776 OA
ATOM      4  H   UNK d   0      17.655  -4.365   9.929  0.00  0.00     0.167 HD
ENDBRANCH   2   3
BRANCH   2   5
ATOM      5  C   UNK d   0      16.896  -1.853  10.822  0.00  0.00     0.115 C 
BRANCH   5   6
ATOM      6  C   UNK d   0      15.639  -1.077  10.537  0.00  0.00     0.052 C 
BRANCH   6   7
ATOM      7  C   UNK d   0      14.426  -1.965  10.403  0.00  0.00    -0.020 A 
ATOM      8  C   UNK d   0      13.898  -2.435   9.301  0.00  0.00    -0.011 A 
ATOM      9  C   UNK d   0      12.739  -3.232   9.668  0.00  0.00     0.067 A 
ATOM     10  C   UNK d   0      11.782  -4.000   8.987  0.00  0.00     0.062 C 
ATOM     11  N   UNK d   0      12.632  -3.188  11.012  0.00  0.00    -0.248 NA
ATOM     12  C   UNK d   0      10.894  -4.931   9.537  0.00  0.00     0.041 A 
ATOM     13  N   UNK d   0      10.145  -4.888  10.655  0.00  0.00    -0.355 N 
ATOM     14  C   UNK d   0      10.738  -6.178   8.905  0.00  0.00    -0.022 A 
ATOM     15  C   UNK d   0       9.524  -6.079  10.753  0.00  0.00     0.042 A 
ATOM     16  H   UNK d   0      10.043  -4.026  11.351  0.00  0.00     0.166 HD
ATOM     17  C   UNK d   0       8.627  -6.563  11.726  0.00  0.00     0.062 C 
ATOM     18  C   UNK d   0       9.871  -6.914   9.674  0.00  0.00    -0.013 A 
ATOM     19  C   UNK d   0       8.704  -6.471  13.092  0.00  0.00     0.067 A 
ATOM     20  N   UNK d   0       9.634  -5.652  13.592  0.00  0.00    -0.248 NA
ATOM     21  C   UNK d   0       8.012  -7.071  14.221  0.00  0.00    -0.011 A 
ATOM     22  C   UNK d   0       9.601  -5.675  14.964  0.00  0.00     0.066 A 
ATOM     23  C   UNK d   0      10.494  -4.838  15.616  0.00  0.00     0.062 C 
ATOM     24  C   UNK d   0       8.544  -6.605  15.313  0.00  0.00    -0.020 A 
ATOM     25  C   UNK d   0      11.368  -3.900  15.045  0.00  0.00     0.041 A 
ATOM     26  N   UNK d   0      12.124  -3.948  13.942  0.00  0.00    -0.355 N 
ATOM     27  C   UNK d   0      11.521  -2.647  15.677  0.00  0.00    -0.022 A 
ATOM     28  C   UNK d   0      12.752  -2.765  13.846  0.00  0.00     0.042 A 
ATOM     29  H   UNK d   0      12.234  -4.819  13.249  0.00  0.00     0.166 HD
ATOM     30  C   UNK d   0      13.653  -2.273  12.890  0.00  0.00     0.062 C 
ATOM     31  C   UNK d   0      12.394  -1.923  14.925  0.00  0.00    -0.013 A 
ATOM     32  C   UNK d   0      13.617  -2.442  11.515  0.00  0.00     0.066 A 
BRANCH   8  33
ATOM     33  C   UNK d   0      14.373  -2.206   7.924  0.00  0.00     0.151 C 
BRANCH  33  34
ATOM     34  C   UNK d   0      14.619  -3.460   7.189  0.00  0.00     0.143 C 
ATOM     35  O   UNK d   0      15.400  -4.314   7.631  0.00  0.00    -0.650 OA
BRANCH  34  36
ATOM     36  O   UNK d   0      13.971  -3.681   5.996  0.00  0.00    -0.776 OA
ATOM     37  H   UNK d   0      13.264  -3.022   5.642  0.00  0.00     0.167 HD
ENDBRANCH  34  36
ENDBRANCH  33  34
ENDBRANCH   8  33
BRANCH  31  38
ATOM     38  C   UNK d   0      12.853  -0.510  15.205  0.00  0.00     0.151 C 
BRANCH  38  39
ATOM     39  C   UNK d   0      11.927   0.488  14.715  0.00  0.00     0.143 C 
ATOM     40  O   UNK d   0      11.797   0.738  13.503  0.00  0.00    -0.650 OA
BRANCH  39  41
ATOM     41  O   UNK d   0      11.144   1.203  15.622  0.00  0.00    -0.776 OA
ATOM     42  H   UNK d   0      10.845   0.704  16.466  0.00  0.00     0.167 HD
ENDBRANCH  39  41
ENDBRANCH  38  39
ENDBRANCH  31  38
BRANCH  27  43
ATOM     43  C   UNK d   0      10.883  -2.127  16.942  0.00  0.00     0.052 C 
BRANCH  43  44
ATOM     44  C   UNK d   0       9.483  -1.645  16.743  0.00  0.00     0.115 C 
BRANCH  44  45
ATOM     45  C   UNK d   0       9.046  -1.065  18.039  0.00  0.00     0.139 C 
ATOM     46  O   UNK d   0       9.058   0.184  18.163  0.00  0.00    -0.650 OA
BRANCH  45  47
ATOM     47  O   UNK d   0       8.625  -1.839  19.099  0.00  0.00    -0.776 OA
ATOM     48  H   UNK d   0       7.872  -2.541  19.016  0.00  0.00     0.167 HD
ENDBRANCH  45  47
ENDBRANCH  44  45
ENDBRANCH  43  44
ENDBRANCH  27  43
BRANCH  24  49
ATOM     49  C   UNK d   0       8.121  -6.919  16.689  0.00  0.00     0.052 C 
BRANCH  49  50
ATOM     50  C   UNK d   0       7.005  -6.001  17.117  0.00  0.00     0.115 C 
BRANCH  50  51
ATOM     51  C   UNK d   0       7.379  -4.788  17.831  0.00  0.00     0.139 C 
ATOM     52  O   UNK d   0       6.714  -3.728  17.758  0.00  0.00    -0.650 OA
BRANCH  51  53
ATOM     53  O   UNK d   0       8.514  -4.783  18.628  0.00  0.00    -0.776 OA
ATOM     54  H   UNK d   0       9.404  -4.935  18.187  0.00  0.00     0.167 HD
ENDBRANCH  51  53
ENDBRANCH  50  51
ENDBRANCH  49  50
ENDBRANCH  24  49
BRANCH  21  55
ATOM     55  C   UNK d   0       6.888  -8.045  14.089  0.00  0.00     0.151 C 
BRANCH  55  56
ATOM     56  C   UNK d   0       7.366  -9.398  13.767  0.00  0.00     0.143 C 
ATOM     57  O   UNK d   0       6.623 -10.282  13.295  0.00  0.00    -0.650 OA
BRANCH  56  58
ATOM     58  O   UNK d   0       8.708  -9.686  14.006  0.00  0.00    -0.776 OA
ATOM     59  H   UNK d   0       8.891 -10.233  14.867  0.00  0.00     0.167 HD
ENDBRANCH  56  58
ENDBRANCH  55  56
ENDBRANCH  21  55
BRANCH  18  60
ATOM     60  C   UNK d   0       9.428  -8.323   9.369  0.00  0.00     0.151 C 
BRANCH  60  61
ATOM     61  C   UNK d   0       8.177  -8.196   8.604  0.00  0.00     0.143 C 
ATOM     62  O   UNK d   0       7.076  -7.854   9.035  0.00  0.00    -0.650 OA
BRANCH  61  63
ATOM     63  O   UNK d   0       8.279  -8.507   7.227  0.00  0.00    -0.776 OA
ATOM     64  H   UNK d   0       7.468  -8.758   6.691  0.00  0.00     0.167 HD
ENDBRANCH  61  63
ENDBRANCH  60  61
ENDBRANCH  18  60
BRANCH  14  65
ATOM     65  C   UNK d   0      11.263  -6.685   7.592  0.00  0.00     0.052 C 
BRANCH  65  66
ATOM     66  C   UNK d   0      10.959  -5.777   6.454  0.00  0.00     0.115 C 
BRANCH  66  67
ATOM     67  C   UNK d   0      11.238  -6.200   5.111  0.00  0.00     0.139 C 
ATOM     68  O   UNK d   0      11.942  -7.262   4.936  0.00  0.00    -0.650 OA
BRANCH  67  69
ATOM     69  O   UNK d   0      10.834  -5.592   3.923  0.00  0.00    -0.776 OA
ATOM     70  H   UNK d   0      11.443  -5.752   3.108  0.00  0.00     0.167 HD
ENDBRANCH  67  69
ENDBRANCH  66  67
ENDBRANCH  65  66
ENDBRANCH  14  65
ENDBRANCH   6   7
ENDBRANCH   5   6
ENDBRANCH   2   5
TORSDOF 28
ENDMDL
MODEL 20
REMARK VINA RESULT:      -8.3     29.647     33.409
REMARK  28 active torsions:
REMARK  status: ('A' for Active; 'I' for Inactive)
REMARK    1  A    between atoms: C_2  and  O_3 
REMARK    2  A    between atoms: C_2  and  C_4 
REMARK    3  A    between atoms: C_4  and  C_5 
REMARK    4  A    between atoms: C_5  and  C_6 
REMARK    5  A    between atoms: C_7  and  C_8 
REMARK    6  A    between atoms: C_8  and  C_9 
REMARK    7  A    between atoms: C_9  and  O_11 
REMARK    8  A    between atoms: C_28  and  C_29 
REMARK    9  A    between atoms: C_29  and  C_30 
REMARK   10  A    between atoms: C_30  and  O_32 
REMARK   11  A    between atoms: C_33  and  C_34 
REMARK   12  A    between atoms: C_34  and  C_35 
REMARK   13  A    between atoms: C_35  and  C_36 
REMARK   14  A    between atoms: C_36  and  O_38 
REMARK   15  A    between atoms: C_39  and  C_40 
REMARK   16  A    between atoms: C_40  and  C_41 
REMARK   17  A    between atoms: C_41  and  C_42 
REMARK   18  A    between atoms: C_42  and  O_44 
REMARK   19  A    between atoms: C_45  and  C_46 
REMARK   20  A    between atoms: C_46  and  C_47 
REMARK   21  A    between atoms: C_47  and  O_49 
REMARK   22  A    between atoms: C_50  and  C_51 
REMARK   23  A    between atoms: C_51  and  C_52 
REMARK   24  A    between atoms: C_52  and  O_54 
REMARK   25  A    between atoms: C_55  and  C_56 
REMARK   26  A    between atoms: C_56  and  C_57 
REMARK   27  A    between atoms: C_57  and  C_58 
REMARK   28  A    between atoms: C_58  and  O_60 
ROOT
ATOM      1  O   UNK d   0     -13.359  -6.098 -12.191  0.00  0.00    -0.650 OA
ATOM      2  C   UNK d   0     -14.112  -6.286 -11.210  0.00  0.00     0.139 C 
ENDROOT
BRANCH   2   3
ATOM      3  O   UNK d   0     -13.578  -6.305  -9.944  0.00  0.00    -0.776 OA
ATOM      4  H   UNK d   0     -12.619  -5.997  -9.772  0.00  0.00     0.167 HD
ENDBRANCH   2   3
BRANCH   2   5
ATOM      5  C   UNK d   0     -15.574  -6.489 -11.417  0.00  0.00     0.115 C 
BRANCH   5   6
ATOM      6  C   UNK d   0     -16.191  -5.247 -12.000  0.00  0.00     0.052 C 
BRANCH   6   7
ATOM      7  C   UNK d   0     -16.305  -4.126 -10.994  0.00  0.00    -0.020 A 
ATOM      8  C   UNK d   0     -17.254  -3.938 -10.113  0.00  0.00    -0.011 A 
ATOM      9  C   UNK d   0     -16.940  -2.727  -9.374  0.00  0.00     0.067 A 
ATOM     10  C   UNK d   0     -17.519  -2.008  -8.316  0.00  0.00     0.062 C 
ATOM     11  N   UNK d   0     -15.786  -2.239  -9.874  0.00  0.00    -0.248 NA
ATOM     12  C   UNK d   0     -16.920  -1.005  -7.546  0.00  0.00     0.041 A 
ATOM     13  N   UNK d   0     -16.136   0.033  -7.896  0.00  0.00    -0.355 N 
ATOM     14  C   UNK d   0     -17.067  -1.042  -6.147  0.00  0.00    -0.022 A 
ATOM     15  C   UNK d   0     -15.776   0.650  -6.755  0.00  0.00     0.042 A 
ATOM     16  H   UNK d   0     -15.859   0.334  -8.930  0.00  0.00     0.166 HD
ATOM     17  C   UNK d   0     -14.967   1.785  -6.547  0.00  0.00     0.062 C 
ATOM     18  C   UNK d   0     -16.340   0.005  -5.637  0.00  0.00    -0.013 A 
ATOM     19  C   UNK d   0     -13.762   2.102  -7.120  0.00  0.00     0.067 A 
ATOM     20  N   UNK d   0     -13.372   1.358  -8.158  0.00  0.00    -0.248 NA
ATOM     21  C   UNK d   0     -12.718   3.085  -6.881  0.00  0.00    -0.011 A 
ATOM     22  C   UNK d   0     -12.148   1.782  -8.614  0.00  0.00     0.066 A 
ATOM     23  C   UNK d   0     -11.638   1.116  -9.720  0.00  0.00     0.062 C 
ATOM     24  C   UNK d   0     -11.774   2.889  -7.757  0.00  0.00    -0.020 A 
ATOM     25  C   UNK d   0     -12.261   0.120 -10.487  0.00  0.00     0.041 A 
ATOM     26  N   UNK d   0     -13.028  -0.920 -10.138  0.00  0.00    -0.355 N 
ATOM     27  C   UNK d   0     -12.117   0.161 -11.891  0.00  0.00    -0.022 A 
ATOM     28  C   UNK d   0     -13.382  -1.542 -11.274  0.00  0.00     0.042 A 
ATOM     29  H   UNK d   0     -13.297  -1.228  -9.098  0.00  0.00     0.166 HD
ATOM     30  C   UNK d   0     -14.178  -2.677 -11.495  0.00  0.00     0.062 C 
ATOM     31  C   UNK d   0     -12.823  -0.887 -12.397  0.00  0.00    -0.013 A 
ATOM     32  C   UNK d   0     -15.352  -3.036 -10.852  0.00  0.00     0.066 A 
BRANCH   8  33
ATOM     33  C   UNK d   0     -18.441  -4.786  -9.896  0.00  0.00     0.151 C 
BRANCH  33  34
ATOM     34  C   UNK d   0     -18.273  -5.726  -8.773  0.00  0.00     0.143 C 
ATOM     35  O   UNK d   0     -19.245  -6.327  -8.296  0.00  0.00    -0.650 OA
BRANCH  34  36
ATOM     36  O   UNK d   0     -17.018  -5.935  -8.250  0.00  0.00    -0.776 OA
ATOM     37  H   UNK d   0     -16.887  -6.435  -7.360  0.00  0.00     0.167 HD
ENDBRANCH  34  36
ENDBRANCH  33  34
ENDBRANCH   8  33
BRANCH  31  38
ATOM     38  C   UNK d   0     -12.971  -1.239 -13.859  0.00  0.00     0.151 C 
BRANCH  38  39
ATOM     39  C   UNK d   0     -14.042  -0.511 -14.506  0.00  0.00     0.143 C 
ATOM     40  O   UNK d   0     -13.896   0.044 -15.609  0.00  0.00    -0.650 OA
BRANCH  39  41
ATOM     41  O   UNK d   0     -15.286  -0.422 -13.883  0.00  0.00    -0.776 OA
ATOM     42  H   UNK d   0     -16.096  -0.262 -14.490  0.00  0.00     0.167 HD
ENDBRANCH  39  41
ENDBRANCH  38  39
ENDBRANCH  31  38
BRANCH  27  43
ATOM     43  C   UNK d   0     -11.348   1.136 -12.748  0.00  0.00     0.052 C 
BRANCH  43  44
ATOM     44  C   UNK d   0      -9.926   0.734 -12.969  0.00  0.00     0.115 C 
BRANCH  44  45
ATOM     45  C   UNK d   0      -9.367   1.684 -13.965  0.00  0.00     0.139 C 
ATOM     46  O   UNK d   0     -10.168   2.302 -14.709  0.00  0.00    -0.650 OA
BRANCH  45  47
ATOM     47  O   UNK d   0      -8.015   1.916 -14.100  0.00  0.00    -0.776 OA
ATOM     48  H   UNK d   0      -7.611   2.428 -14.901  0.00  0.00     0.167 HD
ENDBRANCH  45  47
ENDBRANCH  44  45
ENDBRANCH  43  44
ENDBRANCH  27  43
BRANCH  24  49
ATOM     49  C   UNK d   0     -10.544   3.686  -7.900  0.00  0.00     0.052 C 
BRANCH  49  50
ATOM     50  C   UNK d   0     -10.858   5.032  -8.500  0.00  0.00     0.115 C 
BRANCH  50  51
ATOM     51  C   UNK d   0     -10.446   6.209  -7.746  0.00  0.00     0.139 C 
ATOM     52  O   UNK d   0     -11.253   7.100  -7.389  0.00  0.00    -0.650 OA
BRANCH  51  53
ATOM     53  O   UNK d   0      -9.113   6.371  -7.400  0.00  0.00    -0.776 OA
ATOM     54  H   UNK d   0      -8.630   5.590  -6.992  0.00  0.00     0.167 HD
ENDBRANCH  51  53
ENDBRANCH  50  51
ENDBRANCH  49  50
ENDBRANCH  24  49
BRANCH  21  55
ATOM     55  C   UNK d   0     -12.775   4.119  -5.807  0.00  0.00     0.151 C 
BRANCH  55  56
ATOM     56  C   UNK d   0     -13.889   5.059  -6.003  0.00  0.00     0.143 C 
ATOM     57  O   UNK d   0     -14.763   5.260  -5.137  0.00  0.00    -0.650 OA
BRANCH  56  58
ATOM     58  O   UNK d   0     -13.955   5.743  -7.216  0.00  0.00    -0.776 OA
ATOM     59  H   UNK d   0     -13.106   6.286  -7.457  0.00  0.00     0.167 HD
ENDBRANCH  56  58
ENDBRANCH  55  56
ENDBRANCH  21  55
BRANCH  18  60
ATOM     60  C   UNK d   0     -16.212   0.335  -4.171  0.00  0.00     0.151 C 
BRANCH  60  61
ATOM     61  C   UNK d   0     -14.916  -0.214  -3.744  0.00  0.00     0.143 C 
ATOM     62  O   UNK d   0     -14.499  -1.358  -3.928  0.00  0.00    -0.650 OA
BRANCH  61  63
ATOM     63  O   UNK d   0     -14.077   0.690  -3.050  0.00  0.00    -0.776 OA
ATOM     64  H   UNK d   0     -14.436   1.267  -2.311  0.00  0.00     0.167 HD
ENDBRANCH  61  63
ENDBRANCH  60  61
ENDBRANCH  18  60
BRANCH  14  65
ATOM     65  C   UNK d   0     -17.913  -1.923  -5.273  0.00  0.00     0.052 C 
BRANCH  65  66
ATOM     66  C   UNK d   0     -19.364  -1.606  -5.358  0.00  0.00     0.115 C 
BRANCH  66  67
ATOM     67  C   UNK d   0     -20.017  -0.955  -4.257  0.00  0.00     0.139 C 
ATOM     68  O   UNK d   0     -19.660   0.243  -3.954  0.00  0.00    -0.650 OA
BRANCH  67  69
ATOM     69  O   UNK d   0     -21.024  -1.466  -3.439  0.00  0.00    -0.776 OA
ATOM     70  H   UNK d   0     -20.914  -2.450  -3.155  0.00  0.00     0.167 HD
ENDBRANCH  67  69
ENDBRANCH  66  67
ENDBRANCH  65  66
ENDBRANCH  14  65
ENDBRANCH   6   7
ENDBRANCH   5   6
ENDBRANCH   2   5
TORSDOF 28
ENDMDL
