MODEL 1
REMARK VINA RESULT:     -10.6      0.000      0.000
REMARK  28 active torsions:
REMARK  status: ('A' for Active; 'I' for Inactive)
REMARK    1  A    between atoms: C_2  and  O_3 
REMARK    2  A    between atoms: C_2  and  C_4 
REMARK    3  A    between atoms: C_4  and  C_5 
REMARK    4  A    between atoms: C_5  and  C_6 
REMARK    5  A    between atoms: C_7  and  C_8 
REMARK    6  A    between atoms: C_8  and  C_9 
REMARK    7  A    between atoms: C_9  and  O_11 
REMARK    8  A    between atoms: C_28  and  C_29 
REMARK    9  A    between atoms: C_29  and  C_30 
REMARK   10  A    between atoms: C_30  and  O_32 
REMARK   11  A    between atoms: C_33  and  C_34 
REMARK   12  A    between atoms: C_34  and  C_35 
REMARK   13  A    between atoms: C_35  and  C_36 
REMARK   14  A    between atoms: C_36  and  O_38 
REMARK   15  A    between atoms: C_39  and  C_40 
REMARK   16  A    between atoms: C_40  and  C_41 
REMARK   17  A    between atoms: C_41  and  C_42 
REMARK   18  A    between atoms: C_42  and  O_44 
REMARK   19  A    between atoms: C_45  and  C_46 
REMARK   20  A    between atoms: C_46  and  C_47 
REMARK   21  A    between atoms: C_47  and  O_49 
REMARK   22  A    between atoms: C_50  and  C_51 
REMARK   23  A    between atoms: C_51  and  C_52 
REMARK   24  A    between atoms: C_52  and  O_54 
REMARK   25  A    between atoms: C_55  and  C_56 
REMARK   26  A    between atoms: C_56  and  C_57 
REMARK   27  A    between atoms: C_57  and  C_58 
REMARK   28  A    between atoms: C_58  and  O_60 
ROOT
ATOM      1  O   UNK d   0       0.219   7.304  26.445  0.00  0.00    -0.650 OA
ATOM      2  C   UNK d   0      -0.138   8.165  25.611  0.00  0.00     0.139 C 
ENDROOT
BRANCH   2   3
ATOM      3  O   UNK d   0       0.504   9.380  25.579  0.00  0.00    -0.776 OA
ATOM      4  H   UNK d   0       1.351   9.543  26.127  0.00  0.00     0.167 HD
ENDBRANCH   2   3
BRANCH   2   5
ATOM      5  C   UNK d   0      -1.251   7.872  24.664  0.00  0.00     0.115 C 
BRANCH   5   6
ATOM      6  C   UNK d   0      -0.780   6.932  23.587  0.00  0.00     0.052 C 
BRANCH   6   7
ATOM      7  C   UNK d   0       0.403   7.472  22.821  0.00  0.00    -0.020 A 
ATOM      8  C   UNK d   0       0.405   8.421  21.920  0.00  0.00    -0.011 A 
ATOM      9  C   UNK d   0       1.771   8.590  21.454  0.00  0.00     0.067 A 
ATOM     10  C   UNK d   0       2.434   9.425  20.541  0.00  0.00     0.062 C 
ATOM     11  N   UNK d   0       2.535   7.699  22.121  0.00  0.00    -0.248 NA
ATOM     12  C   UNK d   0       3.813   9.631  20.428  0.00  0.00     0.041 A 
ATOM     13  N   UNK d   0       4.844   8.766  20.469  0.00  0.00    -0.355 N 
ATOM     14  C   UNK d   0       4.297  10.945  20.298  0.00  0.00    -0.022 A 
ATOM     15  C   UNK d   0       5.970   9.498  20.378  0.00  0.00     0.042 A 
ATOM     16  H   UNK d   0       4.777   7.658  20.543  0.00  0.00     0.166 HD
ATOM     17  C   UNK d   0       7.322   9.099  20.371  0.00  0.00     0.062 C 
ATOM     18  C   UNK d   0       5.667  10.870  20.269  0.00  0.00    -0.013 A 
ATOM     19  C   UNK d   0       7.957   8.191  21.179  0.00  0.00     0.067 A 
ATOM     20  N   UNK d   0       7.183   7.425  21.952  0.00  0.00    -0.248 NA
ATOM     21  C   UNK d   0       9.335   7.820  21.451  0.00  0.00    -0.011 A 
ATOM     22  C   UNK d   0       7.956   6.581  22.712  0.00  0.00     0.066 A 
ATOM     23  C   UNK d   0       7.276   5.699  23.538  0.00  0.00     0.062 C 
ATOM     24  C   UNK d   0       9.328   6.880  22.352  0.00  0.00    -0.020 A 
ATOM     25  C   UNK d   0       5.889   5.499  23.628  0.00  0.00     0.041 A 
ATOM     26  N   UNK d   0       4.865   6.360  23.601  0.00  0.00    -0.355 N 
ATOM     27  C   UNK d   0       5.404   4.179  23.753  0.00  0.00    -0.022 A 
ATOM     28  C   UNK d   0       3.741   5.633  23.702  0.00  0.00     0.042 A 
ATOM     29  H   UNK d   0       4.934   7.474  23.539  0.00  0.00     0.166 HD
ATOM     30  C   UNK d   0       2.391   6.017  23.719  0.00  0.00     0.062 C 
ATOM     31  C   UNK d   0       4.046   4.254  23.800  0.00  0.00    -0.013 A 
ATOM     32  C   UNK d   0       1.771   6.996  22.959  0.00  0.00     0.066 A 
BRANCH   8  33
ATOM     33  C   UNK d   0      -0.759   9.190  21.443  0.00  0.00     0.151 C 
BRANCH  33  34
ATOM     34  C   UNK d   0      -0.848  10.528  22.054  0.00  0.00     0.143 C 
ATOM     35  O   UNK d   0      -0.647  11.550  21.382  0.00  0.00    -0.650 OA
BRANCH  34  36
ATOM     36  O   UNK d   0      -1.158  10.641  23.390  0.00  0.00    -0.776 OA
ATOM     37  H   UNK d   0      -1.848  11.329  23.722  0.00  0.00     0.167 HD
ENDBRANCH  34  36
ENDBRANCH  33  34
ENDBRANCH   8  33
BRANCH  31  38
ATOM     38  C   UNK d   0       3.092   3.088  23.917  0.00  0.00     0.151 C 
BRANCH  38  39
ATOM     39  C   UNK d   0       2.766   2.765  25.290  0.00  0.00     0.143 C 
ATOM     40  O   UNK d   0       1.776   3.244  25.869  0.00  0.00    -0.650 OA
BRANCH  39  41
ATOM     41  O   UNK d   0       3.583   1.887  26.001  0.00  0.00    -0.776 OA
ATOM     42  H   UNK d   0       3.815   0.999  25.543  0.00  0.00     0.167 HD
ENDBRANCH  39  41
ENDBRANCH  38  39
ENDBRANCH  31  38
BRANCH  27  43
ATOM     43  C   UNK d   0       6.168   2.881  23.831  0.00  0.00     0.052 C 
BRANCH  43  44
ATOM     44  C   UNK d   0       5.797   1.912  22.755  0.00  0.00     0.115 C 
BRANCH  44  45
ATOM     45  C   UNK d   0       5.618   0.593  23.415  0.00  0.00     0.139 C 
ATOM     46  O   UNK d   0       5.209  -0.368  22.716  0.00  0.00    -0.650 OA
BRANCH  45  47
ATOM     47  O   UNK d   0       5.885   0.383  24.750  0.00  0.00    -0.776 OA
ATOM     48  H   UNK d   0       5.156   0.121  25.433  0.00  0.00     0.167 HD
ENDBRANCH  45  47
ENDBRANCH  44  45
ENDBRANCH  43  44
ENDBRANCH  27  43
BRANCH  24  49
ATOM     49  C   UNK d   0      10.510   6.186  22.893  0.00  0.00     0.052 C 
BRANCH  49  50
ATOM     50  C   UNK d   0      10.707   6.539  24.345  0.00  0.00     0.115 C 
BRANCH  50  51
ATOM     51  C   UNK d   0      11.706   7.553  24.652  0.00  0.00     0.139 C 
ATOM     52  O   UNK d   0      11.840   8.599  23.974  0.00  0.00    -0.650 OA
BRANCH  51  53
ATOM     53  O   UNK d   0      12.556   7.373  25.733  0.00  0.00    -0.776 OA
ATOM     54  H   UNK d   0      13.485   7.032  25.556  0.00  0.00     0.167 HD
ENDBRANCH  51  53
ENDBRANCH  50  51
ENDBRANCH  49  50
ENDBRANCH  24  49
BRANCH  21  55
ATOM     55  C   UNK d   0      10.516   8.440  20.780  0.00  0.00     0.151 C 
BRANCH  55  56
ATOM     56  C   UNK d   0      10.448   8.311  19.316  0.00  0.00     0.143 C 
ATOM     57  O   UNK d   0      10.198   9.274  18.564  0.00  0.00    -0.650 OA
BRANCH  56  58
ATOM     58  O   UNK d   0      10.676   7.051  18.764  0.00  0.00    -0.776 OA
ATOM     59  H   UNK d   0      10.504   6.256  19.406  0.00  0.00     0.167 HD
ENDBRANCH  56  58
ENDBRANCH  55  56
ENDBRANCH  21  55
BRANCH  18  60
ATOM     60  C   UNK d   0       6.596  12.052  20.148  0.00  0.00     0.151 C 
BRANCH  60  61
ATOM     61  C   UNK d   0       7.469  11.764  19.000  0.00  0.00     0.143 C 
ATOM     62  O   UNK d   0       7.120  11.520  17.845  0.00  0.00    -0.650 OA
BRANCH  61  63
ATOM     63  O   UNK d   0       8.857  11.775  19.280  0.00  0.00    -0.776 OA
ATOM     64  H   UNK d   0       9.517  11.366  18.644  0.00  0.00     0.167 HD
ENDBRANCH  61  63
ENDBRANCH  60  61
ENDBRANCH  18  60
BRANCH  14  65
ATOM     65  C   UNK d   0       3.568  12.244  20.103  0.00  0.00     0.052 C 
BRANCH  65  66
ATOM     66  C   UNK d   0       2.615  12.548  21.204  0.00  0.00     0.115 C 
BRANCH  66  67
ATOM     67  C   UNK d   0       2.280  13.912  21.500  0.00  0.00     0.139 C 
ATOM     68  O   UNK d   0       1.733  14.623  20.579  0.00  0.00    -0.650 OA
BRANCH  67  69
ATOM     69  O   UNK d   0       2.477  14.598  22.698  0.00  0.00    -0.776 OA
ATOM     70  H   UNK d   0       1.635  15.022  23.115  0.00  0.00     0.167 HD
ENDBRANCH  67  69
ENDBRANCH  66  67
ENDBRANCH  65  66
ENDBRANCH  14  65
ENDBRANCH   6   7
ENDBRANCH   5   6
ENDBRANCH   2   5
TORSDOF 28
ENDMDL
MODEL 2
REMARK VINA RESULT:     -10.6      1.712      5.622
REMARK  28 active torsions:
REMARK  status: ('A' for Active; 'I' for Inactive)
REMARK    1  A    between atoms: C_2  and  O_3 
REMARK    2  A    between atoms: C_2  and  C_4 
REMARK    3  A    between atoms: C_4  and  C_5 
REMARK    4  A    between atoms: C_5  and  C_6 
REMARK    5  A    between atoms: C_7  and  C_8 
REMARK    6  A    between atoms: C_8  and  C_9 
REMARK    7  A    between atoms: C_9  and  O_11 
REMARK    8  A    between atoms: C_28  and  C_29 
REMARK    9  A    between atoms: C_29  and  C_30 
REMARK   10  A    between atoms: C_30  and  O_32 
REMARK   11  A    between atoms: C_33  and  C_34 
REMARK   12  A    between atoms: C_34  and  C_35 
REMARK   13  A    between atoms: C_35  and  C_36 
REMARK   14  A    between atoms: C_36  and  O_38 
REMARK   15  A    between atoms: C_39  and  C_40 
REMARK   16  A    between atoms: C_40  and  C_41 
REMARK   17  A    between atoms: C_41  and  C_42 
REMARK   18  A    between atoms: C_42  and  O_44 
REMARK   19  A    between atoms: C_45  and  C_46 
REMARK   20  A    between atoms: C_46  and  C_47 
REMARK   21  A    between atoms: C_47  and  O_49 
REMARK   22  A    between atoms: C_50  and  C_51 
REMARK   23  A    between atoms: C_51  and  C_52 
REMARK   24  A    between atoms: C_52  and  O_54 
REMARK   25  A    between atoms: C_55  and  C_56 
REMARK   26  A    between atoms: C_56  and  C_57 
REMARK   27  A    between atoms: C_57  and  C_58 
REMARK   28  A    between atoms: C_58  and  O_60 
ROOT
ATOM      1  O   UNK d   0       3.966   1.407  23.139  0.00  0.00    -0.650 OA
ATOM      2  C   UNK d   0       3.376   1.796  24.171  0.00  0.00     0.139 C 
ENDROOT
BRANCH   2   3
ATOM      3  O   UNK d   0       4.050   1.809  25.368  0.00  0.00    -0.776 OA
ATOM      4  H   UNK d   0       4.394   0.944  25.789  0.00  0.00     0.167 HD
ENDBRANCH   2   3
BRANCH   2   5
ATOM      5  C   UNK d   0       1.955   2.240  24.098  0.00  0.00     0.115 C 
BRANCH   5   6
ATOM      6  C   UNK d   0       1.758   3.486  24.918  0.00  0.00     0.052 C 
BRANCH   6   7
ATOM      7  C   UNK d   0       1.778   4.742  24.081  0.00  0.00    -0.020 A 
ATOM      8  C   UNK d   0       0.752   5.391  23.591  0.00  0.00    -0.011 A 
ATOM      9  C   UNK d   0       1.261   6.531  22.848  0.00  0.00     0.067 A 
ATOM     10  C   UNK d   0       0.706   7.599  22.125  0.00  0.00     0.062 C 
ATOM     11  N   UNK d   0       2.608   6.496  22.932  0.00  0.00    -0.248 NA
ATOM     12  C   UNK d   0       1.353   8.766  21.706  0.00  0.00     0.041 A 
ATOM     13  N   UNK d   0       2.570   8.960  21.163  0.00  0.00    -0.355 N 
ATOM     14  C   UNK d   0       0.714  10.005  21.899  0.00  0.00    -0.022 A 
ATOM     15  C   UNK d   0       2.722  10.289  21.014  0.00  0.00     0.042 A 
ATOM     16  H   UNK d   0       3.299   8.171  20.873  0.00  0.00     0.166 HD
ATOM     17  C   UNK d   0       3.802  11.032  20.495  0.00  0.00     0.062 C 
ATOM     18  C   UNK d   0       1.579  10.977  21.464  0.00  0.00    -0.013 A 
ATOM     19  C   UNK d   0       5.144  10.887  20.736  0.00  0.00     0.067 A 
ATOM     20  N   UNK d   0       5.525   9.786  21.389  0.00  0.00    -0.248 NA
ATOM     21  C   UNK d   0       6.343  11.663  20.470  0.00  0.00    -0.011 A 
ATOM     22  C   UNK d   0       6.887   9.787  21.570  0.00  0.00     0.066 A 
ATOM     23  C   UNK d   0       7.425   8.677  22.205  0.00  0.00     0.062 C 
ATOM     24  C   UNK d   0       7.359  11.016  20.964  0.00  0.00    -0.020 A 
ATOM     25  C   UNK d   0       6.759   7.508  22.605  0.00  0.00     0.041 A 
ATOM     26  N   UNK d   0       5.556   7.317  23.159  0.00  0.00    -0.355 N 
ATOM     27  C   UNK d   0       7.400   6.265  22.408  0.00  0.00    -0.022 A 
ATOM     28  C   UNK d   0       5.405   5.993  23.317  0.00  0.00     0.042 A 
ATOM     29  H   UNK d   0       4.829   8.111  23.460  0.00  0.00     0.166 HD
ATOM     30  C   UNK d   0       4.341   5.241  23.841  0.00  0.00     0.062 C 
ATOM     31  C   UNK d   0       6.549   5.301  22.855  0.00  0.00    -0.013 A 
ATOM     32  C   UNK d   0       2.982   5.444  23.662  0.00  0.00     0.066 A 
BRANCH   8  33
ATOM     33  C   UNK d   0      -0.672   5.043  23.748  0.00  0.00     0.151 C 
BRANCH  33  34
ATOM     34  C   UNK d   0      -1.189   5.347  25.095  0.00  0.00     0.143 C 
ATOM     35  O   UNK d   0      -2.038   4.620  25.630  0.00  0.00    -0.650 OA
BRANCH  34  36
ATOM     36  O   UNK d   0      -0.721   6.455  25.763  0.00  0.00    -0.776 OA
ATOM     37  H   UNK d   0      -0.404   6.394  26.741  0.00  0.00     0.167 HD
ENDBRANCH  34  36
ENDBRANCH  33  34
ENDBRANCH   8  33
BRANCH  31  38
ATOM     38  C   UNK d   0       6.800   3.811  22.833  0.00  0.00     0.151 C 
BRANCH  38  39
ATOM     39  C   UNK d   0       7.096   3.272  24.143  0.00  0.00     0.143 C 
ATOM     40  O   UNK d   0       7.717   3.920  25.004  0.00  0.00    -0.650 OA
BRANCH  39  41
ATOM     41  O   UNK d   0       6.674   1.983  24.466  0.00  0.00    -0.776 OA
ATOM     42  H   UNK d   0       6.626   1.307  23.697  0.00  0.00     0.167 HD
ENDBRANCH  39  41
ENDBRANCH  38  39
ENDBRANCH  31  38
BRANCH  27  43
ATOM     43  C   UNK d   0       8.759   5.970  21.825  0.00  0.00     0.052 C 
BRANCH  43  44
ATOM     44  C   UNK d   0       9.886   6.418  22.698  0.00  0.00     0.115 C 
BRANCH  44  45
ATOM     45  C   UNK d   0      10.908   7.014  21.799  0.00  0.00     0.139 C 
ATOM     46  O   UNK d   0      11.919   7.545  22.322  0.00  0.00    -0.650 OA
BRANCH  45  47
ATOM     47  O   UNK d   0      10.793   7.002  20.425  0.00  0.00    -0.776 OA
ATOM     48  H   UNK d   0      11.609   7.067  19.794  0.00  0.00     0.167 HD
ENDBRANCH  45  47
ENDBRANCH  44  45
ENDBRANCH  43  44
ENDBRANCH  27  43
BRANCH  24  49
ATOM     49  C   UNK d   0       8.772  11.426  20.885  0.00  0.00     0.052 C 
BRANCH  49  50
ATOM     50  C   UNK d   0       9.596  10.344  20.236  0.00  0.00     0.115 C 
BRANCH  50  51
ATOM     51  C   UNK d   0       9.294  10.021  18.848  0.00  0.00     0.139 C 
ATOM     52  O   UNK d   0       9.234  10.892  17.948  0.00  0.00    -0.650 OA
BRANCH  51  53
ATOM     53  O   UNK d   0       9.057   8.703  18.486  0.00  0.00    -0.776 OA
ATOM     54  H   UNK d   0       8.123   8.345  18.581  0.00  0.00     0.167 HD
ENDBRANCH  51  53
ENDBRANCH  50  51
ENDBRANCH  49  50
ENDBRANCH  24  49
BRANCH  21  55
ATOM     55  C   UNK d   0       6.349  12.969  19.746  0.00  0.00     0.151 C 
BRANCH  55  56
ATOM     56  C   UNK d   0       5.924  14.080  20.610  0.00  0.00     0.143 C 
ATOM     57  O   UNK d   0       4.740  14.467  20.679  0.00  0.00    -0.650 OA
BRANCH  56  58
ATOM     58  O   UNK d   0       6.899  14.717  21.377  0.00  0.00    -0.776 OA
ATOM     59  H   UNK d   0       6.542  15.207  22.217  0.00  0.00     0.167 HD
ENDBRANCH  56  58
ENDBRANCH  55  56
ENDBRANCH  21  55
BRANCH  18  60
ATOM     60  C   UNK d   0       1.300  12.460  21.495  0.00  0.00     0.151 C 
BRANCH  60  61
ATOM     61  C   UNK d   0       2.132  13.005  22.579  0.00  0.00     0.143 C 
ATOM     62  O   UNK d   0       2.532  12.408  23.580  0.00  0.00    -0.650 OA
BRANCH  61  63
ATOM     63  O   UNK d   0       2.500  14.364  22.431  0.00  0.00    -0.776 OA
ATOM     64  H   UNK d   0       2.125  15.071  23.038  0.00  0.00     0.167 HD
ENDBRANCH  61  63
ENDBRANCH  60  61
ENDBRANCH  18  60
BRANCH  14  65
ATOM     65  C   UNK d   0      -0.677  10.329  22.366  0.00  0.00     0.052 C 
BRANCH  65  66
ATOM     66  C   UNK d   0      -1.180   9.380  23.395  0.00  0.00     0.115 C 
BRANCH  66  67
ATOM     67  C   UNK d   0      -0.945   9.648  24.786  0.00  0.00     0.139 C 
ATOM     68  O   UNK d   0       0.195   9.330  25.288  0.00  0.00    -0.650 OA
BRANCH  67  69
ATOM     69  O   UNK d   0      -1.820  10.229  25.703  0.00  0.00    -0.776 OA
ATOM     70  H   UNK d   0      -2.730   9.759  25.815  0.00  0.00     0.167 HD
ENDBRANCH  67  69
ENDBRANCH  66  67
ENDBRANCH  65  66
ENDBRANCH  14  65
ENDBRANCH   6   7
ENDBRANCH   5   6
ENDBRANCH   2   5
TORSDOF 28
ENDMDL
MODEL 3
REMARK VINA RESULT:     -10.5      1.852      7.940
REMARK  28 active torsions:
REMARK  status: ('A' for Active; 'I' for Inactive)
REMARK    1  A    between atoms: C_2  and  O_3 
REMARK    2  A    between atoms: C_2  and  C_4 
REMARK    3  A    between atoms: C_4  and  C_5 
REMARK    4  A    between atoms: C_5  and  C_6 
REMARK    5  A    between atoms: C_7  and  C_8 
REMARK    6  A    between atoms: C_8  and  C_9 
REMARK    7  A    between atoms: C_9  and  O_11 
REMARK    8  A    between atoms: C_28  and  C_29 
REMARK    9  A    between atoms: C_29  and  C_30 
REMARK   10  A    between atoms: C_30  and  O_32 
REMARK   11  A    between atoms: C_33  and  C_34 
REMARK   12  A    between atoms: C_34  and  C_35 
REMARK   13  A    between atoms: C_35  and  C_36 
REMARK   14  A    between atoms: C_36  and  O_38 
REMARK   15  A    between atoms: C_39  and  C_40 
REMARK   16  A    between atoms: C_40  and  C_41 
REMARK   17  A    between atoms: C_41  and  C_42 
REMARK   18  A    between atoms: C_42  and  O_44 
REMARK   19  A    between atoms: C_45  and  C_46 
REMARK   20  A    between atoms: C_46  and  C_47 
REMARK   21  A    between atoms: C_47  and  O_49 
REMARK   22  A    between atoms: C_50  and  C_51 
REMARK   23  A    between atoms: C_51  and  C_52 
REMARK   24  A    between atoms: C_52  and  O_54 
REMARK   25  A    between atoms: C_55  and  C_56 
REMARK   26  A    between atoms: C_56  and  C_57 
REMARK   27  A    between atoms: C_57  and  C_58 
REMARK   28  A    between atoms: C_58  and  O_60 
ROOT
ATOM      1  O   UNK d   0      -0.566   6.198  25.760  0.00  0.00    -0.650 OA
ATOM      2  C   UNK d   0      -1.129   5.514  24.876  0.00  0.00     0.139 C 
ENDROOT
BRANCH   2   3
ATOM      3  O   UNK d   0      -2.081   6.099  24.076  0.00  0.00    -0.776 OA
ATOM      4  H   UNK d   0      -2.072   7.104  23.894  0.00  0.00     0.167 HD
ENDBRANCH   2   3
BRANCH   2   5
ATOM      5  C   UNK d   0      -0.768   4.079  24.697  0.00  0.00     0.115 C 
BRANCH   5   6
ATOM      6  C   UNK d   0      -0.046   3.887  23.390  0.00  0.00     0.052 C 
BRANCH   6   7
ATOM      7  C   UNK d   0       1.356   4.446  23.413  0.00  0.00    -0.020 A 
ATOM      8  C   UNK d   0       2.426   3.896  23.928  0.00  0.00    -0.011 A 
ATOM      9  C   UNK d   0       3.539   4.807  23.717  0.00  0.00     0.067 A 
ATOM     10  C   UNK d   0       4.914   4.808  24.000  0.00  0.00     0.062 C 
ATOM     11  N   UNK d   0       3.055   5.889  23.072  0.00  0.00    -0.248 NA
ATOM     12  C   UNK d   0       5.887   5.662  23.469  0.00  0.00     0.041 A 
ATOM     13  N   UNK d   0       5.876   6.990  23.246  0.00  0.00    -0.355 N 
ATOM     14  C   UNK d   0       7.099   5.112  23.013  0.00  0.00    -0.022 A 
ATOM     15  C   UNK d   0       7.046   7.295  22.654  0.00  0.00     0.042 A 
ATOM     16  H   UNK d   0       5.065   7.700  23.520  0.00  0.00     0.166 HD
ATOM     17  C   UNK d   0       7.549   8.535  22.211  0.00  0.00     0.062 C 
ATOM     18  C   UNK d   0       7.839   6.144  22.491  0.00  0.00    -0.013 A 
ATOM     19  C   UNK d   0       6.912   9.521  21.502  0.00  0.00     0.067 A 
ATOM     20  N   UNK d   0       5.588   9.409  21.366  0.00  0.00    -0.248 NA
ATOM     21  C   UNK d   0       7.313  10.727  20.798  0.00  0.00    -0.011 A 
ATOM     22  C   UNK d   0       5.095  10.454  20.624  0.00  0.00     0.066 A 
ATOM     23  C   UNK d   0       3.721  10.482  20.437  0.00  0.00     0.062 C 
ATOM     24  C   UNK d   0       6.246  11.266  20.283  0.00  0.00    -0.020 A 
ATOM     25  C   UNK d   0       2.759   9.623  20.989  0.00  0.00     0.041 A 
ATOM     26  N   UNK d   0       2.764   8.301  21.197  0.00  0.00    -0.355 N 
ATOM     27  C   UNK d   0       1.545  10.176  21.450  0.00  0.00    -0.022 A 
ATOM     28  C   UNK d   0       1.595   7.992  21.779  0.00  0.00     0.042 A 
ATOM     29  H   UNK d   0       3.576   7.587  20.911  0.00  0.00     0.166 HD
ATOM     30  C   UNK d   0       1.078   6.763  22.216  0.00  0.00     0.062 C 
ATOM     31  C   UNK d   0       0.803   9.152  21.952  0.00  0.00    -0.013 A 
ATOM     32  C   UNK d   0       1.747   5.733  22.858  0.00  0.00     0.066 A 
BRANCH   8  33
ATOM     33  C   UNK d   0       2.511   2.591  24.609  0.00  0.00     0.151 C 
BRANCH  33  34
ATOM     34  C   UNK d   0       3.085   1.537  23.753  0.00  0.00     0.143 C 
ATOM     35  O   UNK d   0       3.111   1.662  22.520  0.00  0.00    -0.650 OA
BRANCH  34  36
ATOM     36  O   UNK d   0       3.597   0.400  24.334  0.00  0.00    -0.776 OA
ATOM     37  H   UNK d   0       2.979  -0.327  24.720  0.00  0.00     0.167 HD
ENDBRANCH  34  36
ENDBRANCH  33  34
ENDBRANCH   8  33
BRANCH  31  38
ATOM     38  C   UNK d   0      -0.571   9.266  22.572  0.00  0.00     0.151 C 
BRANCH  38  39
ATOM     39  C   UNK d   0      -0.531   9.347  24.016  0.00  0.00     0.143 C 
ATOM     40  O   UNK d   0       0.472   9.748  24.633  0.00  0.00    -0.650 OA
BRANCH  39  41
ATOM     41  O   UNK d   0      -1.649   8.965  24.756  0.00  0.00    -0.776 OA
ATOM     42  H   UNK d   0      -2.557   9.026  24.285  0.00  0.00     0.167 HD
ENDBRANCH  39  41
ENDBRANCH  38  39
ENDBRANCH  31  38
BRANCH  27  43
ATOM     43  C   UNK d   0       1.075  11.610  21.429  0.00  0.00     0.052 C 
BRANCH  43  44
ATOM     44  C   UNK d   0       1.702  12.452  22.492  0.00  0.00     0.115 C 
BRANCH  44  45
ATOM     45  C   UNK d   0       2.139  13.711  21.833  0.00  0.00     0.139 C 
ATOM     46  O   UNK d   0       1.777  13.915  20.648  0.00  0.00    -0.650 OA
BRANCH  45  47
ATOM     47  O   UNK d   0       2.914  14.657  22.469  0.00  0.00    -0.776 OA
ATOM     48  H   UNK d   0       3.811  14.430  22.928  0.00  0.00     0.167 HD
ENDBRANCH  45  47
ENDBRANCH  44  45
ENDBRANCH  43  44
ENDBRANCH  27  43
BRANCH  24  49
ATOM     49  C   UNK d   0       6.191  12.524  19.519  0.00  0.00     0.052 C 
BRANCH  49  50
ATOM     50  C   UNK d   0       5.437  13.575  20.292  0.00  0.00     0.115 C 
BRANCH  50  51
ATOM     51  C   UNK d   0       5.314  14.891  19.680  0.00  0.00     0.139 C 
ATOM     52  O   UNK d   0       4.645  15.817  20.196  0.00  0.00    -0.650 OA
BRANCH  51  53
ATOM     53  O   UNK d   0       5.953  15.151  18.477  0.00  0.00    -0.776 OA
ATOM     54  H   UNK d   0       5.712  15.992  17.983  0.00  0.00     0.167 HD
ENDBRANCH  51  53
ENDBRANCH  50  51
ENDBRANCH  49  50
ENDBRANCH  24  49
BRANCH  21  55
ATOM     55  C   UNK d   0       8.721  11.217  20.717  0.00  0.00     0.151 C 
BRANCH  55  56
ATOM     56  C   UNK d   0       9.007  12.241  21.734  0.00  0.00     0.143 C 
ATOM     57  O   UNK d   0       8.843  13.460  21.529  0.00  0.00    -0.650 OA
BRANCH  56  58
ATOM     58  O   UNK d   0       9.482  11.812  22.972  0.00  0.00    -0.776 OA
ATOM     59  H   UNK d   0      10.331  11.220  22.932  0.00  0.00     0.167 HD
ENDBRANCH  56  58
ENDBRANCH  55  56
ENDBRANCH  21  55
BRANCH  18  60
ATOM     60  C   UNK d   0       9.212   6.001  21.881  0.00  0.00     0.151 C 
BRANCH  60  61
ATOM     61  C   UNK d   0      10.164   6.375  22.937  0.00  0.00     0.143 C 
ATOM     62  O   UNK d   0      10.043   6.185  24.147  0.00  0.00    -0.650 OA
BRANCH  61  63
ATOM     63  O   UNK d   0      11.340   7.023  22.486  0.00  0.00    -0.776 OA
ATOM     64  H   UNK d   0      12.127   7.151  23.096  0.00  0.00     0.167 HD
ENDBRANCH  61  63
ENDBRANCH  60  61
ENDBRANCH  18  60
BRANCH  14  65
ATOM     65  C   UNK d   0       7.646   3.717  23.122  0.00  0.00     0.052 C 
BRANCH  65  66
ATOM     66  C   UNK d   0       6.621   2.669  22.866  0.00  0.00     0.115 C 
BRANCH  66  67
ATOM     67  C   UNK d   0       6.487   1.567  23.776  0.00  0.00     0.139 C 
ATOM     68  O   UNK d   0       6.377   1.818  25.032  0.00  0.00    -0.650 OA
BRANCH  67  69
ATOM     69  O   UNK d   0       6.460   0.207  23.471  0.00  0.00    -0.776 OA
ATOM     70  H   UNK d   0       5.711  -0.339  23.921  0.00  0.00     0.167 HD
ENDBRANCH  67  69
ENDBRANCH  66  67
ENDBRANCH  65  66
ENDBRANCH  14  65
ENDBRANCH   6   7
ENDBRANCH   5   6
ENDBRANCH   2   5
TORSDOF 28
ENDMDL
MODEL 4
REMARK VINA RESULT:     -10.4      1.252      1.612
REMARK  28 active torsions:
REMARK  status: ('A' for Active; 'I' for Inactive)
REMARK    1  A    between atoms: C_2  and  O_3 
REMARK    2  A    between atoms: C_2  and  C_4 
REMARK    3  A    between atoms: C_4  and  C_5 
REMARK    4  A    between atoms: C_5  and  C_6 
REMARK    5  A    between atoms: C_7  and  C_8 
REMARK    6  A    between atoms: C_8  and  C_9 
REMARK    7  A    between atoms: C_9  and  O_11 
REMARK    8  A    between atoms: C_28  and  C_29 
REMARK    9  A    between atoms: C_29  and  C_30 
REMARK   10  A    between atoms: C_30  and  O_32 
REMARK   11  A    between atoms: C_33  and  C_34 
REMARK   12  A    between atoms: C_34  and  C_35 
REMARK   13  A    between atoms: C_35  and  C_36 
REMARK   14  A    between atoms: C_36  and  O_38 
REMARK   15  A    between atoms: C_39  and  C_40 
REMARK   16  A    between atoms: C_40  and  C_41 
REMARK   17  A    between atoms: C_41  and  C_42 
REMARK   18  A    between atoms: C_42  and  O_44 
REMARK   19  A    between atoms: C_45  and  C_46 
REMARK   20  A    between atoms: C_46  and  C_47 
REMARK   21  A    between atoms: C_47  and  O_49 
REMARK   22  A    between atoms: C_50  and  C_51 
REMARK   23  A    between atoms: C_51  and  C_52 
REMARK   24  A    between atoms: C_52  and  O_54 
REMARK   25  A    between atoms: C_55  and  C_56 
REMARK   26  A    between atoms: C_56  and  C_57 
REMARK   27  A    between atoms: C_57  and  C_58 
REMARK   28  A    between atoms: C_58  and  O_60 
ROOT
ATOM      1  O   UNK d   0      -1.487   3.865  25.488  0.00  0.00    -0.650 OA
ATOM      2  C   UNK d   0      -0.624   4.738  25.730  0.00  0.00     0.139 C 
ENDROOT
BRANCH   2   3
ATOM      3  O   UNK d   0       0.468   4.411  26.497  0.00  0.00    -0.776 OA
ATOM      4  H   UNK d   0       0.947   3.516  26.380  0.00  0.00     0.167 HD
ENDBRANCH   2   3
BRANCH   2   5
ATOM      5  C   UNK d   0      -0.783   6.117  25.189  0.00  0.00     0.115 C 
BRANCH   5   6
ATOM      6  C   UNK d   0      -0.899   6.075  23.689  0.00  0.00     0.052 C 
BRANCH   6   7
ATOM      7  C   UNK d   0       0.242   6.782  22.998  0.00  0.00    -0.020 A 
ATOM      8  C   UNK d   0       0.178   7.838  22.227  0.00  0.00    -0.011 A 
ATOM      9  C   UNK d   0       1.527   8.150  21.786  0.00  0.00     0.067 A 
ATOM     10  C   UNK d   0       2.130   9.135  20.989  0.00  0.00     0.062 C 
ATOM     11  N   UNK d   0       2.350   7.229  22.332  0.00  0.00    -0.248 NA
ATOM     12  C   UNK d   0       3.493   9.439  20.902  0.00  0.00     0.041 A 
ATOM     13  N   UNK d   0       4.575   8.641  20.831  0.00  0.00    -0.355 N 
ATOM     14  C   UNK d   0       3.894  10.786  20.943  0.00  0.00    -0.022 A 
ATOM     15  C   UNK d   0       5.653   9.448  20.834  0.00  0.00     0.042 A 
ATOM     16  H   UNK d   0       4.577   7.531  20.760  0.00  0.00     0.166 HD
ATOM     17  C   UNK d   0       7.027   9.137  20.774  0.00  0.00     0.062 C 
ATOM     18  C   UNK d   0       5.266  10.800  20.904  0.00  0.00    -0.013 A 
ATOM     19  C   UNK d   0       7.723   8.173  21.458  0.00  0.00     0.067 A 
ATOM     20  N   UNK d   0       7.005   7.267  22.126  0.00  0.00    -0.248 NA
ATOM     21  C   UNK d   0       9.124   7.856  21.679  0.00  0.00    -0.011 A 
ATOM     22  C   UNK d   0       7.834   6.382  22.769  0.00  0.00     0.066 A 
ATOM     23  C   UNK d   0       7.217   5.360  23.475  0.00  0.00     0.062 C 
ATOM     24  C   UNK d   0       9.183   6.809  22.451  0.00  0.00    -0.020 A 
ATOM     25  C   UNK d   0       5.846   5.065  23.539  0.00  0.00     0.041 A 
ATOM     26  N   UNK d   0       4.771   5.857  23.625  0.00  0.00    -0.355 N 
ATOM     27  C   UNK d   0       5.444   3.712  23.493  0.00  0.00    -0.022 A 
ATOM     28  C   UNK d   0       3.694   5.055  23.631  0.00  0.00     0.042 A 
ATOM     29  H   UNK d   0       4.771   6.972  23.707  0.00  0.00     0.166 HD
ATOM     30  C   UNK d   0       2.324   5.349  23.699  0.00  0.00     0.062 C 
ATOM     31  C   UNK d   0       4.084   3.697  23.550  0.00  0.00    -0.013 A 
ATOM     32  C   UNK d   0       1.638   6.378  23.072  0.00  0.00     0.066 A 
BRANCH   8  33
ATOM     33  C   UNK d   0      -1.035   8.589  21.854  0.00  0.00     0.151 C 
BRANCH  33  34
ATOM     34  C   UNK d   0      -1.112   9.909  22.506  0.00  0.00     0.143 C 
ATOM     35  O   UNK d   0      -1.541  10.897  21.893  0.00  0.00    -0.650 OA
BRANCH  34  36
ATOM     36  O   UNK d   0      -0.699  10.043  23.811  0.00  0.00    -0.776 OA
ATOM     37  H   UNK d   0      -0.235   9.269  24.307  0.00  0.00     0.167 HD
ENDBRANCH  34  36
ENDBRANCH  33  34
ENDBRANCH   8  33
BRANCH  31  38
ATOM     38  C   UNK d   0       3.205   2.469  23.516  0.00  0.00     0.151 C 
BRANCH  38  39
ATOM     39  C   UNK d   0       2.996   1.891  24.827  0.00  0.00     0.143 C 
ATOM     40  O   UNK d   0       2.928   2.585  25.857  0.00  0.00    -0.650 OA
BRANCH  39  41
ATOM     41  O   UNK d   0       2.865   0.508  24.954  0.00  0.00    -0.776 OA
ATOM     42  H   UNK d   0       2.441   0.010  24.165  0.00  0.00     0.167 HD
ENDBRANCH  39  41
ENDBRANCH  38  39
ENDBRANCH  31  38
BRANCH  27  43
ATOM     43  C   UNK d   0       6.286   2.465  23.401  0.00  0.00     0.052 C 
BRANCH  43  44
ATOM     44  C   UNK d   0       6.480   1.784  24.718  0.00  0.00     0.115 C 
BRANCH  44  45
ATOM     45  C   UNK d   0       6.326   0.327  24.469  0.00  0.00     0.139 C 
ATOM     46  O   UNK d   0       5.619  -0.036  23.496  0.00  0.00    -0.650 OA
BRANCH  45  47
ATOM     47  O   UNK d   0       6.927  -0.633  25.254  0.00  0.00    -0.776 OA
ATOM     48  H   UNK d   0       6.581  -0.885  26.194  0.00  0.00     0.167 HD
ENDBRANCH  45  47
ENDBRANCH  44  45
ENDBRANCH  43  44
ENDBRANCH  27  43
BRANCH  24  49
ATOM     49  C   UNK d   0      10.409   6.126  22.896  0.00  0.00     0.052 C 
BRANCH  49  50
ATOM     50  C   UNK d   0      10.485   6.113  24.401  0.00  0.00     0.115 C 
BRANCH  50  51
ATOM     51  C   UNK d   0      11.079   7.275  25.047  0.00  0.00     0.139 C 
ATOM     52  O   UNK d   0      11.904   8.022  24.469  0.00  0.00    -0.650 OA
BRANCH  51  53
ATOM     53  O   UNK d   0      10.734   7.586  26.353  0.00  0.00    -0.776 OA
ATOM     54  H   UNK d   0      11.386   8.115  26.904  0.00  0.00     0.167 HD
ENDBRANCH  51  53
ENDBRANCH  50  51
ENDBRANCH  49  50
ENDBRANCH  24  49
BRANCH  21  55
ATOM     55  C   UNK d   0      10.258   8.629  21.092  0.00  0.00     0.151 C 
BRANCH  55  56
ATOM     56  C   UNK d   0      10.343   9.989  21.646  0.00  0.00     0.143 C 
ATOM     57  O   UNK d   0       9.877  10.987  21.061  0.00  0.00    -0.650 OA
BRANCH  56  58
ATOM     58  O   UNK d   0      10.975  10.150  22.878  0.00  0.00    -0.776 OA
ATOM     59  H   UNK d   0      11.492   9.318  23.215  0.00  0.00     0.167 HD
ENDBRANCH  56  58
ENDBRANCH  55  56
ENDBRANCH  21  55
BRANCH  18  60
ATOM     60  C   UNK d   0       6.119  12.044  20.936  0.00  0.00     0.151 C 
BRANCH  60  61
ATOM     61  C   UNK d   0       6.362  12.403  19.531  0.00  0.00     0.143 C 
ATOM     62  O   UNK d   0       6.880  11.699  18.663  0.00  0.00    -0.650 OA
BRANCH  61  63
ATOM     63  O   UNK d   0       5.947  13.705  19.161  0.00  0.00    -0.776 OA
ATOM     64  H   UNK d   0       6.050  14.034  18.218  0.00  0.00     0.167 HD
ENDBRANCH  61  63
ENDBRANCH  60  61
ENDBRANCH  18  60
BRANCH  14  65
ATOM     65  C   UNK d   0       3.085  12.052  20.918  0.00  0.00     0.052 C 
BRANCH  65  66
ATOM     66  C   UNK d   0       2.531  12.415  22.250  0.00  0.00     0.115 C 
BRANCH  66  67
ATOM     67  C   UNK d   0       2.315  13.796  22.579  0.00  0.00     0.139 C 
ATOM     68  O   UNK d   0       2.036  14.616  21.629  0.00  0.00    -0.650 OA
BRANCH  67  69
ATOM     69  O   UNK d   0       2.371  14.391  23.839  0.00  0.00    -0.776 OA
ATOM     70  H   UNK d   0       1.620  14.126  24.493  0.00  0.00     0.167 HD
ENDBRANCH  67  69
ENDBRANCH  66  67
ENDBRANCH  65  66
ENDBRANCH  14  65
ENDBRANCH   6   7
ENDBRANCH   5   6
ENDBRANCH   2   5
TORSDOF 28
ENDMDL
MODEL 5
REMARK VINA RESULT:     -10.3      1.534      7.625
REMARK  28 active torsions:
REMARK  status: ('A' for Active; 'I' for Inactive)
REMARK    1  A    between atoms: C_2  and  O_3 
REMARK    2  A    between atoms: C_2  and  C_4 
REMARK    3  A    between atoms: C_4  and  C_5 
REMARK    4  A    between atoms: C_5  and  C_6 
REMARK    5  A    between atoms: C_7  and  C_8 
REMARK    6  A    between atoms: C_8  and  C_9 
REMARK    7  A    between atoms: C_9  and  O_11 
REMARK    8  A    between atoms: C_28  and  C_29 
REMARK    9  A    between atoms: C_29  and  C_30 
REMARK   10  A    between atoms: C_30  and  O_32 
REMARK   11  A    between atoms: C_33  and  C_34 
REMARK   12  A    between atoms: C_34  and  C_35 
REMARK   13  A    between atoms: C_35  and  C_36 
REMARK   14  A    between atoms: C_36  and  O_38 
REMARK   15  A    between atoms: C_39  and  C_40 
REMARK   16  A    between atoms: C_40  and  C_41 
REMARK   17  A    between atoms: C_41  and  C_42 
REMARK   18  A    between atoms: C_42  and  O_44 
REMARK   19  A    between atoms: C_45  and  C_46 
REMARK   20  A    between atoms: C_46  and  C_47 
REMARK   21  A    between atoms: C_47  and  O_49 
REMARK   22  A    between atoms: C_50  and  C_51 
REMARK   23  A    between atoms: C_51  and  C_52 
REMARK   24  A    between atoms: C_52  and  O_54 
REMARK   25  A    between atoms: C_55  and  C_56 
REMARK   26  A    between atoms: C_56  and  C_57 
REMARK   27  A    between atoms: C_57  and  C_58 
REMARK   28  A    between atoms: C_58  and  O_60 
ROOT
ATOM      1  O   UNK d   0      -0.932  11.116  21.731  0.00  0.00    -0.650 OA
ATOM      2  C   UNK d   0      -1.271  10.144  22.442  0.00  0.00     0.139 C 
ENDROOT
BRANCH   2   3
ATOM      3  O   UNK d   0      -0.862  10.093  23.753  0.00  0.00    -0.776 OA
ATOM      4  H   UNK d   0      -1.533  10.179  24.519  0.00  0.00     0.167 HD
ENDBRANCH   2   3
BRANCH   2   5
ATOM      5  C   UNK d   0      -2.110   9.054  21.868  0.00  0.00     0.115 C 
BRANCH   5   6
ATOM      6  C   UNK d   0      -1.278   8.179  20.969  0.00  0.00     0.052 C 
BRANCH   6   7
ATOM      7  C   UNK d   0      -0.084   7.586  21.679  0.00  0.00    -0.020 A 
ATOM      8  C   UNK d   0      -0.072   6.584  22.520  0.00  0.00    -0.011 A 
ATOM      9  C   UNK d   0       1.302   6.379  22.948  0.00  0.00     0.067 A 
ATOM     10  C   UNK d   0       1.976   5.485  23.795  0.00  0.00     0.062 C 
ATOM     11  N   UNK d   0       2.059   7.305  22.322  0.00  0.00    -0.248 NA
ATOM     12  C   UNK d   0       3.355   5.265  23.869  0.00  0.00     0.041 A 
ATOM     13  N   UNK d   0       4.392   6.125  23.860  0.00  0.00    -0.355 N 
ATOM     14  C   UNK d   0       3.833   3.942  23.908  0.00  0.00    -0.022 A 
ATOM     15  C   UNK d   0       5.514   5.381  23.885  0.00  0.00     0.042 A 
ATOM     16  H   UNK d   0       4.331   7.235  23.857  0.00  0.00     0.166 HD
ATOM     17  C   UNK d   0       6.868   5.772  23.891  0.00  0.00     0.062 C 
ATOM     18  C   UNK d   0       5.204   4.008  23.915  0.00  0.00    -0.013 A 
ATOM     19  C   UNK d   0       7.494   6.724  23.128  0.00  0.00     0.067 A 
ATOM     20  N   UNK d   0       6.712   7.541  22.418  0.00  0.00    -0.248 NA
ATOM     21  C   UNK d   0       8.870   7.103  22.852  0.00  0.00    -0.011 A 
ATOM     22  C   UNK d   0       7.476   8.425  21.697  0.00  0.00     0.066 A 
ATOM     23  C   UNK d   0       6.786   9.361  20.939  0.00  0.00     0.062 C 
ATOM     24  C   UNK d   0       8.852   8.097  22.011  0.00  0.00    -0.020 A 
ATOM     25  C   UNK d   0       5.400   9.573  20.889  0.00  0.00     0.041 A 
ATOM     26  N   UNK d   0       4.370   8.718  20.882  0.00  0.00    -0.355 N 
ATOM     27  C   UNK d   0       4.922  10.901  20.854  0.00  0.00    -0.022 A 
ATOM     28  C   UNK d   0       3.250   9.457  20.848  0.00  0.00     0.042 A 
ATOM     29  H   UNK d   0       4.433   7.602  20.875  0.00  0.00     0.166 HD
ATOM     30  C   UNK d   0       1.897   9.082  20.833  0.00  0.00     0.062 C 
ATOM     31  C   UNK d   0       3.562  10.837  20.829  0.00  0.00    -0.013 A 
ATOM     32  C   UNK d   0       1.285   8.062  21.544  0.00  0.00     0.066 A 
BRANCH   8  33
ATOM     33  C   UNK d   0      -1.232   5.793  22.971  0.00  0.00     0.151 C 
BRANCH  33  34
ATOM     34  C   UNK d   0      -1.986   6.453  24.052  0.00  0.00     0.143 C 
ATOM     35  O   UNK d   0      -3.187   6.206  24.233  0.00  0.00    -0.650 OA
BRANCH  34  36
ATOM     36  O   UNK d   0      -1.346   7.356  24.868  0.00  0.00    -0.776 OA
ATOM     37  H   UNK d   0      -0.322   7.454  24.857  0.00  0.00     0.167 HD
ENDBRANCH  34  36
ENDBRANCH  33  34
ENDBRANCH   8  33
BRANCH  31  38
ATOM     38  C   UNK d   0       2.615  12.014  20.802  0.00  0.00     0.151 C 
BRANCH  38  39
ATOM     39  C   UNK d   0       2.402  12.594  22.110  0.00  0.00     0.143 C 
ATOM     40  O   UNK d   0       2.110  11.906  23.104  0.00  0.00    -0.650 OA
BRANCH  39  41
ATOM     41  O   UNK d   0       2.527  13.973  22.278  0.00  0.00    -0.776 OA
ATOM     42  H   UNK d   0       1.883  14.563  21.743  0.00  0.00     0.167 HD
ENDBRANCH  39  41
ENDBRANCH  38  39
ENDBRANCH  31  38
BRANCH  27  43
ATOM     43  C   UNK d   0       5.693  12.198  20.841  0.00  0.00     0.052 C 
BRANCH  43  44
ATOM     44  C   UNK d   0       5.722  12.855  19.500  0.00  0.00     0.115 C 
BRANCH  44  45
ATOM     45  C   UNK d   0       5.475  14.302  19.730  0.00  0.00     0.139 C 
ATOM     46  O   UNK d   0       5.050  14.657  20.858  0.00  0.00    -0.650 OA
BRANCH  45  47
ATOM     47  O   UNK d   0       5.696  15.261  18.766  0.00  0.00    -0.776 OA
ATOM     48  H   UNK d   0       6.642  15.539  18.459  0.00  0.00     0.167 HD
ENDBRANCH  45  47
ENDBRANCH  44  45
ENDBRANCH  43  44
ENDBRANCH  27  43
BRANCH  24  49
ATOM     49  C   UNK d   0      10.028   8.816  21.492  0.00  0.00     0.052 C 
BRANCH  49  50
ATOM     50  C   UNK d   0      10.467   8.224  20.177  0.00  0.00     0.115 C 
BRANCH  50  51
ATOM     51  C   UNK d   0      10.191   8.997  18.974  0.00  0.00     0.139 C 
ATOM     52  O   UNK d   0      10.849  10.017  18.660  0.00  0.00    -0.650 OA
BRANCH  51  53
ATOM     53  O   UNK d   0       9.162   8.610  18.130  0.00  0.00    -0.776 OA
ATOM     54  H   UNK d   0       9.206   8.891  17.166  0.00  0.00     0.167 HD
ENDBRANCH  51  53
ENDBRANCH  50  51
ENDBRANCH  49  50
ENDBRANCH  24  49
BRANCH  21  55
ATOM     55  C   UNK d   0      10.058   6.437  23.462  0.00  0.00     0.151 C 
BRANCH  55  56
ATOM     56  C   UNK d   0      10.298   6.889  24.841  0.00  0.00     0.143 C 
ATOM     57  O   UNK d   0      10.954   7.915  25.110  0.00  0.00    -0.650 OA
BRANCH  56  58
ATOM     58  O   UNK d   0       9.760   6.127  25.877  0.00  0.00    -0.776 OA
ATOM     59  H   UNK d   0       8.993   6.584  26.402  0.00  0.00     0.167 HD
ENDBRANCH  56  58
ENDBRANCH  55  56
ENDBRANCH  21  55
BRANCH  18  60
ATOM     60  C   UNK d   0       6.126   2.815  23.946  0.00  0.00     0.151 C 
BRANCH  60  61
ATOM     61  C   UNK d   0       6.329   2.425  22.542  0.00  0.00     0.143 C 
ATOM     62  O   UNK d   0       5.909   1.410  21.986  0.00  0.00    -0.650 OA
BRANCH  61  63
ATOM     63  O   UNK d   0       7.093   3.332  21.769  0.00  0.00    -0.776 OA
ATOM     64  H   UNK d   0       6.934   4.322  21.825  0.00  0.00     0.167 HD
ENDBRANCH  61  63
ENDBRANCH  60  61
ENDBRANCH  18  60
BRANCH  14  65
ATOM     65  C   UNK d   0       3.098   2.638  24.038  0.00  0.00     0.052 C 
BRANCH  65  66
ATOM     66  C   UNK d   0       2.802   2.275  25.450  0.00  0.00     0.115 C 
BRANCH  66  67
ATOM     67  C   UNK d   0       1.441   2.085  25.865  0.00  0.00     0.139 C 
ATOM     68  O   UNK d   0       1.188   1.184  26.747  0.00  0.00    -0.650 OA
BRANCH  67  69
ATOM     69  O   UNK d   0       0.311   2.773  25.424  0.00  0.00    -0.776 OA
ATOM     70  H   UNK d   0       0.092   2.679  24.422  0.00  0.00     0.167 HD
ENDBRANCH  67  69
ENDBRANCH  66  67
ENDBRANCH  65  66
ENDBRANCH  14  65
ENDBRANCH   6   7
ENDBRANCH   5   6
ENDBRANCH   2   5
TORSDOF 28
ENDMDL
MODEL 6
REMARK VINA RESULT:     -10.2      1.744      7.492
REMARK  28 active torsions:
REMARK  status: ('A' for Active; 'I' for Inactive)
REMARK    1  A    between atoms: C_2  and  O_3 
REMARK    2  A    between atoms: C_2  and  C_4 
REMARK    3  A    between atoms: C_4  and  C_5 
REMARK    4  A    between atoms: C_5  and  C_6 
REMARK    5  A    between atoms: C_7  and  C_8 
REMARK    6  A    between atoms: C_8  and  C_9 
REMARK    7  A    between atoms: C_9  and  O_11 
REMARK    8  A    between atoms: C_28  and  C_29 
REMARK    9  A    between atoms: C_29  and  C_30 
REMARK   10  A    between atoms: C_30  and  O_32 
REMARK   11  A    between atoms: C_33  and  C_34 
REMARK   12  A    between atoms: C_34  and  C_35 
REMARK   13  A    between atoms: C_35  and  C_36 
REMARK   14  A    between atoms: C_36  and  O_38 
REMARK   15  A    between atoms: C_39  and  C_40 
REMARK   16  A    between atoms: C_40  and  C_41 
REMARK   17  A    between atoms: C_41  and  C_42 
REMARK   18  A    between atoms: C_42  and  O_44 
REMARK   19  A    between atoms: C_45  and  C_46 
REMARK   20  A    between atoms: C_46  and  C_47 
REMARK   21  A    between atoms: C_47  and  O_49 
REMARK   22  A    between atoms: C_50  and  C_51 
REMARK   23  A    between atoms: C_51  and  C_52 
REMARK   24  A    between atoms: C_52  and  O_54 
REMARK   25  A    between atoms: C_55  and  C_56 
REMARK   26  A    between atoms: C_56  and  C_57 
REMARK   27  A    between atoms: C_57  and  C_58 
REMARK   28  A    between atoms: C_58  and  O_60 
ROOT
ATOM      1  O   UNK d   0      -1.031  10.114  23.722  0.00  0.00    -0.650 OA
ATOM      2  C   UNK d   0      -1.384  10.126  22.522  0.00  0.00     0.139 C 
ENDROOT
BRANCH   2   3
ATOM      3  O   UNK d   0      -0.980  11.159  21.711  0.00  0.00    -0.776 OA
ATOM      4  H   UNK d   0       0.008  11.408  21.626  0.00  0.00     0.167 HD
ENDBRANCH   2   3
BRANCH   2   5
ATOM      5  C   UNK d   0      -2.237   9.029  21.982  0.00  0.00     0.115 C 
BRANCH   5   6
ATOM      6  C   UNK d   0      -1.430   8.150  21.065  0.00  0.00     0.052 C 
BRANCH   6   7
ATOM      7  C   UNK d   0      -0.232   7.538  21.752  0.00  0.00    -0.020 A 
ATOM      8  C   UNK d   0      -0.222   6.547  22.606  0.00  0.00    -0.011 A 
ATOM      9  C   UNK d   0       1.157   6.315  23.003  0.00  0.00     0.067 A 
ATOM     10  C   UNK d   0       1.831   5.417  23.844  0.00  0.00     0.062 C 
ATOM     11  N   UNK d   0       1.919   7.214  22.346  0.00  0.00    -0.248 NA
ATOM     12  C   UNK d   0       3.207   5.165  23.887  0.00  0.00     0.041 A 
ATOM     13  N   UNK d   0       4.262   6.000  23.840  0.00  0.00    -0.355 N 
ATOM     14  C   UNK d   0       3.654   3.832  23.932  0.00  0.00    -0.022 A 
ATOM     15  C   UNK d   0       5.367   5.231  23.847  0.00  0.00     0.042 A 
ATOM     16  H   UNK d   0       4.227   7.112  23.823  0.00  0.00     0.166 HD
ATOM     17  C   UNK d   0       6.730   5.589  23.813  0.00  0.00     0.062 C 
ATOM     18  C   UNK d   0       5.026   3.866  23.904  0.00  0.00    -0.013 A 
ATOM     19  C   UNK d   0       7.358   6.516  23.022  0.00  0.00     0.067 A 
ATOM     20  N   UNK d   0       6.577   7.341  22.321  0.00  0.00    -0.248 NA
ATOM     21  C   UNK d   0       8.735   6.859  22.707  0.00  0.00    -0.011 A 
ATOM     22  C   UNK d   0       7.343   8.198  21.568  0.00  0.00     0.066 A 
ATOM     23  C   UNK d   0       6.656   9.140  20.816  0.00  0.00     0.062 C 
ATOM     24  C   UNK d   0       8.719   7.841  21.852  0.00  0.00    -0.020 A 
ATOM     25  C   UNK d   0       5.274   9.384  20.797  0.00  0.00     0.041 A 
ATOM     26  N   UNK d   0       4.225   8.554  20.828  0.00  0.00    -0.355 N 
ATOM     27  C   UNK d   0       4.827  10.723  20.756  0.00  0.00    -0.022 A 
ATOM     28  C   UNK d   0       3.122   9.319  20.813  0.00  0.00     0.042 A 
ATOM     29  H   UNK d   0       4.262   7.437  20.835  0.00  0.00     0.166 HD
ATOM     30  C   UNK d   0       1.761   8.976  20.837  0.00  0.00     0.062 C 
ATOM     31  C   UNK d   0       3.466  10.691  20.766  0.00  0.00    -0.013 A 
ATOM     32  C   UNK d   0       1.143   7.980  21.576  0.00  0.00     0.066 A 
BRANCH   8  33
ATOM     33  C   UNK d   0      -1.389   5.790  23.098  0.00  0.00     0.151 C 
BRANCH  33  34
ATOM     34  C   UNK d   0      -2.098   6.481  24.190  0.00  0.00     0.143 C 
ATOM     35  O   UNK d   0      -3.305   6.282  24.391  0.00  0.00    -0.650 OA
BRANCH  34  36
ATOM     36  O   UNK d   0      -1.409   7.359  24.994  0.00  0.00    -0.776 OA
ATOM     37  H   UNK d   0      -0.870   7.029  25.806  0.00  0.00     0.167 HD
ENDBRANCH  34  36
ENDBRANCH  33  34
ENDBRANCH   8  33
BRANCH  31  38
ATOM     38  C   UNK d   0       2.546  11.889  20.747  0.00  0.00     0.151 C 
BRANCH  38  39
ATOM     39  C   UNK d   0       2.267  12.405  22.070  0.00  0.00     0.143 C 
ATOM     40  O   UNK d   0       2.521  13.579  22.394  0.00  0.00    -0.650 OA
BRANCH  39  41
ATOM     41  O   UNK d   0       1.694  11.567  23.027  0.00  0.00    -0.776 OA
ATOM     42  H   UNK d   0       1.404  10.637  22.711  0.00  0.00     0.167 HD
ENDBRANCH  39  41
ENDBRANCH  38  39
ENDBRANCH  31  38
BRANCH  27  43
ATOM     43  C   UNK d   0       5.627  12.000  20.707  0.00  0.00     0.052 C 
BRANCH  43  44
ATOM     44  C   UNK d   0       5.433  12.770  19.441  0.00  0.00     0.115 C 
BRANCH  44  45
ATOM     45  C   UNK d   0       5.471  14.210  19.810  0.00  0.00     0.139 C 
ATOM     46  O   UNK d   0       5.315  14.515  21.018  0.00  0.00    -0.650 OA
BRANCH  45  47
ATOM     47  O   UNK d   0       5.673  15.213  18.887  0.00  0.00    -0.776 OA
ATOM     48  H   UNK d   0       5.391  15.128  17.897  0.00  0.00     0.167 HD
ENDBRANCH  45  47
ENDBRANCH  44  45
ENDBRANCH  43  44
ENDBRANCH  27  43
BRANCH  24  49
ATOM     49  C   UNK d   0       9.898   8.525  21.294  0.00  0.00     0.052 C 
BRANCH  49  50
ATOM     50  C   UNK d   0       9.683  10.017  21.285  0.00  0.00     0.115 C 
BRANCH  50  51
ATOM     51  C   UNK d   0      10.188  10.768  22.426  0.00  0.00     0.139 C 
ATOM     52  O   UNK d   0      11.219  10.431  23.055  0.00  0.00    -0.650 OA
BRANCH  51  53
ATOM     53  O   UNK d   0       9.517  11.904  22.853  0.00  0.00    -0.776 OA
ATOM     54  H   UNK d   0       8.759  11.791  23.503  0.00  0.00     0.167 HD
ENDBRANCH  51  53
ENDBRANCH  50  51
ENDBRANCH  49  50
ENDBRANCH  24  49
BRANCH  21  55
ATOM     55  C   UNK d   0       9.922   6.172  23.295  0.00  0.00     0.151 C 
BRANCH  55  56
ATOM     56  C   UNK d   0      10.292   6.734  24.603  0.00  0.00     0.143 C 
ATOM     57  O   UNK d   0      10.042   6.157  25.680  0.00  0.00    -0.650 OA
BRANCH  56  58
ATOM     58  O   UNK d   0      10.948   7.963  24.620  0.00  0.00    -0.776 OA
ATOM     59  H   UNK d   0      11.041   8.396  25.557  0.00  0.00     0.167 HD
ENDBRANCH  56  58
ENDBRANCH  55  56
ENDBRANCH  21  55
BRANCH  18  60
ATOM     60  C   UNK d   0       5.920   2.651  23.928  0.00  0.00     0.151 C 
BRANCH  60  61
ATOM     61  C   UNK d   0       6.128   2.275  22.521  0.00  0.00     0.143 C 
ATOM     62  O   UNK d   0       5.681   1.283  21.945  0.00  0.00    -0.650 OA
BRANCH  61  63
ATOM     63  O   UNK d   0       6.931   3.167  21.771  0.00  0.00    -0.776 OA
ATOM     64  H   UNK d   0       6.787   4.160  21.818  0.00  0.00     0.167 HD
ENDBRANCH  61  63
ENDBRANCH  60  61
ENDBRANCH  18  60
BRANCH  14  65
ATOM     65  C   UNK d   0       2.892   2.548  24.098  0.00  0.00     0.052 C 
BRANCH  65  66
ATOM     66  C   UNK d   0       2.863   2.067  25.505  0.00  0.00     0.115 C 
BRANCH  66  67
ATOM     67  C   UNK d   0       1.722   2.348  26.330  0.00  0.00     0.139 C 
ATOM     68  O   UNK d   0       0.961   1.372  26.680  0.00  0.00    -0.650 OA
BRANCH  67  69
ATOM     69  O   UNK d   0       1.309   3.586  26.822  0.00  0.00    -0.776 OA
ATOM     70  H   UNK d   0       1.922   4.013  27.531  0.00  0.00     0.167 HD
ENDBRANCH  67  69
ENDBRANCH  66  67
ENDBRANCH  65  66
ENDBRANCH  14  65
ENDBRANCH   6   7
ENDBRANCH   5   6
ENDBRANCH   2   5
TORSDOF 28
ENDMDL
MODEL 7
REMARK VINA RESULT:     -10.1      1.677      7.452
REMARK  28 active torsions:
REMARK  status: ('A' for Active; 'I' for Inactive)
REMARK    1  A    between atoms: C_2  and  O_3 
REMARK    2  A    between atoms: C_2  and  C_4 
REMARK    3  A    between atoms: C_4  and  C_5 
REMARK    4  A    between atoms: C_5  and  C_6 
REMARK    5  A    between atoms: C_7  and  C_8 
REMARK    6  A    between atoms: C_8  and  C_9 
REMARK    7  A    between atoms: C_9  and  O_11 
REMARK    8  A    between atoms: C_28  and  C_29 
REMARK    9  A    between atoms: C_29  and  C_30 
REMARK   10  A    between atoms: C_30  and  O_32 
REMARK   11  A    between atoms: C_33  and  C_34 
REMARK   12  A    between atoms: C_34  and  C_35 
REMARK   13  A    between atoms: C_35  and  C_36 
REMARK   14  A    between atoms: C_36  and  O_38 
REMARK   15  A    between atoms: C_39  and  C_40 
REMARK   16  A    between atoms: C_40  and  C_41 
REMARK   17  A    between atoms: C_41  and  C_42 
REMARK   18  A    between atoms: C_42  and  O_44 
REMARK   19  A    between atoms: C_45  and  C_46 
REMARK   20  A    between atoms: C_46  and  C_47 
REMARK   21  A    between atoms: C_47  and  O_49 
REMARK   22  A    between atoms: C_50  and  C_51 
REMARK   23  A    between atoms: C_51  and  C_52 
REMARK   24  A    between atoms: C_52  and  O_54 
REMARK   25  A    between atoms: C_55  and  C_56 
REMARK   26  A    between atoms: C_56  and  C_57 
REMARK   27  A    between atoms: C_57  and  C_58 
REMARK   28  A    between atoms: C_58  and  O_60 
ROOT
ATOM      1  O   UNK d   0       1.783  16.011  20.323  0.00  0.00    -0.650 OA
ATOM      2  C   UNK d   0       2.295  14.874  20.423  0.00  0.00     0.139 C 
ENDROOT
BRANCH   2   3
ATOM      3  O   UNK d   0       3.333  14.527  19.593  0.00  0.00    -0.776 OA
ATOM      4  H   UNK d   0       4.262  14.937  19.710  0.00  0.00     0.167 HD
ENDBRANCH   2   3
BRANCH   2   5
ATOM      5  C   UNK d   0       1.779  13.908  21.435  0.00  0.00     0.115 C 
BRANCH   5   6
ATOM      6  C   UNK d   0       1.249  12.676  20.752  0.00  0.00     0.052 C 
BRANCH   6   7
ATOM      7  C   UNK d   0       1.581  11.408  21.501  0.00  0.00    -0.020 A 
ATOM      8  C   UNK d   0       0.801  10.725  22.298  0.00  0.00    -0.011 A 
ATOM      9  C   UNK d   0       1.557   9.587  22.793  0.00  0.00     0.067 A 
ATOM     10  C   UNK d   0       1.306   8.494  23.638  0.00  0.00     0.062 C 
ATOM     11  N   UNK d   0       2.790   9.658  22.250  0.00  0.00    -0.248 NA
ATOM     12  C   UNK d   0       2.079   7.337  23.780  0.00  0.00     0.041 A 
ATOM     13  N   UNK d   0       3.413   7.167  23.865  0.00  0.00    -0.355 N 
ATOM     14  C   UNK d   0       1.437   6.086  23.790  0.00  0.00    -0.022 A 
ATOM     15  C   UNK d   0       3.633   5.840  23.921  0.00  0.00     0.042 A 
ATOM     16  H   UNK d   0       4.181   7.970  23.904  0.00  0.00     0.166 HD
ATOM     17  C   UNK d   0       4.839   5.118  24.018  0.00  0.00     0.062 C 
ATOM     18  C   UNK d   0       2.418   5.129  23.876  0.00  0.00    -0.013 A 
ATOM     19  C   UNK d   0       6.012   5.302  23.332  0.00  0.00     0.067 A 
ATOM     20  N   UNK d   0       6.124   6.423  22.614  0.00  0.00    -0.248 NA
ATOM     21  C   UNK d   0       7.244   4.553  23.150  0.00  0.00    -0.011 A 
ATOM     22  C   UNK d   0       7.338   6.460  21.975  0.00  0.00     0.066 A 
ATOM     23  C   UNK d   0       7.603   7.594  21.220  0.00  0.00     0.062 C 
ATOM     24  C   UNK d   0       8.014   5.234  22.351  0.00  0.00    -0.020 A 
ATOM     25  C   UNK d   0       6.818   8.751  21.101  0.00  0.00     0.041 A 
ATOM     26  N   UNK d   0       5.494   8.919  21.001  0.00  0.00    -0.355 N 
ATOM     27  C   UNK d   0       7.463  10.007  21.096  0.00  0.00    -0.022 A 
ATOM     28  C   UNK d   0       5.272  10.241  20.936  0.00  0.00     0.042 A 
ATOM     29  H   UNK d   0       4.723   8.111  20.951  0.00  0.00     0.166 HD
ATOM     30  C   UNK d   0       4.079  10.973  20.830  0.00  0.00     0.062 C 
ATOM     31  C   UNK d   0       6.492  10.955  20.992  0.00  0.00    -0.013 A 
ATOM     32  C   UNK d   0       2.869  10.732  21.462  0.00  0.00     0.066 A 
BRANCH   8  33
ATOM     33  C   UNK d   0      -0.597  11.038  22.651  0.00  0.00     0.151 C 
BRANCH  33  34
ATOM     34  C   UNK d   0      -1.546  10.010  22.186  0.00  0.00     0.143 C 
ATOM     35  O   UNK d   0      -1.714   9.798  20.977  0.00  0.00    -0.650 OA
BRANCH  34  36
ATOM     36  O   UNK d   0      -2.255   9.279  23.111  0.00  0.00    -0.776 OA
ATOM     37  H   UNK d   0      -3.277   9.372  23.196  0.00  0.00     0.167 HD
ENDBRANCH  34  36
ENDBRANCH  33  34
ENDBRANCH   8  33
BRANCH  31  38
ATOM     38  C   UNK d   0       6.707  12.450  20.962  0.00  0.00     0.151 C 
BRANCH  38  39
ATOM     39  C   UNK d   0       6.506  13.020  19.646  0.00  0.00     0.143 C 
ATOM     40  O   UNK d   0       6.034  14.158  19.479  0.00  0.00    -0.650 OA
BRANCH  39  41
ATOM     41  O   UNK d   0       6.850  12.277  18.517  0.00  0.00    -0.776 OA
ATOM     42  H   UNK d   0       6.124  11.667  18.127  0.00  0.00     0.167 HD
ENDBRANCH  39  41
ENDBRANCH  38  39
ENDBRANCH  31  38
BRANCH  27  43
ATOM     43  C   UNK d   0       8.934  10.329  21.181  0.00  0.00     0.052 C 
BRANCH  43  44
ATOM     44  C   UNK d   0       9.596  10.423  19.844  0.00  0.00     0.115 C 
BRANCH  44  45
ATOM     45  C   UNK d   0      10.677   9.404  19.833  0.00  0.00     0.139 C 
ATOM     46  O   UNK d   0      11.255   9.142  20.917  0.00  0.00    -0.650 OA
BRANCH  45  47
ATOM     47  O   UNK d   0      11.064   8.737  18.691  0.00  0.00    -0.776 OA
ATOM     48  H   UNK d   0      11.305   7.733  18.683  0.00  0.00     0.167 HD
ENDBRANCH  45  47
ENDBRANCH  44  45
ENDBRANCH  43  44
ENDBRANCH  27  43
BRANCH  24  49
ATOM     49  C   UNK d   0       9.375   4.860  21.929  0.00  0.00     0.052 C 
BRANCH  49  50
ATOM     50  C   UNK d   0      10.302   6.044  22.037  0.00  0.00     0.115 C 
BRANCH  50  51
ATOM     51  C   UNK d   0      10.484   6.627  23.359  0.00  0.00     0.139 C 
ATOM     52  O   UNK d   0      10.821   5.948  24.357  0.00  0.00    -0.650 OA
BRANCH  51  53
ATOM     53  O   UNK d   0      10.279   7.986  23.544  0.00  0.00    -0.776 OA
ATOM     54  H   UNK d   0       9.593   8.446  22.971  0.00  0.00     0.167 HD
ENDBRANCH  51  53
ENDBRANCH  50  51
ENDBRANCH  49  50
ENDBRANCH  24  49
BRANCH  21  55
ATOM     55  C   UNK d   0       7.525   3.237  23.796  0.00  0.00     0.151 C 
BRANCH  55  56
ATOM     56  C   UNK d   0       6.466   2.253  23.526  0.00  0.00     0.143 C 
ATOM     57  O   UNK d   0       6.116   1.937  22.372  0.00  0.00    -0.650 OA
BRANCH  56  58
ATOM     58  O   UNK d   0       5.838   1.658  24.619  0.00  0.00    -0.776 OA
ATOM     59  H   UNK d   0       4.803   1.694  24.600  0.00  0.00     0.167 HD
ENDBRANCH  56  58
ENDBRANCH  55  56
ENDBRANCH  21  55
BRANCH  18  60
ATOM     60  C   UNK d   0       2.174   3.641  23.908  0.00  0.00     0.151 C 
BRANCH  60  61
ATOM     61  C   UNK d   0       2.229   3.253  25.326  0.00  0.00     0.143 C 
ATOM     62  O   UNK d   0       1.468   3.613  26.224  0.00  0.00    -0.650 OA
BRANCH  61  63
ATOM     63  O   UNK d   0       3.281   2.369  25.668  0.00  0.00    -0.776 OA
ATOM     64  H   UNK d   0       3.905   2.575  26.428  0.00  0.00     0.167 HD
ENDBRANCH  61  63
ENDBRANCH  60  61
ENDBRANCH  18  60
BRANCH  14  65
ATOM     65  C   UNK d   0      -0.023   5.733  23.823  0.00  0.00     0.052 C 
BRANCH  65  66
ATOM     66  C   UNK d   0      -0.628   5.630  22.468  0.00  0.00     0.115 C 
BRANCH  66  67
ATOM     67  C   UNK d   0      -1.902   6.239  22.210  0.00  0.00     0.139 C 
ATOM     68  O   UNK d   0      -2.763   6.288  23.164  0.00  0.00    -0.650 OA
BRANCH  67  69
ATOM     69  O   UNK d   0      -2.351   6.806  21.018  0.00  0.00    -0.776 OA
ATOM     70  H   UNK d   0      -2.447   6.159  20.222  0.00  0.00     0.167 HD
ENDBRANCH  67  69
ENDBRANCH  66  67
ENDBRANCH  65  66
ENDBRANCH  14  65
ENDBRANCH   6   7
ENDBRANCH   5   6
ENDBRANCH   2   5
TORSDOF 28
ENDMDL
MODEL 8
REMARK VINA RESULT:     -10.0      1.863      7.733
REMARK  28 active torsions:
REMARK  status: ('A' for Active; 'I' for Inactive)
REMARK    1  A    between atoms: C_2  and  O_3 
REMARK    2  A    between atoms: C_2  and  C_4 
REMARK    3  A    between atoms: C_4  and  C_5 
REMARK    4  A    between atoms: C_5  and  C_6 
REMARK    5  A    between atoms: C_7  and  C_8 
REMARK    6  A    between atoms: C_8  and  C_9 
REMARK    7  A    between atoms: C_9  and  O_11 
REMARK    8  A    between atoms: C_28  and  C_29 
REMARK    9  A    between atoms: C_29  and  C_30 
REMARK   10  A    between atoms: C_30  and  O_32 
REMARK   11  A    between atoms: C_33  and  C_34 
REMARK   12  A    between atoms: C_34  and  C_35 
REMARK   13  A    between atoms: C_35  and  C_36 
REMARK   14  A    between atoms: C_36  and  O_38 
REMARK   15  A    between atoms: C_39  and  C_40 
REMARK   16  A    between atoms: C_40  and  C_41 
REMARK   17  A    between atoms: C_41  and  C_42 
REMARK   18  A    between atoms: C_42  and  O_44 
REMARK   19  A    between atoms: C_45  and  C_46 
REMARK   20  A    between atoms: C_46  and  C_47 
REMARK   21  A    between atoms: C_47  and  O_49 
REMARK   22  A    between atoms: C_50  and  C_51 
REMARK   23  A    between atoms: C_51  and  C_52 
REMARK   24  A    between atoms: C_52  and  O_54 
REMARK   25  A    between atoms: C_55  and  C_56 
REMARK   26  A    between atoms: C_56  and  C_57 
REMARK   27  A    between atoms: C_57  and  C_58 
REMARK   28  A    between atoms: C_58  and  O_60 
ROOT
ATOM      1  O   UNK d   0       7.278  13.566  20.923  0.00  0.00    -0.650 OA
ATOM      2  C   UNK d   0       8.114  12.636  20.910  0.00  0.00     0.139 C 
ENDROOT
BRANCH   2   3
ATOM      3  O   UNK d   0       8.934  12.452  21.998  0.00  0.00    -0.776 OA
ATOM      4  H   UNK d   0       8.550  12.214  22.914  0.00  0.00     0.167 HD
ENDBRANCH   2   3
BRANCH   2   5
ATOM      5  C   UNK d   0       8.217  11.737  19.725  0.00  0.00     0.115 C 
BRANCH   5   6
ATOM      6  C   UNK d   0       6.859  11.533  19.111  0.00  0.00     0.052 C 
BRANCH   6   7
ATOM      7  C   UNK d   0       5.967  10.653  19.954  0.00  0.00    -0.020 A 
ATOM      8  C   UNK d   0       4.717  10.862  20.278  0.00  0.00    -0.011 A 
ATOM      9  C   UNK d   0       4.280   9.750  21.106  0.00  0.00     0.067 A 
ATOM     10  C   UNK d   0       3.089   9.367  21.741  0.00  0.00     0.062 C 
ATOM     11  N   UNK d   0       5.331   8.913  21.239  0.00  0.00    -0.248 NA
ATOM     12  C   UNK d   0       2.777   8.109  22.270  0.00  0.00     0.041 A 
ATOM     13  N   UNK d   0       3.509   7.250  23.005  0.00  0.00    -0.355 N 
ATOM     14  C   UNK d   0       1.519   7.546  21.990  0.00  0.00    -0.022 A 
ATOM     15  C   UNK d   0       2.751   6.153  23.191  0.00  0.00     0.042 A 
ATOM     16  H   UNK d   0       4.534   7.424  23.400  0.00  0.00     0.166 HD
ATOM     17  C   UNK d   0       3.028   4.958  23.885  0.00  0.00     0.062 C 
ATOM     18  C   UNK d   0       1.496   6.302  22.569  0.00  0.00    -0.013 A 
ATOM     19  C   UNK d   0       4.164   4.191  23.861  0.00  0.00     0.067 A 
ATOM     20  N   UNK d   0       5.238   4.718  23.267  0.00  0.00    -0.248 NA
ATOM     21  C   UNK d   0       4.540   2.866  24.325  0.00  0.00    -0.011 A 
ATOM     22  C   UNK d   0       6.288   3.834  23.307  0.00  0.00     0.066 A 
ATOM     23  C   UNK d   0       7.483   4.270  22.756  0.00  0.00     0.062 C 
ATOM     24  C   UNK d   0       5.782   2.661  23.994  0.00  0.00    -0.020 A 
ATOM     25  C   UNK d   0       7.780   5.542  22.241  0.00  0.00     0.041 A 
ATOM     26  N   UNK d   0       7.058   6.390  21.499  0.00  0.00    -0.355 N 
ATOM     27  C   UNK d   0       9.041   6.108  22.527  0.00  0.00    -0.022 A 
ATOM     28  C   UNK d   0       7.815   7.481  21.305  0.00  0.00     0.042 A 
ATOM     29  H   UNK d   0       6.032   6.210  21.094  0.00  0.00     0.166 HD
ATOM     30  C   UNK d   0       7.556   8.672  20.609  0.00  0.00     0.062 C 
ATOM     31  C   UNK d   0       9.072   7.335  21.939  0.00  0.00    -0.013 A 
ATOM     32  C   UNK d   0       6.376   9.399  20.569  0.00  0.00     0.066 A 
BRANCH   8  33
ATOM     33  C   UNK d   0       3.882  12.014  19.891  0.00  0.00     0.151 C 
BRANCH  33  34
ATOM     34  C   UNK d   0       3.749  13.010  20.969  0.00  0.00     0.143 C 
ATOM     35  O   UNK d   0       2.907  12.867  21.867  0.00  0.00    -0.650 OA
BRANCH  34  36
ATOM     36  O   UNK d   0       4.569  14.114  20.973  0.00  0.00    -0.776 OA
ATOM     37  H   UNK d   0       5.049  14.420  21.831  0.00  0.00     0.167 HD
ENDBRANCH  34  36
ENDBRANCH  33  34
ENDBRANCH   8  33
BRANCH  31  38
ATOM     38  C   UNK d   0      10.218   8.318  21.985  0.00  0.00     0.151 C 
BRANCH  38  39
ATOM     39  C   UNK d   0       9.948   9.457  22.836  0.00  0.00     0.143 C 
ATOM     40  O   UNK d   0       8.860   9.608  23.420  0.00  0.00    -0.650 OA
BRANCH  39  41
ATOM     41  O   UNK d   0      10.933  10.427  23.018  0.00  0.00    -0.776 OA
ATOM     42  H   UNK d   0      10.616  11.358  23.306  0.00  0.00     0.167 HD
ENDBRANCH  39  41
ENDBRANCH  38  39
ENDBRANCH  31  38
BRANCH  27  43
ATOM     43  C   UNK d   0      10.192   5.537  23.318  0.00  0.00     0.052 C 
BRANCH  43  44
ATOM     44  C   UNK d   0      10.768   6.502  24.303  0.00  0.00     0.115 C 
BRANCH  44  45
ATOM     45  C   UNK d   0       9.951   6.384  25.539  0.00  0.00     0.139 C 
ATOM     46  O   UNK d   0       8.976   5.593  25.531  0.00  0.00    -0.650 OA
BRANCH  45  47
ATOM     47  O   UNK d   0      10.224   7.099  26.685  0.00  0.00    -0.776 OA
ATOM     48  H   UNK d   0      10.527   6.652  27.566  0.00  0.00     0.167 HD
ENDBRANCH  45  47
ENDBRANCH  44  45
ENDBRANCH  43  44
ENDBRANCH  27  43
BRANCH  24  49
ATOM     49  C   UNK d   0       6.577   1.461  24.304  0.00  0.00     0.052 C 
BRANCH  49  50
ATOM     50  C   UNK d   0       6.203   0.331  23.380  0.00  0.00     0.115 C 
BRANCH  50  51
ATOM     51  C   UNK d   0       6.052  -0.991  23.972  0.00  0.00     0.139 C 
ATOM     52  O   UNK d   0       7.031  -1.683  24.340  0.00  0.00    -0.650 OA
BRANCH  51  53
ATOM     53  O   UNK d   0       4.784  -1.526  24.144  0.00  0.00    -0.776 OA
ATOM     54  H   UNK d   0       4.060  -1.244  23.508  0.00  0.00     0.167 HD
ENDBRANCH  51  53
ENDBRANCH  50  51
ENDBRANCH  49  50
ENDBRANCH  24  49
BRANCH  21  55
ATOM     55  C   UNK d   0       3.619   1.944  25.054  0.00  0.00     0.151 C 
BRANCH  55  56
ATOM     56  C   UNK d   0       2.568   1.407  24.177  0.00  0.00     0.143 C 
ATOM     57  O   UNK d   0       2.757   0.445  23.408  0.00  0.00    -0.650 OA
BRANCH  56  58
ATOM     58  O   UNK d   0       1.313   2.013  24.221  0.00  0.00    -0.776 OA
ATOM     59  H   UNK d   0       0.620   1.631  23.553  0.00  0.00     0.167 HD
ENDBRANCH  56  58
ENDBRANCH  55  56
ENDBRANCH  21  55
BRANCH  18  60
ATOM     60  C   UNK d   0       0.334   5.341  22.509  0.00  0.00     0.151 C 
BRANCH  60  61
ATOM     61  C   UNK d   0      -0.285   5.372  23.843  0.00  0.00     0.143 C 
ATOM     62  O   UNK d   0      -0.379   6.343  24.595  0.00  0.00    -0.650 OA
BRANCH  61  63
ATOM     63  O   UNK d   0      -0.823   4.140  24.286  0.00  0.00    -0.776 OA
ATOM     64  H   UNK d   0      -1.192   4.040  25.215  0.00  0.00     0.167 HD
ENDBRANCH  61  63
ENDBRANCH  60  61
ENDBRANCH  18  60
BRANCH  14  65
ATOM     65  C   UNK d   0       0.313   8.128  21.309  0.00  0.00     0.052 C 
BRANCH  65  66
ATOM     66  C   UNK d   0      -0.600   8.836  22.246  0.00  0.00     0.115 C 
BRANCH  66  67
ATOM     67  C   UNK d   0      -0.640  10.271  22.252  0.00  0.00     0.139 C 
ATOM     68  O   UNK d   0      -1.709  10.857  21.843  0.00  0.00    -0.650 OA
BRANCH  67  69
ATOM     69  O   UNK d   0       0.363  11.151  22.658  0.00  0.00    -0.776 OA
ATOM     70  H   UNK d   0       0.512  11.223  23.675  0.00  0.00     0.167 HD
ENDBRANCH  67  69
ENDBRANCH  66  67
ENDBRANCH  65  66
ENDBRANCH  14  65
ENDBRANCH   6   7
ENDBRANCH   5   6
ENDBRANCH   2   5
TORSDOF 28
ENDMDL
MODEL 9
REMARK VINA RESULT:     -10.0      1.865     10.239
REMARK  28 active torsions:
REMARK  status: ('A' for Active; 'I' for Inactive)
REMARK    1  A    between atoms: C_2  and  O_3 
REMARK    2  A    between atoms: C_2  and  C_4 
REMARK    3  A    between atoms: C_4  and  C_5 
REMARK    4  A    between atoms: C_5  and  C_6 
REMARK    5  A    between atoms: C_7  and  C_8 
REMARK    6  A    between atoms: C_8  and  C_9 
REMARK    7  A    between atoms: C_9  and  O_11 
REMARK    8  A    between atoms: C_28  and  C_29 
REMARK    9  A    between atoms: C_29  and  C_30 
REMARK   10  A    between atoms: C_30  and  O_32 
REMARK   11  A    between atoms: C_33  and  C_34 
REMARK   12  A    between atoms: C_34  and  C_35 
REMARK   13  A    between atoms: C_35  and  C_36 
REMARK   14  A    between atoms: C_36  and  O_38 
REMARK   15  A    between atoms: C_39  and  C_40 
REMARK   16  A    between atoms: C_40  and  C_41 
REMARK   17  A    between atoms: C_41  and  C_42 
REMARK   18  A    between atoms: C_42  and  O_44 
REMARK   19  A    between atoms: C_45  and  C_46 
REMARK   20  A    between atoms: C_46  and  C_47 
REMARK   21  A    between atoms: C_47  and  O_49 
REMARK   22  A    between atoms: C_50  and  C_51 
REMARK   23  A    between atoms: C_51  and  C_52 
REMARK   24  A    between atoms: C_52  and  O_54 
REMARK   25  A    between atoms: C_55  and  C_56 
REMARK   26  A    between atoms: C_56  and  C_57 
REMARK   27  A    between atoms: C_57  and  C_58 
REMARK   28  A    between atoms: C_58  and  O_60 
ROOT
ATOM      1  O   UNK d   0      11.312   6.747  21.954  0.00  0.00    -0.650 OA
ATOM      2  C   UNK d   0      10.269   6.231  21.492  0.00  0.00     0.139 C 
ENDROOT
BRANCH   2   3
ATOM      3  O   UNK d   0       9.661   6.802  20.400  0.00  0.00    -0.776 OA
ATOM      4  H   UNK d   0       9.562   7.817  20.323  0.00  0.00     0.167 HD
ENDBRANCH   2   3
BRANCH   2   5
ATOM      5  C   UNK d   0       9.695   5.009  22.125  0.00  0.00     0.115 C 
BRANCH   5   6
ATOM      6  C   UNK d   0       9.079   5.355  23.453  0.00  0.00     0.052 C 
BRANCH   6   7
ATOM      7  C   UNK d   0       7.572   5.430  23.392  0.00  0.00    -0.020 A 
ATOM      8  C   UNK d   0       6.714   4.473  23.635  0.00  0.00    -0.011 A 
ATOM      9  C   UNK d   0       5.378   5.011  23.440  0.00  0.00     0.067 A 
ATOM     10  C   UNK d   0       4.065   4.529  23.556  0.00  0.00     0.062 C 
ATOM     11  N   UNK d   0       5.517   6.303  23.074  0.00  0.00    -0.248 NA
ATOM     12  C   UNK d   0       2.887   5.282  23.596  0.00  0.00     0.041 A 
ATOM     13  N   UNK d   0       2.491   6.348  22.874  0.00  0.00    -0.355 N 
ATOM     14  C   UNK d   0       1.915   4.974  24.565  0.00  0.00    -0.022 A 
ATOM     15  C   UNK d   0       1.296   6.728  23.365  0.00  0.00     0.042 A 
ATOM     16  H   UNK d   0       3.035   6.809  22.021  0.00  0.00     0.166 HD
ATOM     17  C   UNK d   0       0.443   7.781  22.978  0.00  0.00     0.062 C 
ATOM     18  C   UNK d   0       0.902   5.891  24.427  0.00  0.00    -0.013 A 
ATOM     19  C   UNK d   0       0.758   9.083  22.686  0.00  0.00     0.067 A 
ATOM     20  N   UNK d   0       2.053   9.376  22.550  0.00  0.00    -0.248 NA
ATOM     21  C   UNK d   0       0.017  10.317  22.484  0.00  0.00    -0.011 A 
ATOM     22  C   UNK d   0       2.214  10.712  22.275  0.00  0.00     0.066 A 
ATOM     23  C   UNK d   0       3.515  11.148  22.072  0.00  0.00     0.062 C 
ATOM     24  C   UNK d   0       0.875  11.267  22.248  0.00  0.00    -0.020 A 
ATOM     25  C   UNK d   0       4.684  10.373  22.023  0.00  0.00     0.041 A 
ATOM     26  N   UNK d   0       5.084   9.323  22.750  0.00  0.00    -0.355 N 
ATOM     27  C   UNK d   0       5.657  10.680  21.047  0.00  0.00    -0.022 A 
ATOM     28  C   UNK d   0       6.279   8.947  22.268  0.00  0.00     0.042 A 
ATOM     29  H   UNK d   0       4.540   8.867  23.614  0.00  0.00     0.166 HD
ATOM     30  C   UNK d   0       7.143   7.909  22.649  0.00  0.00     0.062 C 
ATOM     31  C   UNK d   0       6.669   9.783  21.195  0.00  0.00    -0.013 A 
ATOM     32  C   UNK d   0       6.812   6.617  23.027  0.00  0.00     0.066 A 
BRANCH   8  33
ATOM     33  C   UNK d   0       7.024   3.086  24.031  0.00  0.00     0.151 C 
BRANCH  33  34
ATOM     34  C   UNK d   0       6.154   2.096  23.371  0.00  0.00     0.143 C 
ATOM     35  O   UNK d   0       6.163   1.963  22.139  0.00  0.00    -0.650 OA
BRANCH  34  36
ATOM     36  O   UNK d   0       5.322   1.312  24.136  0.00  0.00    -0.776 OA
ATOM     37  H   UNK d   0       5.663   0.843  24.987  0.00  0.00     0.167 HD
ENDBRANCH  34  36
ENDBRANCH  33  34
ENDBRANCH   8  33
BRANCH  31  38
ATOM     38  C   UNK d   0       7.926   9.712  20.360  0.00  0.00     0.151 C 
BRANCH  38  39
ATOM     39  C   UNK d   0       9.094  10.203  21.060  0.00  0.00     0.143 C 
ATOM     40  O   UNK d   0       9.015  11.014  21.999  0.00  0.00    -0.650 OA
BRANCH  39  41
ATOM     41  O   UNK d   0      10.360   9.758  20.679  0.00  0.00    -0.776 OA
ATOM     42  H   UNK d   0      10.753  10.162  19.823  0.00  0.00     0.167 HD
ENDBRANCH  39  41
ENDBRANCH  38  39
ENDBRANCH  31  38
BRANCH  27  43
ATOM     43  C   UNK d   0       5.659  11.772  20.006  0.00  0.00     0.052 C 
BRANCH  43  44
ATOM     44  C   UNK d   0       6.627  12.871  20.304  0.00  0.00     0.115 C 
BRANCH  44  45
ATOM     45  C   UNK d   0       5.847  14.136  20.301  0.00  0.00     0.139 C 
ATOM     46  O   UNK d   0       6.121  15.003  21.167  0.00  0.00    -0.650 OA
BRANCH  45  47
ATOM     47  O   UNK d   0       4.847  14.395  19.389  0.00  0.00    -0.776 OA
ATOM     48  H   UNK d   0       4.003  14.942  19.623  0.00  0.00     0.167 HD
ENDBRANCH  45  47
ENDBRANCH  44  45
ENDBRANCH  43  44
ENDBRANCH  27  43
BRANCH  24  49
ATOM     49  C   UNK d   0       0.553  12.673  21.949  0.00  0.00     0.052 C 
BRANCH  49  50
ATOM     50  C   UNK d   0       1.401  13.174  20.808  0.00  0.00     0.115 C 
BRANCH  50  51
ATOM     51  C   UNK d   0       2.156  14.400  21.029  0.00  0.00     0.139 C 
ATOM     52  O   UNK d   0       2.884  14.574  22.034  0.00  0.00    -0.650 OA
BRANCH  51  53
ATOM     53  O   UNK d   0       2.078  15.430  20.104  0.00  0.00    -0.776 OA
ATOM     54  H   UNK d   0       2.451  16.327  20.359  0.00  0.00     0.167 HD
ENDBRANCH  51  53
ENDBRANCH  50  51
ENDBRANCH  49  50
ENDBRANCH  24  49
BRANCH  21  55
ATOM     55  C   UNK d   0      -1.472  10.416  22.543  0.00  0.00     0.151 C 
BRANCH  55  56
ATOM     56  C   UNK d   0      -2.127   9.363  21.752  0.00  0.00     0.143 C 
ATOM     57  O   UNK d   0      -2.853   8.488  22.264  0.00  0.00    -0.650 OA
BRANCH  56  58
ATOM     58  O   UNK d   0      -1.915   9.359  20.375  0.00  0.00    -0.776 OA
ATOM     59  H   UNK d   0      -1.083   8.825  20.063  0.00  0.00     0.167 HD
ENDBRANCH  56  58
ENDBRANCH  55  56
ENDBRANCH  21  55
BRANCH  18  60
ATOM     60  C   UNK d   0      -0.345   5.935  25.274  0.00  0.00     0.151 C 
BRANCH  60  61
ATOM     61  C   UNK d   0       0.009   6.711  26.473  0.00  0.00     0.143 C 
ATOM     62  O   UNK d   0       0.364   7.890  26.516  0.00  0.00    -0.650 OA
BRANCH  61  63
ATOM     63  O   UNK d   0      -0.077   6.004  27.696  0.00  0.00    -0.776 OA
ATOM     64  H   UNK d   0      -0.764   6.245  28.388  0.00  0.00     0.167 HD
ENDBRANCH  61  63
ENDBRANCH  60  61
ENDBRANCH  18  60
BRANCH  14  65
ATOM     65  C   UNK d   0       1.826   3.831  25.536  0.00  0.00     0.052 C 
BRANCH  65  66
ATOM     66  C   UNK d   0       1.312   2.580  24.916  0.00  0.00     0.115 C 
BRANCH  66  67
ATOM     67  C   UNK d   0       1.875   1.315  25.295  0.00  0.00     0.139 C 
ATOM     68  O   UNK d   0       2.558   0.660  24.423  0.00  0.00    -0.650 OA
BRANCH  67  69
ATOM     69  O   UNK d   0       1.779   0.673  26.530  0.00  0.00    -0.776 OA
ATOM     70  H   UNK d   0       1.139  -0.134  26.566  0.00  0.00     0.167 HD
ENDBRANCH  67  69
ENDBRANCH  66  67
ENDBRANCH  65  66
ENDBRANCH  14  65
ENDBRANCH   6   7
ENDBRANCH   5   6
ENDBRANCH   2   5
TORSDOF 28
ENDMDL
MODEL 10
REMARK VINA RESULT:      -9.9      2.566      4.725
REMARK  28 active torsions:
REMARK  status: ('A' for Active; 'I' for Inactive)
REMARK    1  A    between atoms: C_2  and  O_3 
REMARK    2  A    between atoms: C_2  and  C_4 
REMARK    3  A    between atoms: C_4  and  C_5 
REMARK    4  A    between atoms: C_5  and  C_6 
REMARK    5  A    between atoms: C_7  and  C_8 
REMARK    6  A    between atoms: C_8  and  C_9 
REMARK    7  A    between atoms: C_9  and  O_11 
REMARK    8  A    between atoms: C_28  and  C_29 
REMARK    9  A    between atoms: C_29  and  C_30 
REMARK   10  A    between atoms: C_30  and  O_32 
REMARK   11  A    between atoms: C_33  and  C_34 
REMARK   12  A    between atoms: C_34  and  C_35 
REMARK   13  A    between atoms: C_35  and  C_36 
REMARK   14  A    between atoms: C_36  and  O_38 
REMARK   15  A    between atoms: C_39  and  C_40 
REMARK   16  A    between atoms: C_40  and  C_41 
REMARK   17  A    between atoms: C_41  and  C_42 
REMARK   18  A    between atoms: C_42  and  O_44 
REMARK   19  A    between atoms: C_45  and  C_46 
REMARK   20  A    between atoms: C_46  and  C_47 
REMARK   21  A    between atoms: C_47  and  O_49 
REMARK   22  A    between atoms: C_50  and  C_51 
REMARK   23  A    between atoms: C_51  and  C_52 
REMARK   24  A    between atoms: C_52  and  O_54 
REMARK   25  A    between atoms: C_55  and  C_56 
REMARK   26  A    between atoms: C_56  and  C_57 
REMARK   27  A    between atoms: C_57  and  C_58 
REMARK   28  A    between atoms: C_58  and  O_60 
ROOT
ATOM      1  O   UNK d   0      -1.128   0.224  24.956  0.00  0.00    -0.650 OA
ATOM      2  C   UNK d   0      -1.801   0.988  25.683  0.00  0.00     0.139 C 
ENDROOT
BRANCH   2   3
ATOM      3  O   UNK d   0      -1.993   0.664  27.004  0.00  0.00    -0.776 OA
ATOM      4  H   UNK d   0      -2.215  -0.293  27.286  0.00  0.00     0.167 HD
ENDBRANCH   2   3
BRANCH   2   5
ATOM      5  C   UNK d   0      -2.388   2.235  25.116  0.00  0.00     0.115 C 
BRANCH   5   6
ATOM      6  C   UNK d   0      -2.122   2.307  23.637  0.00  0.00     0.052 C 
BRANCH   6   7
ATOM      7  C   UNK d   0      -1.248   3.480  23.260  0.00  0.00    -0.020 A 
ATOM      8  C   UNK d   0      -1.630   4.645  22.805  0.00  0.00    -0.011 A 
ATOM      9  C   UNK d   0      -0.438   5.445  22.576  0.00  0.00     0.067 A 
ATOM     10  C   UNK d   0      -0.163   6.748  22.130  0.00  0.00     0.062 C 
ATOM     11  N   UNK d   0       0.625   4.686  22.912  0.00  0.00    -0.248 NA
ATOM     12  C   UNK d   0       1.046   7.443  22.238  0.00  0.00     0.041 A 
ATOM     13  N   UNK d   0       2.317   7.046  22.039  0.00  0.00    -0.355 N 
ATOM     14  C   UNK d   0       1.026   8.778  22.679  0.00  0.00    -0.022 A 
ATOM     15  C   UNK d   0       3.105   8.093  22.349  0.00  0.00     0.042 A 
ATOM     16  H   UNK d   0       2.650   6.052  21.667  0.00  0.00     0.166 HD
ATOM     17  C   UNK d   0       4.508   8.223  22.317  0.00  0.00     0.062 C 
ATOM     18  C   UNK d   0       2.331   9.198  22.755  0.00  0.00    -0.013 A 
ATOM     19  C   UNK d   0       5.465   7.348  22.763  0.00  0.00     0.067 A 
ATOM     20  N   UNK d   0       5.054   6.122  23.099  0.00  0.00    -0.248 NA
ATOM     21  C   UNK d   0       6.898   7.398  23.001  0.00  0.00    -0.011 A 
ATOM     22  C   UNK d   0       6.114   5.368  23.539  0.00  0.00     0.066 A 
ATOM     23  C   UNK d   0       5.834   4.054  23.886  0.00  0.00     0.062 C 
ATOM     24  C   UNK d   0       7.271   6.238  23.458  0.00  0.00    -0.020 A 
ATOM     25  C   UNK d   0       4.615   3.371  23.757  0.00  0.00     0.041 A 
ATOM     26  N   UNK d   0       3.353   3.761  23.970  0.00  0.00    -0.355 N 
ATOM     27  C   UNK d   0       4.636   2.032  23.310  0.00  0.00    -0.022 A 
ATOM     28  C   UNK d   0       2.566   2.715  23.670  0.00  0.00     0.042 A 
ATOM     29  H   UNK d   0       3.020   4.756  24.354  0.00  0.00     0.166 HD
ATOM     30  C   UNK d   0       1.170   2.570  23.706  0.00  0.00     0.062 C 
ATOM     31  C   UNK d   0       3.344   1.609  23.252  0.00  0.00    -0.013 A 
ATOM     32  C   UNK d   0       0.205   3.491  23.332  0.00  0.00     0.066 A 
BRANCH   8  33
ATOM     33  C   UNK d   0      -3.014   5.088  22.556  0.00  0.00     0.151 C 
BRANCH  33  34
ATOM     34  C   UNK d   0      -3.589   5.831  23.692  0.00  0.00     0.143 C 
ATOM     35  O   UNK d   0      -3.687   7.066  23.661  0.00  0.00    -0.650 OA
BRANCH  34  36
ATOM     36  O   UNK d   0      -4.019   5.142  24.802  0.00  0.00    -0.776 OA
ATOM     37  H   UNK d   0      -4.813   4.489  24.750  0.00  0.00     0.167 HD
ENDBRANCH  34  36
ENDBRANCH  33  34
ENDBRANCH   8  33
BRANCH  31  38
ATOM     38  C   UNK d   0       2.872   0.243  22.813  0.00  0.00     0.151 C 
BRANCH  38  39
ATOM     39  C   UNK d   0       2.754  -0.691  23.913  0.00  0.00     0.143 C 
ATOM     40  O   UNK d   0       3.313  -1.801  23.906  0.00  0.00    -0.650 OA
BRANCH  39  41
ATOM     41  O   UNK d   0       1.989  -0.345  25.027  0.00  0.00    -0.776 OA
ATOM     42  H   UNK d   0       1.978  -1.013  25.804  0.00  0.00     0.167 HD
ENDBRANCH  39  41
ENDBRANCH  38  39
ENDBRANCH  31  38
BRANCH  27  43
ATOM     43  C   UNK d   0       5.813   1.161  22.948  0.00  0.00     0.052 C 
BRANCH  43  44
ATOM     44  C   UNK d   0       6.560   0.653  24.139  0.00  0.00     0.115 C 
BRANCH  44  45
ATOM     45  C   UNK d   0       6.518  -0.831  24.065  0.00  0.00     0.139 C 
ATOM     46  O   UNK d   0       6.946  -1.485  25.048  0.00  0.00    -0.650 OA
BRANCH  45  47
ATOM     47  O   UNK d   0       6.026  -1.511  22.972  0.00  0.00    -0.776 OA
ATOM     48  H   UNK d   0       5.581  -2.440  23.044  0.00  0.00     0.167 HD
ENDBRANCH  45  47
ENDBRANCH  44  45
ENDBRANCH  43  44
ENDBRANCH  27  43
BRANCH  24  49
ATOM     49  C   UNK d   0       8.648   5.840  23.796  0.00  0.00     0.052 C 
BRANCH  49  50
ATOM     50  C   UNK d   0       9.301   5.160  22.620  0.00  0.00     0.115 C 
BRANCH  50  51
ATOM     51  C   UNK d   0      10.214   5.958  21.813  0.00  0.00     0.139 C 
ATOM     52  O   UNK d   0      11.023   6.774  22.315  0.00  0.00    -0.650 OA
BRANCH  51  53
ATOM     53  O   UNK d   0      10.203   5.827  20.433  0.00  0.00    -0.776 OA
ATOM     54  H   UNK d   0      10.113   6.660  19.877  0.00  0.00     0.167 HD
ENDBRANCH  51  53
ENDBRANCH  50  51
ENDBRANCH  49  50
ENDBRANCH  24  49
BRANCH  21  55
ATOM     55  C   UNK d   0       7.745   8.600  22.741  0.00  0.00     0.151 C 
BRANCH  55  56
ATOM     56  C   UNK d   0       7.796   8.939  21.311  0.00  0.00     0.143 C 
ATOM     57  O   UNK d   0       8.208   8.145  20.443  0.00  0.00    -0.650 OA
BRANCH  56  58
ATOM     58  O   UNK d   0       7.362  10.208  20.929  0.00  0.00    -0.776 OA
ATOM     59  H   UNK d   0       7.264  10.346  19.907  0.00  0.00     0.167 HD
ENDBRANCH  56  58
ENDBRANCH  55  56
ENDBRANCH  21  55
BRANCH  18  60
ATOM     60  C   UNK d   0       2.773  10.571  23.195  0.00  0.00     0.151 C 
BRANCH  60  61
ATOM     61  C   UNK d   0       2.981  10.483  24.648  0.00  0.00     0.143 C 
ATOM     62  O   UNK d   0       2.933   9.468  25.344  0.00  0.00    -0.650 OA
BRANCH  61  63
ATOM     63  O   UNK d   0       3.265  11.711  25.292  0.00  0.00    -0.776 OA
ATOM     64  H   UNK d   0       3.050  12.589  24.852  0.00  0.00     0.167 HD
ENDBRANCH  61  63
ENDBRANCH  60  61
ENDBRANCH  18  60
BRANCH  14  65
ATOM     65  C   UNK d   0      -0.125   9.709  22.937  0.00  0.00     0.052 C 
BRANCH  65  66
ATOM     66  C   UNK d   0      -1.034   9.227  24.010  0.00  0.00     0.115 C 
BRANCH  66  67
ATOM     67  C   UNK d   0      -0.493   8.854  25.287  0.00  0.00     0.139 C 
ATOM     68  O   UNK d   0      -0.412   9.750  26.205  0.00  0.00    -0.650 OA
BRANCH  67  69
ATOM     69  O   UNK d   0      -0.024   7.601  25.682  0.00  0.00    -0.776 OA
ATOM     70  H   UNK d   0       0.683   7.173  25.067  0.00  0.00     0.167 HD
ENDBRANCH  67  69
ENDBRANCH  66  67
ENDBRANCH  65  66
ENDBRANCH  14  65
ENDBRANCH   6   7
ENDBRANCH   5   6
ENDBRANCH   2   5
TORSDOF 28
ENDMDL
MODEL 11
REMARK VINA RESULT:      -9.8      2.459      8.520
REMARK  28 active torsions:
REMARK  status: ('A' for Active; 'I' for Inactive)
REMARK    1  A    between atoms: C_2  and  O_3 
REMARK    2  A    between atoms: C_2  and  C_4 
REMARK    3  A    between atoms: C_4  and  C_5 
REMARK    4  A    between atoms: C_5  and  C_6 
REMARK    5  A    between atoms: C_7  and  C_8 
REMARK    6  A    between atoms: C_8  and  C_9 
REMARK    7  A    between atoms: C_9  and  O_11 
REMARK    8  A    between atoms: C_28  and  C_29 
REMARK    9  A    between atoms: C_29  and  C_30 
REMARK   10  A    between atoms: C_30  and  O_32 
REMARK   11  A    between atoms: C_33  and  C_34 
REMARK   12  A    between atoms: C_34  and  C_35 
REMARK   13  A    between atoms: C_35  and  C_36 
REMARK   14  A    between atoms: C_36  and  O_38 
REMARK   15  A    between atoms: C_39  and  C_40 
REMARK   16  A    between atoms: C_40  and  C_41 
REMARK   17  A    between atoms: C_41  and  C_42 
REMARK   18  A    between atoms: C_42  and  O_44 
REMARK   19  A    between atoms: C_45  and  C_46 
REMARK   20  A    between atoms: C_46  and  C_47 
REMARK   21  A    between atoms: C_47  and  O_49 
REMARK   22  A    between atoms: C_50  and  C_51 
REMARK   23  A    between atoms: C_51  and  C_52 
REMARK   24  A    between atoms: C_52  and  O_54 
REMARK   25  A    between atoms: C_55  and  C_56 
REMARK   26  A    between atoms: C_56  and  C_57 
REMARK   27  A    between atoms: C_57  and  C_58 
REMARK   28  A    between atoms: C_58  and  O_60 
ROOT
ATOM      1  O   UNK d   0      -4.006   7.795  21.960  0.00  0.00    -0.650 OA
ATOM      2  C   UNK d   0      -3.563   7.295  23.018  0.00  0.00     0.139 C 
ENDROOT
BRANCH   2   3
ATOM      3  O   UNK d   0      -2.990   8.113  23.961  0.00  0.00    -0.776 OA
ATOM      4  H   UNK d   0      -2.838   9.107  23.776  0.00  0.00     0.167 HD
ENDBRANCH   2   3
BRANCH   2   5
ATOM      5  C   UNK d   0      -3.657   5.825  23.248  0.00  0.00     0.115 C 
BRANCH   5   6
ATOM      6  C   UNK d   0      -2.936   5.083  22.156  0.00  0.00     0.052 C 
BRANCH   6   7
ATOM      7  C   UNK d   0      -1.552   4.643  22.569  0.00  0.00    -0.020 A 
ATOM      8  C   UNK d   0      -1.187   3.466  23.010  0.00  0.00    -0.011 A 
ATOM      9  C   UNK d   0       0.238   3.517  23.288  0.00  0.00     0.067 A 
ATOM     10  C   UNK d   0       1.214   2.617  23.746  0.00  0.00     0.062 C 
ATOM     11  N   UNK d   0       0.660   4.765  22.992  0.00  0.00    -0.248 NA
ATOM     12  C   UNK d   0       2.603   2.771  23.686  0.00  0.00     0.041 A 
ATOM     13  N   UNK d   0       3.389   3.836  23.936  0.00  0.00    -0.355 N 
ATOM     14  C   UNK d   0       3.389   1.690  23.247  0.00  0.00    -0.022 A 
ATOM     15  C   UNK d   0       4.652   3.461  23.659  0.00  0.00     0.042 A 
ATOM     16  H   UNK d   0       3.059   4.827  24.319  0.00  0.00     0.166 HD
ATOM     17  C   UNK d   0       5.859   4.183  23.746  0.00  0.00     0.062 C 
ATOM     18  C   UNK d   0       4.692   2.122  23.223  0.00  0.00    -0.013 A 
ATOM     19  C   UNK d   0       6.130   5.463  23.337  0.00  0.00     0.067 A 
ATOM     20  N   UNK d   0       5.087   6.219  22.984  0.00  0.00    -0.248 NA
ATOM     21  C   UNK d   0       7.324   6.272  23.156  0.00  0.00    -0.011 A 
ATOM     22  C   UNK d   0       5.512   7.462  22.585  0.00  0.00     0.066 A 
ATOM     23  C   UNK d   0       4.524   8.366  22.225  0.00  0.00     0.062 C 
ATOM     24  C   UNK d   0       6.956   7.439  22.712  0.00  0.00    -0.020 A 
ATOM     25  C   UNK d   0       3.133   8.196  22.305  0.00  0.00     0.041 A 
ATOM     26  N   UNK d   0       2.350   7.143  22.042  0.00  0.00    -0.355 N 
ATOM     27  C   UNK d   0       2.345   9.280  22.750  0.00  0.00    -0.022 A 
ATOM     28  C   UNK d   0       1.089   7.517  22.310  0.00  0.00     0.042 A 
ATOM     29  H   UNK d   0       2.682   6.151  21.647  0.00  0.00     0.166 HD
ATOM     30  C   UNK d   0      -0.122   6.812  22.218  0.00  0.00     0.062 C 
ATOM     31  C   UNK d   0       1.051   8.859  22.757  0.00  0.00    -0.013 A 
ATOM     32  C   UNK d   0      -0.370   5.491  22.554  0.00  0.00     0.066 A 
BRANCH   8  33
ATOM     33  C   UNK d   0      -2.051   2.287  23.205  0.00  0.00     0.151 C 
BRANCH  33  34
ATOM     34  C   UNK d   0      -2.251   1.954  24.627  0.00  0.00     0.143 C 
ATOM     35  O   UNK d   0      -2.527   0.798  24.977  0.00  0.00    -0.650 OA
BRANCH  34  36
ATOM     36  O   UNK d   0      -2.131   2.943  25.575  0.00  0.00    -0.776 OA
ATOM     37  H   UNK d   0      -1.875   3.905  25.314  0.00  0.00     0.167 HD
ENDBRANCH  34  36
ENDBRANCH  33  34
ENDBRANCH   8  33
BRANCH  31  38
ATOM     38  C   UNK d   0      -0.150   9.675  23.175  0.00  0.00     0.151 C 
BRANCH  38  39
ATOM     39  C   UNK d   0      -0.818  10.304  22.056  0.00  0.00     0.143 C 
ATOM     40  O   UNK d   0      -0.538  11.455  21.675  0.00  0.00    -0.650 OA
BRANCH  39  41
ATOM     41  O   UNK d   0      -1.813   9.607  21.370  0.00  0.00    -0.776 OA
ATOM     42  H   UNK d   0      -1.501   8.887  20.711  0.00  0.00     0.167 HD
ENDBRANCH  39  41
ENDBRANCH  38  39
ENDBRANCH  31  38
BRANCH  27  43
ATOM     43  C   UNK d   0       2.769  10.669  23.157  0.00  0.00     0.052 C 
BRANCH  43  44
ATOM     44  C   UNK d   0       2.968  11.590  21.997  0.00  0.00     0.115 C 
BRANCH  44  45
ATOM     45  C   UNK d   0       2.281  12.862  22.342  0.00  0.00     0.139 C 
ATOM     46  O   UNK d   0       2.517  13.377  23.463  0.00  0.00    -0.650 OA
BRANCH  45  47
ATOM     47  O   UNK d   0       1.408  13.496  21.485  0.00  0.00    -0.776 OA
ATOM     48  H   UNK d   0       1.119  13.092  20.579  0.00  0.00     0.167 HD
ENDBRANCH  45  47
ENDBRANCH  44  45
ENDBRANCH  43  44
ENDBRANCH  27  43
BRANCH  24  49
ATOM     49  C   UNK d   0       7.844   8.579  22.429  0.00  0.00     0.052 C 
BRANCH  49  50
ATOM     50  C   UNK d   0       8.342   8.516  21.007  0.00  0.00     0.115 C 
BRANCH  50  51
ATOM     51  C   UNK d   0       7.482   9.083  19.977  0.00  0.00     0.139 C 
ATOM     52  O   UNK d   0       7.446  10.311  19.726  0.00  0.00    -0.650 OA
BRANCH  51  53
ATOM     53  O   UNK d   0       6.662   8.249  19.232  0.00  0.00    -0.776 OA
ATOM     54  H   UNK d   0       7.082   7.689  18.511  0.00  0.00     0.167 HD
ENDBRANCH  51  53
ENDBRANCH  50  51
ENDBRANCH  49  50
ENDBRANCH  24  49
BRANCH  21  55
ATOM     55  C   UNK d   0       8.708   5.795  23.451  0.00  0.00     0.151 C 
BRANCH  55  56
ATOM     56  C   UNK d   0       9.219   6.336  24.720  0.00  0.00     0.143 C 
ATOM     57  O   UNK d   0       8.868   5.896  25.832  0.00  0.00    -0.650 OA
BRANCH  56  58
ATOM     58  O   UNK d   0      10.134   7.386  24.655  0.00  0.00    -0.776 OA
ATOM     59  H   UNK d   0      10.330   7.850  25.561  0.00  0.00     0.167 HD
ENDBRANCH  56  58
ENDBRANCH  55  56
ENDBRANCH  21  55
BRANCH  18  60
ATOM     60  C   UNK d   0       5.873   1.283  22.804  0.00  0.00     0.151 C 
BRANCH  60  61
ATOM     61  C   UNK d   0       6.192   0.428  23.958  0.00  0.00     0.143 C 
ATOM     62  O   UNK d   0       6.425  -0.780  23.944  0.00  0.00    -0.650 OA
BRANCH  61  63
ATOM     63  O   UNK d   0       6.228   1.093  25.207  0.00  0.00    -0.776 OA
ATOM     64  H   UNK d   0       6.031   0.601  26.061  0.00  0.00     0.167 HD
ENDBRANCH  61  63
ENDBRANCH  60  61
ENDBRANCH  18  60
BRANCH  14  65
ATOM     65  C   UNK d   0       3.017   0.266  22.945  0.00  0.00     0.052 C 
BRANCH  65  66
ATOM     66  C   UNK d   0       2.463  -0.452  24.124  0.00  0.00     0.115 C 
BRANCH  66  67
ATOM     67  C   UNK d   0       2.824  -1.823  24.357  0.00  0.00     0.139 C 
ATOM     68  O   UNK d   0       1.886  -2.700  24.429  0.00  0.00    -0.650 OA
BRANCH  67  69
ATOM     69  O   UNK d   0       4.103  -2.352  24.523  0.00  0.00    -0.776 OA
ATOM     70  H   UNK d   0       4.880  -1.681  24.434  0.00  0.00     0.167 HD
ENDBRANCH  67  69
ENDBRANCH  66  67
ENDBRANCH  65  66
ENDBRANCH  14  65
ENDBRANCH   6   7
ENDBRANCH   5   6
ENDBRANCH   2   5
TORSDOF 28
ENDMDL
MODEL 12
REMARK VINA RESULT:      -9.7      1.491      7.648
REMARK  28 active torsions:
REMARK  status: ('A' for Active; 'I' for Inactive)
REMARK    1  A    between atoms: C_2  and  O_3 
REMARK    2  A    between atoms: C_2  and  C_4 
REMARK    3  A    between atoms: C_4  and  C_5 
REMARK    4  A    between atoms: C_5  and  C_6 
REMARK    5  A    between atoms: C_7  and  C_8 
REMARK    6  A    between atoms: C_8  and  C_9 
REMARK    7  A    between atoms: C_9  and  O_11 
REMARK    8  A    between atoms: C_28  and  C_29 
REMARK    9  A    between atoms: C_29  and  C_30 
REMARK   10  A    between atoms: C_30  and  O_32 
REMARK   11  A    between atoms: C_33  and  C_34 
REMARK   12  A    between atoms: C_34  and  C_35 
REMARK   13  A    between atoms: C_35  and  C_36 
REMARK   14  A    between atoms: C_36  and  O_38 
REMARK   15  A    between atoms: C_39  and  C_40 
REMARK   16  A    between atoms: C_40  and  C_41 
REMARK   17  A    between atoms: C_41  and  C_42 
REMARK   18  A    between atoms: C_42  and  O_44 
REMARK   19  A    between atoms: C_45  and  C_46 
REMARK   20  A    between atoms: C_46  and  C_47 
REMARK   21  A    between atoms: C_47  and  O_49 
REMARK   22  A    between atoms: C_50  and  C_51 
REMARK   23  A    between atoms: C_51  and  C_52 
REMARK   24  A    between atoms: C_52  and  O_54 
REMARK   25  A    between atoms: C_55  and  C_56 
REMARK   26  A    between atoms: C_56  and  C_57 
REMARK   27  A    between atoms: C_57  and  C_58 
REMARK   28  A    between atoms: C_58  and  O_60 
ROOT
ATOM      1  O   UNK d   0       1.999  15.007  21.218  0.00  0.00    -0.650 OA
ATOM      2  C   UNK d   0       2.257  14.149  22.091  0.00  0.00     0.139 C 
ENDROOT
BRANCH   2   3
ATOM      3  O   UNK d   0       2.424  14.545  23.396  0.00  0.00    -0.776 OA
ATOM      4  H   UNK d   0       3.060  15.307  23.639  0.00  0.00     0.167 HD
ENDBRANCH   2   3
BRANCH   2   5
ATOM      5  C   UNK d   0       2.381  12.712  21.714  0.00  0.00     0.115 C 
BRANCH   5   6
ATOM      6  C   UNK d   0       3.372  12.556  20.593  0.00  0.00     0.052 C 
BRANCH   6   7
ATOM      7  C   UNK d   0       4.232  11.324  20.745  0.00  0.00    -0.020 A 
ATOM      8  C   UNK d   0       5.480  11.172  20.383  0.00  0.00    -0.011 A 
ATOM      9  C   UNK d   0       5.880   9.817  20.722  0.00  0.00     0.067 A 
ATOM     10  C   UNK d   0       7.053   9.052  20.622  0.00  0.00     0.062 C 
ATOM     11  N   UNK d   0       4.812   9.212  21.281  0.00  0.00    -0.248 NA
ATOM     12  C   UNK d   0       7.331   7.840  21.262  0.00  0.00     0.041 A 
ATOM     13  N   UNK d   0       6.570   6.747  21.460  0.00  0.00    -0.355 N 
ATOM     14  C   UNK d   0       8.583   7.668  21.881  0.00  0.00    -0.022 A 
ATOM     15  C   UNK d   0       7.303   5.889  22.194  0.00  0.00     0.042 A 
ATOM     16  H   UNK d   0       5.541   6.577  21.071  0.00  0.00     0.166 HD
ATOM     17  C   UNK d   0       6.991   4.603  22.679  0.00  0.00     0.062 C 
ATOM     18  C   UNK d   0       8.571   6.432  22.479  0.00  0.00    -0.013 A 
ATOM     19  C   UNK d   0       5.840   4.166  23.284  0.00  0.00     0.067 A 
ATOM     20  N   UNK d   0       4.787   4.987  23.246  0.00  0.00    -0.248 NA
ATOM     21  C   UNK d   0       5.430   2.978  24.014  0.00  0.00    -0.011 A 
ATOM     22  C   UNK d   0       3.720   4.423  23.901  0.00  0.00     0.066 A 
ATOM     23  C   UNK d   0       2.542   5.156  23.907  0.00  0.00     0.062 C 
ATOM     24  C   UNK d   0       4.190   3.136  24.377  0.00  0.00    -0.020 A 
ATOM     25  C   UNK d   0       2.280   6.367  23.247  0.00  0.00     0.041 A 
ATOM     26  N   UNK d   0       3.032   7.459  23.063  0.00  0.00    -0.355 N 
ATOM     27  C   UNK d   0       1.025   6.537  22.622  0.00  0.00    -0.022 A 
ATOM     28  C   UNK d   0       2.299   8.319  22.338  0.00  0.00     0.042 A 
ATOM     29  H   UNK d   0       4.061   7.633  23.464  0.00  0.00     0.166 HD
ATOM     30  C   UNK d   0       2.594   9.605  21.857  0.00  0.00     0.062 C 
ATOM     31  C   UNK d   0       1.029   7.769  22.044  0.00  0.00    -0.013 A 
ATOM     32  C   UNK d   0       3.788  10.065  21.324  0.00  0.00     0.066 A 
BRANCH   8  33
ATOM     33  C   UNK d   0       6.344  12.180  19.740  0.00  0.00     0.151 C 
BRANCH  33  34
ATOM     34  C   UNK d   0       7.156  12.938  20.709  0.00  0.00     0.143 C 
ATOM     35  O   UNK d   0       6.821  14.075  21.069  0.00  0.00    -0.650 OA
BRANCH  34  36
ATOM     36  O   UNK d   0       8.302  12.372  21.219  0.00  0.00    -0.776 OA
ATOM     37  H   UNK d   0       9.217  12.528  20.776  0.00  0.00     0.167 HD
ENDBRANCH  34  36
ENDBRANCH  33  34
ENDBRANCH   8  33
BRANCH  31  38
ATOM     38  C   UNK d   0      -0.099   8.384  21.249  0.00  0.00     0.151 C 
BRANCH  38  39
ATOM     39  C   UNK d   0      -0.876   9.332  22.018  0.00  0.00     0.143 C 
ATOM     40  O   UNK d   0      -1.744  10.057  21.500  0.00  0.00    -0.650 OA
BRANCH  39  41
ATOM     41  O   UNK d   0      -0.656   9.447  23.390  0.00  0.00    -0.776 OA
ATOM     42  H   UNK d   0       0.146  10.012  23.683  0.00  0.00     0.167 HD
ENDBRANCH  39  41
ENDBRANCH  38  39
ENDBRANCH  31  38
BRANCH  27  43
ATOM     43  C   UNK d   0      -0.149   5.593  22.559  0.00  0.00     0.052 C 
BRANCH  43  44
ATOM     44  C   UNK d   0      -1.324   6.056  23.359  0.00  0.00     0.115 C 
BRANCH  44  45
ATOM     45  C   UNK d   0      -0.879   6.103  24.776  0.00  0.00     0.139 C 
ATOM     46  O   UNK d   0      -0.778   5.019  25.401  0.00  0.00    -0.650 OA
BRANCH  45  47
ATOM     47  O   UNK d   0      -0.571   7.280  25.424  0.00  0.00    -0.776 OA
ATOM     48  H   UNK d   0      -1.104   7.627  26.238  0.00  0.00     0.167 HD
ENDBRANCH  45  47
ENDBRANCH  44  45
ENDBRANCH  43  44
ENDBRANCH  27  43
BRANCH  24  49
ATOM     49  C   UNK d   0       3.367   2.157  25.107  0.00  0.00     0.052 C 
BRANCH  49  50
ATOM     50  C   UNK d   0       2.499   1.383  24.148  0.00  0.00     0.115 C 
BRANCH  50  51
ATOM     51  C   UNK d   0       2.166   0.012  24.511  0.00  0.00     0.139 C 
ATOM     52  O   UNK d   0       1.029  -0.321  24.922  0.00  0.00    -0.650 OA
BRANCH  51  53
ATOM     53  O   UNK d   0       3.130  -0.979  24.409  0.00  0.00    -0.776 OA
ATOM     54  H   UNK d   0       3.441  -1.428  25.253  0.00  0.00     0.167 HD
ENDBRANCH  51  53
ENDBRANCH  50  51
ENDBRANCH  49  50
ENDBRANCH  24  49
BRANCH  21  55
ATOM     55  C   UNK d   0       6.320   1.807  24.270  0.00  0.00     0.151 C 
BRANCH  55  56
ATOM     56  C   UNK d   0       6.062   0.703  23.333  0.00  0.00     0.143 C 
ATOM     57  O   UNK d   0       5.974  -0.486  23.699  0.00  0.00    -0.650 OA
BRANCH  56  58
ATOM     58  O   UNK d   0       5.911   1.018  21.984  0.00  0.00    -0.776 OA
ATOM     59  H   UNK d   0       5.048   0.651  21.544  0.00  0.00     0.167 HD
ENDBRANCH  56  58
ENDBRANCH  55  56
ENDBRANCH  21  55
BRANCH  18  60
ATOM     60  C   UNK d   0       9.715   5.841  23.265  0.00  0.00     0.151 C 
BRANCH  60  61
ATOM     61  C   UNK d   0       9.647   6.455  24.600  0.00  0.00     0.143 C 
ATOM     62  O   UNK d   0      10.457   7.236  25.100  0.00  0.00    -0.650 OA
BRANCH  61  63
ATOM     63  O   UNK d   0       8.517   6.094  25.372  0.00  0.00    -0.776 OA
ATOM     64  H   UNK d   0       8.621   5.668  26.276  0.00  0.00     0.167 HD
ENDBRANCH  61  63
ENDBRANCH  60  61
ENDBRANCH  18  60
BRANCH  14  65
ATOM     65  C   UNK d   0       9.811   8.533  21.867  0.00  0.00     0.052 C 
BRANCH  65  66
ATOM     66  C   UNK d   0      10.653   8.327  20.658  0.00  0.00     0.115 C 
BRANCH  66  67
ATOM     67  C   UNK d   0      10.711   9.346  19.649  0.00  0.00     0.139 C 
ATOM     68  O   UNK d   0      10.132  10.471  19.879  0.00  0.00    -0.650 OA
BRANCH  67  69
ATOM     69  O   UNK d   0      11.334   9.279  18.403  0.00  0.00    -0.776 OA
ATOM     70  H   UNK d   0      12.315   8.963  18.409  0.00  0.00     0.167 HD
ENDBRANCH  67  69
ENDBRANCH  66  67
ENDBRANCH  65  66
ENDBRANCH  14  65
ENDBRANCH   6   7
ENDBRANCH   5   6
ENDBRANCH   2   5
TORSDOF 28
ENDMDL
MODEL 13
REMARK VINA RESULT:      -9.7      1.702      9.622
REMARK  28 active torsions:
REMARK  status: ('A' for Active; 'I' for Inactive)
REMARK    1  A    between atoms: C_2  and  O_3 
REMARK    2  A    between atoms: C_2  and  C_4 
REMARK    3  A    between atoms: C_4  and  C_5 
REMARK    4  A    between atoms: C_5  and  C_6 
REMARK    5  A    between atoms: C_7  and  C_8 
REMARK    6  A    between atoms: C_8  and  C_9 
REMARK    7  A    between atoms: C_9  and  O_11 
REMARK    8  A    between atoms: C_28  and  C_29 
REMARK    9  A    between atoms: C_29  and  C_30 
REMARK   10  A    between atoms: C_30  and  O_32 
REMARK   11  A    between atoms: C_33  and  C_34 
REMARK   12  A    between atoms: C_34  and  C_35 
REMARK   13  A    between atoms: C_35  and  C_36 
REMARK   14  A    between atoms: C_36  and  O_38 
REMARK   15  A    between atoms: C_39  and  C_40 
REMARK   16  A    between atoms: C_40  and  C_41 
REMARK   17  A    between atoms: C_41  and  C_42 
REMARK   18  A    between atoms: C_42  and  O_44 
REMARK   19  A    between atoms: C_45  and  C_46 
REMARK   20  A    between atoms: C_46  and  C_47 
REMARK   21  A    between atoms: C_47  and  O_49 
REMARK   22  A    between atoms: C_50  and  C_51 
REMARK   23  A    between atoms: C_51  and  C_52 
REMARK   24  A    between atoms: C_52  and  O_54 
REMARK   25  A    between atoms: C_55  and  C_56 
REMARK   26  A    between atoms: C_56  and  C_57 
REMARK   27  A    between atoms: C_57  and  C_58 
REMARK   28  A    between atoms: C_58  and  O_60 
ROOT
ATOM      1  O   UNK d   0       8.015  11.331  18.128  0.00  0.00    -0.650 OA
ATOM      2  C   UNK d   0       7.021  11.687  18.798  0.00  0.00     0.139 C 
ENDROOT
BRANCH   2   3
ATOM      3  O   UNK d   0       5.769  11.260  18.425  0.00  0.00    -0.776 OA
ATOM      4  H   UNK d   0       4.948  11.474  18.995  0.00  0.00     0.167 HD
ENDBRANCH   2   3
BRANCH   2   5
ATOM      5  C   UNK d   0       7.197  12.568  19.987  0.00  0.00     0.115 C 
BRANCH   5   6
ATOM      6  C   UNK d   0       8.060  11.885  21.014  0.00  0.00     0.052 C 
BRANCH   6   7
ATOM      7  C   UNK d   0       7.639  10.458  21.270  0.00  0.00    -0.020 A 
ATOM      8  C   UNK d   0       8.333   9.370  21.054  0.00  0.00    -0.011 A 
ATOM      9  C   UNK d   0       7.514   8.235  21.445  0.00  0.00     0.067 A 
ATOM     10  C   UNK d   0       7.668   6.840  21.484  0.00  0.00     0.062 C 
ATOM     11  N   UNK d   0       6.334   8.724  21.882  0.00  0.00    -0.248 NA
ATOM     12  C   UNK d   0       6.862   5.917  22.158  0.00  0.00     0.041 A 
ATOM     13  N   UNK d   0       5.523   5.827  22.275  0.00  0.00    -0.355 N 
ATOM     14  C   UNK d   0       7.476   4.904  22.917  0.00  0.00    -0.022 A 
ATOM     15  C   UNK d   0       5.273   4.788  23.094  0.00  0.00     0.042 A 
ATOM     16  H   UNK d   0       4.770   6.474  21.772  0.00  0.00     0.166 HD
ATOM     17  C   UNK d   0       4.049   4.258  23.547  0.00  0.00     0.062 C 
ATOM     18  C   UNK d   0       6.472   4.185  23.517  0.00  0.00    -0.013 A 
ATOM     19  C   UNK d   0       2.944   4.920  24.019  0.00  0.00     0.067 A 
ATOM     20  N   UNK d   0       2.918   6.245  23.858  0.00  0.00    -0.248 NA
ATOM     21  C   UNK d   0       1.718   4.549  24.706  0.00  0.00    -0.011 A 
ATOM     22  C   UNK d   0       1.765   6.768  24.390  0.00  0.00     0.066 A 
ATOM     23  C   UNK d   0       1.590   8.138  24.257  0.00  0.00     0.062 C 
ATOM     24  C   UNK d   0       1.034   5.635  24.924  0.00  0.00    -0.020 A 
ATOM     25  C   UNK d   0       2.406   9.046  23.564  0.00  0.00     0.041 A 
ATOM     26  N   UNK d   0       3.736   9.144  23.460  0.00  0.00    -0.355 N 
ATOM     27  C   UNK d   0       1.788  10.060  22.799  0.00  0.00    -0.022 A 
ATOM     28  C   UNK d   0       3.989  10.185  22.651  0.00  0.00     0.042 A 
ATOM     29  H   UNK d   0       4.492   8.500  23.974  0.00  0.00     0.166 HD
ATOM     30  C   UNK d   0       5.202  10.729  22.199  0.00  0.00     0.062 C 
ATOM     31  C   UNK d   0       2.783  10.784  22.218  0.00  0.00    -0.013 A 
ATOM     32  C   UNK d   0       6.346  10.055  21.803  0.00  0.00     0.066 A 
BRANCH   8  33
ATOM     33  C   UNK d   0       9.700   9.286  20.507  0.00  0.00     0.151 C 
BRANCH  33  34
ATOM     34  C   UNK d   0      10.706   8.957  21.534  0.00  0.00     0.143 C 
ATOM     35  O   UNK d   0      11.538   8.059  21.344  0.00  0.00    -0.650 OA
BRANCH  34  36
ATOM     36  O   UNK d   0      10.717   9.658  22.717  0.00  0.00    -0.776 OA
ATOM     37  H   UNK d   0      11.599   9.879  23.199  0.00  0.00     0.167 HD
ENDBRANCH  34  36
ENDBRANCH  33  34
ENDBRANCH   8  33
BRANCH  31  38
ATOM     38  C   UNK d   0       2.602  11.967  21.296  0.00  0.00     0.151 C 
BRANCH  38  39
ATOM     39  C   UNK d   0       2.342  13.200  22.008  0.00  0.00     0.143 C 
ATOM     40  O   UNK d   0       2.045  14.257  21.423  0.00  0.00    -0.650 OA
BRANCH  39  41
ATOM     41  O   UNK d   0       2.425  13.219  23.400  0.00  0.00    -0.776 OA
ATOM     42  H   UNK d   0       1.621  13.605  23.905  0.00  0.00     0.167 HD
ENDBRANCH  39  41
ENDBRANCH  38  39
ENDBRANCH  31  38
BRANCH  27  43
ATOM     43  C   UNK d   0       0.322  10.358  22.608  0.00  0.00     0.052 C 
BRANCH  43  44
ATOM     44  C   UNK d   0      -0.234   9.798  21.340  0.00  0.00     0.115 C 
BRANCH  44  45
ATOM     45  C   UNK d   0      -1.403   8.963  21.721  0.00  0.00     0.139 C 
ATOM     46  O   UNK d   0      -1.186   7.808  22.165  0.00  0.00    -0.650 OA
BRANCH  45  47
ATOM     47  O   UNK d   0      -2.704   9.405  21.612  0.00  0.00    -0.776 OA
ATOM     48  H   UNK d   0      -3.459   9.084  22.240  0.00  0.00     0.167 HD
ENDBRANCH  45  47
ENDBRANCH  44  45
ENDBRANCH  43  44
ENDBRANCH  27  43
BRANCH  24  49
ATOM     49  C   UNK d   0      -0.291   5.714  25.561  0.00  0.00     0.052 C 
BRANCH  49  50
ATOM     50  C   UNK d   0      -0.151   5.740  27.062  0.00  0.00     0.115 C 
BRANCH  50  51
ATOM     51  C   UNK d   0      -0.117   7.047  27.704  0.00  0.00     0.139 C 
ATOM     52  O   UNK d   0      -0.297   8.116  27.073  0.00  0.00    -0.650 OA
BRANCH  51  53
ATOM     53  O   UNK d   0       0.125   7.137  29.066  0.00  0.00    -0.776 OA
ATOM     54  H   UNK d   0       0.672   6.414  29.500  0.00  0.00     0.167 HD
ENDBRANCH  51  53
ENDBRANCH  50  51
ENDBRANCH  49  50
ENDBRANCH  24  49
BRANCH  21  55
ATOM     55  C   UNK d   0       1.355   3.147  25.069  0.00  0.00     0.151 C 
BRANCH  55  56
ATOM     56  C   UNK d   0       2.090   2.676  26.253  0.00  0.00     0.143 C 
ATOM     57  O   UNK d   0       1.690   2.871  27.418  0.00  0.00    -0.650 OA
BRANCH  56  58
ATOM     58  O   UNK d   0       3.283   1.985  26.044  0.00  0.00    -0.776 OA
ATOM     59  H   UNK d   0       4.137   2.571  26.067  0.00  0.00     0.167 HD
ENDBRANCH  56  58
ENDBRANCH  55  56
ENDBRANCH  21  55
BRANCH  18  60
ATOM     60  C   UNK d   0       6.683   3.004  24.432  0.00  0.00     0.151 C 
BRANCH  60  61
ATOM     61  C   UNK d   0       6.459   1.808  23.607  0.00  0.00     0.143 C 
ATOM     62  O   UNK d   0       6.197   1.774  22.404  0.00  0.00    -0.650 OA
BRANCH  61  63
ATOM     63  O   UNK d   0       6.560   0.574  24.293  0.00  0.00    -0.776 OA
ATOM     64  H   UNK d   0       6.540   0.536  25.297  0.00  0.00     0.167 HD
ENDBRANCH  61  63
ENDBRANCH  60  61
ENDBRANCH  18  60
BRANCH  14  65
ATOM     65  C   UNK d   0       8.920   4.507  23.037  0.00  0.00     0.052 C 
BRANCH  65  66
ATOM     66  C   UNK d   0       9.823   5.665  23.277  0.00  0.00     0.115 C 
BRANCH  66  67
ATOM     67  C   UNK d   0       9.789   6.344  24.542  0.00  0.00     0.139 C 
ATOM     68  O   UNK d   0       9.101   5.827  25.497  0.00  0.00    -0.650 OA
BRANCH  67  69
ATOM     69  O   UNK d   0      10.426   7.535  24.888  0.00  0.00    -0.776 OA
ATOM     70  H   UNK d   0      11.296   7.743  24.378  0.00  0.00     0.167 HD
ENDBRANCH  67  69
ENDBRANCH  66  67
ENDBRANCH  65  66
ENDBRANCH  14  65
ENDBRANCH   6   7
ENDBRANCH   5   6
ENDBRANCH   2   5
TORSDOF 28
ENDMDL
MODEL 14
REMARK VINA RESULT:      -9.6      3.133      7.440
REMARK  28 active torsions:
REMARK  status: ('A' for Active; 'I' for Inactive)
REMARK    1  A    between atoms: C_2  and  O_3 
REMARK    2  A    between atoms: C_2  and  C_4 
REMARK    3  A    between atoms: C_4  and  C_5 
REMARK    4  A    between atoms: C_5  and  C_6 
REMARK    5  A    between atoms: C_7  and  C_8 
REMARK    6  A    between atoms: C_8  and  C_9 
REMARK    7  A    between atoms: C_9  and  O_11 
REMARK    8  A    between atoms: C_28  and  C_29 
REMARK    9  A    between atoms: C_29  and  C_30 
REMARK   10  A    between atoms: C_30  and  O_32 
REMARK   11  A    between atoms: C_33  and  C_34 
REMARK   12  A    between atoms: C_34  and  C_35 
REMARK   13  A    between atoms: C_35  and  C_36 
REMARK   14  A    between atoms: C_36  and  O_38 
REMARK   15  A    between atoms: C_39  and  C_40 
REMARK   16  A    between atoms: C_40  and  C_41 
REMARK   17  A    between atoms: C_41  and  C_42 
REMARK   18  A    between atoms: C_42  and  O_44 
REMARK   19  A    between atoms: C_45  and  C_46 
REMARK   20  A    between atoms: C_46  and  C_47 
REMARK   21  A    between atoms: C_47  and  O_49 
REMARK   22  A    between atoms: C_50  and  C_51 
REMARK   23  A    between atoms: C_51  and  C_52 
REMARK   24  A    between atoms: C_52  and  O_54 
REMARK   25  A    between atoms: C_55  and  C_56 
REMARK   26  A    between atoms: C_56  and  C_57 
REMARK   27  A    between atoms: C_57  and  C_58 
REMARK   28  A    between atoms: C_58  and  O_60 
ROOT
ATOM      1  O   UNK d   0       0.459  -2.897  25.057  0.00  0.00    -0.650 OA
ATOM      2  C   UNK d   0       1.252  -2.544  24.156  0.00  0.00     0.139 C 
ENDROOT
BRANCH   2   3
ATOM      3  O   UNK d   0       2.166  -3.448  23.671  0.00  0.00    -0.776 OA
ATOM      4  H   UNK d   0       1.903  -4.419  23.491  0.00  0.00     0.167 HD
ENDBRANCH   2   3
BRANCH   2   5
ATOM      5  C   UNK d   0       1.203  -1.154  23.619  0.00  0.00     0.115 C 
BRANCH   5   6
ATOM      6  C   UNK d   0       0.689  -0.210  24.671  0.00  0.00     0.052 C 
BRANCH   6   7
ATOM      7  C   UNK d   0       0.481   1.190  24.144  0.00  0.00    -0.020 A 
ATOM      8  C   UNK d   0      -0.644   1.742  23.768  0.00  0.00    -0.011 A 
ATOM      9  C   UNK d   0      -0.349   3.096  23.328  0.00  0.00     0.067 A 
ATOM     10  C   UNK d   0      -1.088   4.186  22.842  0.00  0.00     0.062 C 
ATOM     11  N   UNK d   0       0.980   3.282  23.465  0.00  0.00    -0.248 NA
ATOM     12  C   UNK d   0      -0.665   5.515  22.731  0.00  0.00     0.041 A 
ATOM     13  N   UNK d   0       0.498   6.042  22.304  0.00  0.00    -0.355 N 
ATOM     14  C   UNK d   0      -1.521   6.541  23.171  0.00  0.00    -0.022 A 
ATOM     15  C   UNK d   0       0.405   7.375  22.468  0.00  0.00     0.042 A 
ATOM     16  H   UNK d   0       1.361   5.484  21.876  0.00  0.00     0.166 HD
ATOM     17  C   UNK d   0       1.332   8.397  22.183  0.00  0.00     0.062 C 
ATOM     18  C   UNK d   0      -0.846   7.726  23.010  0.00  0.00    -0.013 A 
ATOM     19  C   UNK d   0       2.677   8.441  22.447  0.00  0.00     0.067 A 
ATOM     20  N   UNK d   0       3.251   7.304  22.849  0.00  0.00    -0.248 NA
ATOM     21  C   UNK d   0       3.715   9.458  22.421  0.00  0.00    -0.011 A 
ATOM     22  C   UNK d   0       4.589   7.504  23.088  0.00  0.00     0.066 A 
ATOM     23  C   UNK d   0       5.319   6.391  23.478  0.00  0.00     0.062 C 
ATOM     24  C   UNK d   0       4.830   8.904  22.801  0.00  0.00    -0.020 A 
ATOM     25  C   UNK d   0       4.877   5.062  23.570  0.00  0.00     0.041 A 
ATOM     26  N   UNK d   0       3.727   4.537  24.009  0.00  0.00    -0.355 N 
ATOM     27  C   UNK d   0       5.735   4.033  23.125  0.00  0.00    -0.022 A 
ATOM     28  C   UNK d   0       3.821   3.207  23.854  0.00  0.00     0.042 A 
ATOM     29  H   UNK d   0       2.866   5.098  24.449  0.00  0.00     0.166 HD
ATOM     30  C   UNK d   0       2.911   2.178  24.143  0.00  0.00     0.062 C 
ATOM     31  C   UNK d   0       5.075   2.856  23.300  0.00  0.00    -0.013 A 
ATOM     32  C   UNK d   0       1.538   2.172  23.952  0.00  0.00     0.066 A 
BRANCH   8  33
ATOM     33  C   UNK d   0      -1.981   1.120  23.775  0.00  0.00     0.151 C 
BRANCH  33  34
ATOM     34  C   UNK d   0      -2.785   1.509  24.947  0.00  0.00     0.143 C 
ATOM     35  O   UNK d   0      -3.813   2.188  24.817  0.00  0.00    -0.650 OA
BRANCH  34  36
ATOM     36  O   UNK d   0      -2.384   1.112  26.202  0.00  0.00    -0.776 OA
ATOM     37  H   UNK d   0      -1.590   1.563  26.677  0.00  0.00     0.167 HD
ENDBRANCH  34  36
ENDBRANCH  33  34
ENDBRANCH   8  33
BRANCH  31  38
ATOM     38  C   UNK d   0       5.595   1.481  22.951  0.00  0.00     0.151 C 
BRANCH  38  39
ATOM     39  C   UNK d   0       6.138   0.779  24.095  0.00  0.00     0.143 C 
ATOM     40  O   UNK d   0       6.340  -0.448  24.088  0.00  0.00    -0.650 OA
BRANCH  39  41
ATOM     41  O   UNK d   0       6.452   1.492  25.251  0.00  0.00    -0.776 OA
ATOM     42  H   UNK d   0       5.945   2.369  25.405  0.00  0.00     0.167 HD
ENDBRANCH  39  41
ENDBRANCH  38  39
ENDBRANCH  31  38
BRANCH  27  43
ATOM     43  C   UNK d   0       7.128   4.127  22.554  0.00  0.00     0.052 C 
BRANCH  43  44
ATOM     44  C   UNK d   0       8.156   4.520  23.565  0.00  0.00     0.115 C 
BRANCH  44  45
ATOM     45  C   UNK d   0       9.291   5.110  22.809  0.00  0.00     0.139 C 
ATOM     46  O   UNK d   0      10.152   5.764  23.449  0.00  0.00    -0.650 OA
BRANCH  45  47
ATOM     47  O   UNK d   0       9.437   4.966  21.446  0.00  0.00    -0.776 OA
ATOM     48  H   UNK d   0       9.375   4.051  20.970  0.00  0.00     0.167 HD
ENDBRANCH  45  47
ENDBRANCH  44  45
ENDBRANCH  43  44
ENDBRANCH  27  43
BRANCH  24  49
ATOM     49  C   UNK d   0       6.144   9.565  22.883  0.00  0.00     0.052 C 
BRANCH  49  50
ATOM     50  C   UNK d   0       6.746   9.707  21.509  0.00  0.00     0.115 C 
BRANCH  50  51
ATOM     51  C   UNK d   0       7.069   8.479  20.794  0.00  0.00     0.139 C 
ATOM     52  O   UNK d   0       7.842   7.609  21.259  0.00  0.00    -0.650 OA
BRANCH  51  53
ATOM     53  O   UNK d   0       6.511   8.245  19.547  0.00  0.00    -0.776 OA
ATOM     54  H   UNK d   0       7.093   7.841  18.834  0.00  0.00     0.167 HD
ENDBRANCH  51  53
ENDBRANCH  50  51
ENDBRANCH  49  50
ENDBRANCH  24  49
BRANCH  21  55
ATOM     55  C   UNK d   0       3.484  10.876  22.014  0.00  0.00     0.151 C 
BRANCH  55  56
ATOM     56  C   UNK d   0       2.558  11.567  22.924  0.00  0.00     0.143 C 
ATOM     57  O   UNK d   0       1.445  11.994  22.559  0.00  0.00    -0.650 OA
BRANCH  56  58
ATOM     58  O   UNK d   0       2.959  11.742  24.248  0.00  0.00    -0.776 OA
ATOM     59  H   UNK d   0       3.751  11.145  24.547  0.00  0.00     0.167 HD
ENDBRANCH  56  58
ENDBRANCH  55  56
ENDBRANCH  21  55
BRANCH  18  60
ATOM     60  C   UNK d   0      -1.393   9.086  23.365  0.00  0.00     0.151 C 
BRANCH  60  61
ATOM     61  C   UNK d   0      -1.661   9.760  22.085  0.00  0.00     0.143 C 
ATOM     62  O   UNK d   0      -2.183   9.270  21.084  0.00  0.00    -0.650 OA
BRANCH  61  63
ATOM     63  O   UNK d   0      -1.268  11.118  22.025  0.00  0.00    -0.776 OA
ATOM     64  H   UNK d   0      -1.655  11.740  21.338  0.00  0.00     0.167 HD
ENDBRANCH  61  63
ENDBRANCH  60  61
ENDBRANCH  18  60
BRANCH  14  65
ATOM     65  C   UNK d   0      -2.949   6.495  23.634  0.00  0.00     0.052 C 
BRANCH  65  66
ATOM     66  C   UNK d   0      -3.922   6.794  22.550  0.00  0.00     0.115 C 
BRANCH  66  67
ATOM     67  C   UNK d   0      -4.971   5.858  22.257  0.00  0.00     0.139 C 
ATOM     68  O   UNK d   0      -5.016   4.758  22.922  0.00  0.00    -0.650 OA
BRANCH  67  69
ATOM     69  O   UNK d   0      -5.989   5.984  21.312  0.00  0.00    -0.776 OA
ATOM     70  H   UNK d   0      -6.013   6.876  20.797  0.00  0.00     0.167 HD
ENDBRANCH  67  69
ENDBRANCH  66  67
ENDBRANCH  65  66
ENDBRANCH  14  65
ENDBRANCH   6   7
ENDBRANCH   5   6
ENDBRANCH   2   5
TORSDOF 28
ENDMDL
MODEL 15
REMARK VINA RESULT:      -9.6      1.721      7.693
REMARK  28 active torsions:
REMARK  status: ('A' for Active; 'I' for Inactive)
REMARK    1  A    between atoms: C_2  and  O_3 
REMARK    2  A    between atoms: C_2  and  C_4 
REMARK    3  A    between atoms: C_4  and  C_5 
REMARK    4  A    between atoms: C_5  and  C_6 
REMARK    5  A    between atoms: C_7  and  C_8 
REMARK    6  A    between atoms: C_8  and  C_9 
REMARK    7  A    between atoms: C_9  and  O_11 
REMARK    8  A    between atoms: C_28  and  C_29 
REMARK    9  A    between atoms: C_29  and  C_30 
REMARK   10  A    between atoms: C_30  and  O_32 
REMARK   11  A    between atoms: C_33  and  C_34 
REMARK   12  A    between atoms: C_34  and  C_35 
REMARK   13  A    between atoms: C_35  and  C_36 
REMARK   14  A    between atoms: C_36  and  O_38 
REMARK   15  A    between atoms: C_39  and  C_40 
REMARK   16  A    between atoms: C_40  and  C_41 
REMARK   17  A    between atoms: C_41  and  C_42 
REMARK   18  A    between atoms: C_42  and  O_44 
REMARK   19  A    between atoms: C_45  and  C_46 
REMARK   20  A    between atoms: C_46  and  C_47 
REMARK   21  A    between atoms: C_47  and  O_49 
REMARK   22  A    between atoms: C_50  and  C_51 
REMARK   23  A    between atoms: C_51  and  C_52 
REMARK   24  A    between atoms: C_52  and  O_54 
REMARK   25  A    between atoms: C_55  and  C_56 
REMARK   26  A    between atoms: C_56  and  C_57 
REMARK   27  A    between atoms: C_57  and  C_58 
REMARK   28  A    between atoms: C_58  and  O_60 
ROOT
ATOM      1  O   UNK d   0      -2.441   5.685  21.538  0.00  0.00    -0.650 OA
ATOM      2  C   UNK d   0      -2.592   5.718  22.780  0.00  0.00     0.139 C 
ENDROOT
BRANCH   2   3
ATOM      3  O   UNK d   0      -3.781   6.166  23.303  0.00  0.00    -0.776 OA
ATOM      4  H   UNK d   0      -3.821   7.017  23.868  0.00  0.00     0.167 HD
ENDBRANCH   2   3
BRANCH   2   5
ATOM      5  C   UNK d   0      -1.489   5.274  23.679  0.00  0.00     0.115 C 
BRANCH   5   6
ATOM      6  C   UNK d   0      -0.555   4.357  22.939  0.00  0.00     0.052 C 
BRANCH   6   7
ATOM      7  C   UNK d   0       0.896   4.734  23.122  0.00  0.00    -0.020 A 
ATOM      8  C   UNK d   0       1.825   4.054  23.745  0.00  0.00    -0.011 A 
ATOM      9  C   UNK d   0       3.060   4.816  23.670  0.00  0.00     0.067 A 
ATOM     10  C   UNK d   0       4.384   4.644  24.101  0.00  0.00     0.062 C 
ATOM     11  N   UNK d   0       2.790   5.950  22.988  0.00  0.00    -0.248 NA
ATOM     12  C   UNK d   0       5.510   5.366  23.691  0.00  0.00     0.041 A 
ATOM     13  N   UNK d   0       5.691   6.685  23.486  0.00  0.00    -0.355 N 
ATOM     14  C   UNK d   0       6.686   4.666  23.365  0.00  0.00    -0.022 A 
ATOM     15  C   UNK d   0       6.948   6.839  23.030  0.00  0.00     0.042 A 
ATOM     16  H   UNK d   0       4.950   7.492  23.677  0.00  0.00     0.166 HD
ATOM     17  C   UNK d   0       7.650   8.004  22.660  0.00  0.00     0.062 C 
ATOM     18  C   UNK d   0       7.603   5.595  22.941  0.00  0.00    -0.013 A 
ATOM     19  C   UNK d   0       7.224   9.061  21.897  0.00  0.00     0.067 A 
ATOM     20  N   UNK d   0       5.920   9.117  21.616  0.00  0.00    -0.248 NA
ATOM     21  C   UNK d   0       7.850  10.206  21.257  0.00  0.00    -0.011 A 
ATOM     22  C   UNK d   0       5.648  10.215  20.836  0.00  0.00     0.066 A 
ATOM     23  C   UNK d   0       4.318  10.417  20.500  0.00  0.00     0.062 C 
ATOM     24  C   UNK d   0       6.923  10.875  20.634  0.00  0.00    -0.020 A 
ATOM     25  C   UNK d   0       3.200   9.687  20.933  0.00  0.00     0.041 A 
ATOM     26  N   UNK d   0       3.016   8.376  21.123  0.00  0.00    -0.355 N 
ATOM     27  C   UNK d   0       2.021  10.391  21.264  0.00  0.00    -0.022 A 
ATOM     28  C   UNK d   0       1.759   8.219  21.569  0.00  0.00     0.042 A 
ATOM     29  H   UNK d   0       3.757   7.564  20.920  0.00  0.00     0.166 HD
ATOM     30  C   UNK d   0       1.046   7.065  21.931  0.00  0.00     0.062 C 
ATOM     31  C   UNK d   0       1.105   9.469  21.668  0.00  0.00    -0.013 A 
ATOM     32  C   UNK d   0       1.506   5.960  22.630  0.00  0.00     0.066 A 
BRANCH   8  33
ATOM     33  C   UNK d   0       1.668   2.750  24.415  0.00  0.00     0.151 C 
BRANCH  33  34
ATOM     34  C   UNK d   0       1.691   2.857  25.885  0.00  0.00     0.143 C 
ATOM     35  O   UNK d   0       0.792   3.454  26.494  0.00  0.00    -0.650 OA
BRANCH  34  36
ATOM     36  O   UNK d   0       2.727   2.287  26.587  0.00  0.00    -0.776 OA
ATOM     37  H   UNK d   0       3.664   2.714  26.600  0.00  0.00     0.167 HD
ENDBRANCH  34  36
ENDBRANCH  33  34
ENDBRANCH   8  33
BRANCH  31  38
ATOM     38  C   UNK d   0      -0.303   9.757  22.134  0.00  0.00     0.151 C 
BRANCH  38  39
ATOM     39  C   UNK d   0      -0.459   9.625  23.567  0.00  0.00     0.143 C 
ATOM     40  O   UNK d   0      -1.552   9.359  24.096  0.00  0.00    -0.650 OA
BRANCH  39  41
ATOM     41  O   UNK d   0       0.649   9.797  24.397  0.00  0.00    -0.776 OA
ATOM     42  H   UNK d   0       0.575   9.425  25.349  0.00  0.00     0.167 HD
ENDBRANCH  39  41
ENDBRANCH  38  39
ENDBRANCH  31  38
BRANCH  27  43
ATOM     43  C   UNK d   0       1.742  11.872  21.209  0.00  0.00     0.052 C 
BRANCH  43  44
ATOM     44  C   UNK d   0       2.024  12.575  22.497  0.00  0.00     0.115 C 
BRANCH  44  45
ATOM     45  C   UNK d   0       2.213  14.011  22.165  0.00  0.00     0.139 C 
ATOM     46  O   UNK d   0       2.259  14.836  23.111  0.00  0.00    -0.650 OA
BRANCH  45  47
ATOM     47  O   UNK d   0       2.346  14.467  20.871  0.00  0.00    -0.776 OA
ATOM     48  H   UNK d   0       2.538  15.456  20.643  0.00  0.00     0.167 HD
ENDBRANCH  45  47
ENDBRANCH  44  45
ENDBRANCH  43  44
ENDBRANCH  27  43
BRANCH  24  49
ATOM     49  C   UNK d   0       7.112  12.128  19.884  0.00  0.00     0.052 C 
BRANCH  49  50
ATOM     50  C   UNK d   0       7.872  11.867  18.609  0.00  0.00     0.115 C 
BRANCH  50  51
ATOM     51  C   UNK d   0       7.452  10.727  17.807  0.00  0.00     0.139 C 
ATOM     52  O   UNK d   0       6.271  10.573  17.415  0.00  0.00    -0.650 OA
BRANCH  51  53
ATOM     53  O   UNK d   0       8.379   9.759  17.452  0.00  0.00    -0.776 OA
ATOM     54  H   UNK d   0       9.350  10.017  17.426  0.00  0.00     0.167 HD
ENDBRANCH  51  53
ENDBRANCH  50  51
ENDBRANCH  49  50
ENDBRANCH  24  49
BRANCH  21  55
ATOM     55  C   UNK d   0       9.309  10.514  21.338  0.00  0.00     0.151 C 
BRANCH  55  56
ATOM     56  C   UNK d   0      10.132   9.434  20.773  0.00  0.00     0.143 C 
ATOM     57  O   UNK d   0      11.261   9.144  21.216  0.00  0.00    -0.650 OA
BRANCH  56  58
ATOM     58  O   UNK d   0       9.612   8.714  19.698  0.00  0.00    -0.776 OA
ATOM     59  H   UNK d   0       9.105   7.849  19.957  0.00  0.00     0.167 HD
ENDBRANCH  56  58
ENDBRANCH  55  56
ENDBRANCH  21  55
BRANCH  18  60
ATOM     60  C   UNK d   0       9.006   5.279  22.483  0.00  0.00     0.151 C 
BRANCH  60  61
ATOM     61  C   UNK d   0       9.903   5.959  23.430  0.00  0.00     0.143 C 
ATOM     62  O   UNK d   0       9.820   5.962  24.659  0.00  0.00    -0.650 OA
BRANCH  61  63
ATOM     63  O   UNK d   0      10.968   6.680  22.839  0.00  0.00    -0.776 OA
ATOM     64  H   UNK d   0      10.898   7.031  21.900  0.00  0.00     0.167 HD
ENDBRANCH  61  63
ENDBRANCH  60  61
ENDBRANCH  18  60
BRANCH  14  65
ATOM     65  C   UNK d   0       7.037   3.213  23.516  0.00  0.00     0.052 C 
BRANCH  65  66
ATOM     66  C   UNK d   0       6.036   2.306  22.894  0.00  0.00     0.115 C 
BRANCH  66  67
ATOM     67  C   UNK d   0       5.450   1.252  23.674  0.00  0.00     0.139 C 
ATOM     68  O   UNK d   0       5.086   1.510  24.879  0.00  0.00    -0.650 OA
BRANCH  67  69
ATOM     69  O   UNK d   0       5.213  -0.066  23.285  0.00  0.00    -0.776 OA
ATOM     70  H   UNK d   0       5.398  -0.281  22.294  0.00  0.00     0.167 HD
ENDBRANCH  67  69
ENDBRANCH  66  67
ENDBRANCH  65  66
ENDBRANCH  14  65
ENDBRANCH   6   7
ENDBRANCH   5   6
ENDBRANCH   2   5
TORSDOF 28
ENDMDL
MODEL 16
REMARK VINA RESULT:      -9.5      3.302      8.744
REMARK  28 active torsions:
REMARK  status: ('A' for Active; 'I' for Inactive)
REMARK    1  A    between atoms: C_2  and  O_3 
REMARK    2  A    between atoms: C_2  and  C_4 
REMARK    3  A    between atoms: C_4  and  C_5 
REMARK    4  A    between atoms: C_5  and  C_6 
REMARK    5  A    between atoms: C_7  and  C_8 
REMARK    6  A    between atoms: C_8  and  C_9 
REMARK    7  A    between atoms: C_9  and  O_11 
REMARK    8  A    between atoms: C_28  and  C_29 
REMARK    9  A    between atoms: C_29  and  C_30 
REMARK   10  A    between atoms: C_30  and  O_32 
REMARK   11  A    between atoms: C_33  and  C_34 
REMARK   12  A    between atoms: C_34  and  C_35 
REMARK   13  A    between atoms: C_35  and  C_36 
REMARK   14  A    between atoms: C_36  and  O_38 
REMARK   15  A    between atoms: C_39  and  C_40 
REMARK   16  A    between atoms: C_40  and  C_41 
REMARK   17  A    between atoms: C_41  and  C_42 
REMARK   18  A    between atoms: C_42  and  O_44 
REMARK   19  A    between atoms: C_45  and  C_46 
REMARK   20  A    between atoms: C_46  and  C_47 
REMARK   21  A    between atoms: C_47  and  O_49 
REMARK   22  A    between atoms: C_50  and  C_51 
REMARK   23  A    between atoms: C_51  and  C_52 
REMARK   24  A    between atoms: C_52  and  O_54 
REMARK   25  A    between atoms: C_55  and  C_56 
REMARK   26  A    between atoms: C_56  and  C_57 
REMARK   27  A    between atoms: C_57  and  C_58 
REMARK   28  A    between atoms: C_58  and  O_60 
ROOT
ATOM      1  O   UNK d   0       7.332   7.679  21.437  0.00  0.00    -0.650 OA
ATOM      2  C   UNK d   0       6.604   8.433  20.754  0.00  0.00     0.139 C 
ENDROOT
BRANCH   2   3
ATOM      3  O   UNK d   0       6.608   8.313  19.385  0.00  0.00    -0.776 OA
ATOM      4  H   UNK d   0       6.296   7.453  18.930  0.00  0.00     0.167 HD
ENDBRANCH   2   3
BRANCH   2   5
ATOM      5  C   UNK d   0       5.744   9.450  21.422  0.00  0.00     0.115 C 
BRANCH   5   6
ATOM      6  C   UNK d   0       5.739   9.226  22.910  0.00  0.00     0.052 C 
BRANCH   6   7
ATOM      7  C   UNK d   0       4.436   8.645  23.406  0.00  0.00    -0.020 A 
ATOM      8  C   UNK d   0       3.395   9.293  23.862  0.00  0.00    -0.011 A 
ATOM      9  C   UNK d   0       2.386   8.314  24.228  0.00  0.00     0.067 A 
ATOM     10  C   UNK d   0       1.080   8.348  24.740  0.00  0.00     0.062 C 
ATOM     11  N   UNK d   0       2.900   7.093  23.967  0.00  0.00    -0.248 NA
ATOM     12  C   UNK d   0       0.152   7.301  24.768  0.00  0.00     0.041 A 
ATOM     13  N   UNK d   0       0.296   5.997  25.072  0.00  0.00    -0.355 N 
ATOM     14  C   UNK d   0      -1.173   7.556  24.372  0.00  0.00    -0.022 A 
ATOM     15  C   UNK d   0      -0.902   5.417  24.872  0.00  0.00     0.042 A 
ATOM     16  H   UNK d   0       1.221   5.501  25.440  0.00  0.00     0.166 HD
ATOM     17  C   UNK d   0      -1.307   4.077  25.039  0.00  0.00     0.062 C 
ATOM     18  C   UNK d   0      -1.848   6.362  24.432  0.00  0.00    -0.013 A 
ATOM     19  C   UNK d   0      -0.665   2.928  24.655  0.00  0.00     0.067 A 
ATOM     20  N   UNK d   0       0.599   3.050  24.242  0.00  0.00    -0.248 NA
ATOM     21  C   UNK d   0      -1.014   1.520  24.554  0.00  0.00    -0.011 A 
ATOM     22  C   UNK d   0       1.102   1.825  23.878  0.00  0.00     0.066 A 
ATOM     23  C   UNK d   0       2.425   1.801  23.463  0.00  0.00     0.062 C 
ATOM     24  C   UNK d   0       0.023   0.881  24.095  0.00  0.00    -0.020 A 
ATOM     25  C   UNK d   0       3.344   2.862  23.455  0.00  0.00     0.041 A 
ATOM     26  N   UNK d   0       3.205   4.154  23.138  0.00  0.00    -0.355 N 
ATOM     27  C   UNK d   0       4.673   2.606  23.857  0.00  0.00    -0.022 A 
ATOM     28  C   UNK d   0       4.400   4.734  23.329  0.00  0.00     0.042 A 
ATOM     29  H   UNK d   0       2.277   4.649  22.758  0.00  0.00     0.166 HD
ATOM     30  C   UNK d   0       4.820   6.063  23.158  0.00  0.00     0.062 C 
ATOM     31  C   UNK d   0       5.348   3.786  23.781  0.00  0.00    -0.013 A 
ATOM     32  C   UNK d   0       4.130   7.224  23.470  0.00  0.00     0.066 A 
BRANCH   8  33
ATOM     33  C   UNK d   0       3.252  10.755  23.995  0.00  0.00     0.151 C 
BRANCH  33  34
ATOM     34  C   UNK d   0       2.616  11.375  22.818  0.00  0.00     0.143 C 
ATOM     35  O   UNK d   0       3.301  11.895  21.925  0.00  0.00    -0.650 OA
BRANCH  34  36
ATOM     36  O   UNK d   0       1.245  11.376  22.713  0.00  0.00    -0.776 OA
ATOM     37  H   UNK d   0       0.652  10.985  23.457  0.00  0.00     0.167 HD
ENDBRANCH  34  36
ENDBRANCH  33  34
ENDBRANCH   8  33
BRANCH  31  38
ATOM     38  C   UNK d   0       6.802   4.005  24.128  0.00  0.00     0.151 C 
BRANCH  38  39
ATOM     39  C   UNK d   0       7.654   4.079  22.960  0.00  0.00     0.143 C 
ATOM     40  O   UNK d   0       8.762   4.643  22.979  0.00  0.00    -0.650 OA
BRANCH  39  41
ATOM     41  O   UNK d   0       7.230   3.501  21.764  0.00  0.00    -0.776 OA
ATOM     42  H   UNK d   0       6.365   2.953  21.798  0.00  0.00     0.167 HD
ENDBRANCH  39  41
ENDBRANCH  38  39
ENDBRANCH  31  38
BRANCH  27  43
ATOM     43  C   UNK d   0       5.309   1.312  24.298  0.00  0.00     0.052 C 
BRANCH  43  44
ATOM     44  C   UNK d   0       5.894   0.526  23.170  0.00  0.00     0.115 C 
BRANCH  44  45
ATOM     45  C   UNK d   0       6.042  -0.870  23.656  0.00  0.00     0.139 C 
ATOM     46  O   UNK d   0       5.229  -1.731  23.238  0.00  0.00    -0.650 OA
BRANCH  45  47
ATOM     47  O   UNK d   0       7.030  -1.255  24.536  0.00  0.00    -0.776 OA
ATOM     48  H   UNK d   0       6.862  -1.912  25.315  0.00  0.00     0.167 HD
ENDBRANCH  45  47
ENDBRANCH  44  45
ENDBRANCH  43  44
ENDBRANCH  27  43
BRANCH  24  49
ATOM     49  C   UNK d   0       0.120  -0.572  23.875  0.00  0.00     0.052 C 
BRANCH  49  50
ATOM     50  C   UNK d   0       0.904  -1.220  24.987  0.00  0.00     0.115 C 
BRANCH  50  51
ATOM     51  C   UNK d   0       1.757  -2.346  24.630  0.00  0.00     0.139 C 
ATOM     52  O   UNK d   0       1.334  -3.340  23.994  0.00  0.00    -0.650 OA
BRANCH  51  53
ATOM     53  O   UNK d   0       3.093  -2.340  25.002  0.00  0.00    -0.776 OA
ATOM     54  H   UNK d   0       3.697  -1.649  24.592  0.00  0.00     0.167 HD
ENDBRANCH  51  53
ENDBRANCH  50  51
ENDBRANCH  49  50
ENDBRANCH  24  49
BRANCH  21  55
ATOM     55  C   UNK d   0      -2.345   0.961  24.932  0.00  0.00     0.151 C 
BRANCH  55  56
ATOM     56  C   UNK d   0      -3.406   1.390  24.007  0.00  0.00     0.143 C 
ATOM     57  O   UNK d   0      -4.559   1.672  24.387  0.00  0.00    -0.650 OA
BRANCH  56  58
ATOM     58  O   UNK d   0      -3.089   1.478  22.653  0.00  0.00    -0.776 OA
ATOM     59  H   UNK d   0      -3.663   0.880  22.031  0.00  0.00     0.167 HD
ENDBRANCH  56  58
ENDBRANCH  55  56
ENDBRANCH  21  55
BRANCH  18  60
ATOM     60  C   UNK d   0      -3.304   6.173  24.082  0.00  0.00     0.151 C 
BRANCH  60  61
ATOM     61  C   UNK d   0      -3.320   5.400  22.831  0.00  0.00     0.143 C 
ATOM     62  O   UNK d   0      -2.637   5.599  21.826  0.00  0.00    -0.650 OA
BRANCH  61  63
ATOM     63  O   UNK d   0      -4.229   4.315  22.805  0.00  0.00    -0.776 OA
ATOM     64  H   UNK d   0      -5.179   4.441  22.504  0.00  0.00     0.167 HD
ENDBRANCH  61  63
ENDBRANCH  60  61
ENDBRANCH  18  60
BRANCH  14  65
ATOM     65  C   UNK d   0      -1.867   8.846  24.039  0.00  0.00     0.052 C 
BRANCH  65  66
ATOM     66  C   UNK d   0      -2.068   9.038  22.578  0.00  0.00     0.115 C 
BRANCH  66  67
ATOM     67  C   UNK d   0      -1.011   8.705  21.664  0.00  0.00     0.139 C 
ATOM     68  O   UNK d   0      -0.240   9.646  21.248  0.00  0.00    -0.650 OA
BRANCH  67  69
ATOM     69  O   UNK d   0      -0.696   7.449  21.147  0.00  0.00    -0.776 OA
ATOM     70  H   UNK d   0      -0.706   7.373  20.119  0.00  0.00     0.167 HD
ENDBRANCH  67  69
ENDBRANCH  66  67
ENDBRANCH  65  66
ENDBRANCH  14  65
ENDBRANCH   6   7
ENDBRANCH   5   6
ENDBRANCH   2   5
TORSDOF 28
ENDMDL
MODEL 17
REMARK VINA RESULT:      -9.5      1.811      8.097
REMARK  28 active torsions:
REMARK  status: ('A' for Active; 'I' for Inactive)
REMARK    1  A    between atoms: C_2  and  O_3 
REMARK    2  A    between atoms: C_2  and  C_4 
REMARK    3  A    between atoms: C_4  and  C_5 
REMARK    4  A    between atoms: C_5  and  C_6 
REMARK    5  A    between atoms: C_7  and  C_8 
REMARK    6  A    between atoms: C_8  and  C_9 
REMARK    7  A    between atoms: C_9  and  O_11 
REMARK    8  A    between atoms: C_28  and  C_29 
REMARK    9  A    between atoms: C_29  and  C_30 
REMARK   10  A    between atoms: C_30  and  O_32 
REMARK   11  A    between atoms: C_33  and  C_34 
REMARK   12  A    between atoms: C_34  and  C_35 
REMARK   13  A    between atoms: C_35  and  C_36 
REMARK   14  A    between atoms: C_36  and  O_38 
REMARK   15  A    between atoms: C_39  and  C_40 
REMARK   16  A    between atoms: C_40  and  C_41 
REMARK   17  A    between atoms: C_41  and  C_42 
REMARK   18  A    between atoms: C_42  and  O_44 
REMARK   19  A    between atoms: C_45  and  C_46 
REMARK   20  A    between atoms: C_46  and  C_47 
REMARK   21  A    between atoms: C_47  and  O_49 
REMARK   22  A    between atoms: C_50  and  C_51 
REMARK   23  A    between atoms: C_51  and  C_52 
REMARK   24  A    between atoms: C_52  and  O_54 
REMARK   25  A    between atoms: C_55  and  C_56 
REMARK   26  A    between atoms: C_56  and  C_57 
REMARK   27  A    between atoms: C_57  and  C_58 
REMARK   28  A    between atoms: C_58  and  O_60 
ROOT
ATOM      1  O   UNK d   0       5.506  -0.116  23.824  0.00  0.00    -0.650 OA
ATOM      2  C   UNK d   0       5.360   1.116  23.990  0.00  0.00     0.139 C 
ENDROOT
BRANCH   2   3
ATOM      3  O   UNK d   0       4.684   1.571  25.096  0.00  0.00    -0.776 OA
ATOM      4  H   UNK d   0       4.756   2.547  25.393  0.00  0.00     0.167 HD
ENDBRANCH   2   3
BRANCH   2   5
ATOM      5  C   UNK d   0       5.915   2.076  22.994  0.00  0.00     0.115 C 
BRANCH   5   6
ATOM      6  C   UNK d   0       7.003   2.903  23.623  0.00  0.00     0.052 C 
BRANCH   6   7
ATOM      7  C   UNK d   0       6.847   4.379  23.341  0.00  0.00    -0.020 A 
ATOM      8  C   UNK d   0       7.790   5.243  23.066  0.00  0.00    -0.011 A 
ATOM      9  C   UNK d   0       7.164   6.541  22.879  0.00  0.00     0.067 A 
ATOM     10  C   UNK d   0       7.596   7.836  22.555  0.00  0.00     0.062 C 
ATOM     11  N   UNK d   0       5.837   6.376  23.065  0.00  0.00    -0.248 NA
ATOM     12  C   UNK d   0       6.805   8.915  22.143  0.00  0.00     0.041 A 
ATOM     13  N   UNK d   0       5.616   9.363  22.589  0.00  0.00    -0.355 N 
ATOM     14  C   UNK d   0       7.225   9.686  21.044  0.00  0.00    -0.022 A 
ATOM     15  C   UNK d   0       5.267  10.394  21.796  0.00  0.00     0.042 A 
ATOM     16  H   UNK d   0       5.044   8.972  23.459  0.00  0.00     0.166 HD
ATOM     17  C   UNK d   0       4.125  11.220  21.821  0.00  0.00     0.062 C 
ATOM     18  C   UNK d   0       6.251  10.626  20.816  0.00  0.00    -0.013 A 
ATOM     19  C   UNK d   0       2.809  10.867  21.972  0.00  0.00     0.067 A 
ATOM     20  N   UNK d   0       2.559   9.608  22.341  0.00  0.00    -0.248 NA
ATOM     21  C   UNK d   0       1.525  11.529  21.816  0.00  0.00    -0.011 A 
ATOM     22  C   UNK d   0       1.205   9.399  22.436  0.00  0.00     0.066 A 
ATOM     23  C   UNK d   0       0.803   8.137  22.849  0.00  0.00     0.062 C 
ATOM     24  C   UNK d   0       0.590  10.664  22.085  0.00  0.00    -0.020 A 
ATOM     25  C   UNK d   0       1.614   7.071  23.271  0.00  0.00     0.041 A 
ATOM     26  N   UNK d   0       2.788   6.616  22.818  0.00  0.00    -0.355 N 
ATOM     27  C   UNK d   0       1.193   6.300  24.377  0.00  0.00    -0.022 A 
ATOM     28  C   UNK d   0       3.134   5.583  23.602  0.00  0.00     0.042 A 
ATOM     29  H   UNK d   0       3.356   7.004  21.937  0.00  0.00     0.166 HD
ATOM     30  C   UNK d   0       4.262   4.747  23.582  0.00  0.00     0.062 C 
ATOM     31  C   UNK d   0       2.150   5.357  24.593  0.00  0.00    -0.013 A 
ATOM     32  C   UNK d   0       5.581   5.097  23.345  0.00  0.00     0.066 A 
BRANCH   8  33
ATOM     33  C   UNK d   0       9.236   4.972  22.965  0.00  0.00     0.151 C 
BRANCH  33  34
ATOM     34  C   UNK d   0      10.056   5.981  23.660  0.00  0.00     0.143 C 
ATOM     35  O   UNK d   0       9.973   6.132  24.888  0.00  0.00    -0.650 OA
BRANCH  34  36
ATOM     36  O   UNK d   0      10.922   6.765  22.934  0.00  0.00    -0.776 OA
ATOM     37  H   UNK d   0      11.349   7.608  23.341  0.00  0.00     0.167 HD
ENDBRANCH  34  36
ENDBRANCH  33  34
ENDBRANCH   8  33
BRANCH  31  38
ATOM     38  C   UNK d   0       2.139   4.311  25.684  0.00  0.00     0.151 C 
BRANCH  38  39
ATOM     39  C   UNK d   0       1.418   3.114  25.307  0.00  0.00     0.143 C 
ATOM     40  O   UNK d   0       1.893   2.267  24.529  0.00  0.00    -0.650 OA
BRANCH  39  41
ATOM     41  O   UNK d   0       0.144   2.889  25.827  0.00  0.00    -0.776 OA
ATOM     42  H   UNK d   0      -0.644   2.994  25.180  0.00  0.00     0.167 HD
ENDBRANCH  39  41
ENDBRANCH  38  39
ENDBRANCH  31  38
BRANCH  27  43
ATOM     43  C   UNK d   0      -0.056   6.425  25.213  0.00  0.00     0.052 C 
BRANCH  43  44
ATOM     44  C   UNK d   0       0.172   7.122  26.514  0.00  0.00     0.115 C 
BRANCH  44  45
ATOM     45  C   UNK d   0       0.047   8.578  26.244  0.00  0.00     0.139 C 
ATOM     46  O   UNK d   0      -1.066   9.015  25.858  0.00  0.00    -0.650 OA
BRANCH  45  47
ATOM     47  O   UNK d   0       1.093   9.461  26.403  0.00  0.00    -0.776 OA
ATOM     48  H   UNK d   0       0.955  10.475  26.542  0.00  0.00     0.167 HD
ENDBRANCH  45  47
ENDBRANCH  44  45
ENDBRANCH  43  44
ENDBRANCH  27  43
BRANCH  24  49
ATOM     49  C   UNK d   0      -0.860  10.924  22.087  0.00  0.00     0.052 C 
BRANCH  49  50
ATOM     50  C   UNK d   0      -1.590   9.828  21.354  0.00  0.00     0.115 C 
BRANCH  50  51
ATOM     51  C   UNK d   0      -2.541   9.035  22.120  0.00  0.00     0.139 C 
ATOM     52  O   UNK d   0      -3.538   8.483  21.597  0.00  0.00    -0.650 OA
BRANCH  51  53
ATOM     53  O   UNK d   0      -2.357   8.872  23.485  0.00  0.00    -0.776 OA
ATOM     54  H   UNK d   0      -2.557   9.651  24.087  0.00  0.00     0.167 HD
ENDBRANCH  51  53
ENDBRANCH  50  51
ENDBRANCH  49  50
ENDBRANCH  24  49
BRANCH  21  55
ATOM     55  C   UNK d   0       1.366  12.960  21.419  0.00  0.00     0.151 C 
BRANCH  55  56
ATOM     56  C   UNK d   0       2.272  13.844  22.168  0.00  0.00     0.143 C 
ATOM     57  O   UNK d   0       2.191  14.004  23.402  0.00  0.00    -0.650 OA
BRANCH  56  58
ATOM     58  O   UNK d   0       3.256  14.523  21.451  0.00  0.00    -0.776 OA
ATOM     59  H   UNK d   0       4.161  14.627  21.944  0.00  0.00     0.167 HD
ENDBRANCH  56  58
ENDBRANCH  55  56
ENDBRANCH  21  55
BRANCH  18  60
ATOM     60  C   UNK d   0       6.290  11.662  19.720  0.00  0.00     0.151 C 
BRANCH  60  61
ATOM     61  C   UNK d   0       6.532  12.949  20.389  0.00  0.00     0.143 C 
ATOM     62  O   UNK d   0       7.296  13.164  21.330  0.00  0.00    -0.650 OA
BRANCH  61  63
ATOM     63  O   UNK d   0       5.795  14.043  19.875  0.00  0.00    -0.776 OA
ATOM     64  H   UNK d   0       5.463  14.045  18.927  0.00  0.00     0.167 HD
ENDBRANCH  61  63
ENDBRANCH  60  61
ENDBRANCH  18  60
BRANCH  14  65
ATOM     65  C   UNK d   0       8.509   9.665  20.265  0.00  0.00     0.052 C 
BRANCH  65  66
ATOM     66  C   UNK d   0       9.499  10.665  20.748  0.00  0.00     0.115 C 
BRANCH  66  67
ATOM     67  C   UNK d   0       9.787  10.761  22.151  0.00  0.00     0.139 C 
ATOM     68  O   UNK d   0      10.455   9.813  22.707  0.00  0.00    -0.650 OA
BRANCH  67  69
ATOM     69  O   UNK d   0       9.425  11.783  23.028  0.00  0.00    -0.776 OA
ATOM     70  H   UNK d   0       9.373  12.727  22.619  0.00  0.00     0.167 HD
ENDBRANCH  67  69
ENDBRANCH  66  67
ENDBRANCH  65  66
ENDBRANCH  14  65
ENDBRANCH   6   7
ENDBRANCH   5   6
ENDBRANCH   2   5
TORSDOF 28
ENDMDL
MODEL 18
REMARK VINA RESULT:      -9.4      1.783      7.798
REMARK  28 active torsions:
REMARK  status: ('A' for Active; 'I' for Inactive)
REMARK    1  A    between atoms: C_2  and  O_3 
REMARK    2  A    between atoms: C_2  and  C_4 
REMARK    3  A    between atoms: C_4  and  C_5 
REMARK    4  A    between atoms: C_5  and  C_6 
REMARK    5  A    between atoms: C_7  and  C_8 
REMARK    6  A    between atoms: C_8  and  C_9 
REMARK    7  A    between atoms: C_9  and  O_11 
REMARK    8  A    between atoms: C_28  and  C_29 
REMARK    9  A    between atoms: C_29  and  C_30 
REMARK   10  A    between atoms: C_30  and  O_32 
REMARK   11  A    between atoms: C_33  and  C_34 
REMARK   12  A    between atoms: C_34  and  C_35 
REMARK   13  A    between atoms: C_35  and  C_36 
REMARK   14  A    between atoms: C_36  and  O_38 
REMARK   15  A    between atoms: C_39  and  C_40 
REMARK   16  A    between atoms: C_40  and  C_41 
REMARK   17  A    between atoms: C_41  and  C_42 
REMARK   18  A    between atoms: C_42  and  O_44 
REMARK   19  A    between atoms: C_45  and  C_46 
REMARK   20  A    between atoms: C_46  and  C_47 
REMARK   21  A    between atoms: C_47  and  O_49 
REMARK   22  A    between atoms: C_50  and  C_51 
REMARK   23  A    between atoms: C_51  and  C_52 
REMARK   24  A    between atoms: C_52  and  O_54 
REMARK   25  A    between atoms: C_55  and  C_56 
REMARK   26  A    between atoms: C_56  and  C_57 
REMARK   27  A    between atoms: C_57  and  C_58 
REMARK   28  A    between atoms: C_58  and  O_60 
ROOT
ATOM      1  O   UNK d   0      10.513   7.937  19.273  0.00  0.00    -0.650 OA
ATOM      2  C   UNK d   0      10.691   8.697  20.250  0.00  0.00     0.139 C 
ENDROOT
BRANCH   2   3
ATOM      3  O   UNK d   0      11.540   8.310  21.259  0.00  0.00    -0.776 OA
ATOM      4  H   UNK d   0      11.327   8.520  22.237  0.00  0.00     0.167 HD
ENDBRANCH   2   3
BRANCH   2   5
ATOM      5  C   UNK d   0       9.986  10.009  20.316  0.00  0.00     0.115 C 
BRANCH   5   6
ATOM      6  C   UNK d   0       8.744   9.972  19.466  0.00  0.00     0.052 C 
BRANCH   6   7
ATOM      7  C   UNK d   0       7.477  10.022  20.286  0.00  0.00    -0.020 A 
ATOM      8  C   UNK d   0       6.693  11.051  20.482  0.00  0.00    -0.011 A 
ATOM      9  C   UNK d   0       5.605  10.624  21.345  0.00  0.00     0.067 A 
ATOM     10  C   UNK d   0       4.458  11.215  21.896  0.00  0.00     0.062 C 
ATOM     11  N   UNK d   0       5.808   9.321  21.631  0.00  0.00    -0.248 NA
ATOM     12  C   UNK d   0       3.368  10.564  22.484  0.00  0.00     0.041 A 
ATOM     13  N   UNK d   0       3.312   9.527  23.341  0.00  0.00    -0.355 N 
ATOM     14  C   UNK d   0       2.066  10.965  22.133  0.00  0.00    -0.022 A 
ATOM     15  C   UNK d   0       2.008   9.254  23.536  0.00  0.00     0.042 A 
ATOM     16  H   UNK d   0       4.176   9.010  23.813  0.00  0.00     0.166 HD
ATOM     17  C   UNK d   0       1.390   8.271  24.336  0.00  0.00     0.062 C 
ATOM     18  C   UNK d   0       1.196  10.135  22.795  0.00  0.00    -0.013 A 
ATOM     19  C   UNK d   0       1.706   6.944  24.469  0.00  0.00     0.067 A 
ATOM     20  N   UNK d   0       2.864   6.542  23.937  0.00  0.00    -0.248 NA
ATOM     21  C   UNK d   0       1.077   5.774  25.059  0.00  0.00    -0.011 A 
ATOM     22  C   UNK d   0       3.036   5.193  24.135  0.00  0.00     0.066 A 
ATOM     23  C   UNK d   0       4.221   4.648  23.664  0.00  0.00     0.062 C 
ATOM     24  C   UNK d   0       1.858   4.752  24.856  0.00  0.00    -0.020 A 
ATOM     25  C   UNK d   0       5.309   5.321  23.088  0.00  0.00     0.041 A 
ATOM     26  N   UNK d   0       5.365   6.343  22.225  0.00  0.00    -0.355 N 
ATOM     27  C   UNK d   0       6.616   4.921  23.444  0.00  0.00    -0.022 A 
ATOM     28  C   UNK d   0       6.664   6.611  22.021  0.00  0.00     0.042 A 
ATOM     29  H   UNK d   0       4.495   6.854  21.743  0.00  0.00     0.166 HD
ATOM     30  C   UNK d   0       7.293   7.579  21.222  0.00  0.00     0.062 C 
ATOM     31  C   UNK d   0       7.479   5.733  22.774  0.00  0.00    -0.013 A 
ATOM     32  C   UNK d   0       6.919   8.899  21.024  0.00  0.00     0.066 A 
BRANCH   8  33
ATOM     33  C   UNK d   0       6.867  12.411  19.939  0.00  0.00     0.151 C 
BRANCH  33  34
ATOM     34  C   UNK d   0       7.423  13.353  20.927  0.00  0.00     0.143 C 
ATOM     35  O   UNK d   0       8.517  13.137  21.467  0.00  0.00    -0.650 OA
BRANCH  34  36
ATOM     36  O   UNK d   0       6.714  14.486  21.254  0.00  0.00    -0.776 OA
ATOM     37  H   UNK d   0       5.725  14.435  21.536  0.00  0.00     0.167 HD
ENDBRANCH  34  36
ENDBRANCH  33  34
ENDBRANCH   8  33
BRANCH  31  38
ATOM     38  C   UNK d   0       8.987   5.688  22.853  0.00  0.00     0.151 C 
BRANCH  38  39
ATOM     39  C   UNK d   0       9.520   6.520  23.910  0.00  0.00     0.143 C 
ATOM     40  O   UNK d   0       9.559   6.146  25.096  0.00  0.00    -0.650 OA
BRANCH  39  41
ATOM     41  O   UNK d   0      10.010   7.789  23.604  0.00  0.00    -0.776 OA
ATOM     42  H   UNK d   0      10.925   8.037  23.994  0.00  0.00     0.167 HD
ENDBRANCH  39  41
ENDBRANCH  38  39
ENDBRANCH  31  38
BRANCH  27  43
ATOM     43  C   UNK d   0       7.061   3.820  24.373  0.00  0.00     0.052 C 
BRANCH  43  44
ATOM     44  C   UNK d   0       7.335   2.530  23.672  0.00  0.00     0.115 C 
BRANCH  44  45
ATOM     45  C   UNK d   0       6.164   1.651  23.927  0.00  0.00     0.139 C 
ATOM     46  O   UNK d   0       5.484   1.271  22.942  0.00  0.00    -0.650 OA
BRANCH  45  47
ATOM     47  O   UNK d   0       5.801   1.237  25.190  0.00  0.00    -0.776 OA
ATOM     48  H   UNK d   0       5.768   1.876  26.002  0.00  0.00     0.167 HD
ENDBRANCH  45  47
ENDBRANCH  44  45
ENDBRANCH  43  44
ENDBRANCH  27  43
BRANCH  24  49
ATOM     49  C   UNK d   0       1.624   3.374  25.321  0.00  0.00     0.052 C 
BRANCH  49  50
ATOM     50  C   UNK d   0       2.311   2.389  24.410  0.00  0.00     0.115 C 
BRANCH  50  51
ATOM     51  C   UNK d   0       2.209   0.979  24.759  0.00  0.00     0.139 C 
ATOM     52  O   UNK d   0       1.249   0.512  25.417  0.00  0.00    -0.650 OA
BRANCH  51  53
ATOM     53  O   UNK d   0       3.205   0.100  24.360  0.00  0.00    -0.776 OA
ATOM     54  H   UNK d   0       4.042   0.481  23.957  0.00  0.00     0.167 HD
ENDBRANCH  51  53
ENDBRANCH  50  51
ENDBRANCH  49  50
ENDBRANCH  24  49
BRANCH  21  55
ATOM     55  C   UNK d   0      -0.237   5.800  25.766  0.00  0.00     0.151 C 
BRANCH  55  56
ATOM     56  C   UNK d   0      -0.095   6.183  27.179  0.00  0.00     0.143 C 
ATOM     57  O   UNK d   0      -0.105   7.370  27.561  0.00  0.00    -0.650 OA
BRANCH  56  58
ATOM     58  O   UNK d   0       0.057   5.163  28.117  0.00  0.00    -0.776 OA
ATOM     59  H   UNK d   0       0.561   5.435  28.980  0.00  0.00     0.167 HD
ENDBRANCH  56  58
ENDBRANCH  55  56
ENDBRANCH  21  55
BRANCH  18  60
ATOM     60  C   UNK d   0      -0.308  10.205  22.700  0.00  0.00     0.151 C 
BRANCH  60  61
ATOM     61  C   UNK d   0      -0.685   9.314  21.592  0.00  0.00     0.143 C 
ATOM     62  O   UNK d   0      -0.222   8.201  21.345  0.00  0.00    -0.650 OA
BRANCH  61  63
ATOM     63  O   UNK d   0      -1.691   9.816  20.731  0.00  0.00    -0.776 OA
ATOM     64  H   UNK d   0      -1.889   9.373  19.852  0.00  0.00     0.167 HD
ENDBRANCH  61  63
ENDBRANCH  60  61
ENDBRANCH  18  60
BRANCH  14  65
ATOM     65  C   UNK d   0       1.585  12.124  21.307  0.00  0.00     0.052 C 
BRANCH  65  66
ATOM     66  C   UNK d   0       1.957  13.444  21.883  0.00  0.00     0.115 C 
BRANCH  66  67
ATOM     67  C   UNK d   0       2.625  14.415  21.063  0.00  0.00     0.139 C 
ATOM     68  O   UNK d   0       3.888  14.593  21.228  0.00  0.00    -0.650 OA
BRANCH  67  69
ATOM     69  O   UNK d   0       2.068  15.225  20.075  0.00  0.00    -0.776 OA
ATOM     70  H   UNK d   0       1.682  16.125  20.397  0.00  0.00     0.167 HD
ENDBRANCH  67  69
ENDBRANCH  66  67
ENDBRANCH  65  66
ENDBRANCH  14  65
ENDBRANCH   6   7
ENDBRANCH   5   6
ENDBRANCH   2   5
TORSDOF 28
ENDMDL
MODEL 19
REMARK VINA RESULT:      -9.4      1.598      7.942
REMARK  28 active torsions:
REMARK  status: ('A' for Active; 'I' for Inactive)
REMARK    1  A    between atoms: C_2  and  O_3 
REMARK    2  A    between atoms: C_2  and  C_4 
REMARK    3  A    between atoms: C_4  and  C_5 
REMARK    4  A    between atoms: C_5  and  C_6 
REMARK    5  A    between atoms: C_7  and  C_8 
REMARK    6  A    between atoms: C_8  and  C_9 
REMARK    7  A    between atoms: C_9  and  O_11 
REMARK    8  A    between atoms: C_28  and  C_29 
REMARK    9  A    between atoms: C_29  and  C_30 
REMARK   10  A    between atoms: C_30  and  O_32 
REMARK   11  A    between atoms: C_33  and  C_34 
REMARK   12  A    between atoms: C_34  and  C_35 
REMARK   13  A    between atoms: C_35  and  C_36 
REMARK   14  A    between atoms: C_36  and  O_38 
REMARK   15  A    between atoms: C_39  and  C_40 
REMARK   16  A    between atoms: C_40  and  C_41 
REMARK   17  A    between atoms: C_41  and  C_42 
REMARK   18  A    between atoms: C_42  and  O_44 
REMARK   19  A    between atoms: C_45  and  C_46 
REMARK   20  A    between atoms: C_46  and  C_47 
REMARK   21  A    between atoms: C_47  and  O_49 
REMARK   22  A    between atoms: C_50  and  C_51 
REMARK   23  A    between atoms: C_51  and  C_52 
REMARK   24  A    between atoms: C_52  and  O_54 
REMARK   25  A    between atoms: C_55  and  C_56 
REMARK   26  A    between atoms: C_56  and  C_57 
REMARK   27  A    between atoms: C_57  and  C_58 
REMARK   28  A    between atoms: C_58  and  O_60 
ROOT
ATOM      1  O   UNK d   0       2.608  14.237  22.137  0.00  0.00    -0.650 OA
ATOM      2  C   UNK d   0       2.745  13.953  20.927  0.00  0.00     0.139 C 
ENDROOT
BRANCH   2   3
ATOM      3  O   UNK d   0       2.462  14.903  19.975  0.00  0.00    -0.776 OA
ATOM      4  H   UNK d   0       2.084  15.815  20.238  0.00  0.00     0.167 HD
ENDBRANCH   2   3
BRANCH   2   5
ATOM      5  C   UNK d   0       3.211  12.595  20.525  0.00  0.00     0.115 C 
BRANCH   5   6
ATOM      6  C   UNK d   0       4.669  12.636  20.155  0.00  0.00     0.052 C 
BRANCH   6   7
ATOM      7  C   UNK d   0       5.368  11.320  20.401  0.00  0.00    -0.020 A 
ATOM      8  C   UNK d   0       6.608  11.011  20.122  0.00  0.00    -0.011 A 
ATOM      9  C   UNK d   0       6.827   9.634  20.531  0.00  0.00     0.067 A 
ATOM     10  C   UNK d   0       7.905   8.736  20.528  0.00  0.00     0.062 C 
ATOM     11  N   UNK d   0       5.664   9.179  21.043  0.00  0.00    -0.248 NA
ATOM     12  C   UNK d   0       8.002   7.526  21.225  0.00  0.00     0.041 A 
ATOM     13  N   UNK d   0       7.107   6.537  21.413  0.00  0.00    -0.355 N 
ATOM     14  C   UNK d   0       9.187   7.237  21.925  0.00  0.00    -0.022 A 
ATOM     15  C   UNK d   0       7.692   5.632  22.220  0.00  0.00     0.042 A 
ATOM     16  H   UNK d   0       6.090   6.471  20.968  0.00  0.00     0.166 HD
ATOM     17  C   UNK d   0       7.204   4.412  22.728  0.00  0.00     0.062 C 
ATOM     18  C   UNK d   0       8.997   6.036  22.562  0.00  0.00    -0.013 A 
ATOM     19  C   UNK d   0       5.977   4.135  23.275  0.00  0.00     0.067 A 
ATOM     20  N   UNK d   0       5.032   5.069  23.146  0.00  0.00    -0.248 NA
ATOM     21  C   UNK d   0       5.390   3.033  24.020  0.00  0.00    -0.011 A 
ATOM     22  C   UNK d   0       3.870   4.659  23.753  0.00  0.00     0.066 A 
ATOM     23  C   UNK d   0       2.789   5.523  23.661  0.00  0.00     0.062 C 
ATOM     24  C   UNK d   0       4.158   3.348  24.300  0.00  0.00    -0.020 A 
ATOM     25  C   UNK d   0       2.708   6.728  22.946  0.00  0.00     0.041 A 
ATOM     26  N   UNK d   0       3.592   7.718  22.772  0.00  0.00    -0.355 N 
ATOM     27  C   UNK d   0       1.520   7.016  22.240  0.00  0.00    -0.022 A 
ATOM     28  C   UNK d   0       3.008   8.626  21.974  0.00  0.00     0.042 A 
ATOM     29  H   UNK d   0       4.610   7.788  23.228  0.00  0.00     0.166 HD
ATOM     30  C   UNK d   0       3.479   9.848  21.468  0.00  0.00     0.062 C 
ATOM     31  C   UNK d   0       1.701   8.214  21.622  0.00  0.00    -0.013 A 
ATOM     32  C   UNK d   0       4.746  10.146  20.995  0.00  0.00     0.066 A 
BRANCH   8  33
ATOM     33  C   UNK d   0       7.619  11.886  19.499  0.00  0.00     0.151 C 
BRANCH  33  34
ATOM     34  C   UNK d   0       7.948  11.485  18.119  0.00  0.00     0.143 C 
ATOM     35  O   UNK d   0       9.122  11.292  17.774  0.00  0.00    -0.650 OA
BRANCH  34  36
ATOM     36  O   UNK d   0       6.934  11.325  17.202  0.00  0.00    -0.776 OA
ATOM     37  H   UNK d   0       6.415  10.440  17.128  0.00  0.00     0.167 HD
ENDBRANCH  34  36
ENDBRANCH  33  34
ENDBRANCH   8  33
BRANCH  31  38
ATOM     38  C   UNK d   0       0.700   8.922  20.739  0.00  0.00     0.151 C 
BRANCH  38  39
ATOM     39  C   UNK d   0      -0.217   9.757  21.486  0.00  0.00     0.143 C 
ATOM     40  O   UNK d   0       0.098  10.292  22.563  0.00  0.00    -0.650 OA
BRANCH  39  41
ATOM     41  O   UNK d   0      -1.502   9.978  20.991  0.00  0.00    -0.776 OA
ATOM     42  H   UNK d   0      -2.109  10.592  21.542  0.00  0.00     0.167 HD
ENDBRANCH  39  41
ENDBRANCH  38  39
ENDBRANCH  31  38
BRANCH  27  43
ATOM     43  C   UNK d   0       0.248   6.211  22.137  0.00  0.00     0.052 C 
BRANCH  43  44
ATOM     44  C   UNK d   0      -0.764   6.571  23.176  0.00  0.00     0.115 C 
BRANCH  44  45
ATOM     45  C   UNK d   0      -2.032   6.853  22.454  0.00  0.00     0.139 C 
ATOM     46  O   UNK d   0      -2.955   7.430  23.081  0.00  0.00    -0.650 OA
BRANCH  45  47
ATOM     47  O   UNK d   0      -2.231   6.513  21.134  0.00  0.00    -0.776 OA
ATOM     48  H   UNK d   0      -3.147   6.601  20.664  0.00  0.00     0.167 HD
ENDBRANCH  45  47
ENDBRANCH  44  45
ENDBRANCH  43  44
ENDBRANCH  27  43
BRANCH  24  49
ATOM     49  C   UNK d   0       3.185   2.501  25.011  0.00  0.00     0.052 C 
BRANCH  49  50
ATOM     50  C   UNK d   0       1.947   3.292  25.346  0.00  0.00     0.115 C 
BRANCH  50  51
ATOM     51  C   UNK d   0       1.253   2.949  26.580  0.00  0.00     0.139 C 
ATOM     52  O   UNK d   0       0.021   2.717  26.620  0.00  0.00    -0.650 OA
BRANCH  51  53
ATOM     53  O   UNK d   0       1.962   2.873  27.769  0.00  0.00    -0.776 OA
ATOM     54  H   UNK d   0       1.651   3.432  28.544  0.00  0.00     0.167 HD
ENDBRANCH  51  53
ENDBRANCH  50  51
ENDBRANCH  49  50
ENDBRANCH  24  49
BRANCH  21  55
ATOM     55  C   UNK d   0       6.120   1.779  24.369  0.00  0.00     0.151 C 
BRANCH  55  56
ATOM     56  C   UNK d   0       5.765   0.666  23.475  0.00  0.00     0.143 C 
ATOM     57  O   UNK d   0       5.886   0.731  22.236  0.00  0.00    -0.650 OA
BRANCH  56  58
ATOM     58  O   UNK d   0       5.274  -0.502  24.055  0.00  0.00    -0.776 OA
ATOM     59  H   UNK d   0       4.290  -0.450  24.375  0.00  0.00     0.167 HD
ENDBRANCH  56  58
ENDBRANCH  55  56
ENDBRANCH  21  55
BRANCH  18  60
ATOM     60  C   UNK d   0      10.017   5.350  23.437  0.00  0.00     0.151 C 
BRANCH  60  61
ATOM     61  C   UNK d   0       9.913   5.991  24.757  0.00  0.00     0.143 C 
ATOM     62  O   UNK d   0       8.910   6.068  25.467  0.00  0.00    -0.650 OA
BRANCH  61  63
ATOM     63  O   UNK d   0      11.109   6.573  25.240  0.00  0.00    -0.776 OA
ATOM     64  H   UNK d   0      12.007   6.204  24.981  0.00  0.00     0.167 HD
ENDBRANCH  61  63
ENDBRANCH  60  61
ENDBRANCH  18  60
BRANCH  14  65
ATOM     65  C   UNK d   0      10.508   7.953  21.956  0.00  0.00     0.052 C 
BRANCH  65  66
ATOM     66  C   UNK d   0      10.506   9.136  22.859  0.00  0.00     0.115 C 
BRANCH  66  67
ATOM     67  C   UNK d   0      10.317  10.449  22.311  0.00  0.00     0.139 C 
ATOM     68  O   UNK d   0      10.577  10.638  21.066  0.00  0.00    -0.650 OA
BRANCH  67  69
ATOM     69  O   UNK d   0       9.873  11.594  22.972  0.00  0.00    -0.776 OA
ATOM     70  H   UNK d   0      10.040  12.486  22.484  0.00  0.00     0.167 HD
ENDBRANCH  67  69
ENDBRANCH  66  67
ENDBRANCH  65  66
ENDBRANCH  14  65
ENDBRANCH   6   7
ENDBRANCH   5   6
ENDBRANCH   2   5
TORSDOF 28
ENDMDL
MODEL 20
REMARK VINA RESULT:      -9.4      2.004      7.962
REMARK  28 active torsions:
REMARK  status: ('A' for Active; 'I' for Inactive)
REMARK    1  A    between atoms: C_2  and  O_3 
REMARK    2  A    between atoms: C_2  and  C_4 
REMARK    3  A    between atoms: C_4  and  C_5 
REMARK    4  A    between atoms: C_5  and  C_6 
REMARK    5  A    between atoms: C_7  and  C_8 
REMARK    6  A    between atoms: C_8  and  C_9 
REMARK    7  A    between atoms: C_9  and  O_11 
REMARK    8  A    between atoms: C_28  and  C_29 
REMARK    9  A    between atoms: C_29  and  C_30 
REMARK   10  A    between atoms: C_30  and  O_32 
REMARK   11  A    between atoms: C_33  and  C_34 
REMARK   12  A    between atoms: C_34  and  C_35 
REMARK   13  A    between atoms: C_35  and  C_36 
REMARK   14  A    between atoms: C_36  and  O_38 
REMARK   15  A    between atoms: C_39  and  C_40 
REMARK   16  A    between atoms: C_40  and  C_41 
REMARK   17  A    between atoms: C_41  and  C_42 
REMARK   18  A    between atoms: C_42  and  O_44 
REMARK   19  A    between atoms: C_45  and  C_46 
REMARK   20  A    between atoms: C_46  and  C_47 
REMARK   21  A    between atoms: C_47  and  O_49 
REMARK   22  A    between atoms: C_50  and  C_51 
REMARK   23  A    between atoms: C_51  and  C_52 
REMARK   24  A    between atoms: C_52  and  O_54 
REMARK   25  A    between atoms: C_55  and  C_56 
REMARK   26  A    between atoms: C_56  and  C_57 
REMARK   27  A    between atoms: C_57  and  C_58 
REMARK   28  A    between atoms: C_58  and  O_60 
ROOT
ATOM      1  O   UNK d   0      -3.655   4.802  21.878  0.00  0.00    -0.650 OA
ATOM      2  C   UNK d   0      -2.794   4.838  22.786  0.00  0.00     0.139 C 
ENDROOT
BRANCH   2   3
ATOM      3  O   UNK d   0      -2.912   5.769  23.789  0.00  0.00    -0.776 OA
ATOM      4  H   UNK d   0      -2.616   6.737  23.647  0.00  0.00     0.167 HD
ENDBRANCH   2   3
BRANCH   2   5
ATOM      5  C   UNK d   0      -1.654   3.878  22.774  0.00  0.00     0.115 C 
BRANCH   5   6
ATOM      6  C   UNK d   0      -0.968   3.873  24.113  0.00  0.00     0.052 C 
BRANCH   6   7
ATOM      7  C   UNK d   0       0.495   4.236  24.017  0.00  0.00    -0.020 A 
ATOM      8  C   UNK d   0       1.514   3.580  24.509  0.00  0.00    -0.011 A 
ATOM      9  C   UNK d   0       2.722   4.316  24.173  0.00  0.00     0.067 A 
ATOM     10  C   UNK d   0       4.100   4.148  24.377  0.00  0.00     0.062 C 
ATOM     11  N   UNK d   0       2.344   5.411  23.480  0.00  0.00    -0.248 NA
ATOM     12  C   UNK d   0       5.141   4.826  23.734  0.00  0.00     0.041 A 
ATOM     13  N   UNK d   0       5.290   6.127  23.418  0.00  0.00    -0.355 N 
ATOM     14  C   UNK d   0       6.238   4.089  23.252  0.00  0.00    -0.022 A 
ATOM     15  C   UNK d   0       6.450   6.232  22.742  0.00  0.00     0.042 A 
ATOM     16  H   UNK d   0       4.600   6.956  23.685  0.00  0.00     0.166 HD
ATOM     17  C   UNK d   0       7.082   7.361  22.184  0.00  0.00     0.062 C 
ATOM     18  C   UNK d   0       7.072   4.975  22.617  0.00  0.00    -0.013 A 
ATOM     19  C   UNK d   0       6.536   8.377  21.443  0.00  0.00     0.067 A 
ATOM     20  N   UNK d   0       5.203   8.439  21.390  0.00  0.00    -0.248 NA
ATOM     21  C   UNK d   0       7.047   9.471  20.633  0.00  0.00    -0.011 A 
ATOM     22  C   UNK d   0       4.805   9.492  20.603  0.00  0.00     0.066 A 
ATOM     23  C   UNK d   0       3.438   9.695  20.492  0.00  0.00     0.062 C 
ATOM     24  C   UNK d   0       6.029  10.117  20.142  0.00  0.00    -0.020 A 
ATOM     25  C   UNK d   0       2.409   9.011  21.157  0.00  0.00     0.041 A 
ATOM     26  N   UNK d   0       2.253   7.716  21.457  0.00  0.00    -0.355 N 
ATOM     27  C   UNK d   0       1.311   9.753  21.644  0.00  0.00    -0.022 A 
ATOM     28  C   UNK d   0       1.093   7.607  22.124  0.00  0.00     0.042 A 
ATOM     29  H   UNK d   0       2.943   6.882  21.179  0.00  0.00     0.166 HD
ATOM     30  C   UNK d   0       0.448   6.490  22.676  0.00  0.00     0.062 C 
ATOM     31  C   UNK d   0       0.474   8.872  22.258  0.00  0.00    -0.013 A 
ATOM     32  C   UNK d   0       1.016   5.421  23.352  0.00  0.00     0.066 A 
BRANCH   8  33
ATOM     33  C   UNK d   0       1.470   2.321  25.276  0.00  0.00     0.151 C 
BRANCH  33  34
ATOM     34  C   UNK d   0       1.353   2.542  26.729  0.00  0.00     0.143 C 
ATOM     35  O   UNK d   0       1.280   3.688  27.195  0.00  0.00    -0.650 OA
BRANCH  34  36
ATOM     36  O   UNK d   0       1.327   1.458  27.576  0.00  0.00    -0.776 OA
ATOM     37  H   UNK d   0       0.931   0.556  27.278  0.00  0.00     0.167 HD
ENDBRANCH  34  36
ENDBRANCH  33  34
ENDBRANCH   8  33
BRANCH  31  38
ATOM     38  C   UNK d   0      -0.829   9.211  22.944  0.00  0.00     0.151 C 
BRANCH  38  39
ATOM     39  C   UNK d   0      -1.984   8.964  22.107  0.00  0.00     0.143 C 
ATOM     40  O   UNK d   0      -3.002   8.388  22.530  0.00  0.00    -0.650 OA
BRANCH  39  41
ATOM     41  O   UNK d   0      -1.970   9.383  20.777  0.00  0.00    -0.776 OA
ATOM     42  H   UNK d   0      -2.812   9.856  20.433  0.00  0.00     0.167 HD
ENDBRANCH  39  41
ENDBRANCH  38  39
ENDBRANCH  31  38
BRANCH  27  43
ATOM     43  C   UNK d   0       1.034  11.232  21.547  0.00  0.00     0.052 C 
BRANCH  43  44
ATOM     44  C   UNK d   0       1.781  12.041  22.558  0.00  0.00     0.115 C 
BRANCH  44  45
ATOM     45  C   UNK d   0       1.856  13.425  22.024  0.00  0.00     0.139 C 
ATOM     46  O   UNK d   0       1.330  13.658  20.907  0.00  0.00    -0.650 OA
BRANCH  45  47
ATOM     47  O   UNK d   0       2.469  14.456  22.702  0.00  0.00    -0.776 OA
ATOM     48  H   UNK d   0       2.367  15.447  22.427  0.00  0.00     0.167 HD
ENDBRANCH  45  47
ENDBRANCH  44  45
ENDBRANCH  43  44
ENDBRANCH  27  43
BRANCH  24  49
ATOM     49  C   UNK d   0       6.091  11.320  19.294  0.00  0.00     0.052 C 
BRANCH  49  50
ATOM     50  C   UNK d   0       6.538  12.510  20.104  0.00  0.00     0.115 C 
BRANCH  50  51
ATOM     51  C   UNK d   0       5.709  13.706  20.041  0.00  0.00     0.139 C 
ATOM     52  O   UNK d   0       4.868  13.994  20.925  0.00  0.00    -0.650 OA
BRANCH  51  53
ATOM     53  O   UNK d   0       5.837  14.574  18.967  0.00  0.00    -0.776 OA
ATOM     54  H   UNK d   0       5.443  15.494  19.050  0.00  0.00     0.167 HD
ENDBRANCH  51  53
ENDBRANCH  50  51
ENDBRANCH  49  50
ENDBRANCH  24  49
BRANCH  21  55
ATOM     55  C   UNK d   0       8.499   9.760  20.440  0.00  0.00     0.151 C 
BRANCH  55  56
ATOM     56  C   UNK d   0       9.071   8.987  19.327  0.00  0.00     0.143 C 
ATOM     57  O   UNK d   0       8.930   9.317  18.133  0.00  0.00    -0.650 OA
BRANCH  56  58
ATOM     58  O   UNK d   0       9.798   7.839  19.639  0.00  0.00    -0.776 OA
ATOM     59  H   UNK d   0      10.642   7.686  19.058  0.00  0.00     0.167 HD
ENDBRANCH  56  58
ENDBRANCH  55  56
ENDBRANCH  21  55
BRANCH  18  60
ATOM     60  C   UNK d   0       8.371   4.608  21.943  0.00  0.00     0.151 C 
BRANCH  60  61
ATOM     61  C   UNK d   0       9.421   5.346  22.662  0.00  0.00     0.143 C 
ATOM     62  O   UNK d   0       9.552   5.451  23.882  0.00  0.00    -0.650 OA
BRANCH  61  63
ATOM     63  O   UNK d   0      10.372   5.996  21.839  0.00  0.00    -0.776 OA
ATOM     64  H   UNK d   0      10.169   6.883  21.413  0.00  0.00     0.167 HD
ENDBRANCH  61  63
ENDBRANCH  60  61
ENDBRANCH  18  60
BRANCH  14  65
ATOM     65  C   UNK d   0       6.601   2.642  23.429  0.00  0.00     0.052 C 
BRANCH  65  66
ATOM     66  C   UNK d   0       5.694   1.720  22.694  0.00  0.00     0.115 C 
BRANCH  66  67
ATOM     67  C   UNK d   0       5.457   0.398  23.204  0.00  0.00     0.139 C 
ATOM     68  O   UNK d   0       6.168  -0.014  24.193  0.00  0.00    -0.650 OA
BRANCH  67  69
ATOM     69  O   UNK d   0       4.525  -0.535  22.753  0.00  0.00    -0.776 OA
ATOM     70  H   UNK d   0       4.019  -1.053  23.487  0.00  0.00     0.167 HD
ENDBRANCH  67  69
ENDBRANCH  66  67
ENDBRANCH  65  66
ENDBRANCH  14  65
ENDBRANCH   6   7
ENDBRANCH   5   6
ENDBRANCH   2   5
TORSDOF 28
ENDMDL
