MODEL 1
REMARK VINA RESULT:      -9.4      0.000      0.000
REMARK  16 active torsions:
REMARK  status: ('A' for Active; 'I' for Inactive)
REMARK    1  A    between atoms: C_6  and  C_7 
REMARK    2  A    between atoms: C_7  and  C_8 
REMARK    3  A    between atoms: C_8  and  C_9 
REMARK    4  A    between atoms: C_9  and  O_11 
REMARK    5  A    between atoms: C_16  and  C_17 
REMARK    6  A    between atoms: C_17  and  C_18 
REMARK    7  A    between atoms: C_18  and  C_19 
REMARK    8  A    between atoms: C_19  and  O_21 
REMARK    9  A    between atoms: C_28  and  C_29 
REMARK   10  A    between atoms: C_29  and  C_30 
REMARK   11  A    between atoms: C_30  and  C_31 
REMARK   12  A    between atoms: C_31  and  O_33 
REMARK   13  A    between atoms: C_42  and  C_43 
REMARK   14  A    between atoms: C_43  and  C_44 
REMARK   15  A    between atoms: C_44  and  C_45 
REMARK   16  A    between atoms: C_45  and  O_47 
ROOT
HETATM    1  C   UNK     0     -23.760  -6.533   8.611  0.00  0.00     0.051 C 
HETATM    2  C   UNK     0     -24.622  -5.692   9.531  0.00  0.00    -0.031 A 
HETATM    3  C   UNK     0     -24.794  -4.317   9.562  0.00  0.00     0.021 A 
HETATM    4  N   UNK     0     -25.635  -4.001  10.575  0.00  0.00    -0.361 N 
HETATM    5  C   UNK     0     -26.010  -5.144  11.184  0.00  0.00     0.022 A 
HETATM    6  C   UNK     0     -25.392  -6.222  10.559  0.00  0.00    -0.027 A 
HETATM    7  C   UNK     0     -26.994  -5.354  12.292  0.00  0.00     0.115 C 
HETATM    8  C   UNK     0     -28.290  -4.567  12.211  0.00  0.00     0.021 A 
HETATM    9  N   UNK     0     -28.998  -4.232  11.121  0.00  0.00    -0.361 N 
HETATM   10  C   UNK     0     -30.028  -3.453  11.514  0.00  0.00     0.022 A 
HETATM   11  C   UNK     0     -29.988  -3.289  12.895  0.00  0.00    -0.027 A 
HETATM   12  C   UNK     0     -28.895  -3.988  13.341  0.00  0.00    -0.031 A 
HETATM   13  C   UNK     0     -28.457  -4.099  14.784  0.00  0.00     0.051 C 
HETATM   14  C   UNK     0     -31.056  -2.791  10.601  0.00  0.00     0.115 C 
HETATM   15  C   UNK     0     -30.455  -1.815   9.602  0.00  0.00     0.021 A 
HETATM   16  N   UNK     0     -29.524  -2.069   8.664  0.00  0.00    -0.361 N 
HETATM   17  C   UNK     0     -29.211  -0.933   8.037  0.00  0.00     0.022 A 
HETATM   18  C   UNK     0     -29.982   0.110   8.588  0.00  0.00    -0.027 A 
HETATM   19  C   UNK     0     -30.758  -0.455   9.566  0.00  0.00    -0.031 A 
HETATM   20  C   UNK     0     -31.770   0.317  10.392  0.00  0.00     0.051 C 
HETATM   21  C   UNK     0     -28.180  -0.667   6.964  0.00  0.00     0.115 C 
HETATM   22  C   UNK     0     -26.904  -1.475   7.007  0.00  0.00     0.022 A 
HETATM   23  N   UNK     0     -26.180  -1.827   8.077  0.00  0.00    -0.361 N 
HETATM   24  C   UNK     0     -25.205  -2.666   7.672  0.00  0.00     0.021 A 
HETATM   25  C   UNK     0     -25.298  -2.851   6.306  0.00  0.00    -0.031 A 
HETATM   26  C   UNK     0     -24.408  -3.668   5.393  0.00  0.00     0.051 C 
HETATM   27  C   UNK     0     -26.377  -2.099   5.858  0.00  0.00    -0.027 A 
HETATM   28  C   UNK     0     -24.193  -3.400   8.535  0.00  0.00     0.115 C 
HETATM   29  H   UNK     0     -25.928  -2.968  10.876  0.00  0.00     0.165 HD
HETATM   30  H   UNK     0     -28.802  -4.585  10.079  0.00  0.00     0.165 HD
HETATM   31  H   UNK     0     -29.114  -3.080   8.405  0.00  0.00     0.165 HD
HETATM   32  H   UNK     0     -26.324  -1.452   9.124  0.00  0.00     0.165 HD
ENDROOT
BRANCH   6  33
HETATM   33  C   UNK     0     -25.474  -7.697  10.861  0.00  0.00     0.051 C 
BRANCH  33  34
HETATM   34  C   UNK     0     -26.913  -8.139  10.978  0.00  0.00     0.114 C 
BRANCH  34  35
HETATM   35  C   UNK     0     -27.562  -7.904   9.656  0.00  0.00     0.139 C 
HETATM   36  O   UNK     0     -27.096  -8.445   8.612  0.00  0.00    -0.650 OA
BRANCH  35  37
HETATM   37  O   UNK     0     -28.686  -7.100   9.506  0.00  0.00    -0.776 OA
HETATM   38  H   UNK     0     -28.675  -6.267   8.940  0.00  0.00     0.167 HD
ENDBRANCH  35  37
ENDBRANCH  34  35
ENDBRANCH  33  34
ENDBRANCH   6  33
BRANCH  27  39
HETATM   39  C   UNK     0     -26.748  -1.990   4.420  0.00  0.00     0.051 C 
BRANCH  39  40
HETATM   40  C   UNK     0     -25.921  -1.152   3.552  0.00  0.00     0.114 C 
BRANCH  40  41
HETATM   41  C   UNK     0     -25.807   0.276   3.741  0.00  0.00     0.139 C 
HETATM   42  O   UNK     0     -24.743   0.898   3.626  0.00  0.00    -0.650 OA
BRANCH  41  43
HETATM   43  O   UNK     0     -26.972   1.024   4.077  0.00  0.00    -0.776 OA
HETATM   44  H   UNK     0     -27.767   0.855   3.473  0.00  0.00     0.167 HD
ENDBRANCH  41  43
ENDBRANCH  40  41
ENDBRANCH  39  40
ENDBRANCH  27  39
BRANCH  11  45
HETATM   45  C   UNK     0     -30.928  -2.514  13.780  0.00  0.00     0.051 C 
BRANCH  45  46
HETATM   46  C   UNK     0     -32.331  -2.998  13.743  0.00  0.00     0.114 C 
BRANCH  46  47
HETATM   47  C   UNK     0     -32.372  -4.293  14.480  0.00  0.00     0.139 C 
HETATM   48  O   UNK     0     -31.925  -4.331  15.635  0.00  0.00    -0.650 OA
BRANCH  47  49
HETATM   49  O   UNK     0     -32.891  -5.420  13.894  0.00  0.00    -0.776 OA
HETATM   50  H   UNK     0     -33.897  -5.529  13.718  0.00  0.00     0.167 HD
ENDBRANCH  47  49
ENDBRANCH  46  47
ENDBRANCH  45  46
ENDBRANCH  11  45
BRANCH  18  51
HETATM   51  C   UNK     0     -29.993   1.563   8.188  0.00  0.00     0.051 C 
BRANCH  51  52
HETATM   52  C   UNK     0     -29.254   2.313   9.287  0.00  0.00     0.114 C 
BRANCH  52  53
HETATM   53  C   UNK     0     -27.949   2.822   8.822  0.00  0.00     0.139 C 
HETATM   54  O   UNK     0     -27.073   2.031   8.439  0.00  0.00    -0.650 OA
BRANCH  53  55
HETATM   55  O   UNK     0     -27.710   4.175   8.819  0.00  0.00    -0.776 OA
HETATM   56  H   UNK     0     -27.437   4.718   8.034  0.00  0.00     0.167 HD
ENDBRANCH  53  55
ENDBRANCH  52  53
ENDBRANCH  51  52
ENDBRANCH  18  51
TORSDOF 16
ENDMDL
MODEL 2
REMARK VINA RESULT:      -9.0      1.536      6.884
REMARK  16 active torsions:
REMARK  status: ('A' for Active; 'I' for Inactive)
REMARK    1  A    between atoms: C_6  and  C_7 
REMARK    2  A    between atoms: C_7  and  C_8 
REMARK    3  A    between atoms: C_8  and  C_9 
REMARK    4  A    between atoms: C_9  and  O_11 
REMARK    5  A    between atoms: C_16  and  C_17 
REMARK    6  A    between atoms: C_17  and  C_18 
REMARK    7  A    between atoms: C_18  and  C_19 
REMARK    8  A    between atoms: C_19  and  O_21 
REMARK    9  A    between atoms: C_28  and  C_29 
REMARK   10  A    between atoms: C_29  and  C_30 
REMARK   11  A    between atoms: C_30  and  C_31 
REMARK   12  A    between atoms: C_31  and  O_33 
REMARK   13  A    between atoms: C_42  and  C_43 
REMARK   14  A    between atoms: C_43  and  C_44 
REMARK   15  A    between atoms: C_44  and  C_45 
REMARK   16  A    between atoms: C_45  and  O_47 
ROOT
HETATM    1  C   UNK     0     -31.523  -1.420  13.936  0.00  0.00     0.051 C 
HETATM    2  C   UNK     0     -30.683  -2.504  13.292  0.00  0.00    -0.031 A 
HETATM    3  C   UNK     0     -30.693  -2.966  11.986  0.00  0.00     0.021 A 
HETATM    4  N   UNK     0     -29.793  -3.970  11.865  0.00  0.00    -0.361 N 
HETATM    5  C   UNK     0     -29.202  -4.153  13.064  0.00  0.00     0.022 A 
HETATM    6  C   UNK     0     -29.738  -3.254  13.981  0.00  0.00    -0.027 A 
HETATM    7  C   UNK     0     -28.080  -5.067  13.443  0.00  0.00     0.115 C 
HETATM    8  C   UNK     0     -26.919  -5.161  12.469  0.00  0.00     0.021 A 
HETATM    9  N   UNK     0     -26.389  -4.194  11.703  0.00  0.00    -0.361 N 
HETATM   10  C   UNK     0     -25.435  -4.750  10.927  0.00  0.00     0.022 A 
HETATM   11  C   UNK     0     -25.340  -6.110  11.206  0.00  0.00    -0.027 A 
HETATM   12  C   UNK     0     -26.272  -6.376  12.177  0.00  0.00    -0.031 A 
HETATM   13  C   UNK     0     -26.525  -7.731  12.798  0.00  0.00     0.051 C 
HETATM   14  C   UNK     0     -24.615  -4.035   9.857  0.00  0.00     0.115 C 
HETATM   15  C   UNK     0     -25.450  -3.445   8.732  0.00  0.00     0.021 A 
HETATM   16  N   UNK     0     -26.439  -2.537   8.832  0.00  0.00    -0.361 N 
HETATM   17  C   UNK     0     -26.970  -2.332   7.624  0.00  0.00     0.022 A 
HETATM   18  C   UNK     0     -26.288  -3.139   6.691  0.00  0.00    -0.027 A 
HETATM   19  C   UNK     0     -25.338  -3.830   7.397  0.00  0.00    -0.031 A 
HETATM   20  C   UNK     0     -24.351  -4.794   6.764  0.00  0.00     0.051 C 
HETATM   21  C   UNK     0     -28.142  -1.471   7.212  0.00  0.00     0.115 C 
HETATM   22  C   UNK     0     -29.285  -1.334   8.190  0.00  0.00     0.022 A 
HETATM   23  N   UNK     0     -29.830  -2.278   8.968  0.00  0.00    -0.361 N 
HETATM   24  C   UNK     0     -30.723  -1.688   9.787  0.00  0.00     0.021 A 
HETATM   25  C   UNK     0     -30.762  -0.332   9.524  0.00  0.00    -0.031 A 
HETATM   26  C   UNK     0     -31.632   0.737  10.152  0.00  0.00     0.051 C 
HETATM   27  C   UNK     0     -29.850  -0.081   8.504  0.00  0.00    -0.027 A 
HETATM   28  C   UNK     0     -31.524  -2.331  10.906  0.00  0.00     0.115 C 
HETATM   29  H   UNK     0     -29.609  -4.569  10.943  0.00  0.00     0.165 HD
HETATM   30  H   UNK     0     -26.653  -3.109  11.744  0.00  0.00     0.165 HD
HETATM   31  H   UNK     0     -26.737  -1.993   9.766  0.00  0.00     0.165 HD
HETATM   32  H   UNK     0     -29.620  -3.378   8.916  0.00  0.00     0.165 HD
ENDROOT
BRANCH   6  33
HETATM   33  C   UNK     0     -29.425  -3.058  15.443  0.00  0.00     0.051 C 
BRANCH  33  34
HETATM   34  C   UNK     0     -30.371  -3.860  16.304  0.00  0.00     0.114 C 
BRANCH  34  35
HETATM   35  C   UNK     0     -30.452  -3.182  17.630  0.00  0.00     0.139 C 
HETATM   36  O   UNK     0     -31.203  -2.175  17.785  0.00  0.00    -0.650 OA
BRANCH  35  37
HETATM   37  O   UNK     0     -29.728  -3.610  18.736  0.00  0.00    -0.776 OA
HETATM   38  H   UNK     0     -28.726  -3.519  18.787  0.00  0.00     0.167 HD
ENDBRANCH  35  37
ENDBRANCH  34  35
ENDBRANCH  33  34
ENDBRANCH   6  33
BRANCH  27  39
HETATM   39  C   UNK     0     -29.663   1.265   7.898  0.00  0.00     0.051 C 
BRANCH  39  40
HETATM   40  C   UNK     0     -28.422   1.986   8.180  0.00  0.00     0.114 C 
BRANCH  40  41
HETATM   41  C   UNK     0     -28.349   3.038   9.169  0.00  0.00     0.139 C 
HETATM   42  O   UNK     0     -28.889   2.969  10.281  0.00  0.00    -0.650 OA
BRANCH  41  43
HETATM   43  O   UNK     0     -27.623   4.224   8.864  0.00  0.00    -0.776 OA
HETATM   44  H   UNK     0     -27.554   4.882   9.631  0.00  0.00     0.167 HD
ENDBRANCH  41  43
ENDBRANCH  40  41
ENDBRANCH  39  40
ENDBRANCH  27  39
BRANCH  11  45
HETATM   45  C   UNK     0     -24.419  -7.134  10.601  0.00  0.00     0.051 C 
BRANCH  45  46
HETATM   46  C   UNK     0     -24.725  -7.463   9.185  0.00  0.00     0.114 C 
BRANCH  46  47
HETATM   47  C   UNK     0     -25.801  -8.496   9.195  0.00  0.00     0.139 C 
HETATM   48  O   UNK     0     -26.672  -8.452   8.315  0.00  0.00    -0.650 OA
BRANCH  47  49
HETATM   49  O   UNK     0     -25.828  -9.473  10.158  0.00  0.00    -0.776 OA
HETATM   50  H   UNK     0     -25.028 -10.094  10.327  0.00  0.00     0.167 HD
ENDBRANCH  47  49
ENDBRANCH  46  47
ENDBRANCH  45  46
ENDBRANCH  11  45
BRANCH  18  51
HETATM   51  C   UNK     0     -26.516  -3.230   5.205  0.00  0.00     0.051 C 
BRANCH  51  52
HETATM   52  C   UNK     0     -25.669  -2.134   4.576  0.00  0.00     0.114 C 
BRANCH  52  53
HETATM   53  C   UNK     0     -26.475  -1.234   3.728  0.00  0.00     0.139 C 
HETATM   54  O   UNK     0     -26.789  -0.106   4.141  0.00  0.00    -0.650 OA
BRANCH  53  55
HETATM   55  O   UNK     0     -26.879  -1.653   2.484  0.00  0.00    -0.776 OA
HETATM   56  H   UNK     0     -26.857  -1.114   1.650  0.00  0.00     0.167 HD
ENDBRANCH  53  55
ENDBRANCH  52  53
ENDBRANCH  51  52
ENDBRANCH  18  51
TORSDOF 16
ENDMDL
MODEL 3
REMARK VINA RESULT:      -8.6      2.454      6.881
REMARK  16 active torsions:
REMARK  status: ('A' for Active; 'I' for Inactive)
REMARK    1  A    between atoms: C_6  and  C_7 
REMARK    2  A    between atoms: C_7  and  C_8 
REMARK    3  A    between atoms: C_8  and  C_9 
REMARK    4  A    between atoms: C_9  and  O_11 
REMARK    5  A    between atoms: C_16  and  C_17 
REMARK    6  A    between atoms: C_17  and  C_18 
REMARK    7  A    between atoms: C_18  and  C_19 
REMARK    8  A    between atoms: C_19  and  O_21 
REMARK    9  A    between atoms: C_28  and  C_29 
REMARK   10  A    between atoms: C_29  and  C_30 
REMARK   11  A    between atoms: C_30  and  C_31 
REMARK   12  A    between atoms: C_31  and  O_33 
REMARK   13  A    between atoms: C_42  and  C_43 
REMARK   14  A    between atoms: C_43  and  C_44 
REMARK   15  A    between atoms: C_44  and  C_45 
REMARK   16  A    between atoms: C_45  and  O_47 
ROOT
HETATM    1  C   UNK     0     -26.264  -1.035   3.997  0.00  0.00     0.051 C 
HETATM    2  C   UNK     0     -25.807  -1.910   5.146  0.00  0.00    -0.031 A 
HETATM    3  C   UNK     0     -25.677  -1.599   6.491  0.00  0.00     0.021 A 
HETATM    4  N   UNK     0     -25.204  -2.683   7.151  0.00  0.00    -0.361 N 
HETATM    5  C   UNK     0     -25.039  -3.680   6.258  0.00  0.00     0.022 A 
HETATM    6  C   UNK     0     -25.404  -3.230   4.994  0.00  0.00    -0.027 A 
HETATM    7  C   UNK     0     -24.632  -5.103   6.485  0.00  0.00     0.115 C 
HETATM    8  C   UNK     0     -25.254  -5.808   7.678  0.00  0.00     0.021 A 
HETATM    9  N   UNK     0     -26.493  -5.674   8.175  0.00  0.00    -0.361 N 
HETATM   10  C   UNK     0     -26.578  -6.424   9.295  0.00  0.00     0.022 A 
HETATM   11  C   UNK     0     -25.363  -7.064   9.520  0.00  0.00    -0.027 A 
HETATM   12  C   UNK     0     -24.524  -6.681   8.504  0.00  0.00    -0.031 A 
HETATM   13  C   UNK     0     -23.092  -7.136   8.335  0.00  0.00     0.051 C 
HETATM   14  C   UNK     0     -27.785  -6.523  10.223  0.00  0.00     0.115 C 
HETATM   15  C   UNK     0     -28.188  -5.200  10.854  0.00  0.00     0.021 A 
HETATM   16  N   UNK     0     -28.543  -4.064  10.224  0.00  0.00    -0.361 N 
HETATM   17  C   UNK     0     -28.755  -3.108  11.131  0.00  0.00     0.022 A 
HETATM   18  C   UNK     0     -28.536  -3.649  12.414  0.00  0.00    -0.027 A 
HETATM   19  C   UNK     0     -28.183  -4.960  12.226  0.00  0.00    -0.031 A 
HETATM   20  C   UNK     0     -27.893  -5.926  13.360  0.00  0.00     0.051 C 
HETATM   21  C   UNK     0     -29.100  -1.648  10.941  0.00  0.00     0.115 C 
HETATM   22  C   UNK     0     -28.525  -0.946   9.734  0.00  0.00     0.022 A 
HETATM   23  N   UNK     0     -27.296  -1.063   9.214  0.00  0.00    -0.361 N 
HETATM   24  C   UNK     0     -27.258  -0.370   8.058  0.00  0.00     0.021 A 
HETATM   25  C   UNK     0     -28.489   0.215   7.833  0.00  0.00    -0.031 A 
HETATM   26  C   UNK     0     -28.923   1.116   6.696  0.00  0.00     0.051 C 
HETATM   27  C   UNK     0     -29.317  -0.139   8.893  0.00  0.00    -0.027 A 
HETATM   28  C   UNK     0     -26.112  -0.280   7.065  0.00  0.00     0.115 C 
HETATM   29  H   UNK     0     -24.953  -2.723   8.236  0.00  0.00     0.165 HD
HETATM   30  H   UNK     0     -27.326  -5.092   7.711  0.00  0.00     0.165 HD
HETATM   31  H   UNK     0     -28.694  -3.947   9.119  0.00  0.00     0.165 HD
HETATM   32  H   UNK     0     -26.430  -1.600   9.681  0.00  0.00     0.165 HD
ENDROOT
BRANCH   6  33
HETATM   33  C   UNK     0     -25.396  -3.949   3.668  0.00  0.00     0.051 C 
BRANCH  33  34
HETATM   34  C   UNK     0     -26.703  -4.673   3.445  0.00  0.00     0.114 C 
BRANCH  34  35
HETATM   35  C   UNK     0     -26.761  -5.054   2.004  0.00  0.00     0.139 C 
HETATM   36  O   UNK     0     -26.086  -4.413   1.148  0.00  0.00    -0.650 OA
BRANCH  35  37
HETATM   37  O   UNK     0     -27.539  -6.108   1.539  0.00  0.00    -0.776 OA
HETATM   38  H   UNK     0     -28.540  -6.121   1.645  0.00  0.00     0.167 HD
ENDBRANCH  35  37
ENDBRANCH  34  35
ENDBRANCH  33  34
ENDBRANCH   6  33
BRANCH  27  39
HETATM   39  C   UNK     0     -30.710   0.365   9.037  0.00  0.00     0.051 C 
BRANCH  39  40
HETATM   40  C   UNK     0     -30.938   1.543   9.873  0.00  0.00     0.114 C 
BRANCH  40  41
HETATM   41  C   UNK     0     -30.878   2.887   9.343  0.00  0.00     0.139 C 
HETATM   42  O   UNK     0     -29.840   3.561   9.304  0.00  0.00    -0.650 OA
BRANCH  41  43
HETATM   43  O   UNK     0     -32.067   3.483   8.833  0.00  0.00    -0.776 OA
HETATM   44  H   UNK     0     -32.621   2.874   8.243  0.00  0.00     0.167 HD
ENDBRANCH  41  43
ENDBRANCH  40  41
ENDBRANCH  39  40
ENDBRANCH  27  39
BRANCH  11  45
HETATM   45  C   UNK     0     -24.985  -8.004  10.633  0.00  0.00     0.051 C 
BRANCH  45  46
HETATM   46  C   UNK     0     -24.751  -7.334  11.938  0.00  0.00     0.114 C 
BRANCH  46  47
HETATM   47  C   UNK     0     -24.936  -8.362  13.002  0.00  0.00     0.139 C 
HETATM   48  O   UNK     0     -24.180  -8.342  13.983  0.00  0.00    -0.650 OA
BRANCH  47  49
HETATM   49  O   UNK     0     -25.921  -9.311  12.898  0.00  0.00    -0.776 OA
HETATM   50  H   UNK     0     -25.962 -10.125  13.522  0.00  0.00     0.167 HD
ENDBRANCH  47  49
ENDBRANCH  46  47
ENDBRANCH  45  46
ENDBRANCH  11  45
BRANCH  18  51
HETATM   51  C   UNK     0     -28.678  -2.960  13.746  0.00  0.00     0.051 C 
BRANCH  51  52
HETATM   52  C   UNK     0     -30.139  -3.100  14.146  0.00  0.00     0.114 C 
BRANCH  52  53
HETATM   53  C   UNK     0     -30.323  -4.103  15.213  0.00  0.00     0.139 C 
HETATM   54  O   UNK     0     -29.538  -4.138  16.174  0.00  0.00    -0.650 OA
BRANCH  53  55
HETATM   55  O   UNK     0     -31.363  -4.997  15.134  0.00  0.00    -0.776 OA
HETATM   56  H   UNK     0     -31.613  -5.665  15.824  0.00  0.00     0.167 HD
ENDBRANCH  53  55
ENDBRANCH  52  53
ENDBRANCH  51  52
ENDBRANCH  18  51
TORSDOF 16
ENDMDL
MODEL 4
REMARK VINA RESULT:      -8.6      3.320      6.753
REMARK  16 active torsions:
REMARK  status: ('A' for Active; 'I' for Inactive)
REMARK    1  A    between atoms: C_6  and  C_7 
REMARK    2  A    between atoms: C_7  and  C_8 
REMARK    3  A    between atoms: C_8  and  C_9 
REMARK    4  A    between atoms: C_9  and  O_11 
REMARK    5  A    between atoms: C_16  and  C_17 
REMARK    6  A    between atoms: C_17  and  C_18 
REMARK    7  A    between atoms: C_18  and  C_19 
REMARK    8  A    between atoms: C_19  and  O_21 
REMARK    9  A    between atoms: C_28  and  C_29 
REMARK   10  A    between atoms: C_29  and  C_30 
REMARK   11  A    between atoms: C_30  and  C_31 
REMARK   12  A    between atoms: C_31  and  O_33 
REMARK   13  A    between atoms: C_42  and  C_43 
REMARK   14  A    between atoms: C_43  and  C_44 
REMARK   15  A    between atoms: C_44  and  C_45 
REMARK   16  A    between atoms: C_45  and  O_47 
ROOT
HETATM    1  C   UNK     0     -26.754  -1.618   3.770  0.00  0.00     0.051 C 
HETATM    2  C   UNK     0     -26.245  -2.515   4.880  0.00  0.00    -0.031 A 
HETATM    3  C   UNK     0     -25.731  -2.173   6.121  0.00  0.00     0.021 A 
HETATM    4  N   UNK     0     -25.372  -3.303   6.775  0.00  0.00    -0.361 N 
HETATM    5  C   UNK     0     -25.653  -4.357   5.982  0.00  0.00     0.022 A 
HETATM    6  C   UNK     0     -26.198  -3.900   4.787  0.00  0.00    -0.027 A 
HETATM    7  C   UNK     0     -25.536  -5.822   6.268  0.00  0.00     0.115 C 
HETATM    8  C   UNK     0     -25.997  -6.288   7.637  0.00  0.00     0.021 A 
HETATM    9  N   UNK     0     -27.019  -5.830   8.376  0.00  0.00    -0.361 N 
HETATM   10  C   UNK     0     -27.001  -6.474   9.562  0.00  0.00     0.022 A 
HETATM   11  C   UNK     0     -25.944  -7.380   9.584  0.00  0.00    -0.027 A 
HETATM   12  C   UNK     0     -25.307  -7.268   8.374  0.00  0.00    -0.031 A 
HETATM   13  C   UNK     0     -24.098  -8.067   7.945  0.00  0.00     0.051 C 
HETATM   14  C   UNK     0     -27.942  -6.226  10.738  0.00  0.00     0.115 C 
HETATM   15  C   UNK     0     -27.874  -4.813  11.293  0.00  0.00     0.021 A 
HETATM   16  N   UNK     0     -28.104  -3.660  10.637  0.00  0.00    -0.361 N 
HETATM   17  C   UNK     0     -27.872  -2.634  11.459  0.00  0.00     0.022 A 
HETATM   18  C   UNK     0     -27.481  -3.142  12.713  0.00  0.00    -0.027 A 
HETATM   19  C   UNK     0     -27.488  -4.508  12.597  0.00  0.00    -0.031 A 
HETATM   20  C   UNK     0     -27.160  -5.454  13.738  0.00  0.00     0.051 C 
HETATM   21  C   UNK     0     -27.914  -1.146  11.192  0.00  0.00     0.115 C 
HETATM   22  C   UNK     0     -27.500  -0.672   9.818  0.00  0.00     0.022 A 
HETATM   23  N   UNK     0     -26.490  -1.113   9.058  0.00  0.00    -0.361 N 
HETATM   24  C   UNK     0     -26.574  -0.513   7.853  0.00  0.00     0.021 A 
HETATM   25  C   UNK     0     -27.659   0.342   7.841  0.00  0.00    -0.031 A 
HETATM   26  C   UNK     0     -28.137   1.260   6.735  0.00  0.00     0.051 C 
HETATM   27  C   UNK     0     -28.268   0.258   9.088  0.00  0.00    -0.027 A 
HETATM   28  C   UNK     0     -25.708  -0.760   6.630  0.00  0.00     0.115 C 
HETATM   29  H   UNK     0     -24.885  -3.345   7.777  0.00  0.00     0.165 HD
HETATM   30  H   UNK     0     -27.785  -5.087   8.045  0.00  0.00     0.165 HD
HETATM   31  H   UNK     0     -28.483  -3.568   9.586  0.00  0.00     0.165 HD
HETATM   32  H   UNK     0     -25.681  -1.820   9.379  0.00  0.00     0.165 HD
ENDROOT
BRANCH   6  33
HETATM   33  C   UNK     0     -26.670  -4.668   3.579  0.00  0.00     0.051 C 
BRANCH  33  34
HETATM   34  C   UNK     0     -25.512  -4.990   2.664  0.00  0.00     0.114 C 
BRANCH  34  35
HETATM   35  C   UNK     0     -26.015  -5.928   1.620  0.00  0.00     0.139 C 
HETATM   36  O   UNK     0     -25.206  -6.490   0.825  0.00  0.00    -0.650 OA
BRANCH  35  37
HETATM   37  O   UNK     0     -27.363  -6.228   1.469  0.00  0.00    -0.776 OA
HETATM   38  H   UNK     0     -27.773  -7.060   1.864  0.00  0.00     0.167 HD
ENDBRANCH  35  37
ENDBRANCH  34  35
ENDBRANCH  33  34
ENDBRANCH   6  33
BRANCH  27  39
HETATM   39  C   UNK     0     -29.435   1.094   9.478  0.00  0.00     0.051 C 
BRANCH  39  40
HETATM   40  C   UNK     0     -30.776   0.532   9.317  0.00  0.00     0.114 C 
BRANCH  40  41
HETATM   41  C   UNK     0     -31.140  -0.758   9.857  0.00  0.00     0.139 C 
HETATM   42  O   UNK     0     -30.943  -1.828   9.265  0.00  0.00    -0.650 OA
BRANCH  41  43
HETATM   43  O   UNK     0     -31.760  -0.822  11.138  0.00  0.00    -0.776 OA
HETATM   44  H   UNK     0     -32.740  -0.564  11.142  0.00  0.00     0.167 HD
ENDBRANCH  41  43
ENDBRANCH  40  41
ENDBRANCH  39  40
ENDBRANCH  27  39
BRANCH  11  45
HETATM   45  C   UNK     0     -25.533  -8.322  10.684  0.00  0.00     0.051 C 
BRANCH  45  46
HETATM   46  C   UNK     0     -25.092  -7.644  11.929  0.00  0.00     0.114 C 
BRANCH  46  47
HETATM   47  C   UNK     0     -25.402  -8.560  13.064  0.00  0.00     0.139 C 
HETATM   48  O   UNK     0     -26.574  -8.927  13.226  0.00  0.00    -0.650 OA
BRANCH  47  49
HETATM   49  O   UNK     0     -24.412  -8.987  13.912  0.00  0.00    -0.776 OA
HETATM   50  H   UNK     0     -23.641  -9.586  13.593  0.00  0.00     0.167 HD
ENDBRANCH  47  49
ENDBRANCH  46  47
ENDBRANCH  45  46
ENDBRANCH  11  45
BRANCH  18  51
HETATM   51  C   UNK     0     -27.141  -2.369  13.961  0.00  0.00     0.051 C 
BRANCH  51  52
HETATM   52  C   UNK     0     -25.652  -2.069  13.884  0.00  0.00     0.114 C 
BRANCH  52  53
HETATM   53  C   UNK     0     -24.982  -2.274  15.183  0.00  0.00     0.139 C 
HETATM   54  O   UNK     0     -25.243  -3.278  15.865  0.00  0.00    -0.650 OA
BRANCH  53  55
HETATM   55  O   UNK     0     -24.073  -1.347  15.632  0.00  0.00    -0.776 OA
HETATM   56  H   UNK     0     -23.096  -1.491  15.739  0.00  0.00     0.167 HD
ENDBRANCH  53  55
ENDBRANCH  52  53
ENDBRANCH  51  52
ENDBRANCH  18  51
TORSDOF 16
ENDMDL
MODEL 5
REMARK VINA RESULT:      -8.4      2.089      6.912
REMARK  16 active torsions:
REMARK  status: ('A' for Active; 'I' for Inactive)
REMARK    1  A    between atoms: C_6  and  C_7 
REMARK    2  A    between atoms: C_7  and  C_8 
REMARK    3  A    between atoms: C_8  and  C_9 
REMARK    4  A    between atoms: C_9  and  O_11 
REMARK    5  A    between atoms: C_16  and  C_17 
REMARK    6  A    between atoms: C_17  and  C_18 
REMARK    7  A    between atoms: C_18  and  C_19 
REMARK    8  A    between atoms: C_19  and  O_21 
REMARK    9  A    between atoms: C_28  and  C_29 
REMARK   10  A    between atoms: C_29  and  C_30 
REMARK   11  A    between atoms: C_30  and  C_31 
REMARK   12  A    between atoms: C_31  and  O_33 
REMARK   13  A    between atoms: C_42  and  C_43 
REMARK   14  A    between atoms: C_43  and  C_44 
REMARK   15  A    between atoms: C_44  and  C_45 
REMARK   16  A    between atoms: C_45  and  O_47 
ROOT
HETATM    1  C   UNK     0     -29.266  -5.556  15.403  0.00  0.00     0.051 C 
HETATM    2  C   UNK     0     -29.099  -4.239  14.674  0.00  0.00    -0.031 A 
HETATM    3  C   UNK     0     -28.051  -3.798  13.882  0.00  0.00     0.021 A 
HETATM    4  N   UNK     0     -28.316  -2.539  13.459  0.00  0.00    -0.361 N 
HETATM    5  C   UNK     0     -29.515  -2.171  13.957  0.00  0.00     0.022 A 
HETATM    6  C   UNK     0     -30.031  -3.210  14.724  0.00  0.00    -0.027 A 
HETATM    7  C   UNK     0     -30.303  -0.922  13.715  0.00  0.00     0.115 C 
HETATM    8  C   UNK     0     -30.354  -0.415  12.284  0.00  0.00     0.021 A 
HETATM    9  N   UNK     0     -30.392  -1.124  11.146  0.00  0.00    -0.361 N 
HETATM   10  C   UNK     0     -30.335  -0.260  10.111  0.00  0.00     0.022 A 
HETATM   11  C   UNK     0     -30.267   1.043  10.596  0.00  0.00    -0.027 A 
HETATM   12  C   UNK     0     -30.279   0.953  11.964  0.00  0.00    -0.031 A 
HETATM   13  C   UNK     0     -30.226   2.125  12.918  0.00  0.00     0.051 C 
HETATM   14  C   UNK     0     -30.288  -0.628   8.631  0.00  0.00     0.115 C 
HETATM   15  C   UNK     0     -29.078  -1.464   8.242  0.00  0.00     0.021 A 
HETATM   16  N   UNK     0     -28.717  -2.664   8.734  0.00  0.00    -0.361 N 
HETATM   17  C   UNK     0     -27.557  -3.031   8.185  0.00  0.00     0.022 A 
HETATM   18  C   UNK     0     -27.148  -2.027   7.286  0.00  0.00    -0.027 A 
HETATM   19  C   UNK     0     -28.110  -1.051   7.330  0.00  0.00    -0.031 A 
HETATM   20  C   UNK     0     -28.077   0.205   6.479  0.00  0.00     0.051 C 
HETATM   21  C   UNK     0     -26.699  -4.247   8.450  0.00  0.00     0.115 C 
HETATM   22  C   UNK     0     -26.674  -4.789   9.860  0.00  0.00     0.022 A 
HETATM   23  N   UNK     0     -26.640  -4.106  11.011  0.00  0.00    -0.361 N 
HETATM   24  C   UNK     0     -26.776  -4.982  12.027  0.00  0.00     0.021 A 
HETATM   25  C   UNK     0     -26.891  -6.261  11.518  0.00  0.00    -0.031 A 
HETATM   26  C   UNK     0     -27.022  -7.575  12.260  0.00  0.00     0.051 C 
HETATM   27  C   UNK     0     -26.828  -6.164  10.132  0.00  0.00    -0.027 A 
HETATM   28  C   UNK     0     -26.889  -4.675  13.511  0.00  0.00     0.115 C 
HETATM   29  H   UNK     0     -27.636  -1.905  12.844  0.00  0.00     0.165 HD
HETATM   30  H   UNK     0     -30.510  -2.233  11.069  0.00  0.00     0.165 HD
HETATM   31  H   UNK     0     -29.316  -3.287   9.447  0.00  0.00     0.165 HD
HETATM   32  H   UNK     0     -26.475  -3.003  11.120  0.00  0.00     0.165 HD
ENDROOT
BRANCH   6  33
HETATM   33  C   UNK     0     -31.325  -3.297  15.493  0.00  0.00     0.051 C 
BRANCH  33  34
HETATM   34  C   UNK     0     -32.243  -4.329  14.881  0.00  0.00     0.114 C 
BRANCH  34  35
HETATM   35  C   UNK     0     -33.144  -3.617  13.930  0.00  0.00     0.139 C 
HETATM   36  O   UNK     0     -34.371  -3.472  14.202  0.00  0.00    -0.650 OA
BRANCH  35  37
HETATM   37  O   UNK     0     -32.694  -3.087  12.727  0.00  0.00    -0.776 OA
HETATM   38  H   UNK     0     -33.084  -2.245  12.335  0.00  0.00     0.167 HD
ENDBRANCH  35  37
ENDBRANCH  34  35
ENDBRANCH  33  34
ENDBRANCH   6  33
BRANCH  27  39
HETATM   39  C   UNK     0     -26.846  -7.350   9.234  0.00  0.00     0.051 C 
BRANCH  39  40
HETATM   40  C   UNK     0     -25.581  -8.030   8.957  0.00  0.00     0.114 C 
BRANCH  40  41
HETATM   41  C   UNK     0     -24.781  -7.725   7.791  0.00  0.00     0.139 C 
HETATM   42  O   UNK     0     -25.095  -6.870   6.952  0.00  0.00    -0.650 OA
BRANCH  41  43
HETATM   43  O   UNK     0     -23.566  -8.436   7.582  0.00  0.00    -0.776 OA
HETATM   44  H   UNK     0     -23.320  -8.568   6.608  0.00  0.00     0.167 HD
ENDBRANCH  41  43
ENDBRANCH  40  41
ENDBRANCH  39  40
ENDBRANCH  27  39
BRANCH  11  45
HETATM   45  C   UNK     0     -30.197   2.333   9.823  0.00  0.00     0.051 C 
BRANCH  45  46
HETATM   46  C   UNK     0     -28.857   2.625   9.253  0.00  0.00     0.114 C 
BRANCH  46  47
HETATM   47  C   UNK     0     -28.482   4.001   9.689  0.00  0.00     0.139 C 
HETATM   48  O   UNK     0     -29.095   4.509  10.638  0.00  0.00    -0.650 OA
BRANCH  47  49
HETATM   49  O   UNK     0     -27.481   4.691   9.053  0.00  0.00    -0.776 OA
HETATM   50  H   UNK     0     -27.641   5.197   8.174  0.00  0.00     0.167 HD
ENDBRANCH  47  49
ENDBRANCH  46  47
ENDBRANCH  45  46
ENDBRANCH  11  45
BRANCH  18  51
HETATM   51  C   UNK     0     -25.917  -2.007   6.416  0.00  0.00     0.051 C 
BRANCH  51  52
HETATM   52  C   UNK     0     -26.318  -2.652   5.097  0.00  0.00     0.114 C 
BRANCH  52  53
HETATM   53  C   UNK     0     -25.557  -3.889   4.837  0.00  0.00     0.139 C 
HETATM   54  O   UNK     0     -24.357  -3.827   4.524  0.00  0.00    -0.650 OA
BRANCH  53  55
HETATM   55  O   UNK     0     -26.185  -5.107   4.940  0.00  0.00    -0.776 OA
HETATM   56  H   UNK     0     -27.161  -5.269   4.866  0.00  0.00     0.167 HD
ENDBRANCH  53  55
ENDBRANCH  52  53
ENDBRANCH  51  52
ENDBRANCH  18  51
TORSDOF 16
ENDMDL
MODEL 6
REMARK VINA RESULT:      -8.2      2.673      9.536
REMARK  16 active torsions:
REMARK  status: ('A' for Active; 'I' for Inactive)
REMARK    1  A    between atoms: C_6  and  C_7 
REMARK    2  A    between atoms: C_7  and  C_8 
REMARK    3  A    between atoms: C_8  and  C_9 
REMARK    4  A    between atoms: C_9  and  O_11 
REMARK    5  A    between atoms: C_16  and  C_17 
REMARK    6  A    between atoms: C_17  and  C_18 
REMARK    7  A    between atoms: C_18  and  C_19 
REMARK    8  A    between atoms: C_19  and  O_21 
REMARK    9  A    between atoms: C_28  and  C_29 
REMARK   10  A    between atoms: C_29  and  C_30 
REMARK   11  A    between atoms: C_30  and  C_31 
REMARK   12  A    between atoms: C_31  and  O_33 
REMARK   13  A    between atoms: C_42  and  C_43 
REMARK   14  A    between atoms: C_43  and  C_44 
REMARK   15  A    between atoms: C_44  and  C_45 
REMARK   16  A    between atoms: C_45  and  O_47 
ROOT
HETATM    1  C   UNK     0     -30.201   1.999  12.584  0.00  0.00     0.051 C 
HETATM    2  C   UNK     0     -29.108   1.365  11.748  0.00  0.00    -0.031 A 
HETATM    3  C   UNK     0     -28.043   0.573  12.146  0.00  0.00     0.021 A 
HETATM    4  N   UNK     0     -27.300   0.255  11.060  0.00  0.00    -0.361 N 
HETATM    5  C   UNK     0     -27.873   0.819   9.977  0.00  0.00     0.022 A 
HETATM    6  C   UNK     0     -29.005   1.524  10.372  0.00  0.00    -0.027 A 
HETATM    7  C   UNK     0     -27.503   0.698   8.531  0.00  0.00     0.115 C 
HETATM    8  C   UNK     0     -27.125  -0.688   8.039  0.00  0.00     0.021 A 
HETATM    9  N   UNK     0     -27.631  -1.874   8.410  0.00  0.00    -0.361 N 
HETATM   10  C   UNK     0     -26.932  -2.843   7.781  0.00  0.00     0.022 A 
HETATM   11  C   UNK     0     -25.956  -2.265   6.975  0.00  0.00    -0.027 A 
HETATM   12  C   UNK     0     -26.072  -0.907   7.132  0.00  0.00    -0.031 A 
HETATM   13  C   UNK     0     -25.215   0.129   6.441  0.00  0.00     0.051 C 
HETATM   14  C   UNK     0     -27.121  -4.347   7.955  0.00  0.00     0.115 C 
HETATM   15  C   UNK     0     -26.883  -4.838   9.374  0.00  0.00     0.021 A 
HETATM   16  N   UNK     0     -27.520  -4.450  10.495  0.00  0.00    -0.361 N 
HETATM   17  C   UNK     0     -26.971  -5.064  11.545  0.00  0.00     0.022 A 
HETATM   18  C   UNK     0     -25.933  -5.899  11.086  0.00  0.00    -0.027 A 
HETATM   19  C   UNK     0     -25.889  -5.750   9.724  0.00  0.00    -0.031 A 
HETATM   20  C   UNK     0     -24.929  -6.505   8.823  0.00  0.00     0.051 C 
HETATM   21  C   UNK     0     -27.270  -4.920  13.020  0.00  0.00     0.115 C 
HETATM   22  C   UNK     0     -27.690  -3.556  13.517  0.00  0.00     0.022 A 
HETATM   23  N   UNK     0     -27.207  -2.359  13.162  0.00  0.00    -0.361 N 
HETATM   24  C   UNK     0     -27.967  -1.407  13.739  0.00  0.00     0.021 A 
HETATM   25  C   UNK     0     -28.958  -2.006  14.493  0.00  0.00    -0.031 A 
HETATM   26  C   UNK     0     -30.024  -1.360  15.354  0.00  0.00     0.051 C 
HETATM   27  C   UNK     0     -28.801  -3.382  14.367  0.00  0.00    -0.027 A 
HETATM   28  C   UNK     0     -27.868   0.098  13.561  0.00  0.00     0.115 C 
HETATM   29  H   UNK     0     -26.353  -0.334  11.071  0.00  0.00     0.165 HD
HETATM   30  H   UNK     0     -28.513  -2.029   9.078  0.00  0.00     0.165 HD
HETATM   31  H   UNK     0     -28.406  -3.766  10.541  0.00  0.00     0.165 HD
HETATM   32  H   UNK     0     -26.297  -2.174  12.534  0.00  0.00     0.165 HD
ENDROOT
BRANCH   6  33
HETATM   33  C   UNK     0     -29.983   2.328   9.552  0.00  0.00     0.051 C 
BRANCH  33  34
HETATM   34  C   UNK     0     -30.813   1.424   8.671  0.00  0.00     0.114 C 
BRANCH  34  35
HETATM   35  C   UNK     0     -31.580   0.511   9.566  0.00  0.00     0.139 C 
HETATM   36  O   UNK     0     -31.225  -0.697   9.699  0.00  0.00    -0.650 OA
BRANCH  35  37
HETATM   37  O   UNK     0     -32.694   0.927  10.284  0.00  0.00    -0.776 OA
HETATM   38  H   UNK     0     -33.550   1.204   9.830  0.00  0.00     0.167 HD
ENDBRANCH  35  37
ENDBRANCH  34  35
ENDBRANCH  33  34
ENDBRANCH   6  33
BRANCH  27  39
HETATM   39  C   UNK     0     -29.646  -4.365  15.098  0.00  0.00     0.051 C 
BRANCH  39  40
HETATM   40  C   UNK     0     -30.876  -4.832  14.460  0.00  0.00     0.114 C 
BRANCH  40  41
HETATM   41  C   UNK     0     -32.181  -4.357  14.862  0.00  0.00     0.139 C 
HETATM   42  O   UNK     0     -32.725  -4.675  15.928  0.00  0.00    -0.650 OA
BRANCH  41  43
HETATM   43  O   UNK     0     -32.892  -3.477  13.998  0.00  0.00    -0.776 OA
HETATM   44  H   UNK     0     -32.856  -2.502  14.271  0.00  0.00     0.167 HD
ENDBRANCH  41  43
ENDBRANCH  40  41
ENDBRANCH  39  40
ENDBRANCH  27  39
BRANCH  11  45
HETATM   45  C   UNK     0     -24.949  -2.941   6.084  0.00  0.00     0.051 C 
BRANCH  45  46
HETATM   46  C   UNK     0     -23.783  -3.508   6.809  0.00  0.00     0.114 C 
BRANCH  46  47
HETATM   47  C   UNK     0     -23.290  -4.669   6.014  0.00  0.00     0.139 C 
HETATM   48  O   UNK     0     -23.679  -4.793   4.844  0.00  0.00    -0.650 OA
BRANCH  47  49
HETATM   49  O   UNK     0     -22.426  -5.582   6.564  0.00  0.00    -0.776 OA
HETATM   50  H   UNK     0     -22.076  -6.388   6.034  0.00  0.00     0.167 HD
ENDBRANCH  47  49
ENDBRANCH  46  47
ENDBRANCH  45  46
ENDBRANCH  11  45
BRANCH  18  51
HETATM   51  C   UNK     0     -25.046  -6.806  11.899  0.00  0.00     0.051 C 
BRANCH  51  52
HETATM   52  C   UNK     0     -25.567  -8.219  11.681  0.00  0.00     0.114 C 
BRANCH  52  53
HETATM   53  C   UNK     0     -25.905  -8.882  12.955  0.00  0.00     0.139 C 
HETATM   54  O   UNK     0     -27.061  -8.816  13.403  0.00  0.00    -0.650 OA
BRANCH  53  55
HETATM   55  O   UNK     0     -24.934  -9.569  13.642  0.00  0.00    -0.776 OA
HETATM   56  H   UNK     0     -25.073 -10.382  14.195  0.00  0.00     0.167 HD
ENDBRANCH  53  55
ENDBRANCH  52  53
ENDBRANCH  51  52
ENDBRANCH  18  51
TORSDOF 16
ENDMDL
MODEL 7
REMARK VINA RESULT:      -8.1      2.242      7.576
REMARK  16 active torsions:
REMARK  status: ('A' for Active; 'I' for Inactive)
REMARK    1  A    between atoms: C_6  and  C_7 
REMARK    2  A    between atoms: C_7  and  C_8 
REMARK    3  A    between atoms: C_8  and  C_9 
REMARK    4  A    between atoms: C_9  and  O_11 
REMARK    5  A    between atoms: C_16  and  C_17 
REMARK    6  A    between atoms: C_17  and  C_18 
REMARK    7  A    between atoms: C_18  and  C_19 
REMARK    8  A    between atoms: C_19  and  O_21 
REMARK    9  A    between atoms: C_28  and  C_29 
REMARK   10  A    between atoms: C_29  and  C_30 
REMARK   11  A    between atoms: C_30  and  C_31 
REMARK   12  A    between atoms: C_31  and  O_33 
REMARK   13  A    between atoms: C_42  and  C_43 
REMARK   14  A    between atoms: C_43  and  C_44 
REMARK   15  A    between atoms: C_44  and  C_45 
REMARK   16  A    between atoms: C_45  and  O_47 
ROOT
HETATM    1  C   UNK     0     -24.473  -4.142   6.260  0.00  0.00     0.051 C 
HETATM    2  C   UNK     0     -25.659  -3.443   6.892  0.00  0.00    -0.031 A 
HETATM    3  C   UNK     0     -26.650  -3.958   7.713  0.00  0.00     0.021 A 
HETATM    4  N   UNK     0     -27.528  -2.974   8.016  0.00  0.00    -0.361 N 
HETATM    5  C   UNK     0     -27.115  -1.840   7.413  0.00  0.00     0.022 A 
HETATM    6  C   UNK     0     -25.950  -2.098   6.699  0.00  0.00    -0.027 A 
HETATM    7  C   UNK     0     -27.676  -0.455   7.503  0.00  0.00     0.115 C 
HETATM    8  C   UNK     0     -28.097   0.022   8.882  0.00  0.00     0.021 A 
HETATM    9  N   UNK     0     -27.529  -0.244  10.068  0.00  0.00    -0.361 N 
HETATM   10  C   UNK     0     -28.292   0.312  11.033  0.00  0.00     0.022 A 
HETATM   11  C   UNK     0     -29.376   0.963  10.451  0.00  0.00    -0.027 A 
HETATM   12  C   UNK     0     -29.259   0.784   9.096  0.00  0.00    -0.031 A 
HETATM   13  C   UNK     0     -30.217   1.324   8.058  0.00  0.00     0.051 C 
HETATM   14  C   UNK     0     -28.060   0.209  12.538  0.00  0.00     0.115 C 
HETATM   15  C   UNK     0     -28.097  -1.215  13.070  0.00  0.00     0.021 A 
HETATM   16  N   UNK     0     -27.320  -2.250  12.700  0.00  0.00    -0.361 N 
HETATM   17  C   UNK     0     -27.712  -3.348  13.351  0.00  0.00     0.022 A 
HETATM   18  C   UNK     0     -28.791  -3.009  14.192  0.00  0.00    -0.027 A 
HETATM   19  C   UNK     0     -29.021  -1.670  14.008  0.00  0.00    -0.031 A 
HETATM   20  C   UNK     0     -30.083  -0.885  14.756  0.00  0.00     0.051 C 
HETATM   21  C   UNK     0     -27.218  -4.772  13.240  0.00  0.00     0.115 C 
HETATM   22  C   UNK     0     -26.755  -5.246  11.883  0.00  0.00     0.022 A 
HETATM   23  N   UNK     0     -27.299  -4.994  10.685  0.00  0.00    -0.361 N 
HETATM   24  C   UNK     0     -26.481  -5.490   9.736  0.00  0.00     0.021 A 
HETATM   25  C   UNK     0     -25.389  -6.087  10.337  0.00  0.00    -0.031 A 
HETATM   26  C   UNK     0     -24.226  -6.813   9.694  0.00  0.00     0.051 C 
HETATM   27  C   UNK     0     -25.542  -5.943  11.711  0.00  0.00    -0.027 A 
HETATM   28  C   UNK     0     -26.625  -5.370   8.228  0.00  0.00     0.115 C 
HETATM   29  H   UNK     0     -28.456  -3.096   8.622  0.00  0.00     0.165 HD
HETATM   30  H   UNK     0     -26.562  -0.782  10.225  0.00  0.00     0.165 HD
HETATM   31  H   UNK     0     -26.445  -2.197  12.001  0.00  0.00     0.165 HD
HETATM   32  H   UNK     0     -28.288  -4.500  10.500  0.00  0.00     0.165 HD
ENDROOT
BRANCH   6  33
HETATM   33  C   UNK     0     -25.104  -1.178   5.856  0.00  0.00     0.051 C 
BRANCH  33  34
HETATM   34  C   UNK     0     -25.598  -1.154   4.429  0.00  0.00     0.114 C 
BRANCH  34  35
HETATM   35  C   UNK     0     -25.748   0.276   4.033  0.00  0.00     0.139 C 
HETATM   36  O   UNK     0     -24.725   0.978   3.782  0.00  0.00    -0.650 OA
BRANCH  35  37
HETATM   37  O   UNK     0     -26.986   0.896   3.918  0.00  0.00    -0.776 OA
HETATM   38  H   UNK     0     -27.134   1.851   4.204  0.00  0.00     0.167 HD
ENDBRANCH  35  37
ENDBRANCH  34  35
ENDBRANCH  33  34
ENDBRANCH   6  33
BRANCH  27  39
HETATM   39  C   UNK     0     -24.592  -6.526  12.697  0.00  0.00     0.051 C 
BRANCH  39  40
HETATM   40  C   UNK     0     -24.800  -7.907  13.130  0.00  0.00     0.114 C 
BRANCH  40  41
HETATM   41  C   UNK     0     -25.936  -8.688  12.693  0.00  0.00     0.139 C 
HETATM   42  O   UNK     0     -26.988  -8.785  13.339  0.00  0.00    -0.650 OA
BRANCH  41  43
HETATM   43  O   UNK     0     -25.857  -9.391  11.458  0.00  0.00    -0.776 OA
HETATM   44  H   UNK     0     -26.754  -9.625  11.050  0.00  0.00     0.167 HD
ENDBRANCH  41  43
ENDBRANCH  40  41
ENDBRANCH  39  40
ENDBRANCH  27  39
BRANCH  11  45
HETATM   45  C   UNK     0     -30.485   1.728  11.121  0.00  0.00     0.051 C 
BRANCH  45  46
HETATM   46  C   UNK     0     -31.771   0.989  11.199  0.00  0.00     0.114 C 
BRANCH  46  47
HETATM   47  C   UNK     0     -32.822   1.867  10.610  0.00  0.00     0.139 C 
HETATM   48  O   UNK     0     -32.512   3.020  10.278  0.00  0.00    -0.650 OA
BRANCH  47  49
HETATM   49  O   UNK     0     -34.105   1.411  10.441  0.00  0.00    -0.776 OA
HETATM   50  H   UNK     0     -34.474   1.152   9.518  0.00  0.00     0.167 HD
ENDBRANCH  47  49
ENDBRANCH  46  47
ENDBRANCH  45  46
ENDBRANCH  11  45
BRANCH  18  51
HETATM   51  C   UNK     0     -29.547  -3.907  15.136  0.00  0.00     0.051 C 
BRANCH  51  52
HETATM   52  C   UNK     0     -30.593  -4.624  14.296  0.00  0.00     0.114 C 
BRANCH  52  53
HETATM   53  C   UNK     0     -31.965  -4.285  14.720  0.00  0.00     0.139 C 
HETATM   54  O   UNK     0     -32.547  -4.986  15.563  0.00  0.00    -0.650 OA
BRANCH  53  55
HETATM   55  O   UNK     0     -32.594  -3.192  14.174  0.00  0.00    -0.776 OA
HETATM   56  H   UNK     0     -32.149  -2.383  13.811  0.00  0.00     0.167 HD
ENDBRANCH  53  55
ENDBRANCH  52  53
ENDBRANCH  51  52
ENDBRANCH  18  51
TORSDOF 16
ENDMDL
MODEL 8
REMARK VINA RESULT:      -8.1      3.332      7.890
REMARK  16 active torsions:
REMARK  status: ('A' for Active; 'I' for Inactive)
REMARK    1  A    between atoms: C_6  and  C_7 
REMARK    2  A    between atoms: C_7  and  C_8 
REMARK    3  A    between atoms: C_8  and  C_9 
REMARK    4  A    between atoms: C_9  and  O_11 
REMARK    5  A    between atoms: C_16  and  C_17 
REMARK    6  A    between atoms: C_17  and  C_18 
REMARK    7  A    between atoms: C_18  and  C_19 
REMARK    8  A    between atoms: C_19  and  O_21 
REMARK    9  A    between atoms: C_28  and  C_29 
REMARK   10  A    between atoms: C_29  and  C_30 
REMARK   11  A    between atoms: C_30  and  C_31 
REMARK   12  A    between atoms: C_31  and  O_33 
REMARK   13  A    between atoms: C_42  and  C_43 
REMARK   14  A    between atoms: C_43  and  C_44 
REMARK   15  A    between atoms: C_44  and  C_45 
REMARK   16  A    between atoms: C_45  and  O_47 
ROOT
HETATM    1  C   UNK     0     -25.092  -1.870  17.324  0.00  0.00     0.051 C 
HETATM    2  C   UNK     0     -25.542  -1.239  16.022  0.00  0.00    -0.031 A 
HETATM    3  C   UNK     0     -24.957  -1.299  14.767  0.00  0.00     0.021 A 
HETATM    4  N   UNK     0     -25.689  -0.556  13.903  0.00  0.00    -0.361 N 
HETATM    5  C   UNK     0     -26.732  -0.031  14.578  0.00  0.00     0.022 A 
HETATM    6  C   UNK     0     -26.669  -0.435  15.907  0.00  0.00    -0.027 A 
HETATM    7  C   UNK     0     -27.881   0.783  14.071  0.00  0.00     0.115 C 
HETATM    8  C   UNK     0     -28.508   0.337  12.762  0.00  0.00     0.021 A 
HETATM    9  N   UNK     0     -28.684  -0.912  12.302  0.00  0.00    -0.361 N 
HETATM   10  C   UNK     0     -29.195  -0.831  11.055  0.00  0.00     0.022 A 
HETATM   11  C   UNK     0     -29.361   0.505  10.706  0.00  0.00    -0.027 A 
HETATM   12  C   UNK     0     -28.930   1.247  11.776  0.00  0.00    -0.031 A 
HETATM   13  C   UNK     0     -28.930   2.757  11.850  0.00  0.00     0.051 C 
HETATM   14  C   UNK     0     -29.495  -2.005  10.127  0.00  0.00     0.115 C 
HETATM   15  C   UNK     0     -28.275  -2.839   9.774  0.00  0.00     0.021 A 
HETATM   16  N   UNK     0     -27.452  -3.489  10.618  0.00  0.00    -0.361 N 
HETATM   17  C   UNK     0     -26.459  -4.046   9.921  0.00  0.00     0.022 A 
HETATM   18  C   UNK     0     -26.649  -3.753   8.556  0.00  0.00    -0.027 A 
HETATM   19  C   UNK     0     -27.790  -2.998   8.477  0.00  0.00    -0.031 A 
HETATM   20  C   UNK     0     -28.381  -2.495   7.172  0.00  0.00     0.051 C 
HETATM   21  C   UNK     0     -25.249  -4.816  10.399  0.00  0.00     0.115 C 
HETATM   22  C   UNK     0     -24.642  -4.411  11.722  0.00  0.00     0.022 A 
HETATM   23  N   UNK     0     -24.458  -3.176  12.207  0.00  0.00    -0.361 N 
HETATM   24  C   UNK     0     -24.021  -3.281  13.478  0.00  0.00     0.021 A 
HETATM   25  C   UNK     0     -23.912  -4.616  13.817  0.00  0.00    -0.031 A 
HETATM   26  C   UNK     0     -23.428  -5.235  15.112  0.00  0.00     0.051 C 
HETATM   27  C   UNK     0     -24.303  -5.359  12.708  0.00  0.00    -0.027 A 
HETATM   28  C   UNK     0     -23.761  -2.158  14.468  0.00  0.00     0.115 C 
HETATM   29  H   UNK     0     -25.441  -0.375  12.831  0.00  0.00     0.165 HD
HETATM   30  H   UNK     0     -28.495  -1.853  12.874  0.00  0.00     0.165 HD
HETATM   31  H   UNK     0     -27.600  -3.598  11.724  0.00  0.00     0.165 HD
HETATM   32  H   UNK     0     -24.593  -2.217  11.641  0.00  0.00     0.165 HD
ENDROOT
BRANCH   6  33
HETATM   33  C   UNK     0     -27.586  -0.119  17.062  0.00  0.00     0.051 C 
BRANCH  33  34
HETATM   34  C   UNK     0     -28.715  -1.120  17.138  0.00  0.00     0.114 C 
BRANCH  34  35
HETATM   35  C   UNK     0     -28.903  -1.471  18.575  0.00  0.00     0.139 C 
HETATM   36  O   UNK     0     -29.905  -1.032  19.212  0.00  0.00    -0.650 OA
BRANCH  35  37
HETATM   37  O   UNK     0     -28.014  -2.280  19.272  0.00  0.00    -0.776 OA
HETATM   38  H   UNK     0     -28.046  -3.285  19.212  0.00  0.00     0.167 HD
ENDBRANCH  35  37
ENDBRANCH  34  35
ENDBRANCH  33  34
ENDBRANCH   6  33
BRANCH  27  39
HETATM   39  C   UNK     0     -24.251  -6.845  12.669  0.00  0.00     0.051 C 
BRANCH  39  40
HETATM   40  C   UNK     0     -25.500  -7.589  12.834  0.00  0.00     0.114 C 
BRANCH  40  41
HETATM   41  C   UNK     0     -26.230  -8.128  11.709  0.00  0.00     0.139 C 
HETATM   42  O   UNK     0     -27.236  -7.592  11.226  0.00  0.00    -0.650 OA
BRANCH  41  43
HETATM   43  O   UNK     0     -25.782  -9.341  11.112  0.00  0.00    -0.776 OA
HETATM   44  H   UNK     0     -24.806  -9.555  11.279  0.00  0.00     0.167 HD
ENDBRANCH  41  43
ENDBRANCH  40  41
ENDBRANCH  39  40
ENDBRANCH  27  39
BRANCH  11  45
HETATM   45  C   UNK     0     -29.903   1.084   9.426  0.00  0.00     0.051 C 
BRANCH  45  46
HETATM   46  C   UNK     0     -29.121   0.719   8.217  0.00  0.00     0.114 C 
BRANCH  46  47
HETATM   47  C   UNK     0     -27.830   1.463   8.285  0.00  0.00     0.139 C 
HETATM   48  O   UNK     0     -26.776   0.815   8.343  0.00  0.00    -0.650 OA
BRANCH  47  49
HETATM   49  O   UNK     0     -27.809   2.834   8.285  0.00  0.00    -0.776 OA
HETATM   50  H   UNK     0     -28.009   3.383   9.130  0.00  0.00     0.167 HD
ENDBRANCH  47  49
ENDBRANCH  46  47
ENDBRANCH  45  46
ENDBRANCH  11  45
BRANCH  18  51
HETATM   51  C   UNK     0     -25.801  -4.187   7.389  0.00  0.00     0.051 C 
BRANCH  51  52
HETATM   52  C   UNK     0     -24.907  -3.005   7.048  0.00  0.00     0.114 C 
BRANCH  52  53
HETATM   53  C   UNK     0     -23.476  -3.344   7.173  0.00  0.00     0.139 C 
HETATM   54  O   UNK     0     -22.880  -3.880   6.225  0.00  0.00    -0.650 OA
BRANCH  53  55
HETATM   55  O   UNK     0     -22.811  -3.067   8.343  0.00  0.00    -0.776 OA
HETATM   56  H   UNK     0     -22.398  -3.733   8.951  0.00  0.00     0.167 HD
ENDBRANCH  53  55
ENDBRANCH  52  53
ENDBRANCH  51  52
ENDBRANCH  18  51
TORSDOF 16
ENDMDL
MODEL 9
REMARK VINA RESULT:      -7.9     21.663     25.616
REMARK  16 active torsions:
REMARK  status: ('A' for Active; 'I' for Inactive)
REMARK    1  A    between atoms: C_6  and  C_7 
REMARK    2  A    between atoms: C_7  and  C_8 
REMARK    3  A    between atoms: C_8  and  C_9 
REMARK    4  A    between atoms: C_9  and  O_11 
REMARK    5  A    between atoms: C_16  and  C_17 
REMARK    6  A    between atoms: C_17  and  C_18 
REMARK    7  A    between atoms: C_18  and  C_19 
REMARK    8  A    between atoms: C_19  and  O_21 
REMARK    9  A    between atoms: C_28  and  C_29 
REMARK   10  A    between atoms: C_29  and  C_30 
REMARK   11  A    between atoms: C_30  and  C_31 
REMARK   12  A    between atoms: C_31  and  O_33 
REMARK   13  A    between atoms: C_42  and  C_43 
REMARK   14  A    between atoms: C_43  and  C_44 
REMARK   15  A    between atoms: C_44  and  C_45 
REMARK   16  A    between atoms: C_45  and  O_47 
ROOT
HETATM    1  C   UNK     0     -11.644   2.082  -2.720  0.00  0.00     0.051 C 
HETATM    2  C   UNK     0     -10.921   0.761  -2.557  0.00  0.00    -0.031 A 
HETATM    3  C   UNK     0     -11.064  -0.414  -3.277  0.00  0.00     0.021 A 
HETATM    4  N   UNK     0     -10.233  -1.352  -2.761  0.00  0.00    -0.361 N 
HETATM    5  C   UNK     0      -9.559  -0.796  -1.733  0.00  0.00     0.022 A 
HETATM    6  C   UNK     0      -9.967   0.524  -1.576  0.00  0.00    -0.027 A 
HETATM    7  C   UNK     0      -8.462  -1.372  -0.892  0.00  0.00     0.115 C 
HETATM    8  C   UNK     0      -7.391  -2.165  -1.620  0.00  0.00     0.021 A 
HETATM    9  N   UNK     0      -6.872  -1.948  -2.838  0.00  0.00    -0.361 N 
HETATM   10  C   UNK     0      -6.016  -2.955  -3.115  0.00  0.00     0.022 A 
HETATM   11  C   UNK     0      -5.976  -3.839  -2.042  0.00  0.00    -0.027 A 
HETATM   12  C   UNK     0      -6.839  -3.348  -1.096  0.00  0.00    -0.031 A 
HETATM   13  C   UNK     0      -7.116  -3.982   0.248  0.00  0.00     0.051 C 
HETATM   14  C   UNK     0      -5.247  -3.151  -4.418  0.00  0.00     0.115 C 
HETATM   15  C   UNK     0      -6.136  -3.322  -5.639  0.00  0.00     0.021 A 
HETATM   16  N   UNK     0      -7.061  -2.463  -6.108  0.00  0.00    -0.361 N 
HETATM   17  C   UNK     0      -7.677  -3.012  -7.158  0.00  0.00     0.022 A 
HETATM   18  C   UNK     0      -7.119  -4.286  -7.390  0.00  0.00    -0.027 A 
HETATM   19  C   UNK     0      -6.155  -4.467  -6.433  0.00  0.00    -0.031 A 
HETATM   20  C   UNK     0      -5.278  -5.702  -6.342  0.00  0.00     0.051 C 
HETATM   21  C   UNK     0      -8.828  -2.495  -7.990  0.00  0.00     0.115 C 
HETATM   22  C   UNK     0      -9.879  -1.667  -7.287  0.00  0.00     0.022 A 
HETATM   23  N   UNK     0     -10.411  -1.857  -6.073  0.00  0.00    -0.361 N 
HETATM   24  C   UNK     0     -11.200  -0.803  -5.786  0.00  0.00     0.021 A 
HETATM   25  C   UNK     0     -11.184   0.084  -6.846  0.00  0.00    -0.031 A 
HETATM   26  C   UNK     0     -11.940   1.386  -7.011  0.00  0.00     0.051 C 
HETATM   27  C   UNK     0     -10.346  -0.448  -7.819  0.00  0.00    -0.027 A 
HETATM   28  C   UNK     0     -11.942  -0.522  -4.491  0.00  0.00     0.115 C 
HETATM   29  H   UNK     0     -10.159  -2.410  -3.101  0.00  0.00     0.165 HD
HETATM   30  H   UNK     0      -7.070  -1.058  -3.485  0.00  0.00     0.165 HD
HETATM   31  H   UNK     0      -7.252  -1.429  -5.721  0.00  0.00     0.165 HD
HETATM   32  H   UNK     0     -10.267  -2.760  -5.424  0.00  0.00     0.165 HD
ENDROOT
BRANCH   6  33
HETATM   33  C   UNK     0      -9.526   1.563  -0.576  0.00  0.00     0.051 C 
BRANCH  33  34
HETATM   34  C   UNK     0      -8.277   2.267  -1.051  0.00  0.00     0.114 C 
BRANCH  34  35
HETATM   35  C   UNK     0      -8.612   3.711  -1.211  0.00  0.00     0.139 C 
HETATM   36  O   UNK     0      -9.717   4.159  -0.788  0.00  0.00    -0.650 OA
BRANCH  35  37
HETATM   37  O   UNK     0      -7.749   4.618  -1.813  0.00  0.00    -0.776 OA
HETATM   38  H   UNK     0      -6.842   4.830  -1.428  0.00  0.00     0.167 HD
ENDBRANCH  35  37
ENDBRANCH  34  35
ENDBRANCH  33  34
ENDBRANCH   6  33
BRANCH  27  39
HETATM   39  C   UNK     0     -10.133   0.194  -9.145  0.00  0.00     0.051 C 
BRANCH  39  40
HETATM   40  C   UNK     0      -8.874   0.901  -9.379  0.00  0.00     0.114 C 
BRANCH  40  41
HETATM   41  C   UNK     0      -8.492   1.381 -10.688  0.00  0.00     0.139 C 
HETATM   42  O   UNK     0      -8.170   0.635 -11.623  0.00  0.00    -0.650 OA
BRANCH  41  43
HETATM   43  O   UNK     0      -8.480   2.783 -10.934  0.00  0.00    -0.776 OA
HETATM   44  H   UNK     0      -7.586   3.147 -11.243  0.00  0.00     0.167 HD
ENDBRANCH  41  43
ENDBRANCH  40  41
ENDBRANCH  39  40
ENDBRANCH  27  39
BRANCH  11  45
HETATM   45  C   UNK     0      -5.165  -5.098  -1.889  0.00  0.00     0.051 C 
BRANCH  45  46
HETATM   46  C   UNK     0      -3.875  -4.906  -1.177  0.00  0.00     0.114 C 
BRANCH  46  47
HETATM   47  C   UNK     0      -3.194  -6.231  -1.131  0.00  0.00     0.139 C 
HETATM   48  O   UNK     0      -2.779  -6.721  -2.191  0.00  0.00    -0.650 OA
BRANCH  47  49
HETATM   49  O   UNK     0      -3.031  -6.897   0.057  0.00  0.00    -0.776 OA
HETATM   50  H   UNK     0      -2.793  -6.407   0.928  0.00  0.00     0.167 HD
ENDBRANCH  47  49
ENDBRANCH  46  47
ENDBRANCH  45  46
ENDBRANCH  11  45
BRANCH  18  51
HETATM   51  C   UNK     0      -7.472  -5.267  -8.478  0.00  0.00     0.051 C 
BRANCH  51  52
HETATM   52  C   UNK     0      -6.704  -4.826  -9.715  0.00  0.00     0.114 C 
BRANCH  52  53
HETATM   53  C   UNK     0      -7.608  -4.497 -10.834  0.00  0.00     0.139 C 
HETATM   54  O   UNK     0      -8.834  -4.647 -10.708  0.00  0.00    -0.650 OA
BRANCH  53  55
HETATM   55  O   UNK     0      -7.085  -4.027 -12.015  0.00  0.00    -0.776 OA
HETATM   56  H   UNK     0      -6.120  -3.959 -12.240  0.00  0.00     0.167 HD
ENDBRANCH  53  55
ENDBRANCH  52  53
ENDBRANCH  51  52
ENDBRANCH  18  51
TORSDOF 16
ENDMDL
MODEL 10
REMARK VINA RESULT:      -7.8      3.357      8.193
REMARK  16 active torsions:
REMARK  status: ('A' for Active; 'I' for Inactive)
REMARK    1  A    between atoms: C_6  and  C_7 
REMARK    2  A    between atoms: C_7  and  C_8 
REMARK    3  A    between atoms: C_8  and  C_9 
REMARK    4  A    between atoms: C_9  and  O_11 
REMARK    5  A    between atoms: C_16  and  C_17 
REMARK    6  A    between atoms: C_17  and  C_18 
REMARK    7  A    between atoms: C_18  and  C_19 
REMARK    8  A    between atoms: C_19  and  O_21 
REMARK    9  A    between atoms: C_28  and  C_29 
REMARK   10  A    between atoms: C_29  and  C_30 
REMARK   11  A    between atoms: C_30  and  C_31 
REMARK   12  A    between atoms: C_31  and  O_33 
REMARK   13  A    between atoms: C_42  and  C_43 
REMARK   14  A    between atoms: C_43  and  C_44 
REMARK   15  A    between atoms: C_44  and  C_45 
REMARK   16  A    between atoms: C_45  and  O_47 
ROOT
HETATM    1  C   UNK     0     -24.876  -2.188  17.630  0.00  0.00     0.051 C 
HETATM    2  C   UNK     0     -25.258  -1.653  16.265  0.00  0.00    -0.031 A 
HETATM    3  C   UNK     0     -24.588  -1.766  15.057  0.00  0.00     0.021 A 
HETATM    4  N   UNK     0     -25.285  -1.105  14.102  0.00  0.00    -0.361 N 
HETATM    5  C   UNK     0     -26.389  -0.580  14.674  0.00  0.00     0.022 A 
HETATM    6  C   UNK     0     -26.402  -0.902  16.027  0.00  0.00    -0.027 A 
HETATM    7  C   UNK     0     -27.528   0.157  14.043  0.00  0.00     0.115 C 
HETATM    8  C   UNK     0     -28.049  -0.391  12.726  0.00  0.00     0.021 A 
HETATM    9  N   UNK     0     -28.151  -1.671  12.335  0.00  0.00    -0.361 N 
HETATM   10  C   UNK     0     -28.579  -1.685  11.055  0.00  0.00     0.022 A 
HETATM   11  C   UNK     0     -28.767  -0.379  10.612  0.00  0.00    -0.027 A 
HETATM   12  C   UNK     0     -28.435   0.441  11.660  0.00  0.00    -0.031 A 
HETATM   13  C   UNK     0     -28.492   1.952  11.640  0.00  0.00     0.051 C 
HETATM   14  C   UNK     0     -28.777  -2.923  10.184  0.00  0.00     0.115 C 
HETATM   15  C   UNK     0     -27.507  -3.730   9.964  0.00  0.00     0.021 A 
HETATM   16  N   UNK     0     -26.722  -4.296  10.899  0.00  0.00    -0.361 N 
HETATM   17  C   UNK     0     -25.666  -4.855  10.305  0.00  0.00     0.022 A 
HETATM   18  C   UNK     0     -25.773  -4.652   8.915  0.00  0.00    -0.027 A 
HETATM   19  C   UNK     0     -26.932  -3.947   8.714  0.00  0.00    -0.031 A 
HETATM   20  C   UNK     0     -27.449  -3.546   7.345  0.00  0.00     0.051 C 
HETATM   21  C   UNK     0     -24.465  -5.548  10.908  0.00  0.00     0.115 C 
HETATM   22  C   UNK     0     -23.963  -5.041  12.239  0.00  0.00     0.022 A 
HETATM   23  N   UNK     0     -23.854  -3.774  12.657  0.00  0.00    -0.361 N 
HETATM   24  C   UNK     0     -23.501  -3.786  13.959  0.00  0.00     0.021 A 
HETATM   25  C   UNK     0     -23.369  -5.093  14.386  0.00  0.00    -0.031 A 
HETATM   26  C   UNK     0     -22.953  -5.614  15.746  0.00  0.00     0.051 C 
HETATM   27  C   UNK     0     -23.659  -5.915  13.303  0.00  0.00    -0.027 A 
HETATM   28  C   UNK     0     -23.347  -2.596  14.891  0.00  0.00     0.115 C 
HETATM   29  H   UNK     0     -24.972  -0.980  13.040  0.00  0.00     0.165 HD
HETATM   30  H   UNK     0     -27.970  -2.568  12.976  0.00  0.00     0.165 HD
HETATM   31  H   UNK     0     -26.940  -4.343  11.998  0.00  0.00     0.165 HD
HETATM   32  H   UNK     0     -23.984  -2.857  12.025  0.00  0.00     0.165 HD
ENDROOT
BRANCH   6  33
HETATM   33  C   UNK     0     -27.404  -0.552  17.097  0.00  0.00     0.051 C 
BRANCH  33  34
HETATM   34  C   UNK     0     -28.713  -1.268  16.860  0.00  0.00     0.114 C 
BRANCH  34  35
HETATM   35  C   UNK     0     -29.009  -2.074  18.079  0.00  0.00     0.139 C 
HETATM   36  O   UNK     0     -29.681  -3.142  17.990  0.00  0.00    -0.650 OA
BRANCH  35  37
HETATM   37  O   UNK     0     -28.571  -1.705  19.345  0.00  0.00    -0.776 OA
HETATM   38  H   UNK     0     -28.230  -2.380  20.011  0.00  0.00     0.167 HD
ENDBRANCH  35  37
ENDBRANCH  34  35
ENDBRANCH  33  34
ENDBRANCH   6  33
BRANCH  27  39
HETATM   39  C   UNK     0     -23.553  -7.398  13.360  0.00  0.00     0.051 C 
BRANCH  39  40
HETATM   40  C   UNK     0     -24.766  -8.170  13.632  0.00  0.00     0.114 C 
BRANCH  40  41
HETATM   41  C   UNK     0     -25.876  -8.212  12.707  0.00  0.00     0.139 C 
HETATM   42  O   UNK     0     -26.857  -7.461  12.783  0.00  0.00    -0.650 OA
BRANCH  41  43
HETATM   43  O   UNK     0     -25.857  -9.163  11.647  0.00  0.00    -0.776 OA
HETATM   44  H   UNK     0     -26.765  -9.540  11.406  0.00  0.00     0.167 HD
ENDBRANCH  41  43
ENDBRANCH  40  41
ENDBRANCH  39  40
ENDBRANCH  27  39
BRANCH  11  45
HETATM   45  C   UNK     0     -29.241   0.101   9.267  0.00  0.00     0.051 C 
BRANCH  45  46
HETATM   46  C   UNK     0     -30.670  -0.192   8.988  0.00  0.00     0.114 C 
BRANCH  46  47
HETATM   47  C   UNK     0     -31.462   0.979   9.464  0.00  0.00     0.139 C 
HETATM   48  O   UNK     0     -31.108   2.114   9.115  0.00  0.00    -0.650 OA
BRANCH  47  49
HETATM   49  O   UNK     0     -32.557   0.805  10.271  0.00  0.00    -0.776 OA
HETATM   50  H   UNK     0     -33.407   0.332   9.943  0.00  0.00     0.167 HD
ENDBRANCH  47  49
ENDBRANCH  46  47
ENDBRANCH  45  46
ENDBRANCH  11  45
BRANCH  18  51
HETATM   51  C   UNK     0     -24.834  -5.123   7.834  0.00  0.00     0.051 C 
BRANCH  51  52
HETATM   52  C   UNK     0     -25.368  -6.467   7.362  0.00  0.00     0.114 C 
BRANCH  52  53
HETATM   53  C   UNK     0     -24.589  -7.593   7.913  0.00  0.00     0.139 C 
HETATM   54  O   UNK     0     -23.426  -7.792   7.526  0.00  0.00    -0.650 OA
BRANCH  53  55
HETATM   55  O   UNK     0     -25.158  -8.419   8.851  0.00  0.00    -0.776 OA
HETATM   56  H   UNK     0     -25.216  -8.243   9.826  0.00  0.00     0.167 HD
ENDBRANCH  53  55
ENDBRANCH  52  53
ENDBRANCH  51  52
ENDBRANCH  18  51
TORSDOF 16
ENDMDL
MODEL 11
REMARK VINA RESULT:      -7.8     33.835     38.089
REMARK  16 active torsions:
REMARK  status: ('A' for Active; 'I' for Inactive)
REMARK    1  A    between atoms: C_6  and  C_7 
REMARK    2  A    between atoms: C_7  and  C_8 
REMARK    3  A    between atoms: C_8  and  C_9 
REMARK    4  A    between atoms: C_9  and  O_11 
REMARK    5  A    between atoms: C_16  and  C_17 
REMARK    6  A    between atoms: C_17  and  C_18 
REMARK    7  A    between atoms: C_18  and  C_19 
REMARK    8  A    between atoms: C_19  and  O_21 
REMARK    9  A    between atoms: C_28  and  C_29 
REMARK   10  A    between atoms: C_29  and  C_30 
REMARK   11  A    between atoms: C_30  and  C_31 
REMARK   12  A    between atoms: C_31  and  O_33 
REMARK   13  A    between atoms: C_42  and  C_43 
REMARK   14  A    between atoms: C_43  and  C_44 
REMARK   15  A    between atoms: C_44  and  C_45 
REMARK   16  A    between atoms: C_45  and  O_47 
ROOT
HETATM    1  C   UNK     0       9.385   2.849   9.690  0.00  0.00     0.051 C 
HETATM    2  C   UNK     0       9.867   2.799   8.254  0.00  0.00    -0.031 A 
HETATM    3  C   UNK     0       9.821   1.753   7.346  0.00  0.00     0.021 A 
HETATM    4  N   UNK     0      10.396   2.150   6.186  0.00  0.00    -0.361 N 
HETATM    5  C   UNK     0      10.800   3.429   6.332  0.00  0.00     0.022 A 
HETATM    6  C   UNK     0      10.487   3.865   7.615  0.00  0.00    -0.027 A 
HETATM    7  C   UNK     0      11.404   4.357   5.326  0.00  0.00     0.115 C 
HETATM    8  C   UNK     0      10.795   4.345   3.935  0.00  0.00     0.021 A 
HETATM    9  N   UNK     0       9.509   4.179   3.587  0.00  0.00    -0.361 N 
HETATM   10  C   UNK     0       9.441   4.146   2.239  0.00  0.00     0.022 A 
HETATM   11  C   UNK     0      10.716   4.305   1.704  0.00  0.00    -0.027 A 
HETATM   12  C   UNK     0      11.573   4.431   2.767  0.00  0.00    -0.031 A 
HETATM   13  C   UNK     0      13.069   4.629   2.664  0.00  0.00     0.051 C 
HETATM   14  C   UNK     0       8.184   3.912   1.406  0.00  0.00     0.115 C 
HETATM   15  C   UNK     0       7.519   2.568   1.658  0.00  0.00     0.021 A 
HETATM   16  N   UNK     0       7.048   2.091   2.826  0.00  0.00    -0.361 N 
HETATM   17  C   UNK     0       6.604   0.846   2.643  0.00  0.00     0.022 A 
HETATM   18  C   UNK     0       6.786   0.498   1.290  0.00  0.00    -0.027 A 
HETATM   19  C   UNK     0       7.358   1.585   0.684  0.00  0.00    -0.031 A 
HETATM   20  C   UNK     0       7.692   1.649  -0.796  0.00  0.00     0.051 C 
HETATM   21  C   UNK     0       6.050  -0.145   3.643  0.00  0.00     0.115 C 
HETATM   22  C   UNK     0       6.617  -0.114   5.043  0.00  0.00     0.022 A 
HETATM   23  N   UNK     0       7.891   0.054   5.419  0.00  0.00    -0.361 N 
HETATM   24  C   UNK     0       7.926   0.161   6.762  0.00  0.00     0.021 A 
HETATM   25  C   UNK     0       6.644   0.050   7.264  0.00  0.00    -0.031 A 
HETATM   26  C   UNK     0       6.179   0.066   8.706  0.00  0.00     0.051 C 
HETATM   27  C   UNK     0       5.788  -0.127   6.183  0.00  0.00    -0.027 A 
HETATM   28  C   UNK     0       9.130   0.451   7.641  0.00  0.00     0.115 C 
HETATM   29  H   UNK     0      10.548   1.511   5.286  0.00  0.00     0.165 HD
HETATM   30  H   UNK     0       8.641   4.135   4.289  0.00  0.00     0.165 HD
HETATM   31  H   UNK     0       6.984   2.662   3.789  0.00  0.00     0.165 HD
HETATM   32  H   UNK     0       8.785   0.054   4.741  0.00  0.00     0.165 HD
ENDROOT
BRANCH   6  33
HETATM   33  C   UNK     0      10.731   5.200   8.272  0.00  0.00     0.051 C 
BRANCH  33  34
HETATM   34  C   UNK     0      11.823   5.094   9.310  0.00  0.00     0.114 C 
BRANCH  34  35
HETATM   35  C   UNK     0      11.478   6.030  10.418  0.00  0.00     0.139 C 
HETATM   36  O   UNK     0      10.269   6.217  10.742  0.00  0.00    -0.650 OA
BRANCH  35  37
HETATM   37  O   UNK     0      12.442   6.727  11.137  0.00  0.00    -0.776 OA
HETATM   38  H   UNK     0      12.591   7.716  11.012  0.00  0.00     0.167 HD
ENDBRANCH  35  37
ENDBRANCH  34  35
ENDBRANCH  33  34
ENDBRANCH   6  33
BRANCH  27  39
HETATM   39  C   UNK     0       4.326  -0.357   6.335  0.00  0.00     0.051 C 
BRANCH  39  40
HETATM   40  C   UNK     0       3.783  -1.657   5.941  0.00  0.00     0.114 C 
BRANCH  40  41
HETATM   41  C   UNK     0       2.473  -1.796   5.346  0.00  0.00     0.139 C 
HETATM   42  O   UNK     0       2.144  -1.251   4.283  0.00  0.00    -0.650 OA
BRANCH  41  43
HETATM   43  O   UNK     0       1.497  -2.598   6.002  0.00  0.00    -0.776 OA
HETATM   44  H   UNK     0       1.574  -2.610   7.012  0.00  0.00     0.167 HD
ENDBRANCH  41  43
ENDBRANCH  40  41
ENDBRANCH  39  40
ENDBRANCH  27  39
BRANCH  11  45
HETATM   45  C   UNK     0      11.132   4.342   0.258  0.00  0.00     0.051 C 
BRANCH  45  46
HETATM   46  C   UNK     0      10.395   5.339  -0.559  0.00  0.00     0.114 C 
BRANCH  46  47
HETATM   47  C   UNK     0      10.707   6.686  -0.002  0.00  0.00     0.139 C 
HETATM   48  O   UNK     0      11.880   7.084  -0.035  0.00  0.00    -0.650 OA
BRANCH  47  49
HETATM   49  O   UNK     0       9.718   7.469   0.539  0.00  0.00    -0.776 OA
HETATM   50  H   UNK     0       8.843   7.665   0.039  0.00  0.00     0.167 HD
ENDBRANCH  47  49
ENDBRANCH  46  47
ENDBRANCH  45  46
ENDBRANCH  11  45
BRANCH  18  51
HETATM   51  C   UNK     0       6.414  -0.793   0.608  0.00  0.00     0.051 C 
BRANCH  51  52
HETATM   52  C   UNK     0       7.712  -1.563   0.416  0.00  0.00     0.114 C 
BRANCH  52  53
HETATM   53  C   UNK     0       8.062  -2.357   1.609  0.00  0.00     0.139 C 
HETATM   54  O   UNK     0       7.482  -3.432   1.832  0.00  0.00    -0.650 OA
BRANCH  53  55
HETATM   55  O   UNK     0       9.027  -1.898   2.472  0.00  0.00    -0.776 OA
HETATM   56  H   UNK     0      10.007  -2.024   2.372  0.00  0.00     0.167 HD
ENDBRANCH  53  55
ENDBRANCH  52  53
ENDBRANCH  51  52
ENDBRANCH  18  51
TORSDOF 16
ENDMDL
MODEL 12
REMARK VINA RESULT:      -7.8      2.634      7.320
REMARK  16 active torsions:
REMARK  status: ('A' for Active; 'I' for Inactive)
REMARK    1  A    between atoms: C_6  and  C_7 
REMARK    2  A    between atoms: C_7  and  C_8 
REMARK    3  A    between atoms: C_8  and  C_9 
REMARK    4  A    between atoms: C_9  and  O_11 
REMARK    5  A    between atoms: C_16  and  C_17 
REMARK    6  A    between atoms: C_17  and  C_18 
REMARK    7  A    between atoms: C_18  and  C_19 
REMARK    8  A    between atoms: C_19  and  O_21 
REMARK    9  A    between atoms: C_28  and  C_29 
REMARK   10  A    between atoms: C_29  and  C_30 
REMARK   11  A    between atoms: C_30  and  C_31 
REMARK   12  A    between atoms: C_31  and  O_33 
REMARK   13  A    between atoms: C_42  and  C_43 
REMARK   14  A    between atoms: C_43  and  C_44 
REMARK   15  A    between atoms: C_44  and  C_45 
REMARK   16  A    between atoms: C_45  and  O_47 
ROOT
HETATM    1  C   UNK     0     -24.725  -4.552   6.730  0.00  0.00     0.051 C 
HETATM    2  C   UNK     0     -25.861  -3.779   7.367  0.00  0.00    -0.031 A 
HETATM    3  C   UNK     0     -26.910  -4.240   8.147  0.00  0.00     0.021 A 
HETATM    4  N   UNK     0     -27.709  -3.197   8.474  0.00  0.00    -0.361 N 
HETATM    5  C   UNK     0     -27.187  -2.079   7.927  0.00  0.00     0.022 A 
HETATM    6  C   UNK     0     -26.032  -2.408   7.225  0.00  0.00    -0.027 A 
HETATM    7  C   UNK     0     -27.630  -0.656   8.063  0.00  0.00     0.115 C 
HETATM    8  C   UNK     0     -28.041  -0.200   9.452  0.00  0.00     0.021 A 
HETATM    9  N   UNK     0     -27.524  -0.561  10.637  0.00  0.00    -0.361 N 
HETATM   10  C   UNK     0     -28.259   0.020  11.609  0.00  0.00     0.022 A 
HETATM   11  C   UNK     0     -29.271   0.784  11.034  0.00  0.00    -0.027 A 
HETATM   12  C   UNK     0     -29.139   0.649   9.676  0.00  0.00    -0.031 A 
HETATM   13  C   UNK     0     -30.023   1.310   8.642  0.00  0.00     0.051 C 
HETATM   14  C   UNK     0     -28.071  -0.163  13.112  0.00  0.00     0.115 C 
HETATM   15  C   UNK     0     -28.240  -1.598  13.584  0.00  0.00     0.021 A 
HETATM   16  N   UNK     0     -27.546  -2.681  13.187  0.00  0.00    -0.361 N 
HETATM   17  C   UNK     0     -28.045  -3.765  13.784  0.00  0.00     0.022 A 
HETATM   18  C   UNK     0     -29.110  -3.369  14.618  0.00  0.00    -0.027 A 
HETATM   19  C   UNK     0     -29.221  -2.009  14.485  0.00  0.00    -0.031 A 
HETATM   20  C   UNK     0     -30.229  -1.167  15.244  0.00  0.00     0.051 C 
HETATM   21  C   UNK     0     -27.671  -5.221  13.624  0.00  0.00     0.115 C 
HETATM   22  C   UNK     0     -27.219  -5.679  12.257  0.00  0.00     0.022 A 
HETATM   23  N   UNK     0     -27.712  -5.333  11.061  0.00  0.00    -0.361 N 
HETATM   24  C   UNK     0     -26.918  -5.860  10.107  0.00  0.00     0.021 A 
HETATM   25  C   UNK     0     -25.894  -6.571  10.704  0.00  0.00    -0.031 A 
HETATM   26  C   UNK     0     -24.783  -7.369  10.054  0.00  0.00     0.051 C 
HETATM   27  C   UNK     0     -26.066  -6.470  12.080  0.00  0.00    -0.027 A 
HETATM   28  C   UNK     0     -27.017  -5.668   8.604  0.00  0.00     0.115 C 
HETATM   29  H   UNK     0     -28.657  -3.263   9.056  0.00  0.00     0.165 HD
HETATM   30  H   UNK     0     -26.610  -1.185  10.790  0.00  0.00     0.165 HD
HETATM   31  H   UNK     0     -26.654  -2.674  12.507  0.00  0.00     0.165 HD
HETATM   32  H   UNK     0     -28.651  -4.749  10.877  0.00  0.00     0.165 HD
ENDROOT
BRANCH   6  33
HETATM   33  C   UNK     0     -25.093  -1.531   6.437  0.00  0.00     0.051 C 
BRANCH  33  34
HETATM   34  C   UNK     0     -25.522  -1.448   4.992  0.00  0.00     0.114 C 
BRANCH  34  35
HETATM   35  C   UNK     0     -25.824  -0.018   4.697  0.00  0.00     0.139 C 
HETATM   36  O   UNK     0     -24.898   0.768   4.340  0.00  0.00    -0.650 OA
BRANCH  35  37
HETATM   37  O   UNK     0     -27.105   0.513   4.793  0.00  0.00    -0.776 OA
HETATM   38  H   UNK     0     -27.649   0.747   3.978  0.00  0.00     0.167 HD
ENDBRANCH  35  37
ENDBRANCH  34  35
ENDBRANCH  33  34
ENDBRANCH   6  33
BRANCH  27  39
HETATM   39  C   UNK     0     -25.191  -7.170  13.059  0.00  0.00     0.051 C 
BRANCH  39  40
HETATM   40  C   UNK     0     -23.984  -6.487  13.524  0.00  0.00     0.114 C 
BRANCH  40  41
HETATM   41  C   UNK     0     -23.682  -5.122  13.157  0.00  0.00     0.139 C 
HETATM   42  O   UNK     0     -24.104  -4.138  13.780  0.00  0.00    -0.650 OA
BRANCH  41  43
HETATM   43  O   UNK     0     -22.857  -4.877  12.023  0.00  0.00    -0.776 OA
HETATM   44  H   UNK     0     -23.363  -4.760  11.154  0.00  0.00     0.167 HD
ENDBRANCH  41  43
ENDBRANCH  40  41
ENDBRANCH  39  40
ENDBRANCH  27  39
BRANCH  11  45
HETATM   45  C   UNK     0     -30.326   1.614  11.714  0.00  0.00     0.051 C 
BRANCH  45  46
HETATM   46  C   UNK     0     -31.564   0.865  12.050  0.00  0.00     0.114 C 
BRANCH  46  47
HETATM   47  C   UNK     0     -32.719   1.738  11.692  0.00  0.00     0.139 C 
HETATM   48  O   UNK     0     -32.580   2.558  10.773  0.00  0.00    -0.650 OA
BRANCH  47  49
HETATM   49  O   UNK     0     -33.909   1.639  12.367  0.00  0.00    -0.776 OA
HETATM   50  H   UNK     0     -34.409   2.466  12.716  0.00  0.00     0.167 HD
ENDBRANCH  47  49
ENDBRANCH  46  47
ENDBRANCH  45  46
ENDBRANCH  11  45
BRANCH  18  51
HETATM   51  C   UNK     0     -29.960  -4.236  15.509  0.00  0.00     0.051 C 
BRANCH  51  52
HETATM   52  C   UNK     0     -31.101  -4.749  14.642  0.00  0.00     0.114 C 
BRANCH  52  53
HETATM   53  C   UNK     0     -32.400  -4.182  15.052  0.00  0.00     0.139 C 
HETATM   54  O   UNK     0     -32.964  -4.599  16.077  0.00  0.00    -0.650 OA
BRANCH  53  55
HETATM   55  O   UNK     0     -32.982  -3.197  14.293  0.00  0.00    -0.776 OA
HETATM   56  H   UNK     0     -32.617  -2.287  14.138  0.00  0.00     0.167 HD
ENDBRANCH  53  55
ENDBRANCH  52  53
ENDBRANCH  51  52
ENDBRANCH  18  51
TORSDOF 16
ENDMDL
MODEL 13
REMARK VINA RESULT:      -7.8     21.363     26.277
REMARK  16 active torsions:
REMARK  status: ('A' for Active; 'I' for Inactive)
REMARK    1  A    between atoms: C_6  and  C_7 
REMARK    2  A    between atoms: C_7  and  C_8 
REMARK    3  A    between atoms: C_8  and  C_9 
REMARK    4  A    between atoms: C_9  and  O_11 
REMARK    5  A    between atoms: C_16  and  C_17 
REMARK    6  A    between atoms: C_17  and  C_18 
REMARK    7  A    between atoms: C_18  and  C_19 
REMARK    8  A    between atoms: C_19  and  O_21 
REMARK    9  A    between atoms: C_28  and  C_29 
REMARK   10  A    between atoms: C_29  and  C_30 
REMARK   11  A    between atoms: C_30  and  C_31 
REMARK   12  A    between atoms: C_31  and  O_33 
REMARK   13  A    between atoms: C_42  and  C_43 
REMARK   14  A    between atoms: C_43  and  C_44 
REMARK   15  A    between atoms: C_44  and  C_45 
REMARK   16  A    between atoms: C_45  and  O_47 
ROOT
HETATM    1  C   UNK     0      -8.006  10.821   1.828  0.00  0.00     0.051 C 
HETATM    2  C   UNK     0      -8.296  12.298   1.654  0.00  0.00    -0.031 A 
HETATM    3  C   UNK     0      -9.213  12.923   0.824  0.00  0.00     0.021 A 
HETATM    4  N   UNK     0      -9.104  14.264   0.976  0.00  0.00    -0.361 N 
HETATM    5  C   UNK     0      -8.143  14.507   1.890  0.00  0.00     0.022 A 
HETATM    6  C   UNK     0      -7.614  13.299   2.333  0.00  0.00    -0.027 A 
HETATM    7  C   UNK     0      -7.699  15.808   2.482  0.00  0.00     0.115 C 
HETATM    8  C   UNK     0      -8.792  16.793   2.861  0.00  0.00     0.021 A 
HETATM    9  N   UNK     0     -10.013  16.537   3.356  0.00  0.00    -0.361 N 
HETATM   10  C   UNK     0     -10.679  17.707   3.454  0.00  0.00     0.022 A 
HETATM   11  C   UNK     0      -9.862  18.746   3.019  0.00  0.00    -0.027 A 
HETATM   12  C   UNK     0      -8.671  18.177   2.643  0.00  0.00    -0.031 A 
HETATM   13  C   UNK     0      -7.474  18.929   2.106  0.00  0.00     0.051 C 
HETATM   14  C   UNK     0     -12.124  17.885   3.910  0.00  0.00     0.115 C 
HETATM   15  C   UNK     0     -13.139  17.166   3.036  0.00  0.00     0.021 A 
HETATM   16  N   UNK     0     -13.202  15.849   2.764  0.00  0.00    -0.361 N 
HETATM   17  C   UNK     0     -14.195  15.627   1.900  0.00  0.00     0.022 A 
HETATM   18  C   UNK     0     -14.815  16.856   1.603  0.00  0.00    -0.027 A 
HETATM   19  C   UNK     0     -14.145  17.812   2.322  0.00  0.00    -0.031 A 
HETATM   20  C   UNK     0     -14.517  19.284   2.319  0.00  0.00     0.051 C 
HETATM   21  C   UNK     0     -14.631  14.344   1.230  0.00  0.00     0.115 C 
HETATM   22  C   UNK     0     -13.559  13.336   0.888  0.00  0.00     0.022 A 
HETATM   23  N   UNK     0     -12.333  13.562   0.397  0.00  0.00    -0.361 N 
HETATM   24  C   UNK     0     -11.661  12.394   0.381  0.00  0.00     0.021 A 
HETATM   25  C   UNK     0     -12.477  11.389   0.864  0.00  0.00    -0.031 A 
HETATM   26  C   UNK     0     -12.186   9.909   1.001  0.00  0.00     0.051 C 
HETATM   27  C   UNK     0     -13.697  11.967   1.195  0.00  0.00    -0.027 A 
HETATM   28  C   UNK     0     -10.210  12.162  -0.004  0.00  0.00     0.115 C 
HETATM   29  H   UNK     0      -9.679  15.030   0.406  0.00  0.00     0.165 HD
HETATM   30  H   UNK     0     -10.389  15.537   3.685  0.00  0.00     0.165 HD
HETATM   31  H   UNK     0     -12.563  15.053   3.227  0.00  0.00     0.165 HD
HETATM   32  H   UNK     0     -11.946  14.543   0.016  0.00  0.00     0.165 HD
ENDROOT
BRANCH   6  33
HETATM   33  C   UNK     0      -6.523  13.028   3.338  0.00  0.00     0.051 C 
BRANCH  33  34
HETATM   34  C   UNK     0      -5.165  13.078   2.679  0.00  0.00     0.114 C 
BRANCH  34  35
HETATM   35  C   UNK     0      -4.363  11.945   3.224  0.00  0.00     0.139 C 
HETATM   36  O   UNK     0      -3.539  12.142   4.165  0.00  0.00    -0.650 OA
BRANCH  35  37
HETATM   37  O   UNK     0      -4.476  10.647   2.742  0.00  0.00    -0.776 OA
HETATM   38  H   UNK     0      -5.342  10.134   2.784  0.00  0.00     0.167 HD
ENDBRANCH  35  37
ENDBRANCH  34  35
ENDBRANCH  33  34
ENDBRANCH   6  33
BRANCH  27  39
HETATM   39  C   UNK     0     -14.861  11.180   1.685  0.00  0.00     0.051 C 
BRANCH  39  40
HETATM   40  C   UNK     0     -14.967  10.919   3.120  0.00  0.00     0.114 C 
BRANCH  40  41
HETATM   41  C   UNK     0     -16.160  11.232   3.874  0.00  0.00     0.139 C 
HETATM   42  O   UNK     0     -17.300  11.205   3.392  0.00  0.00    -0.650 OA
BRANCH  41  43
HETATM   43  O   UNK     0     -16.035  11.594   5.245  0.00  0.00    -0.776 OA
HETATM   44  H   UNK     0     -15.888  12.584   5.406  0.00  0.00     0.167 HD
ENDBRANCH  41  43
ENDBRANCH  40  41
ENDBRANCH  39  40
ENDBRANCH  27  39
BRANCH  11  45
HETATM   45  C   UNK     0     -10.166  20.218   2.952  0.00  0.00     0.051 C 
BRANCH  45  46
HETATM   46  C   UNK     0     -11.092  20.597   1.855  0.00  0.00     0.114 C 
BRANCH  46  47
HETATM   47  C   UNK     0     -12.065  21.578   2.417  0.00  0.00     0.139 C 
HETATM   48  O   UNK     0     -12.663  22.331   1.637  0.00  0.00    -0.650 OA
BRANCH  47  49
HETATM   49  O   UNK     0     -12.292  21.646   3.768  0.00  0.00    -0.776 OA
HETATM   50  H   UNK     0     -11.839  21.005   4.430  0.00  0.00     0.167 HD
ENDBRANCH  47  49
ENDBRANCH  46  47
ENDBRANCH  45  46
ENDBRANCH  11  45
BRANCH  18  51
HETATM   51  C   UNK     0     -15.996  17.104   0.699  0.00  0.00     0.051 C 
BRANCH  51  52
HETATM   52  C   UNK     0     -15.426  17.338  -0.692  0.00  0.00     0.114 C 
BRANCH  52  53
HETATM   53  C   UNK     0     -16.207  16.639  -1.730  0.00  0.00     0.139 C 
HETATM   54  O   UNK     0     -16.622  17.262  -2.720  0.00  0.00    -0.650 OA
BRANCH  53  55
HETATM   55  O   UNK     0     -16.473  15.298  -1.593  0.00  0.00    -0.776 OA
HETATM   56  H   UNK     0     -17.113  14.771  -2.139  0.00  0.00     0.167 HD
ENDBRANCH  53  55
ENDBRANCH  52  53
ENDBRANCH  51  52
ENDBRANCH  18  51
TORSDOF 16
ENDMDL
MODEL 14
REMARK VINA RESULT:      -7.7      3.721      8.329
REMARK  16 active torsions:
REMARK  status: ('A' for Active; 'I' for Inactive)
REMARK    1  A    between atoms: C_6  and  C_7 
REMARK    2  A    between atoms: C_7  and  C_8 
REMARK    3  A    between atoms: C_8  and  C_9 
REMARK    4  A    between atoms: C_9  and  O_11 
REMARK    5  A    between atoms: C_16  and  C_17 
REMARK    6  A    between atoms: C_17  and  C_18 
REMARK    7  A    between atoms: C_18  and  C_19 
REMARK    8  A    between atoms: C_19  and  O_21 
REMARK    9  A    between atoms: C_28  and  C_29 
REMARK   10  A    between atoms: C_29  and  C_30 
REMARK   11  A    between atoms: C_30  and  C_31 
REMARK   12  A    between atoms: C_31  and  O_33 
REMARK   13  A    between atoms: C_42  and  C_43 
REMARK   14  A    between atoms: C_43  and  C_44 
REMARK   15  A    between atoms: C_44  and  C_45 
REMARK   16  A    between atoms: C_45  and  O_47 
ROOT
HETATM    1  C   UNK     0     -29.636   0.720   8.399  0.00  0.00     0.051 C 
HETATM    2  C   UNK     0     -29.332   0.238   9.803  0.00  0.00    -0.031 A 
HETATM    3  C   UNK     0     -29.251  -1.057  10.291  0.00  0.00     0.021 A 
HETATM    4  N   UNK     0     -28.986  -1.013  11.618  0.00  0.00    -0.361 N 
HETATM    5  C   UNK     0     -28.888   0.281  11.985  0.00  0.00     0.022 A 
HETATM    6  C   UNK     0     -29.102   1.091  10.875  0.00  0.00    -0.027 A 
HETATM    7  C   UNK     0     -28.518   0.869  13.311  0.00  0.00     0.115 C 
HETATM    8  C   UNK     0     -27.365   0.213  14.050  0.00  0.00     0.021 A 
HETATM    9  N   UNK     0     -26.249  -0.332  13.543  0.00  0.00    -0.361 N 
HETATM   10  C   UNK     0     -25.550  -0.879  14.560  0.00  0.00     0.022 A 
HETATM   11  C   UNK     0     -26.230  -0.673  15.756  0.00  0.00    -0.027 A 
HETATM   12  C   UNK     0     -27.375   0.015  15.442  0.00  0.00    -0.031 A 
HETATM   13  C   UNK     0     -28.424   0.464  16.434  0.00  0.00     0.051 C 
HETATM   14  C   UNK     0     -24.245  -1.661  14.438  0.00  0.00     0.115 C 
HETATM   15  C   UNK     0     -24.358  -2.919  13.592  0.00  0.00     0.021 A 
HETATM   16  N   UNK     0     -24.739  -3.012  12.304  0.00  0.00    -0.361 N 
HETATM   17  C   UNK     0     -24.775  -4.298  11.949  0.00  0.00     0.022 A 
HETATM   18  C   UNK     0     -24.390  -5.081  13.055  0.00  0.00    -0.027 A 
HETATM   19  C   UNK     0     -24.130  -4.205  14.077  0.00  0.00    -0.031 A 
HETATM   20  C   UNK     0     -23.647  -4.632  15.451  0.00  0.00     0.051 C 
HETATM   21  C   UNK     0     -25.205  -4.934  10.646  0.00  0.00     0.115 C 
HETATM   22  C   UNK     0     -26.321  -4.267   9.878  0.00  0.00     0.022 A 
HETATM   23  N   UNK     0     -27.442  -3.712  10.358  0.00  0.00    -0.361 N 
HETATM   24  C   UNK     0     -28.084  -3.105   9.339  0.00  0.00     0.021 A 
HETATM   25  C   UNK     0     -27.364  -3.283   8.173  0.00  0.00    -0.031 A 
HETATM   26  C   UNK     0     -27.696  -2.825   6.768  0.00  0.00     0.051 C 
HETATM   27  C   UNK     0     -26.232  -4.023   8.493  0.00  0.00    -0.027 A 
HETATM   28  C   UNK     0     -29.348  -2.266   9.404  0.00  0.00     0.115 C 
HETATM   29  H   UNK     0     -28.910  -1.896  12.294  0.00  0.00     0.165 HD
HETATM   30  H   UNK     0     -25.927  -0.288  12.473  0.00  0.00     0.165 HD
HETATM   31  H   UNK     0     -24.941  -2.149  11.617  0.00  0.00     0.165 HD
HETATM   32  H   UNK     0     -27.813  -3.780  11.413  0.00  0.00     0.165 HD
ENDROOT
BRANCH   6  33
HETATM   33  C   UNK     0     -29.106   2.594  10.757  0.00  0.00     0.051 C 
BRANCH  33  34
HETATM   34  C   UNK     0     -30.384   3.171  11.319  0.00  0.00     0.114 C 
BRANCH  34  35
HETATM   35  C   UNK     0     -30.969   4.061  10.275  0.00  0.00     0.139 C 
HETATM   36  O   UNK     0     -31.453   3.566   9.215  0.00  0.00    -0.650 OA
BRANCH  35  37
HETATM   37  O   UNK     0     -31.016   5.443  10.408  0.00  0.00    -0.776 OA
HETATM   38  H   UNK     0     -30.797   6.061   9.644  0.00  0.00     0.167 HD
ENDBRANCH  35  37
ENDBRANCH  34  35
ENDBRANCH  33  34
ENDBRANCH   6  33
BRANCH  27  39
HETATM   39  C   UNK     0     -25.244  -4.475   7.475  0.00  0.00     0.051 C 
BRANCH  39  40
HETATM   40  C   UNK     0     -25.431  -5.791   6.863  0.00  0.00     0.114 C 
BRANCH  40  41
HETATM   41  C   UNK     0     -25.137  -7.018   7.569  0.00  0.00     0.139 C 
HETATM   42  O   UNK     0     -24.020  -7.553   7.572  0.00  0.00    -0.650 OA
BRANCH  41  43
HETATM   43  O   UNK     0     -26.174  -7.658   8.305  0.00  0.00    -0.776 OA
HETATM   44  H   UNK     0     -25.860  -8.139   9.139  0.00  0.00     0.167 HD
ENDBRANCH  41  43
ENDBRANCH  40  41
ENDBRANCH  39  40
ENDBRANCH  27  39
BRANCH  11  45
HETATM   45  C   UNK     0     -25.838  -1.093  17.147  0.00  0.00     0.051 C 
BRANCH  45  46
HETATM   46  C   UNK     0     -24.510  -0.588  17.581  0.00  0.00     0.114 C 
BRANCH  46  47
HETATM   47  C   UNK     0     -24.499   0.884  17.346  0.00  0.00     0.139 C 
HETATM   48  O   UNK     0     -25.371   1.577  17.890  0.00  0.00    -0.650 OA
BRANCH  47  49
HETATM   49  O   UNK     0     -23.547   1.461  16.544  0.00  0.00    -0.776 OA
HETATM   50  H   UNK     0     -22.817   0.907  16.080  0.00  0.00     0.167 HD
ENDBRANCH  47  49
ENDBRANCH  46  47
ENDBRANCH  45  46
ENDBRANCH  11  45
BRANCH  18  51
HETATM   51  C   UNK     0     -24.256  -6.580  13.128  0.00  0.00     0.051 C 
BRANCH  51  52
HETATM   52  C   UNK     0     -25.671  -7.136  13.077  0.00  0.00     0.114 C 
BRANCH  52  53
HETATM   53  C   UNK     0     -25.713  -8.477  12.462  0.00  0.00     0.139 C 
HETATM   54  O   UNK     0     -25.872  -8.595  11.237  0.00  0.00    -0.650 OA
BRANCH  53  55
HETATM   55  O   UNK     0     -25.577  -9.592  13.254  0.00  0.00    -0.776 OA
HETATM   56  H   UNK     0     -26.281 -10.269  13.434  0.00  0.00     0.167 HD
ENDBRANCH  53  55
ENDBRANCH  52  53
ENDBRANCH  51  52
ENDBRANCH  18  51
TORSDOF 16
ENDMDL
MODEL 15
REMARK VINA RESULT:      -7.7     13.194     18.483
REMARK  16 active torsions:
REMARK  status: ('A' for Active; 'I' for Inactive)
REMARK    1  A    between atoms: C_6  and  C_7 
REMARK    2  A    between atoms: C_7  and  C_8 
REMARK    3  A    between atoms: C_8  and  C_9 
REMARK    4  A    between atoms: C_9  and  O_11 
REMARK    5  A    between atoms: C_16  and  C_17 
REMARK    6  A    between atoms: C_17  and  C_18 
REMARK    7  A    between atoms: C_18  and  C_19 
REMARK    8  A    between atoms: C_19  and  O_21 
REMARK    9  A    between atoms: C_28  and  C_29 
REMARK   10  A    between atoms: C_29  and  C_30 
REMARK   11  A    between atoms: C_30  and  C_31 
REMARK   12  A    between atoms: C_31  and  O_33 
REMARK   13  A    between atoms: C_42  and  C_43 
REMARK   14  A    between atoms: C_43  and  C_44 
REMARK   15  A    between atoms: C_44  and  C_45 
REMARK   16  A    between atoms: C_45  and  O_47 
ROOT
HETATM    1  C   UNK     0     -21.788  17.109   2.548  0.00  0.00     0.051 C 
HETATM    2  C   UNK     0     -21.596  15.613   2.694  0.00  0.00    -0.031 A 
HETATM    3  C   UNK     0     -22.347  14.695   3.410  0.00  0.00     0.021 A 
HETATM    4  N   UNK     0     -21.788  13.469   3.280  0.00  0.00    -0.361 N 
HETATM    5  C   UNK     0     -20.702  13.584   2.488  0.00  0.00     0.022 A 
HETATM    6  C   UNK     0     -20.550  14.912   2.106  0.00  0.00    -0.027 A 
HETATM    7  C   UNK     0     -19.791  12.519   1.960  0.00  0.00     0.115 C 
HETATM    8  C   UNK     0     -20.451  11.246   1.458  0.00  0.00     0.021 A 
HETATM    9  N   UNK     0     -21.622  11.108   0.818  0.00  0.00    -0.361 N 
HETATM   10  C   UNK     0     -21.853   9.789   0.647  0.00  0.00     0.022 A 
HETATM   11  C   UNK     0     -20.796   9.058   1.182  0.00  0.00    -0.027 A 
HETATM   12  C   UNK     0     -19.909   9.970   1.695  0.00  0.00    -0.031 A 
HETATM   13  C   UNK     0     -18.602   9.631   2.376  0.00  0.00     0.051 C 
HETATM   14  C   UNK     0     -23.097   9.165   0.021  0.00  0.00     0.115 C 
HETATM   15  C   UNK     0     -24.385   9.484   0.764  0.00  0.00     0.021 A 
HETATM   16  N   UNK     0     -24.906  10.698   1.020  0.00  0.00    -0.361 N 
HETATM   17  C   UNK     0     -26.010  10.555   1.757  0.00  0.00     0.022 A 
HETATM   18  C   UNK     0     -26.223   9.181   1.984  0.00  0.00    -0.027 A 
HETATM   19  C   UNK     0     -25.200   8.521   1.355  0.00  0.00    -0.031 A 
HETATM   20  C   UNK     0     -25.066   7.009   1.320  0.00  0.00     0.051 C 
HETATM   21  C   UNK     0     -26.916  11.602   2.364  0.00  0.00     0.115 C 
HETATM   22  C   UNK     0     -26.280  12.892   2.827  0.00  0.00     0.022 A 
HETATM   23  N   UNK     0     -25.113  13.060   3.463  0.00  0.00    -0.361 N 
HETATM   24  C   UNK     0     -24.867  14.382   3.554  0.00  0.00     0.021 A 
HETATM   25  C   UNK     0     -25.905  15.083   2.972  0.00  0.00    -0.031 A 
HETATM   26  C   UNK     0     -26.102  16.581   2.863  0.00  0.00     0.051 C 
HETATM   27  C   UNK     0     -26.822  14.151   2.500  0.00  0.00    -0.027 A 
HETATM   28  C   UNK     0     -23.626  15.061   4.109  0.00  0.00     0.115 C 
HETATM   29  H   UNK     0     -22.142  12.537   3.780  0.00  0.00     0.165 HD
HETATM   30  H   UNK     0     -22.265  11.941   0.442  0.00  0.00     0.165 HD
HETATM   31  H   UNK     0     -24.514  11.675   0.633  0.00  0.00     0.165 HD
HETATM   32  H   UNK     0     -24.472  12.246   3.893  0.00  0.00     0.165 HD
ENDROOT
BRANCH   6  33
HETATM   33  C   UNK     0     -19.500  15.559   1.238  0.00  0.00     0.051 C 
BRANCH  33  34
HETATM   34  C   UNK     0     -19.907  15.515  -0.216  0.00  0.00     0.114 C 
BRANCH  34  35
HETATM   35  C   UNK     0     -18.969  14.589  -0.913  0.00  0.00     0.139 C 
HETATM   36  O   UNK     0     -19.409  13.557  -1.498  0.00  0.00    -0.650 OA
BRANCH  35  37
HETATM   37  O   UNK     0     -17.597  14.806  -0.959  0.00  0.00    -0.776 OA
HETATM   38  H   UNK     0     -17.053  14.964  -0.126  0.00  0.00     0.167 HD
ENDBRANCH  35  37
ENDBRANCH  34  35
ENDBRANCH  33  34
ENDBRANCH   6  33
BRANCH  27  39
HETATM   39  C   UNK     0     -28.115  14.533   1.869  0.00  0.00     0.051 C 
BRANCH  39  40
HETATM   40  C   UNK     0     -28.111  14.928   0.461  0.00  0.00     0.114 C 
BRANCH  40  41
HETATM   41  C   UNK     0     -27.331  14.226  -0.534  0.00  0.00     0.139 C 
HETATM   42  O   UNK     0     -26.093  14.180  -0.525  0.00  0.00    -0.650 OA
BRANCH  41  43
HETATM   43  O   UNK     0     -28.006  13.547  -1.587  0.00  0.00    -0.776 OA
HETATM   44  H   UNK     0     -27.618  12.639  -1.816  0.00  0.00     0.167 HD
ENDBRANCH  41  43
ENDBRANCH  40  41
ENDBRANCH  39  40
ENDBRANCH  27  39
BRANCH  11  45
HETATM   45  C   UNK     0     -20.607   7.565   1.219  0.00  0.00     0.051 C 
BRANCH  45  46
HETATM   46  C   UNK     0     -21.653   6.840   1.985  0.00  0.00     0.114 C 
BRANCH  46  47
HETATM   47  C   UNK     0     -21.685   5.441   1.472  0.00  0.00     0.139 C 
HETATM   48  O   UNK     0     -22.511   4.652   1.954  0.00  0.00    -0.650 OA
BRANCH  47  49
HETATM   49  O   UNK     0     -20.819   5.032   0.489  0.00  0.00    -0.776 OA
HETATM   50  H   UNK     0     -21.067   4.300  -0.186  0.00  0.00     0.167 HD
ENDBRANCH  47  49
ENDBRANCH  46  47
ENDBRANCH  45  46
ENDBRANCH  11  45
BRANCH  18  51
HETATM   51  C   UNK     0     -27.353   8.531   2.740  0.00  0.00     0.051 C 
BRANCH  51  52
HETATM   52  C   UNK     0     -26.883   8.403   4.181  0.00  0.00     0.114 C 
BRANCH  52  53
HETATM   53  C   UNK     0     -27.615   9.315   5.081  0.00  0.00     0.139 C 
HETATM   54  O   UNK     0     -28.828   9.149   5.282  0.00  0.00    -0.650 OA
BRANCH  53  55
HETATM   55  O   UNK     0     -26.946  10.349   5.691  0.00  0.00    -0.776 OA
HETATM   56  H   UNK     0     -27.343  11.017   6.310  0.00  0.00     0.167 HD
ENDBRANCH  53  55
ENDBRANCH  52  53
ENDBRANCH  51  52
ENDBRANCH  18  51
TORSDOF 16
ENDMDL
MODEL 16
REMARK VINA RESULT:      -7.6     16.688     21.835
REMARK  16 active torsions:
REMARK  status: ('A' for Active; 'I' for Inactive)
REMARK    1  A    between atoms: C_6  and  C_7 
REMARK    2  A    between atoms: C_7  and  C_8 
REMARK    3  A    between atoms: C_8  and  C_9 
REMARK    4  A    between atoms: C_9  and  O_11 
REMARK    5  A    between atoms: C_16  and  C_17 
REMARK    6  A    between atoms: C_17  and  C_18 
REMARK    7  A    between atoms: C_18  and  C_19 
REMARK    8  A    between atoms: C_19  and  O_21 
REMARK    9  A    between atoms: C_28  and  C_29 
REMARK   10  A    between atoms: C_29  and  C_30 
REMARK   11  A    between atoms: C_30  and  C_31 
REMARK   12  A    between atoms: C_31  and  O_33 
REMARK   13  A    between atoms: C_42  and  C_43 
REMARK   14  A    between atoms: C_43  and  C_44 
REMARK   15  A    between atoms: C_44  and  C_45 
REMARK   16  A    between atoms: C_45  and  O_47 
ROOT
HETATM    1  C   UNK     0     -19.428   8.242   1.620  0.00  0.00     0.051 C 
HETATM    2  C   UNK     0     -19.432   9.727   1.921  0.00  0.00    -0.031 A 
HETATM    3  C   UNK     0     -18.517  10.481   2.638  0.00  0.00     0.021 A 
HETATM    4  N   UNK     0     -18.941  11.767   2.679  0.00  0.00    -0.361 N 
HETATM    5  C   UNK     0     -20.101  11.850   1.996  0.00  0.00     0.022 A 
HETATM    6  C   UNK     0     -20.439  10.591   1.511  0.00  0.00    -0.027 A 
HETATM    7  C   UNK     0     -20.927  13.054   1.665  0.00  0.00     0.115 C 
HETATM    8  C   UNK     0     -20.174  14.294   1.217  0.00  0.00     0.021 A 
HETATM    9  N   UNK     0     -19.059  14.373   0.475  0.00  0.00    -0.361 N 
HETATM   10  C   UNK     0     -18.694  15.670   0.403  0.00  0.00     0.022 A 
HETATM   11  C   UNK     0     -19.605  16.450   1.109  0.00  0.00    -0.027 A 
HETATM   12  C   UNK     0     -20.541  15.589   1.624  0.00  0.00    -0.031 A 
HETATM   13  C   UNK     0     -21.732  15.993   2.464  0.00  0.00     0.051 C 
HETATM   14  C   UNK     0     -17.449  16.220  -0.287  0.00  0.00     0.115 C 
HETATM   15  C   UNK     0     -16.144  15.692   0.286  0.00  0.00     0.021 A 
HETATM   16  N   UNK     0     -15.745  14.409   0.375  0.00  0.00    -0.361 N 
HETATM   17  C   UNK     0     -14.569  14.358   1.005  0.00  0.00     0.022 A 
HETATM   18  C   UNK     0     -14.178  15.671   1.334  0.00  0.00    -0.027 A 
HETATM   19  C   UNK     0     -15.172  16.497   0.877  0.00  0.00    -0.031 A 
HETATM   20  C   UNK     0     -15.133  18.010   0.995  0.00  0.00     0.051 C 
HETATM   21  C   UNK     0     -13.738  13.164   1.416  0.00  0.00     0.115 C 
HETATM   22  C   UNK     0     -14.473  11.908   1.822  0.00  0.00     0.022 A 
HETATM   23  N   UNK     0     -15.588  11.800   2.556  0.00  0.00    -0.361 N 
HETATM   24  C   UNK     0     -15.976  10.509   2.550  0.00  0.00     0.021 A 
HETATM   25  C   UNK     0     -15.083   9.766   1.802  0.00  0.00    -0.031 A 
HETATM   26  C   UNK     0     -15.072   8.275   1.536  0.00  0.00     0.051 C 
HETATM   27  C   UNK     0     -14.112  10.639   1.326  0.00  0.00    -0.027 A 
HETATM   28  C   UNK     0     -17.230   9.912   3.165  0.00  0.00     0.115 C 
HETATM   29  H   UNK     0     -18.437  12.599   3.223  0.00  0.00     0.165 HD
HETATM   30  H   UNK     0     -18.554  13.520  -0.041  0.00  0.00     0.165 HD
HETATM   31  H   UNK     0     -16.281  13.524  -0.058  0.00  0.00     0.165 HD
HETATM   32  H   UNK     0     -16.088  12.629   3.122  0.00  0.00     0.165 HD
ENDROOT
BRANCH   6  33
HETATM   33  C   UNK     0     -21.632  10.152   0.700  0.00  0.00     0.051 C 
BRANCH  33  34
HETATM   34  C   UNK     0     -22.603   9.372   1.555  0.00  0.00     0.114 C 
BRANCH  34  35
HETATM   35  C   UNK     0     -23.098   8.227   0.737  0.00  0.00     0.139 C 
HETATM   36  O   UNK     0     -24.251   7.748   0.944  0.00  0.00    -0.650 OA
BRANCH  35  37
HETATM   37  O   UNK     0     -22.340   7.643  -0.271  0.00  0.00    -0.776 OA
HETATM   38  H   UNK     0     -22.568   6.741  -0.656  0.00  0.00     0.167 HD
ENDBRANCH  35  37
ENDBRANCH  34  35
ENDBRANCH  33  34
ENDBRANCH   6  33
BRANCH  27  39
HETATM   39  C   UNK     0     -12.936  10.190   0.533  0.00  0.00     0.051 C 
BRANCH  39  40
HETATM   40  C   UNK     0     -11.616  10.239   1.162  0.00  0.00     0.114 C 
BRANCH  40  41
HETATM   41  C   UNK     0     -10.584   9.272   0.863  0.00  0.00     0.139 C 
HETATM   42  O   UNK     0     -10.702   8.390   0.002  0.00  0.00    -0.650 OA
BRANCH  41  43
HETATM   43  O   UNK     0      -9.360   9.321   1.589  0.00  0.00    -0.776 OA
HETATM   44  H   UNK     0      -8.656   8.667   1.268  0.00  0.00     0.167 HD
ENDBRANCH  41  43
ENDBRANCH  40  41
ENDBRANCH  39  40
ENDBRANCH  27  39
BRANCH  11  45
HETATM   45  C   UNK     0     -19.617  17.943   1.303  0.00  0.00     0.051 C 
BRANCH  45  46
HETATM   46  C   UNK     0     -18.803  18.411   2.453  0.00  0.00     0.114 C 
BRANCH  46  47
HETATM   47  C   UNK     0     -19.648  19.358   3.235  0.00  0.00     0.139 C 
HETATM   48  O   UNK     0     -20.435  18.896   4.073  0.00  0.00    -0.650 OA
BRANCH  47  49
HETATM   49  O   UNK     0     -19.558  20.712   3.033  0.00  0.00    -0.776 OA
HETATM   50  H   UNK     0     -18.694  21.158   2.702  0.00  0.00     0.167 HD
ENDBRANCH  47  49
ENDBRANCH  46  47
ENDBRANCH  45  46
ENDBRANCH  11  45
BRANCH  18  51
HETATM   51  C   UNK     0     -12.916  16.116   2.026  0.00  0.00     0.051 C 
BRANCH  51  52
HETATM   52  C   UNK     0     -13.331  16.571   3.418  0.00  0.00     0.114 C 
BRANCH  52  53
HETATM   53  C   UNK     0     -12.410  17.587   3.961  0.00  0.00     0.139 C 
HETATM   54  O   UNK     0     -12.287  18.683   3.391  0.00  0.00    -0.650 OA
BRANCH  53  55
HETATM   55  O   UNK     0     -11.689  17.313   5.098  0.00  0.00    -0.776 OA
HETATM   56  H   UNK     0     -12.060  17.201   6.012  0.00  0.00     0.167 HD
ENDBRANCH  53  55
ENDBRANCH  52  53
ENDBRANCH  51  52
ENDBRANCH  18  51
TORSDOF 16
ENDMDL
MODEL 17
REMARK VINA RESULT:      -7.4      3.269      8.361
REMARK  16 active torsions:
REMARK  status: ('A' for Active; 'I' for Inactive)
REMARK    1  A    between atoms: C_6  and  C_7 
REMARK    2  A    between atoms: C_7  and  C_8 
REMARK    3  A    between atoms: C_8  and  C_9 
REMARK    4  A    between atoms: C_9  and  O_11 
REMARK    5  A    between atoms: C_16  and  C_17 
REMARK    6  A    between atoms: C_17  and  C_18 
REMARK    7  A    between atoms: C_18  and  C_19 
REMARK    8  A    between atoms: C_19  and  O_21 
REMARK    9  A    between atoms: C_28  and  C_29 
REMARK   10  A    between atoms: C_29  and  C_30 
REMARK   11  A    between atoms: C_30  and  C_31 
REMARK   12  A    between atoms: C_31  and  O_33 
REMARK   13  A    between atoms: C_42  and  C_43 
REMARK   14  A    between atoms: C_43  and  C_44 
REMARK   15  A    between atoms: C_44  and  C_45 
REMARK   16  A    between atoms: C_45  and  O_47 
ROOT
HETATM    1  C   UNK     0     -26.326  -1.332  17.091  0.00  0.00     0.051 C 
HETATM    2  C   UNK     0     -26.625  -0.800  15.705  0.00  0.00    -0.031 A 
HETATM    3  C   UNK     0     -25.840  -0.828  14.563  0.00  0.00     0.021 A 
HETATM    4  N   UNK     0     -26.500  -0.205  13.558  0.00  0.00    -0.361 N 
HETATM    5  C   UNK     0     -27.692   0.212  14.032  0.00  0.00     0.022 A 
HETATM    6  C   UNK     0     -27.802  -0.142  15.372  0.00  0.00    -0.027 A 
HETATM    7  C   UNK     0     -28.828   0.866  13.308  0.00  0.00     0.115 C 
HETATM    8  C   UNK     0     -29.176   0.307  11.940  0.00  0.00     0.021 A 
HETATM    9  N   UNK     0     -29.132  -0.967  11.521  0.00  0.00    -0.361 N 
HETATM   10  C   UNK     0     -29.438  -0.987  10.206  0.00  0.00     0.022 A 
HETATM   11  C   UNK     0     -29.695   0.309   9.769  0.00  0.00    -0.027 A 
HETATM   12  C   UNK     0     -29.533   1.129  10.856  0.00  0.00    -0.031 A 
HETATM   13  C   UNK     0     -29.716   2.630  10.854  0.00  0.00     0.051 C 
HETATM   14  C   UNK     0     -29.447  -2.216   9.301  0.00  0.00     0.115 C 
HETATM   15  C   UNK     0     -28.098  -2.908   9.189  0.00  0.00     0.021 A 
HETATM   16  N   UNK     0     -27.357  -3.428  10.185  0.00  0.00    -0.361 N 
HETATM   17  C   UNK     0     -26.206  -3.883   9.683  0.00  0.00     0.022 A 
HETATM   18  C   UNK     0     -26.202  -3.657   8.292  0.00  0.00    -0.027 A 
HETATM   19  C   UNK     0     -27.393  -3.047   7.995  0.00  0.00    -0.031 A 
HETATM   20  C   UNK     0     -27.815  -2.659   6.590  0.00  0.00     0.051 C 
HETATM   21  C   UNK     0     -25.011  -4.487  10.385  0.00  0.00     0.115 C 
HETATM   22  C   UNK     0     -24.679  -3.971  11.766  0.00  0.00     0.022 A 
HETATM   23  N   UNK     0     -24.718  -2.709  12.212  0.00  0.00    -0.361 N 
HETATM   24  C   UNK     0     -24.487  -2.722  13.540  0.00  0.00     0.021 A 
HETATM   25  C   UNK     0     -24.284  -4.024  13.957  0.00  0.00    -0.031 A 
HETATM   26  C   UNK     0     -23.951  -4.540  15.342  0.00  0.00     0.051 C 
HETATM   27  C   UNK     0     -24.401  -4.841  12.839  0.00  0.00    -0.027 A 
HETATM   28  C   UNK     0     -24.522  -1.547  14.501  0.00  0.00     0.115 C 
HETATM   29  H   UNK     0     -26.102  -0.029  12.532  0.00  0.00     0.165 HD
HETATM   30  H   UNK     0     -28.934  -1.861  12.162  0.00  0.00     0.165 HD
HETATM   31  H   UNK     0     -27.671  -3.520  11.257  0.00  0.00     0.165 HD
HETATM   32  H   UNK     0     -24.867  -1.792  11.585  0.00  0.00     0.165 HD
ENDROOT
BRANCH   6  33
HETATM   33  C   UNK     0     -28.926   0.097  16.349  0.00  0.00     0.051 C 
BRANCH  33  34
HETATM   34  C   UNK     0     -28.769   1.438  17.026  0.00  0.00     0.114 C 
BRANCH  34  35
HETATM   35  C   UNK     0     -30.051   2.180  16.850  0.00  0.00     0.139 C 
HETATM   36  O   UNK     0     -30.232   2.905  15.828  0.00  0.00    -0.650 OA
BRANCH  35  37
HETATM   37  O   UNK     0     -31.088   2.114  17.772  0.00  0.00    -0.776 OA
HETATM   38  H   UNK     0     -30.921   1.969  18.755  0.00  0.00     0.167 HD
ENDBRANCH  35  37
ENDBRANCH  34  35
ENDBRANCH  33  34
ENDBRANCH   6  33
BRANCH  27  39
HETATM   39  C   UNK     0     -24.175  -6.312  12.883  0.00  0.00     0.051 C 
BRANCH  39  40
HETATM   40  C   UNK     0     -25.326  -7.185  13.109  0.00  0.00     0.114 C 
BRANCH  40  41
HETATM   41  C   UNK     0     -26.067  -7.780  12.020  0.00  0.00     0.139 C 
HETATM   42  O   UNK     0     -26.933  -7.176  11.373  0.00  0.00    -0.650 OA
BRANCH  41  43
HETATM   43  O   UNK     0     -25.801  -9.132  11.660  0.00  0.00    -0.776 OA
HETATM   44  H   UNK     0     -24.833  -9.410  11.766  0.00  0.00     0.167 HD
ENDBRANCH  41  43
ENDBRANCH  40  41
ENDBRANCH  39  40
ENDBRANCH  27  39
BRANCH  11  45
HETATM   45  C   UNK     0     -30.082   0.779   8.392  0.00  0.00     0.051 C 
BRANCH  45  46
HETATM   46  C   UNK     0     -29.094   0.442   7.336  0.00  0.00     0.114 C 
BRANCH  46  47
HETATM   47  C   UNK     0     -27.852   1.213   7.631  0.00  0.00     0.139 C 
HETATM   48  O   UNK     0     -26.760   0.635   7.543  0.00  0.00    -0.650 OA
BRANCH  47  49
HETATM   49  O   UNK     0     -27.916   2.535   7.994  0.00  0.00    -0.776 OA
HETATM   50  H   UNK     0     -28.153   3.274   7.321  0.00  0.00     0.167 HD
ENDBRANCH  47  49
ENDBRANCH  46  47
ENDBRANCH  45  46
ENDBRANCH  11  45
BRANCH  18  51
HETATM   51  C   UNK     0     -25.131  -4.022   7.297  0.00  0.00     0.051 C 
BRANCH  51  52
HETATM   52  C   UNK     0     -25.599  -5.300   6.617  0.00  0.00     0.114 C 
BRANCH  52  53
HETATM   53  C   UNK     0     -24.986  -6.500   7.219  0.00  0.00     0.139 C 
HETATM   54  O   UNK     0     -23.772  -6.514   7.478  0.00  0.00    -0.650 OA
BRANCH  53  55
HETATM   55  O   UNK     0     -25.765  -7.599   7.486  0.00  0.00    -0.776 OA
HETATM   56  H   UNK     0     -26.467  -7.976   6.894  0.00  0.00     0.167 HD
ENDBRANCH  53  55
ENDBRANCH  52  53
ENDBRANCH  51  52
ENDBRANCH  18  51
TORSDOF 16
ENDMDL
MODEL 18
REMARK VINA RESULT:      -7.4     11.334     14.451
REMARK  16 active torsions:
REMARK  status: ('A' for Active; 'I' for Inactive)
REMARK    1  A    between atoms: C_6  and  C_7 
REMARK    2  A    between atoms: C_7  and  C_8 
REMARK    3  A    between atoms: C_8  and  C_9 
REMARK    4  A    between atoms: C_9  and  O_11 
REMARK    5  A    between atoms: C_16  and  C_17 
REMARK    6  A    between atoms: C_17  and  C_18 
REMARK    7  A    between atoms: C_18  and  C_19 
REMARK    8  A    between atoms: C_19  and  O_21 
REMARK    9  A    between atoms: C_28  and  C_29 
REMARK   10  A    between atoms: C_29  and  C_30 
REMARK   11  A    between atoms: C_30  and  C_31 
REMARK   12  A    between atoms: C_31  and  O_33 
REMARK   13  A    between atoms: C_42  and  C_43 
REMARK   14  A    between atoms: C_43  and  C_44 
REMARK   15  A    between atoms: C_44  and  C_45 
REMARK   16  A    between atoms: C_45  and  O_47 
ROOT
HETATM    1  C   UNK     0     -22.290   4.517  18.484  0.00  0.00     0.051 C 
HETATM    2  C   UNK     0     -23.734   4.909  18.245  0.00  0.00    -0.031 A 
HETATM    3  C   UNK     0     -24.498   5.880  18.874  0.00  0.00     0.021 A 
HETATM    4  N   UNK     0     -25.749   5.860  18.358  0.00  0.00    -0.361 N 
HETATM    5  C   UNK     0     -25.798   4.904  17.407  0.00  0.00     0.022 A 
HETATM    6  C   UNK     0     -24.554   4.287  17.313  0.00  0.00    -0.027 A 
HETATM    7  C   UNK     0     -26.913   4.541  16.477  0.00  0.00     0.115 C 
HETATM    8  C   UNK     0     -27.676   5.693  15.847  0.00  0.00     0.021 A 
HETATM    9  N   UNK     0     -27.209   6.886  15.446  0.00  0.00    -0.361 N 
HETATM   10  C   UNK     0     -28.257   7.629  15.032  0.00  0.00     0.022 A 
HETATM   11  C   UNK     0     -29.430   6.891  15.161  0.00  0.00    -0.027 A 
HETATM   12  C   UNK     0     -29.072   5.671  15.673  0.00  0.00    -0.031 A 
HETATM   13  C   UNK     0     -30.024   4.536  15.977  0.00  0.00     0.051 C 
HETATM   14  C   UNK     0     -28.202   9.076  14.551  0.00  0.00     0.115 C 
HETATM   15  C   UNK     0     -27.682  10.052  15.594  0.00  0.00     0.021 A 
HETATM   16  N   UNK     0     -26.491  10.029  16.219  0.00  0.00    -0.361 N 
HETATM   17  C   UNK     0     -26.446  11.018  17.115  0.00  0.00     0.022 A 
HETATM   18  C   UNK     0     -27.664  11.725  17.064  0.00  0.00    -0.027 A 
HETATM   19  C   UNK     0     -28.429  11.111  16.107  0.00  0.00    -0.031 A 
HETATM   20  C   UNK     0     -29.814  11.582  15.704  0.00  0.00     0.051 C 
HETATM   21  C   UNK     0     -25.370  11.375  18.115  0.00  0.00     0.115 C 
HETATM   22  C   UNK     0     -24.573  10.242  18.718  0.00  0.00     0.022 A 
HETATM   23  N   UNK     0     -25.011   9.042  19.122  0.00  0.00    -0.361 N 
HETATM   24  C   UNK     0     -23.942   8.292  19.457  0.00  0.00     0.021 A 
HETATM   25  C   UNK     0     -22.788   9.030  19.273  0.00  0.00    -0.031 A 
HETATM   26  C   UNK     0     -21.352   8.637  19.549  0.00  0.00     0.051 C 
HETATM   27  C   UNK     0     -23.167  10.281  18.801  0.00  0.00    -0.027 A 
HETATM   28  C   UNK     0     -23.927   6.835  19.884  0.00  0.00     0.115 C 
HETATM   29  H   UNK     0     -26.601   6.494  18.696  0.00  0.00     0.165 HD
HETATM   30  H   UNK     0     -26.134   7.188  15.408  0.00  0.00     0.165 HD
HETATM   31  H   UNK     0     -25.644   9.330  15.991  0.00  0.00     0.165 HD
HETATM   32  H   UNK     0     -26.083   8.728  19.216  0.00  0.00     0.165 HD
ENDROOT
BRANCH   6  33
HETATM   33  C   UNK     0     -24.094   3.165  16.417  0.00  0.00     0.051 C 
BRANCH  33  34
HETATM   34  C   UNK     0     -23.872   3.662  15.008  0.00  0.00     0.114 C 
BRANCH  34  35
HETATM   35  C   UNK     0     -22.419   3.963  14.864  0.00  0.00     0.139 C 
HETATM   36  O   UNK     0     -22.042   5.020  14.279  0.00  0.00    -0.650 OA
BRANCH  35  37
HETATM   37  O   UNK     0     -21.427   3.121  15.354  0.00  0.00    -0.776 OA
HETATM   38  H   UNK     0     -20.707   2.742  14.761  0.00  0.00     0.167 HD
ENDBRANCH  35  37
ENDBRANCH  34  35
ENDBRANCH  33  34
ENDBRANCH   6  33
BRANCH  27  39
HETATM   39  C   UNK     0     -22.196  11.381  18.552  0.00  0.00     0.051 C 
BRANCH  39  40
HETATM   40  C   UNK     0     -21.245  11.232  17.451  0.00  0.00     0.114 C 
BRANCH  40  41
HETATM   41  C   UNK     0     -21.672  11.128  16.073  0.00  0.00     0.139 C 
HETATM   42  O   UNK     0     -22.556  10.351  15.689  0.00  0.00    -0.650 OA
BRANCH  41  43
HETATM   43  O   UNK     0     -21.054  11.956  15.094  0.00  0.00    -0.776 OA
HETATM   44  H   UNK     0     -21.656  12.210  14.320  0.00  0.00     0.167 HD
ENDBRANCH  41  43
ENDBRANCH  40  41
ENDBRANCH  39  40
ENDBRANCH  27  39
BRANCH  11  45
HETATM   45  C   UNK     0     -30.839   7.296  14.820  0.00  0.00     0.051 C 
BRANCH  45  46
HETATM   46  C   UNK     0     -31.720   7.481  16.001  0.00  0.00     0.114 C 
BRANCH  46  47
HETATM   47  C   UNK     0     -32.313   8.845  15.901  0.00  0.00     0.139 C 
HETATM   48  O   UNK     0     -32.639   9.269  14.783  0.00  0.00    -0.650 OA
BRANCH  47  49
HETATM   49  O   UNK     0     -32.494   9.617  17.021  0.00  0.00    -0.776 OA
HETATM   50  H   UNK     0     -33.341  10.177  17.166  0.00  0.00     0.167 HD
ENDBRANCH  47  49
ENDBRANCH  46  47
ENDBRANCH  45  46
ENDBRANCH  11  45
BRANCH  18  51
HETATM   51  C   UNK     0     -28.067  12.933  17.870  0.00  0.00     0.051 C 
BRANCH  51  52
HETATM   52  C   UNK     0     -27.472  14.138  17.157  0.00  0.00     0.114 C 
BRANCH  52  53
HETATM   53  C   UNK     0     -27.270  15.275  18.076  0.00  0.00     0.139 C 
HETATM   54  O   UNK     0     -26.846  16.358  17.642  0.00  0.00    -0.650 OA
BRANCH  53  55
HETATM   55  O   UNK     0     -27.550  15.127  19.413  0.00  0.00    -0.776 OA
HETATM   56  H   UNK     0     -27.482  14.284  19.934  0.00  0.00     0.167 HD
ENDBRANCH  53  55
ENDBRANCH  52  53
ENDBRANCH  51  52
ENDBRANCH  18  51
TORSDOF 16
ENDMDL
MODEL 19
REMARK VINA RESULT:      -7.4     33.662     37.650
REMARK  16 active torsions:
REMARK  status: ('A' for Active; 'I' for Inactive)
REMARK    1  A    between atoms: C_6  and  C_7 
REMARK    2  A    between atoms: C_7  and  C_8 
REMARK    3  A    between atoms: C_8  and  C_9 
REMARK    4  A    between atoms: C_9  and  O_11 
REMARK    5  A    between atoms: C_16  and  C_17 
REMARK    6  A    between atoms: C_17  and  C_18 
REMARK    7  A    between atoms: C_18  and  C_19 
REMARK    8  A    between atoms: C_19  and  O_21 
REMARK    9  A    between atoms: C_28  and  C_29 
REMARK   10  A    between atoms: C_29  and  C_30 
REMARK   11  A    between atoms: C_30  and  C_31 
REMARK   12  A    between atoms: C_31  and  O_33 
REMARK   13  A    between atoms: C_42  and  C_43 
REMARK   14  A    between atoms: C_43  and  C_44 
REMARK   15  A    between atoms: C_44  and  C_45 
REMARK   16  A    between atoms: C_45  and  O_47 
ROOT
HETATM    1  C   UNK     0       9.439   3.857  -0.376  0.00  0.00     0.051 C 
HETATM    2  C   UNK     0       9.375   4.032   1.128  0.00  0.00    -0.031 A 
HETATM    3  C   UNK     0       8.335   3.760   2.002  0.00  0.00     0.021 A 
HETATM    4  N   UNK     0       8.712   4.101   3.257  0.00  0.00    -0.361 N 
HETATM    5  C   UNK     0       9.974   4.575   3.203  0.00  0.00     0.022 A 
HETATM    6  C   UNK     0      10.419   4.549   1.885  0.00  0.00    -0.027 A 
HETATM    7  C   UNK     0      10.881   4.996   4.317  0.00  0.00     0.115 C 
HETATM    8  C   UNK     0      10.897   4.114   5.553  0.00  0.00     0.021 A 
HETATM    9  N   UNK     0      10.783   2.779   5.630  0.00  0.00    -0.361 N 
HETATM   10  C   UNK     0      10.757   2.435   6.935  0.00  0.00     0.022 A 
HETATM   11  C   UNK     0      10.868   3.579   7.720  0.00  0.00    -0.027 A 
HETATM   12  C   UNK     0      10.957   4.640   6.856  0.00  0.00    -0.031 A 
HETATM   13  C   UNK     0      11.097   6.090   7.264  0.00  0.00     0.051 C 
HETATM   14  C   UNK     0      10.575   1.026   7.491  0.00  0.00     0.115 C 
HETATM   15  C   UNK     0       9.257   0.376   7.102  0.00  0.00     0.021 A 
HETATM   16  N   UNK     0       8.795   0.136   5.860  0.00  0.00    -0.361 N 
HETATM   17  C   UNK     0       7.568  -0.384   5.942  0.00  0.00     0.022 A 
HETATM   18  C   UNK     0       7.218  -0.498   7.302  0.00  0.00    -0.027 A 
HETATM   19  C   UNK     0       8.285  -0.019   8.018  0.00  0.00    -0.031 A 
HETATM   20  C   UNK     0       8.339   0.006   9.534  0.00  0.00     0.051 C 
HETATM   21  C   UNK     0       6.597  -0.760   4.845  0.00  0.00     0.115 C 
HETATM   22  C   UNK     0       6.601   0.082   3.591  0.00  0.00     0.022 A 
HETATM   23  N   UNK     0       6.718   1.412   3.485  0.00  0.00    -0.361 N 
HETATM   24  C   UNK     0       6.820   1.726   2.178  0.00  0.00     0.021 A 
HETATM   25  C   UNK     0       6.757   0.570   1.423  0.00  0.00    -0.031 A 
HETATM   26  C   UNK     0       6.787   0.412  -0.083  0.00  0.00     0.051 C 
HETATM   27  C   UNK     0       6.617  -0.495   2.306  0.00  0.00    -0.027 A 
HETATM   28  C   UNK     0       7.060   3.095   1.566  0.00  0.00     0.115 C 
HETATM   29  H   UNK     0       8.071   4.040   4.167  0.00  0.00     0.165 HD
HETATM   30  H   UNK     0      10.770   2.073   4.764  0.00  0.00     0.165 HD
HETATM   31  H   UNK     0       9.365   0.292   4.907  0.00  0.00     0.165 HD
HETATM   32  H   UNK     0       6.686   2.147   4.331  0.00  0.00     0.165 HD
ENDROOT
BRANCH   6  33
HETATM   33  C   UNK     0      11.741   4.974   1.299  0.00  0.00     0.051 C 
BRANCH  33  34
HETATM   34  C   UNK     0      11.723   6.443   0.949  0.00  0.00     0.114 C 
BRANCH  34  35
HETATM   35  C   UNK     0      13.134   6.924   0.970  0.00  0.00     0.139 C 
HETATM   36  O   UNK     0      13.557   7.617   1.941  0.00  0.00    -0.650 OA
BRANCH  35  37
HETATM   37  O   UNK     0      14.037   6.642  -0.047  0.00  0.00    -0.776 OA
HETATM   38  H   UNK     0      14.350   5.704  -0.240  0.00  0.00     0.167 HD
ENDBRANCH  35  37
ENDBRANCH  34  35
ENDBRANCH  33  34
ENDBRANCH   6  33
BRANCH  27  39
HETATM   39  C   UNK     0       6.444  -1.903   1.856  0.00  0.00     0.051 C 
BRANCH  39  40
HETATM   40  C   UNK     0       5.149  -2.547   2.073  0.00  0.00     0.114 C 
BRANCH  40  41
HETATM   41  C   UNK     0       3.898  -1.874   1.803  0.00  0.00     0.139 C 
HETATM   42  O   UNK     0       3.562  -1.484   0.677  0.00  0.00    -0.650 OA
BRANCH  41  43
HETATM   43  O   UNK     0       2.994  -1.638   2.877  0.00  0.00    -0.776 OA
HETATM   44  H   UNK     0       3.148  -2.223   3.690  0.00  0.00     0.167 HD
ENDBRANCH  41  43
ENDBRANCH  40  41
ENDBRANCH  39  40
ENDBRANCH  27  39
BRANCH  11  45
HETATM   45  C   UNK     0      10.894   3.691   9.221  0.00  0.00     0.051 C 
BRANCH  45  46
HETATM   46  C   UNK     0       9.574   3.476   9.868  0.00  0.00     0.114 C 
BRANCH  46  47
HETATM   47  C   UNK     0       8.935   4.814  10.023  0.00  0.00     0.139 C 
HETATM   48  O   UNK     0       9.616   5.748  10.468  0.00  0.00    -0.650 OA
BRANCH  47  49
HETATM   49  O   UNK     0       7.620   5.008   9.682  0.00  0.00    -0.776 OA
HETATM   50  H   UNK     0       7.236   4.686   8.786  0.00  0.00     0.167 HD
ENDBRANCH  47  49
ENDBRANCH  46  47
ENDBRANCH  45  46
ENDBRANCH  11  45
BRANCH  18  51
HETATM   51  C   UNK     0       5.945  -1.051   7.887  0.00  0.00     0.051 C 
BRANCH  51  52
HETATM   52  C   UNK     0       5.018   0.138   8.093  0.00  0.00     0.114 C 
BRANCH  52  53
HETATM   53  C   UNK     0       4.067   0.293   6.976  0.00  0.00     0.139 C 
HETATM   54  O   UNK     0       4.055   1.340   6.310  0.00  0.00    -0.650 OA
BRANCH  53  55
HETATM   55  O   UNK     0       3.194  -0.726   6.680  0.00  0.00    -0.776 OA
HETATM   56  H   UNK     0       3.038  -1.539   7.229  0.00  0.00     0.167 HD
ENDBRANCH  53  55
ENDBRANCH  52  53
ENDBRANCH  51  52
ENDBRANCH  18  51
TORSDOF 16
ENDMDL
MODEL 20
REMARK VINA RESULT:      -7.3     21.035     26.435
REMARK  16 active torsions:
REMARK  status: ('A' for Active; 'I' for Inactive)
REMARK    1  A    between atoms: C_6  and  C_7 
REMARK    2  A    between atoms: C_7  and  C_8 
REMARK    3  A    between atoms: C_8  and  C_9 
REMARK    4  A    between atoms: C_9  and  O_11 
REMARK    5  A    between atoms: C_16  and  C_17 
REMARK    6  A    between atoms: C_17  and  C_18 
REMARK    7  A    between atoms: C_18  and  C_19 
REMARK    8  A    between atoms: C_19  and  O_21 
REMARK    9  A    between atoms: C_28  and  C_29 
REMARK   10  A    between atoms: C_29  and  C_30 
REMARK   11  A    between atoms: C_30  and  C_31 
REMARK   12  A    between atoms: C_31  and  O_33 
REMARK   13  A    between atoms: C_42  and  C_43 
REMARK   14  A    between atoms: C_43  and  C_44 
REMARK   15  A    between atoms: C_44  and  C_45 
REMARK   16  A    between atoms: C_45  and  O_47 
ROOT
HETATM    1  C   UNK     0     -10.383  20.262   2.657  0.00  0.00     0.051 C 
HETATM    2  C   UNK     0     -10.066  18.795   2.864  0.00  0.00    -0.031 A 
HETATM    3  C   UNK     0     -10.860  17.790   3.393  0.00  0.00     0.021 A 
HETATM    4  N   UNK     0     -10.153  16.635   3.416  0.00  0.00    -0.361 N 
HETATM    5  C   UNK     0      -8.929  16.881   2.904  0.00  0.00     0.022 A 
HETATM    6  C   UNK     0      -8.840  18.223   2.551  0.00  0.00    -0.027 A 
HETATM    7  C   UNK     0      -7.807  15.931   2.622  0.00  0.00     0.115 C 
HETATM    8  C   UNK     0      -8.182  14.600   1.994  0.00  0.00     0.021 A 
HETATM    9  N   UNK     0      -9.145  14.340   1.096  0.00  0.00    -0.361 N 
HETATM   10  C   UNK     0      -9.180  13.006   0.893  0.00  0.00     0.022 A 
HETATM   11  C   UNK     0      -8.207  12.390   1.674  0.00  0.00    -0.027 A 
HETATM   12  C   UNK     0      -7.575  13.388   2.370  0.00  0.00    -0.031 A 
HETATM   13  C   UNK     0      -6.437  13.188   3.347  0.00  0.00     0.051 C 
HETATM   14  C   UNK     0     -10.164  12.257  -0.002  0.00  0.00     0.115 C 
HETATM   15  C   UNK     0     -11.618  12.421   0.409  0.00  0.00     0.021 A 
HETATM   16  N   UNK     0     -12.317  13.566   0.517  0.00  0.00    -0.361 N 
HETATM   17  C   UNK     0     -13.541  13.291   0.973  0.00  0.00     0.022 A 
HETATM   18  C   UNK     0     -13.648  11.899   1.161  0.00  0.00    -0.027 A 
HETATM   19  C   UNK     0     -12.438  11.365   0.803  0.00  0.00    -0.031 A 
HETATM   20  C   UNK     0     -12.132   9.878   0.821  0.00  0.00     0.051 C 
HETATM   21  C   UNK     0     -14.676  14.223   1.333  0.00  0.00     0.115 C 
HETATM   22  C   UNK     0     -14.316  15.568   1.917  0.00  0.00     0.022 A 
HETATM   23  N   UNK     0     -13.359  15.857   2.809  0.00  0.00    -0.361 N 
HETATM   24  C   UNK     0     -13.290  17.197   2.938  0.00  0.00     0.021 A 
HETATM   25  C   UNK     0     -14.232  17.786   2.116  0.00  0.00    -0.031 A 
HETATM   26  C   UNK     0     -14.562  19.254   1.944  0.00  0.00     0.051 C 
HETATM   27  C   UNK     0     -14.901  16.764   1.452  0.00  0.00    -0.027 A 
HETATM   28  C   UNK     0     -12.301  18.002   3.763  0.00  0.00     0.115 C 
HETATM   29  H   UNK     0     -10.510  15.664   3.830  0.00  0.00     0.165 HD
HETATM   30  H   UNK     0      -9.769  15.102   0.567  0.00  0.00     0.165 HD
HETATM   31  H   UNK     0     -11.955  14.585   0.222  0.00  0.00     0.165 HD
HETATM   32  H   UNK     0     -12.753  15.114   3.390  0.00  0.00     0.165 HD
ENDROOT
BRANCH   6  33
HETATM   33  C   UNK     0      -7.692  18.994   1.949  0.00  0.00     0.051 C 
BRANCH  33  34
HETATM   34  C   UNK     0      -7.847  19.100   0.450  0.00  0.00     0.114 C 
BRANCH  34  35
HETATM   35  C   UNK     0      -7.272  17.861  -0.147  0.00  0.00     0.139 C 
HETATM   36  O   UNK     0      -6.026  17.648  -0.096  0.00  0.00    -0.650 OA
BRANCH  35  37
HETATM   37  O   UNK     0      -8.054  16.898  -0.773  0.00  0.00    -0.776 OA
HETATM   38  H   UNK     0      -9.060  16.955  -0.790  0.00  0.00     0.167 HD
ENDBRANCH  35  37
ENDBRANCH  34  35
ENDBRANCH  33  34
ENDBRANCH   6  33
BRANCH  27  39
HETATM   39  C   UNK     0     -16.041  17.008   0.528  0.00  0.00     0.051 C 
BRANCH  39  40
HETATM   40  C   UNK     0     -17.383  16.624   0.965  0.00  0.00     0.114 C 
BRANCH  40  41
HETATM   41  C   UNK     0     -18.121  15.551   0.337  0.00  0.00     0.139 C 
HETATM   42  O   UNK     0     -17.618  14.758  -0.471  0.00  0.00    -0.650 OA
BRANCH  41  43
HETATM   43  O   UNK     0     -19.499  15.382   0.652  0.00  0.00    -0.776 OA
HETATM   44  H   UNK     0     -20.091  16.154   0.369  0.00  0.00     0.167 HD
ENDBRANCH  41  43
ENDBRANCH  40  41
ENDBRANCH  39  40
ENDBRANCH  27  39
BRANCH  11  45
HETATM   45  C   UNK     0      -7.867  10.928   1.775  0.00  0.00     0.051 C 
BRANCH  45  46
HETATM   46  C   UNK     0      -7.156  10.388   0.588  0.00  0.00     0.114 C 
BRANCH  46  47
HETATM   47  C   UNK     0      -5.830   9.892   1.056  0.00  0.00     0.139 C 
HETATM   48  O   UNK     0      -4.883  10.690   1.107  0.00  0.00    -0.650 OA
BRANCH  47  49
HETATM   49  O   UNK     0      -5.659   8.581   1.422  0.00  0.00    -0.776 OA
HETATM   50  H   UNK     0      -5.512   7.836   0.729  0.00  0.00     0.167 HD
ENDBRANCH  47  49
ENDBRANCH  46  47
ENDBRANCH  45  46
ENDBRANCH  11  45
BRANCH  18  51
HETATM   51  C   UNK     0     -14.846  11.118   1.636  0.00  0.00     0.051 C 
BRANCH  51  52
HETATM   52  C   UNK     0     -14.522  10.658   3.049  0.00  0.00     0.114 C 
BRANCH  52  53
HETATM   53  C   UNK     0     -15.738  10.517   3.874  0.00  0.00     0.139 C 
HETATM   54  O   UNK     0     -16.093  11.442   4.621  0.00  0.00    -0.650 OA
BRANCH  53  55
HETATM   55  O   UNK     0     -16.470   9.356   3.811  0.00  0.00    -0.776 OA
HETATM   56  H   UNK     0     -16.945   8.924   4.568  0.00  0.00     0.167 HD
ENDBRANCH  53  55
ENDBRANCH  52  53
ENDBRANCH  51  52
ENDBRANCH  18  51
TORSDOF 16
ENDMDL
