MODEL 1
REMARK VINA RESULT:     -10.3      0.000      0.000
REMARK  16 active torsions:
REMARK  status: ('A' for Active; 'I' for Inactive)
REMARK    1  A    between atoms: C_6  and  C_7 
REMARK    2  A    between atoms: C_7  and  C_8 
REMARK    3  A    between atoms: C_8  and  C_9 
REMARK    4  A    between atoms: C_9  and  O_11 
REMARK    5  A    between atoms: C_16  and  C_17 
REMARK    6  A    between atoms: C_17  and  C_18 
REMARK    7  A    between atoms: C_18  and  C_19 
REMARK    8  A    between atoms: C_19  and  O_21 
REMARK    9  A    between atoms: C_28  and  C_29 
REMARK   10  A    between atoms: C_29  and  C_30 
REMARK   11  A    between atoms: C_30  and  C_31 
REMARK   12  A    between atoms: C_31  and  O_33 
REMARK   13  A    between atoms: C_42  and  C_43 
REMARK   14  A    between atoms: C_43  and  C_44 
REMARK   15  A    between atoms: C_44  and  C_45 
REMARK   16  A    between atoms: C_45  and  O_47 
ROOT
HETATM    1  C   UNK     0      -5.582  -7.303  28.477  0.00  0.00     0.051 C 
HETATM    2  C   UNK     0      -4.314  -6.510  28.233  0.00  0.00    -0.031 A 
HETATM    3  C   UNK     0      -4.030  -5.590  27.236  0.00  0.00     0.021 A 
HETATM    4  N   UNK     0      -2.758  -5.152  27.390  0.00  0.00    -0.361 N 
HETATM    5  C   UNK     0      -2.228  -5.765  28.468  0.00  0.00     0.022 A 
HETATM    6  C   UNK     0      -3.174  -6.624  29.018  0.00  0.00    -0.027 A 
HETATM    7  C   UNK     0      -0.895  -5.564  29.119  0.00  0.00     0.115 C 
HETATM    8  C   UNK     0      -0.419  -4.130  29.270  0.00  0.00     0.021 A 
HETATM    9  N   UNK     0      -1.145  -3.031  29.526  0.00  0.00    -0.361 N 
HETATM   10  C   UNK     0      -0.320  -1.964  29.481  0.00  0.00     0.022 A 
HETATM   11  C   UNK     0       0.975  -2.388  29.197  0.00  0.00    -0.027 A 
HETATM   12  C   UNK     0       0.919  -3.752  29.063  0.00  0.00    -0.031 A 
HETATM   13  C   UNK     0       2.098  -4.648  28.756  0.00  0.00     0.051 C 
HETATM   14  C   UNK     0      -0.727  -0.502  29.650  0.00  0.00     0.115 C 
HETATM   15  C   UNK     0      -1.719  -0.015  28.607  0.00  0.00     0.021 A 
HETATM   16  N   UNK     0      -2.943  -0.508  28.343  0.00  0.00    -0.361 N 
HETATM   17  C   UNK     0      -3.468   0.151  27.308  0.00  0.00     0.022 A 
HETATM   18  C   UNK     0      -2.546   1.128  26.883  0.00  0.00    -0.027 A 
HETATM   19  C   UNK     0      -1.455   1.015  27.705  0.00  0.00    -0.031 A 
HETATM   20  C   UNK     0      -0.234   1.911  27.615  0.00  0.00     0.051 C 
HETATM   21  C   UNK     0      -4.777  -0.063  26.582  0.00  0.00     0.115 C 
HETATM   22  C   UNK     0      -5.285  -1.481  26.463  0.00  0.00     0.022 A 
HETATM   23  N   UNK     0      -4.584  -2.595  26.213  0.00  0.00    -0.361 N 
HETATM   24  C   UNK     0      -5.411  -3.653  26.340  0.00  0.00     0.021 A 
HETATM   25  C   UNK     0      -6.677  -3.208  26.670  0.00  0.00    -0.031 A 
HETATM   26  C   UNK     0      -7.945  -4.010  26.877  0.00  0.00     0.051 C 
HETATM   27  C   UNK     0      -6.621  -1.822  26.754  0.00  0.00    -0.027 A 
HETATM   28  C   UNK     0      -5.056  -5.127  26.242  0.00  0.00     0.115 C 
HETATM   29  H   UNK     0      -2.230  -4.442  26.712  0.00  0.00     0.165 HD
HETATM   30  H   UNK     0      -2.231  -3.010  29.789  0.00  0.00     0.165 HD
HETATM   31  H   UNK     0      -3.468  -1.307  28.929  0.00  0.00     0.165 HD
HETATM   32  H   UNK     0      -3.508  -2.642  25.901  0.00  0.00     0.165 HD
ENDROOT
BRANCH   6  33
HETATM   33  C   UNK     0      -3.077  -7.535  30.216  0.00  0.00     0.051 C 
BRANCH  33  34
HETATM   34  C   UNK     0      -3.219  -6.749  31.498  0.00  0.00     0.114 C 
BRANCH  34  35
HETATM   35  C   UNK     0      -2.179  -7.247  32.444  0.00  0.00     0.139 C 
HETATM   36  O   UNK     0      -0.951  -7.110  32.171  0.00  0.00    -0.650 OA
BRANCH  35  37
HETATM   37  O   UNK     0      -2.495  -7.869  33.646  0.00  0.00    -0.776 OA
HETATM   38  H   UNK     0      -3.264  -7.563  34.220  0.00  0.00     0.167 HD
ENDBRANCH  35  37
ENDBRANCH  34  35
ENDBRANCH  33  34
ENDBRANCH   6  33
BRANCH  27  39
HETATM   39  C   UNK     0      -7.817  -0.977  27.022  0.00  0.00     0.051 C 
BRANCH  39  40
HETATM   40  C   UNK     0      -8.466  -0.314  25.891  0.00  0.00     0.114 C 
BRANCH  40  41
HETATM   41  C   UNK     0      -7.872   0.819  25.219  0.00  0.00     0.139 C 
HETATM   42  O   UNK     0      -7.966   1.984  25.630  0.00  0.00    -0.650 OA
BRANCH  41  43
HETATM   43  O   UNK     0      -7.138   0.604  24.018  0.00  0.00    -0.776 OA
HETATM   44  H   UNK     0      -7.469   1.138  23.223  0.00  0.00     0.167 HD
ENDBRANCH  41  43
ENDBRANCH  40  41
ENDBRANCH  39  40
ENDBRANCH  27  39
BRANCH  11  45
HETATM   45  C   UNK     0       2.226  -1.564  29.056  0.00  0.00     0.051 C 
BRANCH  45  46
HETATM   46  C   UNK     0       2.306  -0.794  27.788  0.00  0.00     0.114 C 
BRANCH  46  47
HETATM   47  C   UNK     0       2.852  -1.712  26.748  0.00  0.00     0.139 C 
HETATM   48  O   UNK     0       4.072  -1.925  26.728  0.00  0.00    -0.650 OA
BRANCH  47  49
HETATM   49  O   UNK     0       2.023  -2.308  25.831  0.00  0.00    -0.776 OA
HETATM   50  H   UNK     0       2.040  -2.054  24.836  0.00  0.00     0.167 HD
ENDBRANCH  47  49
ENDBRANCH  46  47
ENDBRANCH  45  46
ENDBRANCH  11  45
BRANCH  18  51
HETATM   51  C   UNK     0      -2.705   2.129  25.768  0.00  0.00     0.051 C 
BRANCH  51  52
HETATM   52  C   UNK     0      -3.631   3.213  26.298  0.00  0.00     0.114 C 
BRANCH  52  53
HETATM   53  C   UNK     0      -4.827   3.378  25.448  0.00  0.00     0.139 C 
HETATM   54  O   UNK     0      -4.908   2.774  24.366  0.00  0.00    -0.650 OA
BRANCH  53  55
HETATM   55  O   UNK     0      -5.844   4.204  25.860  0.00  0.00    -0.776 OA
HETATM   56  H   UNK     0      -5.746   5.015  26.423  0.00  0.00     0.167 HD
ENDBRANCH  53  55
ENDBRANCH  52  53
ENDBRANCH  51  52
ENDBRANCH  18  51
TORSDOF 16
ENDMDL
MODEL 2
REMARK VINA RESULT:      -9.6      2.043      7.104
REMARK  16 active torsions:
REMARK  status: ('A' for Active; 'I' for Inactive)
REMARK    1  A    between atoms: C_6  and  C_7 
REMARK    2  A    between atoms: C_7  and  C_8 
REMARK    3  A    between atoms: C_8  and  C_9 
REMARK    4  A    between atoms: C_9  and  O_11 
REMARK    5  A    between atoms: C_16  and  C_17 
REMARK    6  A    between atoms: C_17  and  C_18 
REMARK    7  A    between atoms: C_18  and  C_19 
REMARK    8  A    between atoms: C_19  and  O_21 
REMARK    9  A    between atoms: C_28  and  C_29 
REMARK   10  A    between atoms: C_29  and  C_30 
REMARK   11  A    between atoms: C_30  and  C_31 
REMARK   12  A    between atoms: C_31  and  O_33 
REMARK   13  A    between atoms: C_42  and  C_43 
REMARK   14  A    between atoms: C_43  and  C_44 
REMARK   15  A    between atoms: C_44  and  C_45 
REMARK   16  A    between atoms: C_45  and  O_47 
ROOT
HETATM    1  C   UNK     0       0.827   1.236  28.127  0.00  0.00     0.051 C 
HETATM    2  C   UNK     0       0.401  -0.019  28.860  0.00  0.00    -0.031 A 
HETATM    3  C   UNK     0      -0.867  -0.431  29.236  0.00  0.00     0.021 A 
HETATM    4  N   UNK     0      -0.771  -1.607  29.901  0.00  0.00    -0.361 N 
HETATM    5  C   UNK     0       0.531  -1.958  29.949  0.00  0.00     0.022 A 
HETATM    6  C   UNK     0       1.293  -0.985  29.310  0.00  0.00    -0.027 A 
HETATM    7  C   UNK     0       1.162  -3.206  30.484  0.00  0.00     0.115 C 
HETATM    8  C   UNK     0       0.464  -4.515  30.161  0.00  0.00     0.021 A 
HETATM    9  N   UNK     0      -0.189  -4.860  29.040  0.00  0.00    -0.361 N 
HETATM   10  C   UNK     0      -0.729  -6.082  29.230  0.00  0.00     0.022 A 
HETATM   11  C   UNK     0      -0.409  -6.541  30.504  0.00  0.00    -0.027 A 
HETATM   12  C   UNK     0       0.343  -5.558  31.096  0.00  0.00    -0.031 A 
HETATM   13  C   UNK     0       0.921  -5.622  32.492  0.00  0.00     0.051 C 
HETATM   14  C   UNK     0      -1.611  -6.841  28.242  0.00  0.00     0.115 C 
HETATM   15  C   UNK     0      -2.901  -6.120  27.888  0.00  0.00     0.021 A 
HETATM   16  N   UNK     0      -3.035  -4.897  27.341  0.00  0.00    -0.361 N 
HETATM   17  C   UNK     0      -4.333  -4.596  27.252  0.00  0.00     0.022 A 
HETATM   18  C   UNK     0      -5.080  -5.678  27.758  0.00  0.00    -0.027 A 
HETATM   19  C   UNK     0      -4.172  -6.627  28.151  0.00  0.00    -0.031 A 
HETATM   20  C   UNK     0      -4.558  -7.978  28.725  0.00  0.00     0.051 C 
HETATM   21  C   UNK     0      -5.006  -3.327  26.782  0.00  0.00     0.115 C 
HETATM   22  C   UNK     0      -4.301  -2.019  27.058  0.00  0.00     0.022 A 
HETATM   23  N   UNK     0      -3.640  -1.650  28.163  0.00  0.00    -0.361 N 
HETATM   24  C   UNK     0      -3.045  -0.464  27.923  0.00  0.00     0.021 A 
HETATM   25  C   UNK     0      -3.338  -0.055  26.637  0.00  0.00    -0.031 A 
HETATM   26  C   UNK     0      -2.934   1.220  25.926  0.00  0.00     0.051 C 
HETATM   27  C   UNK     0      -4.141  -1.034  26.063  0.00  0.00    -0.027 A 
HETATM   28  C   UNK     0      -2.113   0.310  28.840  0.00  0.00     0.115 C 
HETATM   29  H   UNK     0      -1.619  -2.162  30.365  0.00  0.00     0.165 HD
HETATM   30  H   UNK     0      -0.227  -4.265  28.095  0.00  0.00     0.165 HD
HETATM   31  H   UNK     0      -2.199  -4.252  26.964  0.00  0.00     0.165 HD
HETATM   32  H   UNK     0      -3.624  -2.203  29.138  0.00  0.00     0.165 HD
ENDROOT
BRANCH   6  33
HETATM   33  C   UNK     0       2.783  -0.904  29.099  0.00  0.00     0.051 C 
BRANCH  33  34
HETATM   34  C   UNK     0       3.181  -1.594  27.816  0.00  0.00     0.114 C 
BRANCH  34  35
HETATM   35  C   UNK     0       4.546  -1.115  27.456  0.00  0.00     0.139 C 
HETATM   36  O   UNK     0       5.420  -0.945  28.355  0.00  0.00    -0.650 OA
BRANCH  35  37
HETATM   37  O   UNK     0       4.922  -0.840  26.147  0.00  0.00    -0.776 OA
HETATM   38  H   UNK     0       4.461  -0.134  25.595  0.00  0.00     0.167 HD
ENDBRANCH  35  37
ENDBRANCH  34  35
ENDBRANCH  33  34
ENDBRANCH   6  33
BRANCH  27  39
HETATM   39  C   UNK     0      -4.719  -0.910  24.697  0.00  0.00     0.051 C 
BRANCH  39  40
HETATM   40  C   UNK     0      -6.074  -0.377  24.563  0.00  0.00     0.114 C 
BRANCH  40  41
HETATM   41  C   UNK     0      -7.152  -1.148  23.984  0.00  0.00     0.139 C 
HETATM   42  O   UNK     0      -7.911  -1.866  24.649  0.00  0.00    -0.650 OA
BRANCH  41  43
HETATM   43  O   UNK     0      -7.366  -1.090  22.578  0.00  0.00    -0.776 OA
HETATM   44  H   UNK     0      -6.563  -0.779  22.045  0.00  0.00     0.167 HD
ENDBRANCH  41  43
ENDBRANCH  40  41
ENDBRANCH  39  40
ENDBRANCH  27  39
BRANCH  11  45
HETATM   45  C   UNK     0      -0.780  -7.845  31.157  0.00  0.00     0.051 C 
BRANCH  45  46
HETATM   46  C   UNK     0      -2.220  -7.961  31.503  0.00  0.00     0.114 C 
BRANCH  46  47
HETATM   47  C   UNK     0      -2.367  -7.537  32.925  0.00  0.00     0.139 C 
HETATM   48  O   UNK     0      -2.418  -6.325  33.180  0.00  0.00    -0.650 OA
BRANCH  47  49
HETATM   49  O   UNK     0      -2.444  -8.466  33.932  0.00  0.00    -0.776 OA
HETATM   50  H   UNK     0      -2.051  -9.410  33.833  0.00  0.00     0.167 HD
ENDBRANCH  47  49
ENDBRANCH  46  47
ENDBRANCH  45  46
ENDBRANCH  11  45
BRANCH  18  51
HETATM   51  C   UNK     0      -6.579  -5.810  27.841  0.00  0.00     0.051 C 
BRANCH  51  52
HETATM   52  C   UNK     0      -7.035  -6.345  26.492  0.00  0.00     0.114 C 
BRANCH  52  53
HETATM   53  C   UNK     0      -8.270  -5.684  26.027  0.00  0.00     0.139 C 
HETATM   54  O   UNK     0      -9.203  -6.362  25.568  0.00  0.00    -0.650 OA
BRANCH  53  55
HETATM   55  O   UNK     0      -8.378  -4.316  26.103  0.00  0.00    -0.776 OA
HETATM   56  H   UNK     0      -8.073  -3.668  25.416  0.00  0.00     0.167 HD
ENDBRANCH  53  55
ENDBRANCH  52  53
ENDBRANCH  51  52
ENDBRANCH  18  51
TORSDOF 16
ENDMDL
MODEL 3
REMARK VINA RESULT:      -9.6      2.031      7.019
REMARK  16 active torsions:
REMARK  status: ('A' for Active; 'I' for Inactive)
REMARK    1  A    between atoms: C_6  and  C_7 
REMARK    2  A    between atoms: C_7  and  C_8 
REMARK    3  A    between atoms: C_8  and  C_9 
REMARK    4  A    between atoms: C_9  and  O_11 
REMARK    5  A    between atoms: C_16  and  C_17 
REMARK    6  A    between atoms: C_17  and  C_18 
REMARK    7  A    between atoms: C_18  and  C_19 
REMARK    8  A    between atoms: C_19  and  O_21 
REMARK    9  A    between atoms: C_28  and  C_29 
REMARK   10  A    between atoms: C_29  and  C_30 
REMARK   11  A    between atoms: C_30  and  C_31 
REMARK   12  A    between atoms: C_31  and  O_33 
REMARK   13  A    between atoms: C_42  and  C_43 
REMARK   14  A    between atoms: C_43  and  C_44 
REMARK   15  A    between atoms: C_44  and  C_45 
REMARK   16  A    between atoms: C_45  and  O_47 
ROOT
HETATM    1  C   UNK     0       1.062  -6.860  31.056  0.00  0.00     0.051 C 
HETATM    2  C   UNK     0      -0.335  -6.454  30.632  0.00  0.00    -0.031 A 
HETATM    3  C   UNK     0      -0.991  -5.246  30.806  0.00  0.00     0.021 A 
HETATM    4  N   UNK     0      -2.241  -5.345  30.294  0.00  0.00    -0.361 N 
HETATM    5  C   UNK     0      -2.393  -6.587  29.791  0.00  0.00     0.022 A 
HETATM    6  C   UNK     0      -1.220  -7.309  29.988  0.00  0.00    -0.027 A 
HETATM    7  C   UNK     0      -3.545  -7.175  29.037  0.00  0.00     0.115 C 
HETATM    8  C   UNK     0      -4.189  -6.294  27.981  0.00  0.00     0.021 A 
HETATM    9  N   UNK     0      -3.604  -5.405  27.164  0.00  0.00    -0.361 N 
HETATM   10  C   UNK     0      -4.572  -4.786  26.456  0.00  0.00     0.022 A 
HETATM   11  C   UNK     0      -5.814  -5.297  26.821  0.00  0.00    -0.027 A 
HETATM   12  C   UNK     0      -5.580  -6.248  27.781  0.00  0.00    -0.031 A 
HETATM   13  C   UNK     0      -6.642  -7.075  28.470  0.00  0.00     0.051 C 
HETATM   14  C   UNK     0      -4.371  -3.655  25.451  0.00  0.00     0.115 C 
HETATM   15  C   UNK     0      -3.748  -2.404  26.049  0.00  0.00     0.021 A 
HETATM   16  N   UNK     0      -2.561  -2.296  26.675  0.00  0.00    -0.361 N 
HETATM   17  C   UNK     0      -2.410  -1.045  27.115  0.00  0.00     0.022 A 
HETATM   18  C   UNK     0      -3.549  -0.299  26.750  0.00  0.00    -0.027 A 
HETATM   19  C   UNK     0      -4.379  -1.162  26.081  0.00  0.00    -0.031 A 
HETATM   20  C   UNK     0      -5.711  -0.754  25.479  0.00  0.00     0.051 C 
HETATM   21  C   UNK     0      -1.298  -0.430  27.934  0.00  0.00     0.115 C 
HETATM   22  C   UNK     0      -0.618  -1.308  28.958  0.00  0.00     0.022 A 
HETATM   23  N   UNK     0      -1.175  -2.205  29.782  0.00  0.00    -0.361 N 
HETATM   24  C   UNK     0      -0.187  -2.865  30.420  0.00  0.00     0.021 A 
HETATM   25  C   UNK     0       1.036  -2.373  30.005  0.00  0.00    -0.031 A 
HETATM   26  C   UNK     0       2.426  -2.764  30.462  0.00  0.00     0.051 C 
HETATM   27  C   UNK     0       0.785  -1.376  29.069  0.00  0.00    -0.027 A 
HETATM   28  C   UNK     0      -0.319  -4.032  31.383  0.00  0.00     0.115 C 
HETATM   29  H   UNK     0      -3.021  -4.549  30.328  0.00  0.00     0.165 HD
HETATM   30  H   UNK     0      -2.504  -5.247  27.048  0.00  0.00     0.165 HD
HETATM   31  H   UNK     0      -1.793  -3.106  26.767  0.00  0.00     0.165 HD
HETATM   32  H   UNK     0      -2.273  -2.352  29.954  0.00  0.00     0.165 HD
ENDROOT
BRANCH   6  33
HETATM   33  C   UNK     0      -0.882  -8.731  29.618  0.00  0.00     0.051 C 
BRANCH  33  34
HETATM   34  C   UNK     0      -1.111  -9.658  30.788  0.00  0.00     0.114 C 
BRANCH  34  35
HETATM   35  C   UNK     0       0.133 -10.459  30.973  0.00  0.00     0.139 C 
HETATM   36  O   UNK     0       0.138 -11.457  31.751  0.00  0.00    -0.650 OA
BRANCH  35  37
HETATM   37  O   UNK     0       1.320 -10.162  30.316  0.00  0.00    -0.776 OA
HETATM   38  H   UNK     0       1.383 -10.133  29.311  0.00  0.00     0.167 HD
ENDBRANCH  35  37
ENDBRANCH  34  35
ENDBRANCH  33  34
ENDBRANCH   6  33
BRANCH  27  39
HETATM   39  C   UNK     0       1.863  -0.561  28.445  0.00  0.00     0.051 C 
BRANCH  39  40
HETATM   40  C   UNK     0       2.241  -0.852  27.062  0.00  0.00     0.114 C 
BRANCH  40  41
HETATM   41  C   UNK     0       3.389  -1.668  26.733  0.00  0.00     0.139 C 
HETATM   42  O   UNK     0       3.446  -2.886  26.949  0.00  0.00    -0.650 OA
BRANCH  41  43
HETATM   43  O   UNK     0       4.522  -1.054  26.128  0.00  0.00    -0.776 OA
HETATM   44  H   UNK     0       4.311  -0.509  25.300  0.00  0.00     0.167 HD
ENDBRANCH  41  43
ENDBRANCH  40  41
ENDBRANCH  39  40
ENDBRANCH  27  39
BRANCH  11  45
HETATM   45  C   UNK     0      -7.176  -4.923  26.300  0.00  0.00     0.051 C 
BRANCH  45  46
HETATM   46  C   UNK     0      -7.714  -3.657  26.861  0.00  0.00     0.114 C 
BRANCH  46  47
HETATM   47  C   UNK     0      -8.934  -3.311  26.078  0.00  0.00     0.139 C 
HETATM   48  O   UNK     0      -8.823  -2.528  25.123  0.00  0.00    -0.650 OA
BRANCH  47  49
HETATM   49  O   UNK     0     -10.155  -3.844  26.406  0.00  0.00    -0.776 OA
HETATM   50  H   UNK     0     -10.258  -4.816  26.721  0.00  0.00     0.167 HD
ENDBRANCH  47  49
ENDBRANCH  46  47
ENDBRANCH  45  46
ENDBRANCH  11  45
BRANCH  18  51
HETATM   51  C   UNK     0      -3.822   1.160  27.005  0.00  0.00     0.051 C 
BRANCH  51  52
HETATM   52  C   UNK     0      -2.898   1.935  26.078  0.00  0.00     0.114 C 
BRANCH  52  53
HETATM   53  C   UNK     0      -3.653   2.751  25.106  0.00  0.00     0.139 C 
HETATM   54  O   UNK     0      -4.158   3.828  25.459  0.00  0.00    -0.650 OA
BRANCH  53  55
HETATM   55  O   UNK     0      -3.795   2.309  23.813  0.00  0.00    -0.776 OA
HETATM   56  H   UNK     0      -4.628   1.958  23.404  0.00  0.00     0.167 HD
ENDBRANCH  53  55
ENDBRANCH  52  53
ENDBRANCH  51  52
ENDBRANCH  18  51
TORSDOF 16
ENDMDL
MODEL 4
REMARK VINA RESULT:      -9.6      2.980      6.946
REMARK  16 active torsions:
REMARK  status: ('A' for Active; 'I' for Inactive)
REMARK    1  A    between atoms: C_6  and  C_7 
REMARK    2  A    between atoms: C_7  and  C_8 
REMARK    3  A    between atoms: C_8  and  C_9 
REMARK    4  A    between atoms: C_9  and  O_11 
REMARK    5  A    between atoms: C_16  and  C_17 
REMARK    6  A    between atoms: C_17  and  C_18 
REMARK    7  A    between atoms: C_18  and  C_19 
REMARK    8  A    between atoms: C_19  and  O_21 
REMARK    9  A    between atoms: C_28  and  C_29 
REMARK   10  A    between atoms: C_29  and  C_30 
REMARK   11  A    between atoms: C_30  and  C_31 
REMARK   12  A    between atoms: C_31  and  O_33 
REMARK   13  A    between atoms: C_42  and  C_43 
REMARK   14  A    between atoms: C_43  and  C_44 
REMARK   15  A    between atoms: C_44  and  C_45 
REMARK   16  A    between atoms: C_45  and  O_47 
ROOT
HETATM    1  C   UNK     0      -7.978  -2.770  25.246  0.00  0.00     0.051 C 
HETATM    2  C   UNK     0      -6.958  -3.740  25.808  0.00  0.00    -0.031 A 
HETATM    3  C   UNK     0      -5.578  -3.737  25.679  0.00  0.00     0.021 A 
HETATM    4  N   UNK     0      -5.073  -4.816  26.323  0.00  0.00    -0.361 N 
HETATM    5  C   UNK     0      -6.100  -5.502  26.866  0.00  0.00     0.022 A 
HETATM    6  C   UNK     0      -7.294  -4.857  26.561  0.00  0.00    -0.027 A 
HETATM    7  C   UNK     0      -6.077  -6.709  27.751  0.00  0.00     0.115 C 
HETATM    8  C   UNK     0      -5.030  -6.728  28.850  0.00  0.00     0.021 A 
HETATM    9  N   UNK     0      -4.566  -5.702  29.581  0.00  0.00    -0.361 N 
HETATM   10  C   UNK     0      -3.578  -6.166  30.375  0.00  0.00     0.022 A 
HETATM   11  C   UNK     0      -3.406  -7.530  30.156  0.00  0.00    -0.027 A 
HETATM   12  C   UNK     0      -4.318  -7.890  29.197  0.00  0.00    -0.031 A 
HETATM   13  C   UNK     0      -4.500  -9.286  28.644  0.00  0.00     0.051 C 
HETATM   14  C   UNK     0      -2.722  -5.337  31.328  0.00  0.00     0.115 C 
HETATM   15  C   UNK     0      -1.914  -4.248  30.641  0.00  0.00     0.021 A 
HETATM   16  N   UNK     0      -2.376  -3.232  29.889  0.00  0.00    -0.361 N 
HETATM   17  C   UNK     0      -1.343  -2.536  29.408  0.00  0.00     0.022 A 
HETATM   18  C   UNK     0      -0.151  -3.122  29.877  0.00  0.00    -0.027 A 
HETATM   19  C   UNK     0      -0.522  -4.192  30.649  0.00  0.00    -0.031 A 
HETATM   20  C   UNK     0       0.463  -5.086  31.381  0.00  0.00     0.051 C 
HETATM   21  C   UNK     0      -1.322  -1.357  28.463  0.00  0.00     0.115 C 
HETATM   22  C   UNK     0      -2.385  -1.302  27.391  0.00  0.00     0.022 A 
HETATM   23  N   UNK     0      -2.869  -2.308  26.650  0.00  0.00    -0.361 N 
HETATM   24  C   UNK     0      -3.904  -1.839  25.925  0.00  0.00     0.021 A 
HETATM   25  C   UNK     0      -4.084  -0.497  26.197  0.00  0.00    -0.031 A 
HETATM   26  C   UNK     0      -5.087   0.470  25.602  0.00  0.00     0.051 C 
HETATM   27  C   UNK     0      -3.124  -0.130  27.132  0.00  0.00    -0.027 A 
HETATM   28  C   UNK     0      -4.827  -2.623  25.007  0.00  0.00     0.115 C 
HETATM   29  H   UNK     0      -3.998  -5.108  26.355  0.00  0.00     0.165 HD
HETATM   30  H   UNK     0      -4.968  -4.660  29.576  0.00  0.00     0.165 HD
HETATM   31  H   UNK     0      -3.455  -2.970  29.733  0.00  0.00     0.165 HD
HETATM   32  H   UNK     0      -2.457  -3.349  26.601  0.00  0.00     0.165 HD
ENDROOT
BRANCH   6  33
HETATM   33  C   UNK     0      -8.712  -5.220  26.923  0.00  0.00     0.051 C 
BRANCH  33  34
HETATM   34  C   UNK     0      -9.313  -6.136  25.884  0.00  0.00     0.114 C 
BRANCH  34  35
HETATM   35  C   UNK     0     -10.796  -6.062  26.027  0.00  0.00     0.139 C 
HETATM   36  O   UNK     0     -11.416  -6.945  26.688  0.00  0.00    -0.650 OA
BRANCH  35  37
HETATM   37  O   UNK     0     -11.554  -5.046  25.460  0.00  0.00    -0.776 OA
HETATM   38  H   UNK     0     -12.217  -5.221  24.722  0.00  0.00     0.167 HD
ENDBRANCH  35  37
ENDBRANCH  34  35
ENDBRANCH  33  34
ENDBRANCH   6  33
BRANCH  27  39
HETATM   39  C   UNK     0      -2.958   1.266  27.620  0.00  0.00     0.051 C 
BRANCH  39  40
HETATM   40  C   UNK     0      -1.627   1.869  27.559  0.00  0.00     0.114 C 
BRANCH  40  41
HETATM   41  C   UNK     0      -0.981   2.429  28.725  0.00  0.00     0.139 C 
HETATM   42  O   UNK     0      -1.325   2.173  29.887  0.00  0.00    -0.650 OA
BRANCH  41  43
HETATM   43  O   UNK     0       0.111   3.326  28.546  0.00  0.00    -0.776 OA
HETATM   44  H   UNK     0       0.928   2.910  28.116  0.00  0.00     0.167 HD
ENDBRANCH  41  43
ENDBRANCH  40  41
ENDBRANCH  39  40
ENDBRANCH  27  39
BRANCH  11  45
HETATM   45  C   UNK     0      -2.435  -8.475  30.811  0.00  0.00     0.051 C 
BRANCH  45  46
HETATM   46  C   UNK     0      -1.047  -8.373  30.292  0.00  0.00     0.114 C 
BRANCH  46  47
HETATM   47  C   UNK     0      -0.289  -9.541  30.826  0.00  0.00     0.139 C 
HETATM   48  O   UNK     0      -0.890 -10.366  31.528  0.00  0.00    -0.650 OA
BRANCH  47  49
HETATM   49  O   UNK     0       1.046  -9.698  30.550  0.00  0.00    -0.776 OA
HETATM   50  H   UNK     0       1.394 -10.468  29.967  0.00  0.00     0.167 HD
ENDBRANCH  47  49
ENDBRANCH  46  47
ENDBRANCH  45  46
ENDBRANCH  11  45
BRANCH  18  51
HETATM   51  C   UNK     0       1.265  -2.673  29.621  0.00  0.00     0.051 C 
BRANCH  51  52
HETATM   52  C   UNK     0       1.668  -1.829  30.821  0.00  0.00     0.114 C 
BRANCH  52  53
HETATM   53  C   UNK     0       1.232  -0.427  30.678  0.00  0.00     0.139 C 
HETATM   54  O   UNK     0       1.680   0.272  29.754  0.00  0.00    -0.650 OA
BRANCH  53  55
HETATM   55  O   UNK     0       0.333   0.100  31.573  0.00  0.00    -0.776 OA
HETATM   56  H   UNK     0       0.003  -0.342  32.398  0.00  0.00     0.167 HD
ENDBRANCH  53  55
ENDBRANCH  52  53
ENDBRANCH  51  52
ENDBRANCH  18  51
TORSDOF 16
ENDMDL
MODEL 5
REMARK VINA RESULT:      -9.5      2.062      6.598
REMARK  16 active torsions:
REMARK  status: ('A' for Active; 'I' for Inactive)
REMARK    1  A    between atoms: C_6  and  C_7 
REMARK    2  A    between atoms: C_7  and  C_8 
REMARK    3  A    between atoms: C_8  and  C_9 
REMARK    4  A    between atoms: C_9  and  O_11 
REMARK    5  A    between atoms: C_16  and  C_17 
REMARK    6  A    between atoms: C_17  and  C_18 
REMARK    7  A    between atoms: C_18  and  C_19 
REMARK    8  A    between atoms: C_19  and  O_21 
REMARK    9  A    between atoms: C_28  and  C_29 
REMARK   10  A    between atoms: C_29  and  C_30 
REMARK   11  A    between atoms: C_30  and  C_31 
REMARK   12  A    between atoms: C_31  and  O_33 
REMARK   13  A    between atoms: C_42  and  C_43 
REMARK   14  A    between atoms: C_43  and  C_44 
REMARK   15  A    between atoms: C_44  and  C_45 
REMARK   16  A    between atoms: C_45  and  O_47 
ROOT
HETATM    1  C   UNK     0       2.004  -1.723  28.926  0.00  0.00     0.051 C 
HETATM    2  C   UNK     0       0.726  -2.485  29.212  0.00  0.00    -0.031 A 
HETATM    3  C   UNK     0      -0.523  -2.004  29.572  0.00  0.00     0.021 A 
HETATM    4  N   UNK     0      -1.362  -3.051  29.758  0.00  0.00    -0.361 N 
HETATM    5  C   UNK     0      -0.677  -4.188  29.515  0.00  0.00     0.022 A 
HETATM    6  C   UNK     0       0.633  -3.870  29.174  0.00  0.00    -0.027 A 
HETATM    7  C   UNK     0      -1.161  -5.604  29.489  0.00  0.00     0.115 C 
HETATM    8  C   UNK     0      -2.497  -5.855  28.812  0.00  0.00     0.021 A 
HETATM    9  N   UNK     0      -3.014  -5.248  27.732  0.00  0.00    -0.361 N 
HETATM   10  C   UNK     0      -4.262  -5.725  27.541  0.00  0.00     0.022 A 
HETATM   11  C   UNK     0      -4.554  -6.672  28.518  0.00  0.00    -0.027 A 
HETATM   12  C   UNK     0      -3.446  -6.759  29.322  0.00  0.00    -0.031 A 
HETATM   13  C   UNK     0      -3.304  -7.671  30.520  0.00  0.00     0.051 C 
HETATM   14  C   UNK     0      -5.246  -5.271  26.466  0.00  0.00     0.115 C 
HETATM   15  C   UNK     0      -5.621  -3.801  26.556  0.00  0.00     0.021 A 
HETATM   16  N   UNK     0      -4.796  -2.738  26.500  0.00  0.00    -0.361 N 
HETATM   17  C   UNK     0      -5.505  -1.623  26.688  0.00  0.00     0.022 A 
HETATM   18  C   UNK     0      -6.858  -1.975  26.864  0.00  0.00    -0.027 A 
HETATM   19  C   UNK     0      -6.917  -3.342  26.778  0.00  0.00    -0.031 A 
HETATM   20  C   UNK     0      -8.205  -4.138  26.877  0.00  0.00     0.051 C 
HETATM   21  C   UNK     0      -5.047  -0.185  26.787  0.00  0.00     0.115 C 
HETATM   22  C   UNK     0      -3.700   0.076  27.419  0.00  0.00     0.022 A 
HETATM   23  N   UNK     0      -3.158  -0.516  28.491  0.00  0.00    -0.361 N 
HETATM   24  C   UNK     0      -1.887  -0.083  28.617  0.00  0.00     0.021 A 
HETATM   25  C   UNK     0      -1.608   0.817  27.607  0.00  0.00    -0.031 A 
HETATM   26  C   UNK     0      -0.336   1.599  27.352  0.00  0.00     0.051 C 
HETATM   27  C   UNK     0      -2.753   0.936  26.827  0.00  0.00    -0.027 A 
HETATM   28  C   UNK     0      -0.846  -0.538  29.624  0.00  0.00     0.115 C 
HETATM   29  H   UNK     0      -2.421  -2.981  30.097  0.00  0.00     0.165 HD
HETATM   30  H   UNK     0      -2.482  -4.519  27.073  0.00  0.00     0.165 HD
HETATM   31  H   UNK     0      -3.698  -2.771  26.277  0.00  0.00     0.165 HD
HETATM   32  H   UNK     0      -3.682  -1.213  29.196  0.00  0.00     0.165 HD
ENDROOT
BRANCH   6  33
HETATM   33  C   UNK     0       1.790  -4.771  28.822  0.00  0.00     0.051 C 
BRANCH  33  34
HETATM   34  C   UNK     0       2.517  -5.220  30.067  0.00  0.00     0.114 C 
BRANCH  34  35
HETATM   35  C   UNK     0       3.972  -5.260  29.744  0.00  0.00     0.139 C 
HETATM   36  O   UNK     0       4.611  -4.185  29.550  0.00  0.00    -0.650 OA
BRANCH  35  37
HETATM   37  O   UNK     0       4.685  -6.448  29.644  0.00  0.00    -0.776 OA
HETATM   38  H   UNK     0       5.618  -6.482  29.264  0.00  0.00     0.167 HD
ENDBRANCH  35  37
ENDBRANCH  34  35
ENDBRANCH  33  34
ENDBRANCH   6  33
BRANCH  27  39
HETATM   39  C   UNK     0      -2.858   1.876  25.679  0.00  0.00     0.051 C 
BRANCH  39  40
HETATM   40  C   UNK     0      -3.587   3.129  25.872  0.00  0.00     0.114 C 
BRANCH  40  41
HETATM   41  C   UNK     0      -4.924   3.330  25.361  0.00  0.00     0.139 C 
HETATM   42  O   UNK     0      -5.710   4.172  25.815  0.00  0.00    -0.650 OA
BRANCH  41  43
HETATM   43  O   UNK     0      -5.378   2.525  24.278  0.00  0.00    -0.776 OA
HETATM   44  H   UNK     0      -5.160   1.540  24.368  0.00  0.00     0.167 HD
ENDBRANCH  41  43
ENDBRANCH  40  41
ENDBRANCH  39  40
ENDBRANCH  27  39
BRANCH  11  45
HETATM   45  C   UNK     0      -5.813  -7.476  28.706  0.00  0.00     0.051 C 
BRANCH  45  46
HETATM   46  C   UNK     0      -5.674  -8.911  28.352  0.00  0.00     0.114 C 
BRANCH  46  47
HETATM   47  C   UNK     0      -6.815  -9.258  27.457  0.00  0.00     0.139 C 
HETATM   48  O   UNK     0      -7.135 -10.449  27.339  0.00  0.00    -0.650 OA
BRANCH  47  49
HETATM   49  O   UNK     0      -7.497  -8.280  26.777  0.00  0.00    -0.776 OA
HETATM   50  H   UNK     0      -8.321  -7.814  27.174  0.00  0.00     0.167 HD
ENDBRANCH  47  49
ENDBRANCH  46  47
ENDBRANCH  45  46
ENDBRANCH  11  45
BRANCH  18  51
HETATM   51  C   UNK     0      -8.033  -1.057  27.082  0.00  0.00     0.051 C 
BRANCH  51  52
HETATM   52  C   UNK     0      -8.601  -0.758  25.703  0.00  0.00     0.114 C 
BRANCH  52  53
HETATM   53  C   UNK     0      -7.971   0.431  25.095  0.00  0.00     0.139 C 
HETATM   54  O   UNK     0      -7.929   1.501  25.723  0.00  0.00    -0.650 OA
BRANCH  53  55
HETATM   55  O   UNK     0      -7.436   0.346  23.833  0.00  0.00    -0.776 OA
HETATM   56  H   UNK     0      -6.998  -0.452  23.437  0.00  0.00     0.167 HD
ENDBRANCH  53  55
ENDBRANCH  52  53
ENDBRANCH  51  52
ENDBRANCH  18  51
TORSDOF 16
ENDMDL
MODEL 6
REMARK VINA RESULT:      -9.4      3.382      8.205
REMARK  16 active torsions:
REMARK  status: ('A' for Active; 'I' for Inactive)
REMARK    1  A    between atoms: C_6  and  C_7 
REMARK    2  A    between atoms: C_7  and  C_8 
REMARK    3  A    between atoms: C_8  and  C_9 
REMARK    4  A    between atoms: C_9  and  O_11 
REMARK    5  A    between atoms: C_16  and  C_17 
REMARK    6  A    between atoms: C_17  and  C_18 
REMARK    7  A    between atoms: C_18  and  C_19 
REMARK    8  A    between atoms: C_19  and  O_21 
REMARK    9  A    between atoms: C_28  and  C_29 
REMARK   10  A    between atoms: C_29  and  C_30 
REMARK   11  A    between atoms: C_30  and  C_31 
REMARK   12  A    between atoms: C_31  and  O_33 
REMARK   13  A    between atoms: C_42  and  C_43 
REMARK   14  A    between atoms: C_43  and  C_44 
REMARK   15  A    between atoms: C_44  and  C_45 
REMARK   16  A    between atoms: C_45  and  O_47 
ROOT
HETATM    1  C   UNK     0      -7.121  -9.475  27.046  0.00  0.00     0.051 C 
HETATM    2  C   UNK     0      -6.887  -8.009  27.349  0.00  0.00    -0.031 A 
HETATM    3  C   UNK     0      -6.114  -7.428  28.342  0.00  0.00     0.021 A 
HETATM    4  N   UNK     0      -6.224  -6.081  28.256  0.00  0.00    -0.361 N 
HETATM    5  C   UNK     0      -7.044  -5.791  27.224  0.00  0.00     0.022 A 
HETATM    6  C   UNK     0      -7.479  -6.974  26.636  0.00  0.00    -0.027 A 
HETATM    7  C   UNK     0      -7.418  -4.459  26.651  0.00  0.00     0.115 C 
HETATM    8  C   UNK     0      -6.299  -3.444  26.499  0.00  0.00     0.021 A 
HETATM    9  N   UNK     0      -5.014  -3.658  26.176  0.00  0.00    -0.361 N 
HETATM   10  C   UNK     0      -4.362  -2.478  26.249  0.00  0.00     0.022 A 
HETATM   11  C   UNK     0      -5.253  -1.475  26.619  0.00  0.00    -0.027 A 
HETATM   12  C   UNK     0      -6.475  -2.077  26.778  0.00  0.00    -0.031 A 
HETATM   13  C   UNK     0      -7.752  -1.370  27.174  0.00  0.00     0.051 C 
HETATM   14  C   UNK     0      -2.868  -2.259  26.025  0.00  0.00     0.115 C 
HETATM   15  C   UNK     0      -1.981  -3.021  26.996  0.00  0.00     0.021 A 
HETATM   16  N   UNK     0      -1.936  -4.352  27.196  0.00  0.00    -0.361 N 
HETATM   17  C   UNK     0      -1.078  -4.618  28.183  0.00  0.00     0.022 A 
HETATM   18  C   UNK     0      -0.531  -3.403  28.642  0.00  0.00    -0.027 A 
HETATM   19  C   UNK     0      -1.104  -2.411  27.890  0.00  0.00    -0.031 A 
HETATM   20  C   UNK     0      -0.764  -0.939  28.034  0.00  0.00     0.051 C 
HETATM   21  C   UNK     0      -0.723  -5.936  28.833  0.00  0.00     0.115 C 
HETATM   22  C   UNK     0      -1.815  -6.972  28.951  0.00  0.00     0.022 A 
HETATM   23  N   UNK     0      -3.104  -6.787  29.267  0.00  0.00    -0.361 N 
HETATM   24  C   UNK     0      -3.750  -7.961  29.112  0.00  0.00     0.021 A 
HETATM   25  C   UNK     0      -2.854  -8.927  28.697  0.00  0.00    -0.031 A 
HETATM   26  C   UNK     0      -3.094 -10.398  28.431  0.00  0.00     0.051 C 
HETATM   27  C   UNK     0      -1.609  -8.318  28.587  0.00  0.00    -0.027 A 
HETATM   28  C   UNK     0      -5.238  -8.229  29.262  0.00  0.00     0.115 C 
HETATM   29  H   UNK     0      -5.754  -5.346  28.949  0.00  0.00     0.165 HD
HETATM   30  H   UNK     0      -4.575  -4.632  25.849  0.00  0.00     0.165 HD
HETATM   31  H   UNK     0      -2.485  -5.124  26.596  0.00  0.00     0.165 HD
HETATM   32  H   UNK     0      -3.561  -5.836  29.643  0.00  0.00     0.165 HD
ENDROOT
BRANCH   6  33
HETATM   33  C   UNK     0      -8.404  -7.193  25.466  0.00  0.00     0.051 C 
BRANCH  33  34
HETATM   34  C   UNK     0      -9.844  -7.222  25.920  0.00  0.00     0.114 C 
BRANCH  34  35
HETATM   35  C   UNK     0     -10.430  -8.515  25.464  0.00  0.00     0.139 C 
HETATM   36  O   UNK     0      -9.812  -9.233  24.624  0.00  0.00    -0.650 OA
BRANCH  35  37
HETATM   37  O   UNK     0     -11.651  -8.989  25.926  0.00  0.00    -0.776 OA
HETATM   38  H   UNK     0     -12.456  -9.067  25.326  0.00  0.00     0.167 HD
ENDBRANCH  35  37
ENDBRANCH  34  35
ENDBRANCH  33  34
ENDBRANCH   6  33
BRANCH  27  39
HETATM   39  C   UNK     0      -0.371  -9.063  28.230  0.00  0.00     0.051 C 
BRANCH  39  40
HETATM   40  C   UNK     0       0.512  -9.501  29.311  0.00  0.00     0.114 C 
BRANCH  40  41
HETATM   41  C   UNK     0       1.780  -8.860  29.577  0.00  0.00     0.139 C 
HETATM   42  O   UNK     0       1.935  -7.983  30.438  0.00  0.00    -0.650 OA
BRANCH  41  43
HETATM   43  O   UNK     0       2.922  -9.246  28.820  0.00  0.00    -0.776 OA
HETATM   44  H   UNK     0       2.789 -10.075  28.254  0.00  0.00     0.167 HD
ENDBRANCH  41  43
ENDBRANCH  40  41
ENDBRANCH  39  40
ENDBRANCH  27  39
BRANCH  11  45
HETATM   45  C   UNK     0      -4.989  -0.007  26.817  0.00  0.00     0.051 C 
BRANCH  45  46
HETATM   46  C   UNK     0      -5.203   0.817  25.600  0.00  0.00     0.114 C 
BRANCH  46  47
HETATM   47  C   UNK     0      -3.894   1.440  25.253  0.00  0.00     0.139 C 
HETATM   48  O   UNK     0      -2.976   1.393  26.085  0.00  0.00    -0.650 OA
BRANCH  47  49
HETATM   49  O   UNK     0      -3.707   2.054  24.040  0.00  0.00    -0.776 OA
HETATM   50  H   UNK     0      -3.015   2.801  23.908  0.00  0.00     0.167 HD
ENDBRANCH  47  49
ENDBRANCH  46  47
ENDBRANCH  45  46
ENDBRANCH  11  45
BRANCH  18  51
HETATM   51  C   UNK     0       0.498  -3.201  29.724  0.00  0.00     0.051 C 
BRANCH  51  52
HETATM   52  C   UNK     0      -0.256  -3.257  31.044  0.00  0.00     0.114 C 
BRANCH  52  53
HETATM   53  C   UNK     0       0.554  -2.735  32.162  0.00  0.00     0.139 C 
HETATM   54  O   UNK     0       1.643  -3.261  32.440  0.00  0.00    -0.650 OA
BRANCH  53  55
HETATM   55  O   UNK     0       0.094  -1.667  32.893  0.00  0.00    -0.776 OA
HETATM   56  H   UNK     0      -0.518  -0.956  32.567  0.00  0.00     0.167 HD
ENDBRANCH  53  55
ENDBRANCH  52  53
ENDBRANCH  51  52
ENDBRANCH  18  51
TORSDOF 16
ENDMDL
MODEL 7
REMARK VINA RESULT:      -9.4      2.583      7.177
REMARK  16 active torsions:
REMARK  status: ('A' for Active; 'I' for Inactive)
REMARK    1  A    between atoms: C_6  and  C_7 
REMARK    2  A    between atoms: C_7  and  C_8 
REMARK    3  A    between atoms: C_8  and  C_9 
REMARK    4  A    between atoms: C_9  and  O_11 
REMARK    5  A    between atoms: C_16  and  C_17 
REMARK    6  A    between atoms: C_17  and  C_18 
REMARK    7  A    between atoms: C_18  and  C_19 
REMARK    8  A    between atoms: C_19  and  O_21 
REMARK    9  A    between atoms: C_28  and  C_29 
REMARK   10  A    between atoms: C_29  and  C_30 
REMARK   11  A    between atoms: C_30  and  C_31 
REMARK   12  A    between atoms: C_31  and  O_33 
REMARK   13  A    between atoms: C_42  and  C_43 
REMARK   14  A    between atoms: C_43  and  C_44 
REMARK   15  A    between atoms: C_44  and  C_45 
REMARK   16  A    between atoms: C_45  and  O_47 
ROOT
HETATM    1  C   UNK     0       1.356  -6.520  31.141  0.00  0.00     0.051 C 
HETATM    2  C   UNK     0      -0.081  -6.225  30.762  0.00  0.00    -0.031 A 
HETATM    3  C   UNK     0      -0.797  -5.044  30.876  0.00  0.00     0.021 A 
HETATM    4  N   UNK     0      -2.063  -5.251  30.440  0.00  0.00    -0.361 N 
HETATM    5  C   UNK     0      -2.166  -6.536  30.042  0.00  0.00     0.022 A 
HETATM    6  C   UNK     0      -0.946  -7.175  30.232  0.00  0.00    -0.027 A 
HETATM    7  C   UNK     0      -3.317  -7.243  29.397  0.00  0.00     0.115 C 
HETATM    8  C   UNK     0      -4.061  -6.485  28.312  0.00  0.00     0.021 A 
HETATM    9  N   UNK     0      -3.568  -5.633  27.399  0.00  0.00    -0.361 N 
HETATM   10  C   UNK     0      -4.604  -5.125  26.698  0.00  0.00     0.022 A 
HETATM   11  C   UNK     0      -5.795  -5.672  27.165  0.00  0.00    -0.027 A 
HETATM   12  C   UNK     0      -5.461  -6.529  28.182  0.00  0.00    -0.031 A 
HETATM   13  C   UNK     0      -6.439  -7.355  28.987  0.00  0.00     0.051 C 
HETATM   14  C   UNK     0      -4.517  -4.069  25.600  0.00  0.00     0.115 C 
HETATM   15  C   UNK     0      -3.939  -2.742  26.066  0.00  0.00     0.021 A 
HETATM   16  N   UNK     0      -2.732  -2.521  26.619  0.00  0.00    -0.361 N 
HETATM   17  C   UNK     0      -2.633  -1.232  26.954  0.00  0.00     0.022 A 
HETATM   18  C   UNK     0      -3.829  -0.581  26.592  0.00  0.00    -0.027 A 
HETATM   19  C   UNK     0      -4.638  -1.537  26.036  0.00  0.00    -0.031 A 
HETATM   20  C   UNK     0      -6.019  -1.252  25.475  0.00  0.00     0.051 C 
HETATM   21  C   UNK     0      -1.519  -0.496  27.663  0.00  0.00     0.115 C 
HETATM   22  C   UNK     0      -0.742  -1.252  28.715  0.00  0.00     0.022 A 
HETATM   23  N   UNK     0      -1.206  -2.109  29.633  0.00  0.00    -0.361 N 
HETATM   24  C   UNK     0      -0.152  -2.661  30.268  0.00  0.00     0.021 A 
HETATM   25  C   UNK     0       1.019  -2.139  29.752  0.00  0.00    -0.031 A 
HETATM   26  C   UNK     0       2.450  -2.417  30.164  0.00  0.00     0.051 C 
HETATM   27  C   UNK     0       0.667  -1.234  28.757  0.00  0.00    -0.027 A 
HETATM   28  C   UNK     0      -0.170  -3.754  31.323  0.00  0.00     0.115 C 
HETATM   29  H   UNK     0      -2.885  -4.498  30.454  0.00  0.00     0.165 HD
HETATM   30  H   UNK     0      -2.486  -5.426  27.214  0.00  0.00     0.165 HD
HETATM   31  H   UNK     0      -1.914  -3.279  26.733  0.00  0.00     0.165 HD
HETATM   32  H   UNK     0      -2.284  -2.301  29.873  0.00  0.00     0.165 HD
ENDROOT
BRANCH   6  33
HETATM   33  C   UNK     0      -0.544  -8.602  29.955  0.00  0.00     0.051 C 
BRANCH  33  34
HETATM   34  C   UNK     0      -0.842  -9.483  31.145  0.00  0.00     0.114 C 
BRANCH  34  35
HETATM   35  C   UNK     0      -0.006 -10.710  31.013  0.00  0.00     0.139 C 
HETATM   36  O   UNK     0      -0.459 -11.832  31.385  0.00  0.00    -0.650 OA
BRANCH  35  37
HETATM   37  O   UNK     0       1.279 -10.688  30.486  0.00  0.00    -0.776 OA
HETATM   38  H   UNK     0       2.095 -10.821  31.062  0.00  0.00     0.167 HD
ENDBRANCH  35  37
ENDBRANCH  34  35
ENDBRANCH  33  34
ENDBRANCH   6  33
BRANCH  27  39
HETATM   39  C   UNK     0       1.665  -0.415  28.017  0.00  0.00     0.051 C 
BRANCH  39  40
HETATM   40  C   UNK     0       2.091  -0.868  26.693  0.00  0.00     0.114 C 
BRANCH  40  41
HETATM   41  C   UNK     0       3.252  -1.709  26.503  0.00  0.00     0.139 C 
HETATM   42  O   UNK     0       3.263  -2.923  26.745  0.00  0.00    -0.650 OA
BRANCH  41  43
HETATM   43  O   UNK     0       4.454  -1.125  26.012  0.00  0.00    -0.776 OA
HETATM   44  H   UNK     0       4.902  -1.650  25.271  0.00  0.00     0.167 HD
ENDBRANCH  41  43
ENDBRANCH  40  41
ENDBRANCH  39  40
ENDBRANCH  27  39
BRANCH  11  45
HETATM   45  C   UNK     0      -7.200  -5.415  26.689  0.00  0.00     0.051 C 
BRANCH  45  46
HETATM   46  C   UNK     0      -7.705  -6.421  25.720  0.00  0.00     0.114 C 
BRANCH  46  47
HETATM   47  C   UNK     0      -8.986  -6.955  26.265  0.00  0.00     0.139 C 
HETATM   48  O   UNK     0      -9.669  -6.224  26.996  0.00  0.00    -0.650 OA
BRANCH  47  49
HETATM   49  O   UNK     0      -9.401  -8.228  25.965  0.00  0.00    -0.776 OA
HETATM   50  H   UNK     0      -8.988  -8.769  25.196  0.00  0.00     0.167 HD
ENDBRANCH  47  49
ENDBRANCH  46  47
ENDBRANCH  45  46
ENDBRANCH  11  45
BRANCH  18  51
HETATM   51  C   UNK     0      -4.173   0.877  26.749  0.00  0.00     0.051 C 
BRANCH  51  52
HETATM   52  C   UNK     0      -3.550   1.592  25.559  0.00  0.00     0.114 C 
BRANCH  52  53
HETATM   53  C   UNK     0      -4.390   2.710  25.088  0.00  0.00     0.139 C 
HETATM   54  O   UNK     0      -4.210   3.854  25.534  0.00  0.00    -0.650 OA
BRANCH  53  55
HETATM   55  O   UNK     0      -5.374   2.476  24.157  0.00  0.00    -0.776 OA
HETATM   56  H   UNK     0      -5.774   3.150  23.549  0.00  0.00     0.167 HD
ENDBRANCH  53  55
ENDBRANCH  52  53
ENDBRANCH  51  52
ENDBRANCH  18  51
TORSDOF 16
ENDMDL
MODEL 8
REMARK VINA RESULT:      -9.3      3.027      7.520
REMARK  16 active torsions:
REMARK  status: ('A' for Active; 'I' for Inactive)
REMARK    1  A    between atoms: C_6  and  C_7 
REMARK    2  A    between atoms: C_7  and  C_8 
REMARK    3  A    between atoms: C_8  and  C_9 
REMARK    4  A    between atoms: C_9  and  O_11 
REMARK    5  A    between atoms: C_16  and  C_17 
REMARK    6  A    between atoms: C_17  and  C_18 
REMARK    7  A    between atoms: C_18  and  C_19 
REMARK    8  A    between atoms: C_19  and  O_21 
REMARK    9  A    between atoms: C_28  and  C_29 
REMARK   10  A    between atoms: C_29  and  C_30 
REMARK   11  A    between atoms: C_30  and  C_31 
REMARK   12  A    between atoms: C_31  and  O_33 
REMARK   13  A    between atoms: C_42  and  C_43 
REMARK   14  A    between atoms: C_43  and  C_44 
REMARK   15  A    between atoms: C_44  and  C_45 
REMARK   16  A    between atoms: C_45  and  O_47 
ROOT
HETATM    1  C   UNK     0      -2.840  -9.173  30.243  0.00  0.00     0.051 C 
HETATM    2  C   UNK     0      -3.702  -8.016  29.782  0.00  0.00    -0.031 A 
HETATM    3  C   UNK     0      -3.754  -6.714  30.254  0.00  0.00     0.021 A 
HETATM    4  N   UNK     0      -4.697  -6.031  29.563  0.00  0.00    -0.361 N 
HETATM    5  C   UNK     0      -5.241  -6.866  28.654  0.00  0.00     0.022 A 
HETATM    6  C   UNK     0      -4.644  -8.117  28.766  0.00  0.00    -0.027 A 
HETATM    7  C   UNK     0      -6.253  -6.584  27.587  0.00  0.00     0.115 C 
HETATM    8  C   UNK     0      -6.079  -5.293  26.807  0.00  0.00     0.021 A 
HETATM    9  N   UNK     0      -4.940  -4.690  26.431  0.00  0.00    -0.361 N 
HETATM   10  C   UNK     0      -5.261  -3.520  25.840  0.00  0.00     0.022 A 
HETATM   11  C   UNK     0      -6.645  -3.369  25.826  0.00  0.00    -0.027 A 
HETATM   12  C   UNK     0      -7.166  -4.483  26.434  0.00  0.00    -0.031 A 
HETATM   13  C   UNK     0      -8.639  -4.757  26.641  0.00  0.00     0.051 C 
HETATM   14  C   UNK     0      -4.279  -2.476  25.315  0.00  0.00     0.115 C 
HETATM   15  C   UNK     0      -3.363  -1.900  26.382  0.00  0.00     0.021 A 
HETATM   16  N   UNK     0      -2.503  -2.568  27.175  0.00  0.00    -0.361 N 
HETATM   17  C   UNK     0      -1.937  -1.711  28.027  0.00  0.00     0.022 A 
HETATM   18  C   UNK     0      -2.445  -0.422  27.772  0.00  0.00    -0.027 A 
HETATM   19  C   UNK     0      -3.336  -0.554  26.739  0.00  0.00    -0.031 A 
HETATM   20  C   UNK     0      -4.090   0.610  26.121  0.00  0.00     0.051 C 
HETATM   21  C   UNK     0      -0.966  -1.964  29.158  0.00  0.00     0.115 C 
HETATM   22  C   UNK     0      -1.099  -3.265  29.914  0.00  0.00     0.022 A 
HETATM   23  N   UNK     0      -2.220  -3.891  30.298  0.00  0.00    -0.361 N 
HETATM   24  C   UNK     0      -1.880  -5.089  30.814  0.00  0.00     0.021 A 
HETATM   25  C   UNK     0      -0.507  -5.234  30.771  0.00  0.00    -0.031 A 
HETATM   26  C   UNK     0       0.347  -6.383  31.268  0.00  0.00     0.051 C 
HETATM   27  C   UNK     0       0.015  -4.080  30.199  0.00  0.00    -0.027 A 
HETATM   28  C   UNK     0      -2.808  -6.190  31.297  0.00  0.00     0.115 C 
HETATM   29  H   UNK     0      -4.999  -4.974  29.748  0.00  0.00     0.165 HD
HETATM   30  H   UNK     0      -3.910  -5.111  26.537  0.00  0.00     0.165 HD
HETATM   31  H   UNK     0      -2.255  -3.659  27.100  0.00  0.00     0.165 HD
HETATM   32  H   UNK     0      -3.259  -3.474  30.248  0.00  0.00     0.165 HD
ENDROOT
BRANCH   6  33
HETATM   33  C   UNK     0      -4.899  -9.386  27.992  0.00  0.00     0.051 C 
BRANCH  33  34
HETATM   34  C   UNK     0      -6.316  -9.865  28.200  0.00  0.00     0.114 C 
BRANCH  34  35
HETATM   35  C   UNK     0      -6.695 -10.672  27.005  0.00  0.00     0.139 C 
HETATM   36  O   UNK     0      -5.903 -11.548  26.551  0.00  0.00    -0.650 OA
BRANCH  35  37
HETATM   37  O   UNK     0      -7.907 -10.511  26.346  0.00  0.00    -0.776 OA
HETATM   38  H   UNK     0      -8.676 -10.005  26.756  0.00  0.00     0.167 HD
ENDBRANCH  35  37
ENDBRANCH  34  35
ENDBRANCH  33  34
ENDBRANCH   6  33
BRANCH  27  39
HETATM   39  C   UNK     0       1.476  -3.838  30.051  0.00  0.00     0.051 C 
BRANCH  39  40
HETATM   40  C   UNK     0       2.135  -2.954  31.012  0.00  0.00     0.114 C 
BRANCH  40  41
HETATM   41  C   UNK     0       1.699  -2.849  32.387  0.00  0.00     0.139 C 
HETATM   42  O   UNK     0       1.685  -3.805  33.174  0.00  0.00    -0.650 OA
BRANCH  41  43
HETATM   43  O   UNK     0       1.260  -1.587  32.878  0.00  0.00    -0.776 OA
HETATM   44  H   UNK     0       0.690  -1.059  32.228  0.00  0.00     0.167 HD
ENDBRANCH  41  43
ENDBRANCH  40  41
ENDBRANCH  39  40
ENDBRANCH  27  39
BRANCH  11  45
HETATM   45  C   UNK     0      -7.463  -2.236  25.268  0.00  0.00     0.051 C 
BRANCH  45  46
HETATM   46  C   UNK     0      -7.546  -1.052  26.161  0.00  0.00     0.114 C 
BRANCH  46  47
HETATM   47  C   UNK     0      -8.686  -1.280  27.093  0.00  0.00     0.139 C 
HETATM   48  O   UNK     0      -9.817  -1.450  26.616  0.00  0.00    -0.650 OA
BRANCH  47  49
HETATM   49  O   UNK     0      -8.491  -1.300  28.451  0.00  0.00    -0.776 OA
HETATM   50  H   UNK     0      -9.261  -1.465  29.110  0.00  0.00     0.167 HD
ENDBRANCH  47  49
ENDBRANCH  46  47
ENDBRANCH  45  46
ENDBRANCH  11  45
BRANCH  18  51
HETATM   51  C   UNK     0      -2.085   0.869  28.461  0.00  0.00     0.051 C 
BRANCH  51  52
HETATM   52  C   UNK     0      -0.835   1.388  27.766  0.00  0.00     0.114 C 
BRANCH  52  53
HETATM   53  C   UNK     0      -0.159   2.433  28.560  0.00  0.00     0.139 C 
HETATM   54  O   UNK     0       1.078   2.433  28.661  0.00  0.00    -0.650 OA
BRANCH  53  55
HETATM   55  O   UNK     0      -0.906   3.401  29.186  0.00  0.00    -0.776 OA
HETATM   56  H   UNK     0      -1.473   3.271  29.990  0.00  0.00     0.167 HD
ENDBRANCH  53  55
ENDBRANCH  52  53
ENDBRANCH  51  52
ENDBRANCH  18  51
TORSDOF 16
ENDMDL
MODEL 9
REMARK VINA RESULT:      -9.3      3.471      8.412
REMARK  16 active torsions:
REMARK  status: ('A' for Active; 'I' for Inactive)
REMARK    1  A    between atoms: C_6  and  C_7 
REMARK    2  A    between atoms: C_7  and  C_8 
REMARK    3  A    between atoms: C_8  and  C_9 
REMARK    4  A    between atoms: C_9  and  O_11 
REMARK    5  A    between atoms: C_16  and  C_17 
REMARK    6  A    between atoms: C_17  and  C_18 
REMARK    7  A    between atoms: C_18  and  C_19 
REMARK    8  A    between atoms: C_19  and  O_21 
REMARK    9  A    between atoms: C_28  and  C_29 
REMARK   10  A    between atoms: C_29  and  C_30 
REMARK   11  A    between atoms: C_30  and  C_31 
REMARK   12  A    between atoms: C_31  and  O_33 
REMARK   13  A    between atoms: C_42  and  C_43 
REMARK   14  A    between atoms: C_43  and  C_44 
REMARK   15  A    between atoms: C_44  and  C_45 
REMARK   16  A    between atoms: C_45  and  O_47 
ROOT
HETATM    1  C   UNK     0      -6.748 -10.056  27.290  0.00  0.00     0.051 C 
HETATM    2  C   UNK     0      -6.878  -8.553  27.431  0.00  0.00    -0.031 A 
HETATM    3  C   UNK     0      -6.283  -7.701  28.348  0.00  0.00     0.021 A 
HETATM    4  N   UNK     0      -6.712  -6.437  28.118  0.00  0.00    -0.361 N 
HETATM    5  C   UNK     0      -7.560  -6.464  27.069  0.00  0.00     0.022 A 
HETATM    6  C   UNK     0      -7.689  -7.773  26.617  0.00  0.00    -0.027 A 
HETATM    7  C   UNK     0      -8.233  -5.331  26.360  0.00  0.00     0.115 C 
HETATM    8  C   UNK     0      -7.389  -4.099  26.088  0.00  0.00     0.021 A 
HETATM    9  N   UNK     0      -6.085  -4.031  25.778  0.00  0.00    -0.361 N 
HETATM   10  C   UNK     0      -5.736  -2.728  25.716  0.00  0.00     0.022 A 
HETATM   11  C   UNK     0      -6.848  -1.935  25.984  0.00  0.00    -0.027 A 
HETATM   12  C   UNK     0      -7.893  -2.792  26.220  0.00  0.00    -0.031 A 
HETATM   13  C   UNK     0      -9.308  -2.375  26.550  0.00  0.00     0.051 C 
HETATM   14  C   UNK     0      -4.335  -2.181  25.454  0.00  0.00     0.115 C 
HETATM   15  C   UNK     0      -3.307  -2.600  26.493  0.00  0.00     0.021 A 
HETATM   16  N   UNK     0      -2.947  -3.851  26.835  0.00  0.00    -0.361 N 
HETATM   17  C   UNK     0      -2.067  -3.796  27.836  0.00  0.00     0.022 A 
HETATM   18  C   UNK     0      -1.834  -2.443  28.157  0.00  0.00    -0.027 A 
HETATM   19  C   UNK     0      -2.617  -1.705  27.307  0.00  0.00    -0.031 A 
HETATM   20  C   UNK     0      -2.642  -0.187  27.289  0.00  0.00     0.051 C 
HETATM   21  C   UNK     0      -1.416  -4.913  28.621  0.00  0.00     0.115 C 
HETATM   22  C   UNK     0      -2.230  -6.162  28.861  0.00  0.00     0.022 A 
HETATM   23  N   UNK     0      -3.530  -6.260  29.168  0.00  0.00    -0.361 N 
HETATM   24  C   UNK     0      -3.873  -7.564  29.148  0.00  0.00     0.021 A 
HETATM   25  C   UNK     0      -2.765  -8.325  28.830  0.00  0.00    -0.031 A 
HETATM   26  C   UNK     0      -2.640  -9.831  28.726  0.00  0.00     0.051 C 
HETATM   27  C   UNK     0      -1.700  -7.450  28.643  0.00  0.00    -0.027 A 
HETATM   28  C   UNK     0      -5.255  -8.165  29.340  0.00  0.00     0.115 C 
HETATM   29  H   UNK     0      -6.443  -5.540  28.723  0.00  0.00     0.165 HD
HETATM   30  H   UNK     0      -5.419  -4.899  25.552  0.00  0.00     0.165 HD
HETATM   31  H   UNK     0      -3.285  -4.792  26.327  0.00  0.00     0.165 HD
HETATM   32  H   UNK     0      -4.209  -5.412  29.444  0.00  0.00     0.165 HD
ENDROOT
BRANCH   6  33
HETATM   33  C   UNK     0      -8.515  -8.332  25.486  0.00  0.00     0.051 C 
BRANCH  33  34
HETATM   34  C   UNK     0      -9.969  -8.428  25.883  0.00  0.00     0.114 C 
BRANCH  34  35
HETATM   35  C   UNK     0     -10.408  -9.831  25.632  0.00  0.00     0.139 C 
HETATM   36  O   UNK     0      -9.588 -10.787  25.753  0.00  0.00    -0.650 OA
BRANCH  35  37
HETATM   37  O   UNK     0     -11.709 -10.154  25.263  0.00  0.00    -0.776 OA
HETATM   38  H   UNK     0     -12.086  -9.908  24.362  0.00  0.00     0.167 HD
ENDBRANCH  35  37
ENDBRANCH  34  35
ENDBRANCH  33  34
ENDBRANCH   6  33
BRANCH  27  39
HETATM   39  C   UNK     0      -0.314  -7.910  28.356  0.00  0.00     0.051 C 
BRANCH  39  40
HETATM   40  C   UNK     0       0.606  -8.085  29.479  0.00  0.00     0.114 C 
BRANCH  40  41
HETATM   41  C   UNK     0       1.074  -9.387  29.897  0.00  0.00     0.139 C 
HETATM   42  O   UNK     0       0.585 -10.018  30.844  0.00  0.00    -0.650 OA
BRANCH  41  43
HETATM   43  O   UNK     0       2.153  -9.992  29.192  0.00  0.00    -0.776 OA
HETATM   44  H   UNK     0       2.788 -10.524  29.775  0.00  0.00     0.167 HD
ENDBRANCH  41  43
ENDBRANCH  40  41
ENDBRANCH  39  40
ENDBRANCH  27  39
BRANCH  11  45
HETATM   45  C   UNK     0      -6.947  -0.434  26.021  0.00  0.00     0.051 C 
BRANCH  45  46
HETATM   46  C   UNK     0      -6.680   0.223  24.716  0.00  0.00     0.114 C 
BRANCH  46  47
HETATM   47  C   UNK     0      -7.678  -0.305  23.743  0.00  0.00     0.139 C 
HETATM   48  O   UNK     0      -8.873  -0.022  23.907  0.00  0.00    -0.650 OA
BRANCH  47  49
HETATM   49  O   UNK     0      -7.284  -1.089  22.688  0.00  0.00    -0.776 OA
HETATM   50  H   UNK     0      -6.807  -0.699  21.867  0.00  0.00     0.167 HD
ENDBRANCH  47  49
ENDBRANCH  46  47
ENDBRANCH  45  46
ENDBRANCH  11  45
BRANCH  18  51
HETATM   51  C   UNK     0      -0.902  -1.885  29.200  0.00  0.00     0.051 C 
BRANCH  51  52
HETATM   52  C   UNK     0       0.405  -1.580  28.484  0.00  0.00     0.114 C 
BRANCH  52  53
HETATM   53  C   UNK     0       1.051  -0.364  29.015  0.00  0.00     0.139 C 
HETATM   54  O   UNK     0       0.371   0.502  29.588  0.00  0.00    -0.650 OA
BRANCH  53  55
HETATM   55  O   UNK     0       2.407  -0.196  28.868  0.00  0.00    -0.776 OA
HETATM   56  H   UNK     0       3.075  -0.919  28.745  0.00  0.00     0.167 HD
ENDBRANCH  53  55
ENDBRANCH  52  53
ENDBRANCH  51  52
ENDBRANCH  18  51
TORSDOF 16
ENDMDL
MODEL 10
REMARK VINA RESULT:      -9.2      3.205      9.062
REMARK  16 active torsions:
REMARK  status: ('A' for Active; 'I' for Inactive)
REMARK    1  A    between atoms: C_6  and  C_7 
REMARK    2  A    between atoms: C_7  and  C_8 
REMARK    3  A    between atoms: C_8  and  C_9 
REMARK    4  A    between atoms: C_9  and  O_11 
REMARK    5  A    between atoms: C_16  and  C_17 
REMARK    6  A    between atoms: C_17  and  C_18 
REMARK    7  A    between atoms: C_18  and  C_19 
REMARK    8  A    between atoms: C_19  and  O_21 
REMARK    9  A    between atoms: C_28  and  C_29 
REMARK   10  A    between atoms: C_29  and  C_30 
REMARK   11  A    between atoms: C_30  and  C_31 
REMARK   12  A    between atoms: C_31  and  O_33 
REMARK   13  A    between atoms: C_42  and  C_43 
REMARK   14  A    between atoms: C_43  and  C_44 
REMARK   15  A    between atoms: C_44  and  C_45 
REMARK   16  A    between atoms: C_45  and  O_47 
ROOT
HETATM    1  C   UNK     0      -7.476  -0.623  25.504  0.00  0.00     0.051 C 
HETATM    2  C   UNK     0      -7.172  -2.106  25.579  0.00  0.00    -0.031 A 
HETATM    3  C   UNK     0      -5.981  -2.773  25.337  0.00  0.00     0.021 A 
HETATM    4  N   UNK     0      -6.181  -4.103  25.495  0.00  0.00    -0.361 N 
HETATM    5  C   UNK     0      -7.470  -4.297  25.842  0.00  0.00     0.022 A 
HETATM    6  C   UNK     0      -8.120  -3.068  25.901  0.00  0.00    -0.027 A 
HETATM    7  C   UNK     0      -8.174  -5.563  26.221  0.00  0.00     0.115 C 
HETATM    8  C   UNK     0      -7.423  -6.511  27.139  0.00  0.00     0.021 A 
HETATM    9  N   UNK     0      -6.590  -6.214  28.148  0.00  0.00    -0.361 N 
HETATM   10  C   UNK     0      -6.081  -7.369  28.626  0.00  0.00     0.022 A 
HETATM   11  C   UNK     0      -6.608  -8.441  27.911  0.00  0.00    -0.027 A 
HETATM   12  C   UNK     0      -7.455  -7.907  26.973  0.00  0.00    -0.031 A 
HETATM   13  C   UNK     0      -8.259  -8.702  25.969  0.00  0.00     0.051 C 
HETATM   14  C   UNK     0      -5.041  -7.506  29.735  0.00  0.00     0.115 C 
HETATM   15  C   UNK     0      -3.714  -6.834  29.421  0.00  0.00     0.021 A 
HETATM   16  N   UNK     0      -3.498  -5.536  29.136  0.00  0.00    -0.361 N 
HETATM   17  C   UNK     0      -2.206  -5.359  28.850  0.00  0.00     0.022 A 
HETATM   18  C   UNK     0      -1.547  -6.599  28.964  0.00  0.00    -0.027 A 
HETATM   19  C   UNK     0      -2.503  -7.514  29.323  0.00  0.00    -0.031 A 
HETATM   20  C   UNK     0      -2.210  -8.980  29.588  0.00  0.00     0.051 C 
HETATM   21  C   UNK     0      -1.471  -4.117  28.401  0.00  0.00     0.115 C 
HETATM   22  C   UNK     0      -2.221  -3.142  27.523  0.00  0.00     0.022 A 
HETATM   23  N   UNK     0      -3.060  -3.410  26.514  0.00  0.00    -0.361 N 
HETATM   24  C   UNK     0      -3.614  -2.251  26.105  0.00  0.00     0.021 A 
HETATM   25  C   UNK     0      -3.112  -1.210  26.862  0.00  0.00    -0.031 A 
HETATM   26  C   UNK     0      -3.399   0.273  26.753  0.00  0.00     0.051 C 
HETATM   27  C   UNK     0      -2.218  -1.756  27.776  0.00  0.00    -0.027 A 
HETATM   28  C   UNK     0      -4.692  -2.056  25.052  0.00  0.00     0.115 C 
HETATM   29  H   UNK     0      -5.419  -4.898  25.322  0.00  0.00     0.165 HD
HETATM   30  H   UNK     0      -6.397  -5.192  28.559  0.00  0.00     0.165 HD
HETATM   31  H   UNK     0      -4.263  -4.718  29.183  0.00  0.00     0.165 HD
HETATM   32  H   UNK     0      -3.237  -4.416  26.051  0.00  0.00     0.165 HD
ENDROOT
BRANCH   6  33
HETATM   33  C   UNK     0      -9.554  -2.745  26.233  0.00  0.00     0.051 C 
BRANCH  33  34
HETATM   34  C   UNK     0      -9.726  -2.537  27.719  0.00  0.00     0.114 C 
BRANCH  34  35
HETATM   35  C   UNK     0     -11.188  -2.575  28.010  0.00  0.00     0.139 C 
HETATM   36  O   UNK     0     -11.995  -1.904  27.303  0.00  0.00    -0.650 OA
BRANCH  35  37
HETATM   37  O   UNK     0     -11.727  -3.331  29.043  0.00  0.00    -0.776 OA
HETATM   38  H   UNK     0     -11.354  -4.232  29.297  0.00  0.00     0.167 HD
ENDBRANCH  35  37
ENDBRANCH  34  35
ENDBRANCH  33  34
ENDBRANCH   6  33
BRANCH  27  39
HETATM   39  C   UNK     0      -1.419  -0.929  28.721  0.00  0.00     0.051 C 
BRANCH  39  40
HETATM   40  C   UNK     0      -0.043  -0.594  28.358  0.00  0.00     0.114 C 
BRANCH  40  41
HETATM   41  C   UNK     0       0.409   0.773  28.225  0.00  0.00     0.139 C 
HETATM   42  O   UNK     0       1.312   1.264  28.915  0.00  0.00    -0.650 OA
BRANCH  41  43
HETATM   43  O   UNK     0      -0.208   1.613  27.255  0.00  0.00    -0.776 OA
HETATM   44  H   UNK     0      -1.207   1.729  27.375  0.00  0.00     0.167 HD
ENDBRANCH  41  43
ENDBRANCH  40  41
ENDBRANCH  39  40
ENDBRANCH  27  39
BRANCH  11  45
HETATM   45  C   UNK     0      -6.343  -9.912  28.088  0.00  0.00     0.051 C 
BRANCH  45  46
HETATM   46  C   UNK     0      -4.988 -10.340  27.655  0.00  0.00     0.114 C 
BRANCH  46  47
HETATM   47  C   UNK     0      -5.089 -11.767  27.235  0.00  0.00     0.139 C 
HETATM   48  O   UNK     0      -6.206 -12.226  26.959  0.00  0.00    -0.650 OA
BRANCH  47  49
HETATM   49  O   UNK     0      -3.970 -12.557  27.155  0.00  0.00    -0.776 OA
HETATM   50  H   UNK     0      -3.066 -12.261  27.542  0.00  0.00     0.167 HD
ENDBRANCH  47  49
ENDBRANCH  46  47
ENDBRANCH  45  46
ENDBRANCH  11  45
BRANCH  18  51
HETATM   51  C   UNK     0      -0.083  -6.892  28.762  0.00  0.00     0.051 C 
BRANCH  51  52
HETATM   52  C   UNK     0       0.575  -6.732  30.124  0.00  0.00     0.114 C 
BRANCH  52  53
HETATM   53  C   UNK     0       1.614  -7.754  30.357  0.00  0.00     0.139 C 
HETATM   54  O   UNK     0       1.297  -8.950  30.459  0.00  0.00    -0.650 OA
BRANCH  53  55
HETATM   55  O   UNK     0       2.930  -7.374  30.463  0.00  0.00    -0.776 OA
HETATM   56  H   UNK     0       3.714  -7.888  30.137  0.00  0.00     0.167 HD
ENDBRANCH  53  55
ENDBRANCH  52  53
ENDBRANCH  51  52
ENDBRANCH  18  51
TORSDOF 16
ENDMDL
MODEL 11
REMARK VINA RESULT:      -9.1      3.225      9.574
REMARK  16 active torsions:
REMARK  status: ('A' for Active; 'I' for Inactive)
REMARK    1  A    between atoms: C_6  and  C_7 
REMARK    2  A    between atoms: C_7  and  C_8 
REMARK    3  A    between atoms: C_8  and  C_9 
REMARK    4  A    between atoms: C_9  and  O_11 
REMARK    5  A    between atoms: C_16  and  C_17 
REMARK    6  A    between atoms: C_17  and  C_18 
REMARK    7  A    between atoms: C_18  and  C_19 
REMARK    8  A    between atoms: C_19  and  O_21 
REMARK    9  A    between atoms: C_28  and  C_29 
REMARK   10  A    between atoms: C_29  and  C_30 
REMARK   11  A    between atoms: C_30  and  C_31 
REMARK   12  A    between atoms: C_31  and  O_33 
REMARK   13  A    between atoms: C_42  and  C_43 
REMARK   14  A    between atoms: C_43  and  C_44 
REMARK   15  A    between atoms: C_44  and  C_45 
REMARK   16  A    between atoms: C_45  and  O_47 
ROOT
HETATM    1  C   UNK     0      -5.657  -0.313  26.803  0.00  0.00     0.051 C 
HETATM    2  C   UNK     0      -5.653  -1.821  26.652  0.00  0.00    -0.031 A 
HETATM    3  C   UNK     0      -4.624  -2.664  26.265  0.00  0.00     0.021 A 
HETATM    4  N   UNK     0      -5.083  -3.938  26.239  0.00  0.00    -0.361 N 
HETATM    5  C   UNK     0      -6.380  -3.926  26.609  0.00  0.00     0.022 A 
HETATM    6  C   UNK     0      -6.770  -2.617  26.872  0.00  0.00    -0.027 A 
HETATM    7  C   UNK     0      -7.317  -5.072  26.832  0.00  0.00     0.115 C 
HETATM    8  C   UNK     0      -6.759  -6.275  27.571  0.00  0.00     0.021 A 
HETATM    9  N   UNK     0      -5.869  -6.301  28.576  0.00  0.00    -0.361 N 
HETATM   10  C   UNK     0      -5.594  -7.591  28.860  0.00  0.00     0.022 A 
HETATM   11  C   UNK     0      -6.335  -8.420  28.022  0.00  0.00    -0.027 A 
HETATM   12  C   UNK     0      -7.070  -7.597  27.208  0.00  0.00    -0.031 A 
HETATM   13  C   UNK     0      -8.031  -8.060  26.135  0.00  0.00     0.051 C 
HETATM   14  C   UNK     0      -4.588  -8.093  29.892  0.00  0.00     0.115 C 
HETATM   15  C   UNK     0      -3.158  -7.654  29.621  0.00  0.00     0.021 A 
HETATM   16  N   UNK     0      -2.691  -6.396  29.517  0.00  0.00    -0.361 N 
HETATM   17  C   UNK     0      -1.394  -6.434  29.204  0.00  0.00     0.022 A 
HETATM   18  C   UNK     0      -0.994  -7.782  29.110  0.00  0.00    -0.027 A 
HETATM   19  C   UNK     0      -2.108  -8.536  29.375  0.00  0.00    -0.031 A 
HETATM   20  C   UNK     0      -2.111 -10.053  29.414  0.00  0.00     0.051 C 
HETATM   21  C   UNK     0      -0.432  -5.306  28.907  0.00  0.00     0.115 C 
HETATM   22  C   UNK     0      -0.983  -4.084  28.211  0.00  0.00     0.022 A 
HETATM   23  N   UNK     0      -1.873  -4.029  27.211  0.00  0.00    -0.361 N 
HETATM   24  C   UNK     0      -2.190  -2.736  26.998  0.00  0.00     0.021 A 
HETATM   25  C   UNK     0      -1.480  -1.939  27.874  0.00  0.00    -0.031 A 
HETATM   26  C   UNK     0      -1.466  -0.429  27.992  0.00  0.00     0.051 C 
HETATM   27  C   UNK     0      -0.700  -2.779  28.661  0.00  0.00    -0.027 A 
HETATM   28  C   UNK     0      -3.221  -2.179  26.031  0.00  0.00     0.115 C 
HETATM   29  H   UNK     0      -4.498  -4.832  25.921  0.00  0.00     0.165 HD
HETATM   30  H   UNK     0      -5.470  -5.410  29.120  0.00  0.00     0.165 HD
HETATM   31  H   UNK     0      -3.277  -5.460  29.714  0.00  0.00     0.165 HD
HETATM   32  H   UNK     0      -2.253  -4.900  26.617  0.00  0.00     0.165 HD
ENDROOT
BRANCH   6  33
HETATM   33  C   UNK     0      -8.107  -2.072  27.309  0.00  0.00     0.051 C 
BRANCH  33  34
HETATM   34  C   UNK     0      -9.022  -1.887  26.122  0.00  0.00     0.114 C 
BRANCH  34  35
HETATM   35  C   UNK     0     -10.392  -2.295  26.547  0.00  0.00     0.139 C 
HETATM   36  O   UNK     0     -10.546  -3.209  27.408  0.00  0.00    -0.650 OA
BRANCH  35  37
HETATM   37  O   UNK     0     -11.542  -1.706  26.035  0.00  0.00    -0.776 OA
HETATM   38  H   UNK     0     -11.848  -0.791  26.324  0.00  0.00     0.167 HD
ENDBRANCH  35  37
ENDBRANCH  34  35
ENDBRANCH  33  34
ENDBRANCH   6  33
BRANCH  27  39
HETATM   39  C   UNK     0       0.260  -2.275  29.680  0.00  0.00     0.051 C 
BRANCH  39  40
HETATM   40  C   UNK     0       0.048  -2.648  31.079  0.00  0.00     0.114 C 
BRANCH  40  41
HETATM   41  C   UNK     0       1.131  -2.700  32.035  0.00  0.00     0.139 C 
HETATM   42  O   UNK     0       1.979  -3.603  32.059  0.00  0.00    -0.650 OA
BRANCH  41  43
HETATM   43  O   UNK     0       1.243  -1.668  33.009  0.00  0.00    -0.776 OA
HETATM   44  H   UNK     0       0.723  -1.838  33.861  0.00  0.00     0.167 HD
ENDBRANCH  41  43
ENDBRANCH  40  41
ENDBRANCH  39  40
ENDBRANCH  27  39
BRANCH  11  45
HETATM   45  C   UNK     0      -6.367  -9.924  27.973  0.00  0.00     0.051 C 
BRANCH  45  46
HETATM   46  C   UNK     0      -5.075 -10.545  27.584  0.00  0.00     0.114 C 
BRANCH  46  47
HETATM   47  C   UNK     0      -5.276 -12.023  27.591  0.00  0.00     0.139 C 
HETATM   48  O   UNK     0      -6.378 -12.472  27.246  0.00  0.00    -0.650 OA
BRANCH  47  49
HETATM   49  O   UNK     0      -4.264 -12.868  27.972  0.00  0.00    -0.776 OA
HETATM   50  H   UNK     0      -3.436 -12.533  28.479  0.00  0.00     0.167 HD
ENDBRANCH  47  49
ENDBRANCH  46  47
ENDBRANCH  45  46
ENDBRANCH  11  45
BRANCH  18  51
HETATM   51  C   UNK     0       0.379  -8.322  28.806  0.00  0.00     0.051 C 
BRANCH  51  52
HETATM   52  C   UNK     0       1.128  -8.353  30.130  0.00  0.00     0.114 C 
BRANCH  52  53
HETATM   53  C   UNK     0       2.311  -7.471  30.113  0.00  0.00     0.139 C 
HETATM   54  O   UNK     0       3.283  -7.749  29.394  0.00  0.00    -0.650 OA
BRANCH  53  55
HETATM   55  O   UNK     0       2.329  -6.344  30.898  0.00  0.00    -0.776 OA
HETATM   56  H   UNK     0       3.140  -5.885  31.243  0.00  0.00     0.167 HD
ENDBRANCH  53  55
ENDBRANCH  52  53
ENDBRANCH  51  52
ENDBRANCH  18  51
TORSDOF 16
ENDMDL
MODEL 12
REMARK VINA RESULT:      -9.0      3.417      6.268
REMARK  16 active torsions:
REMARK  status: ('A' for Active; 'I' for Inactive)
REMARK    1  A    between atoms: C_6  and  C_7 
REMARK    2  A    between atoms: C_7  and  C_8 
REMARK    3  A    between atoms: C_8  and  C_9 
REMARK    4  A    between atoms: C_9  and  O_11 
REMARK    5  A    between atoms: C_16  and  C_17 
REMARK    6  A    between atoms: C_17  and  C_18 
REMARK    7  A    between atoms: C_18  and  C_19 
REMARK    8  A    between atoms: C_19  and  O_21 
REMARK    9  A    between atoms: C_28  and  C_29 
REMARK   10  A    between atoms: C_29  and  C_30 
REMARK   11  A    between atoms: C_30  and  C_31 
REMARK   12  A    between atoms: C_31  and  O_33 
REMARK   13  A    between atoms: C_42  and  C_43 
REMARK   14  A    between atoms: C_43  and  C_44 
REMARK   15  A    between atoms: C_44  and  C_45 
REMARK   16  A    between atoms: C_45  and  O_47 
ROOT
HETATM    1  C   UNK     0      -4.100  -6.824  29.289  0.00  0.00     0.051 C 
HETATM    2  C   UNK     0      -2.656  -6.992  28.861  0.00  0.00    -0.031 A 
HETATM    3  C   UNK     0      -1.939  -6.303  27.895  0.00  0.00     0.021 A 
HETATM    4  N   UNK     0      -0.686  -6.812  27.830  0.00  0.00    -0.361 N 
HETATM    5  C   UNK     0      -0.586  -7.804  28.739  0.00  0.00     0.022 A 
HETATM    6  C   UNK     0      -1.802  -7.945  29.400  0.00  0.00    -0.027 A 
HETATM    7  C   UNK     0       0.606  -8.620  29.131  0.00  0.00     0.115 C 
HETATM    8  C   UNK     0       1.920  -7.875  29.289  0.00  0.00     0.021 A 
HETATM    9  N   UNK     0       2.127  -6.635  29.759  0.00  0.00    -0.361 N 
HETATM   10  C   UNK     0       3.441  -6.352  29.631  0.00  0.00     0.022 A 
HETATM   11  C   UNK     0       4.100  -7.443  29.072  0.00  0.00    -0.027 A 
HETATM   12  C   UNK     0       3.147  -8.406  28.854  0.00  0.00    -0.031 A 
HETATM   13  C   UNK     0       3.406  -9.773  28.261  0.00  0.00     0.051 C 
HETATM   14  C   UNK     0       4.116  -5.028  29.979  0.00  0.00     0.115 C 
HETATM   15  C   UNK     0       3.592  -3.842  29.185  0.00  0.00     0.021 A 
HETATM   16  N   UNK     0       2.327  -3.385  29.129  0.00  0.00    -0.361 N 
HETATM   17  C   UNK     0       2.265  -2.370  28.266  0.00  0.00     0.022 A 
HETATM   18  C   UNK     0       3.554  -2.148  27.740  0.00  0.00    -0.027 A 
HETATM   19  C   UNK     0       4.376  -3.076  28.325  0.00  0.00    -0.031 A 
HETATM   20  C   UNK     0       5.868  -3.165  28.064  0.00  0.00     0.051 C 
HETATM   21  C   UNK     0       1.075  -1.566  27.794  0.00  0.00     0.115 C 
HETATM   22  C   UNK     0      -0.249  -2.284  27.675  0.00  0.00     0.022 A 
HETATM   23  N   UNK     0      -0.484  -3.520  27.215  0.00  0.00    -0.361 N 
HETATM   24  C   UNK     0      -1.784  -3.809  27.424  0.00  0.00     0.021 A 
HETATM   25  C   UNK     0      -2.404  -2.730  28.024  0.00  0.00    -0.031 A 
HETATM   26  C   UNK     0      -3.857  -2.561  28.416  0.00  0.00     0.051 C 
HETATM   27  C   UNK     0      -1.442  -1.741  28.195  0.00  0.00    -0.027 A 
HETATM   28  C   UNK     0      -2.499  -5.122  27.155  0.00  0.00     0.115 C 
HETATM   29  H   UNK     0       0.108  -6.493  27.115  0.00  0.00     0.165 HD
HETATM   30  H   UNK     0       1.356  -5.975  30.228  0.00  0.00     0.165 HD
HETATM   31  H   UNK     0       1.468  -3.756  29.748  0.00  0.00     0.165 HD
HETATM   32  H   UNK     0       0.257  -4.184  26.698  0.00  0.00     0.165 HD
ENDROOT
BRANCH   6  33
HETATM   33  C   UNK     0      -2.209  -8.906  30.488  0.00  0.00     0.051 C 
BRANCH  33  34
HETATM   34  C   UNK     0      -1.374  -8.694  31.729  0.00  0.00     0.114 C 
BRANCH  34  35
HETATM   35  C   UNK     0      -2.198  -7.910  32.693  0.00  0.00     0.139 C 
HETATM   36  O   UNK     0      -2.532  -6.720  32.425  0.00  0.00    -0.650 OA
BRANCH  35  37
HETATM   37  O   UNK     0      -2.633  -8.433  33.905  0.00  0.00    -0.776 OA
HETATM   38  H   UNK     0      -3.019  -9.360  33.979  0.00  0.00     0.167 HD
ENDBRANCH  35  37
ENDBRANCH  34  35
ENDBRANCH  33  34
ENDBRANCH   6  33
BRANCH  27  39
HETATM   39  C   UNK     0      -1.752  -0.395  28.749  0.00  0.00     0.051 C 
BRANCH  39  40
HETATM   40  C   UNK     0      -1.834   0.734  27.823  0.00  0.00     0.114 C 
BRANCH  40  41
HETATM   41  C   UNK     0      -1.162   1.989  28.077  0.00  0.00     0.139 C 
HETATM   42  O   UNK     0      -1.753   3.028  28.400  0.00  0.00    -0.650 OA
BRANCH  41  43
HETATM   43  O   UNK     0       0.255   2.051  27.953  0.00  0.00    -0.776 OA
HETATM   44  H   UNK     0       0.665   2.926  28.258  0.00  0.00     0.167 HD
ENDBRANCH  41  43
ENDBRANCH  40  41
ENDBRANCH  39  40
ENDBRANCH  27  39
BRANCH  11  45
HETATM   45  C   UNK     0       5.562  -7.596  28.750  0.00  0.00     0.051 C 
BRANCH  45  46
HETATM   46  C   UNK     0       6.438  -7.694  29.945  0.00  0.00     0.114 C 
BRANCH  46  47
HETATM   47  C   UNK     0       7.149  -9.003  29.865  0.00  0.00     0.139 C 
HETATM   48  O   UNK     0       8.357  -9.038  30.137  0.00  0.00    -0.650 OA
BRANCH  47  49
HETATM   49  O   UNK     0       6.481 -10.144  29.499  0.00  0.00    -0.776 OA
HETATM   50  H   UNK     0       5.854 -10.171  28.685  0.00  0.00     0.167 HD
ENDBRANCH  47  49
ENDBRANCH  46  47
ENDBRANCH  45  46
ENDBRANCH  11  45
BRANCH  18  51
HETATM   51  C   UNK     0       3.982  -1.095  26.751  0.00  0.00     0.051 C 
BRANCH  51  52
HETATM   52  C   UNK     0       4.000   0.223  27.512  0.00  0.00     0.114 C 
BRANCH  52  53
HETATM   53  C   UNK     0       5.355   0.804  27.574  0.00  0.00     0.139 C 
HETATM   54  O   UNK     0       6.181   0.368  28.391  0.00  0.00    -0.650 OA
BRANCH  53  55
HETATM   55  O   UNK     0       5.694   1.829  26.726  0.00  0.00    -0.776 OA
HETATM   56  H   UNK     0       6.603   2.207  26.600  0.00  0.00     0.167 HD
ENDBRANCH  53  55
ENDBRANCH  52  53
ENDBRANCH  51  52
ENDBRANCH  18  51
TORSDOF 16
ENDMDL
MODEL 13
REMARK VINA RESULT:      -8.9      5.107     10.084
REMARK  16 active torsions:
REMARK  status: ('A' for Active; 'I' for Inactive)
REMARK    1  A    between atoms: C_6  and  C_7 
REMARK    2  A    between atoms: C_7  and  C_8 
REMARK    3  A    between atoms: C_8  and  C_9 
REMARK    4  A    between atoms: C_9  and  O_11 
REMARK    5  A    between atoms: C_16  and  C_17 
REMARK    6  A    between atoms: C_17  and  C_18 
REMARK    7  A    between atoms: C_18  and  C_19 
REMARK    8  A    between atoms: C_19  and  O_21 
REMARK    9  A    between atoms: C_28  and  C_29 
REMARK   10  A    between atoms: C_29  and  C_30 
REMARK   11  A    between atoms: C_30  and  C_31 
REMARK   12  A    between atoms: C_31  and  O_33 
REMARK   13  A    between atoms: C_42  and  C_43 
REMARK   14  A    between atoms: C_43  and  C_44 
REMARK   15  A    between atoms: C_44  and  C_45 
REMARK   16  A    between atoms: C_45  and  O_47 
ROOT
HETATM    1  C   UNK     0      -8.058  -9.513  26.010  0.00  0.00     0.051 C 
HETATM    2  C   UNK     0      -7.069  -9.125  27.091  0.00  0.00    -0.031 A 
HETATM    3  C   UNK     0      -6.192  -9.922  27.808  0.00  0.00     0.021 A 
HETATM    4  N   UNK     0      -5.520  -9.151  28.696  0.00  0.00    -0.361 N 
HETATM    5  C   UNK     0      -5.944  -7.879  28.555  0.00  0.00     0.022 A 
HETATM    6  C   UNK     0      -6.916  -7.827  27.560  0.00  0.00    -0.027 A 
HETATM    7  C   UNK     0      -5.458  -6.633  29.226  0.00  0.00     0.115 C 
HETATM    8  C   UNK     0      -3.954  -6.480  29.373  0.00  0.00     0.021 A 
HETATM    9  N   UNK     0      -2.988  -6.867  28.526  0.00  0.00    -0.361 N 
HETATM   10  C   UNK     0      -1.795  -6.615  29.106  0.00  0.00     0.022 A 
HETATM   11  C   UNK     0      -1.999  -6.040  30.357  0.00  0.00    -0.027 A 
HETATM   12  C   UNK     0      -3.357  -5.953  30.532  0.00  0.00    -0.031 A 
HETATM   13  C   UNK     0      -4.046  -5.385  31.752  0.00  0.00     0.051 C 
HETATM   14  C   UNK     0      -0.423  -6.951  28.530  0.00  0.00     0.115 C 
HETATM   15  C   UNK     0      -0.203  -8.437  28.292  0.00  0.00     0.021 A 
HETATM   16  N   UNK     0      -0.928  -9.260  27.512  0.00  0.00    -0.361 N 
HETATM   17  C   UNK     0      -0.455 -10.503  27.627  0.00  0.00     0.022 A 
HETATM   18  C   UNK     0       0.638 -10.487  28.517  0.00  0.00    -0.027 A 
HETATM   19  C   UNK     0       0.786  -9.187  28.925  0.00  0.00    -0.031 A 
HETATM   20  C   UNK     0       1.879  -8.718  29.868  0.00  0.00     0.051 C 
HETATM   21  C   UNK     0      -0.956 -11.794  27.020  0.00  0.00     0.115 C 
HETATM   22  C   UNK     0      -2.447 -11.941  26.828  0.00  0.00     0.022 A 
HETATM   23  N   UNK     0      -3.432 -11.561  27.653  0.00  0.00    -0.361 N 
HETATM   24  C   UNK     0      -4.609 -11.750  27.022  0.00  0.00     0.021 A 
HETATM   25  C   UNK     0      -4.377 -12.274  25.765  0.00  0.00    -0.031 A 
HETATM   26  C   UNK     0      -5.377 -12.691  24.706  0.00  0.00     0.051 C 
HETATM   27  C   UNK     0      -3.001 -12.405  25.618  0.00  0.00    -0.027 A 
HETATM   28  C   UNK     0      -5.998 -11.383  27.516  0.00  0.00     0.115 C 
HETATM   29  H   UNK     0      -4.780  -9.518  29.445  0.00  0.00     0.165 HD
HETATM   30  H   UNK     0      -3.143  -7.273  27.496  0.00  0.00     0.165 HD
HETATM   31  H   UNK     0      -1.762  -8.951  26.829  0.00  0.00     0.165 HD
HETATM   32  H   UNK     0      -3.308 -11.196  28.705  0.00  0.00     0.165 HD
ENDROOT
BRANCH   6  33
HETATM   33  C   UNK     0      -7.701  -6.653  27.031  0.00  0.00     0.051 C 
BRANCH  33  34
HETATM   34  C   UNK     0      -6.871  -5.849  26.059  0.00  0.00     0.114 C 
BRANCH  34  35
HETATM   35  C   UNK     0      -6.871  -4.435  26.533  0.00  0.00     0.139 C 
HETATM   36  O   UNK     0      -5.804  -3.907  26.962  0.00  0.00    -0.650 OA
BRANCH  35  37
HETATM   37  O   UNK     0      -8.013  -3.644  26.528  0.00  0.00    -0.776 OA
HETATM   38  H   UNK     0      -8.863  -3.928  26.988  0.00  0.00     0.167 HD
ENDBRANCH  35  37
ENDBRANCH  34  35
ENDBRANCH  33  34
ENDBRANCH   6  33
BRANCH  27  39
HETATM   39  C   UNK     0      -2.368 -13.006  24.412  0.00  0.00     0.051 C 
BRANCH  39  40
HETATM   40  C   UNK     0      -2.086 -12.137  23.270  0.00  0.00     0.114 C 
BRANCH  40  41
HETATM   41  C   UNK     0      -0.740 -11.758  22.904  0.00  0.00     0.139 C 
HETATM   42  O   UNK     0      -0.245 -11.983  21.791  0.00  0.00    -0.650 OA
BRANCH  41  43
HETATM   43  O   UNK     0       0.075 -11.090  23.862  0.00  0.00    -0.776 OA
HETATM   44  H   UNK     0       0.427 -10.190  23.558  0.00  0.00     0.167 HD
ENDBRANCH  41  43
ENDBRANCH  40  41
ENDBRANCH  39  40
ENDBRANCH  27  39
BRANCH  11  45
HETATM   45  C   UNK     0      -0.976  -5.583  31.362  0.00  0.00     0.051 C 
BRANCH  45  46
HETATM   46  C   UNK     0      -0.538  -4.175  31.183  0.00  0.00     0.114 C 
BRANCH  46  47
HETATM   47  C   UNK     0      -0.299  -3.611  32.543  0.00  0.00     0.139 C 
HETATM   48  O   UNK     0       0.870  -3.484  32.934  0.00  0.00    -0.650 OA
BRANCH  47  49
HETATM   49  O   UNK     0      -1.349  -3.242  33.345  0.00  0.00    -0.776 OA
HETATM   50  H   UNK     0      -1.646  -3.808  34.149  0.00  0.00     0.167 HD
ENDBRANCH  47  49
ENDBRANCH  46  47
ENDBRANCH  45  46
ENDBRANCH  11  45
BRANCH  18  51
HETATM   51  C   UNK     0       1.506 -11.644  28.938  0.00  0.00     0.051 C 
BRANCH  51  52
HETATM   52  C   UNK     0       2.690 -11.658  27.983  0.00  0.00     0.114 C 
BRANCH  52  53
HETATM   53  C   UNK     0       3.908 -12.189  28.625  0.00  0.00     0.139 C 
HETATM   54  O   UNK     0       4.908 -11.466  28.755  0.00  0.00    -0.650 OA
BRANCH  53  55
HETATM   55  O   UNK     0       3.928 -13.487  29.075  0.00  0.00    -0.776 OA
HETATM   56  H   UNK     0       3.215 -14.164  28.937  0.00  0.00     0.167 HD
ENDBRANCH  53  55
ENDBRANCH  52  53
ENDBRANCH  51  52
ENDBRANCH  18  51
TORSDOF 16
ENDMDL
MODEL 14
REMARK VINA RESULT:      -8.9      2.805      7.462
REMARK  16 active torsions:
REMARK  status: ('A' for Active; 'I' for Inactive)
REMARK    1  A    between atoms: C_6  and  C_7 
REMARK    2  A    between atoms: C_7  and  C_8 
REMARK    3  A    between atoms: C_8  and  C_9 
REMARK    4  A    between atoms: C_9  and  O_11 
REMARK    5  A    between atoms: C_16  and  C_17 
REMARK    6  A    between atoms: C_17  and  C_18 
REMARK    7  A    between atoms: C_18  and  C_19 
REMARK    8  A    between atoms: C_19  and  O_21 
REMARK    9  A    between atoms: C_28  and  C_29 
REMARK   10  A    between atoms: C_29  and  C_30 
REMARK   11  A    between atoms: C_30  and  C_31 
REMARK   12  A    between atoms: C_31  and  O_33 
REMARK   13  A    between atoms: C_42  and  C_43 
REMARK   14  A    between atoms: C_43  and  C_44 
REMARK   15  A    between atoms: C_44  and  C_45 
REMARK   16  A    between atoms: C_45  and  O_47 
ROOT
HETATM    1  C   UNK     0      -1.793  -9.145  30.890  0.00  0.00     0.051 C 
HETATM    2  C   UNK     0      -2.737  -8.058  30.420  0.00  0.00    -0.031 A 
HETATM    3  C   UNK     0      -2.883  -6.759  30.880  0.00  0.00     0.021 A 
HETATM    4  N   UNK     0      -3.874  -6.152  30.184  0.00  0.00    -0.361 N 
HETATM    5  C   UNK     0      -4.357  -7.033  29.284  0.00  0.00     0.022 A 
HETATM    6  C   UNK     0      -3.670  -8.237  29.406  0.00  0.00    -0.027 A 
HETATM    7  C   UNK     0      -5.387  -6.835  28.216  0.00  0.00     0.115 C 
HETATM    8  C   UNK     0      -5.308  -5.542  27.425  0.00  0.00     0.021 A 
HETATM    9  N   UNK     0      -4.216  -4.861  27.042  0.00  0.00    -0.361 N 
HETATM   10  C   UNK     0      -4.622  -3.723  26.441  0.00  0.00     0.022 A 
HETATM   11  C   UNK     0      -6.013  -3.673  26.427  0.00  0.00    -0.027 A 
HETATM   12  C   UNK     0      -6.451  -4.816  27.046  0.00  0.00    -0.031 A 
HETATM   13  C   UNK     0      -7.900  -5.195  27.257  0.00  0.00     0.051 C 
HETATM   14  C   UNK     0      -3.719  -2.616  25.904  0.00  0.00     0.115 C 
HETATM   15  C   UNK     0      -2.846  -1.965  26.965  0.00  0.00     0.021 A 
HETATM   16  N   UNK     0      -1.939  -2.561  27.762  0.00  0.00    -0.361 N 
HETATM   17  C   UNK     0      -1.436  -1.658  28.606  0.00  0.00     0.022 A 
HETATM   18  C   UNK     0      -2.036  -0.411  28.340  0.00  0.00    -0.027 A 
HETATM   19  C   UNK     0      -2.916  -0.617  27.310  0.00  0.00    -0.031 A 
HETATM   20  C   UNK     0      -3.753   0.483  26.683  0.00  0.00     0.051 C 
HETATM   21  C   UNK     0      -0.448  -1.829  29.737  0.00  0.00     0.115 C 
HETATM   22  C   UNK     0      -0.486  -3.130  30.506  0.00  0.00     0.022 A 
HETATM   23  N   UNK     0      -1.557  -3.831  30.897  0.00  0.00    -0.361 N 
HETATM   24  C   UNK     0      -1.131  -4.997  31.423  0.00  0.00     0.021 A 
HETATM   25  C   UNK     0       0.249  -5.043  31.379  0.00  0.00    -0.031 A 
HETATM   26  C   UNK     0       1.184  -6.122  31.885  0.00  0.00     0.051 C 
HETATM   27  C   UNK     0       0.685  -3.858  30.796  0.00  0.00    -0.027 A 
HETATM   28  C   UNK     0      -1.977  -6.158  31.918  0.00  0.00     0.115 C 
HETATM   29  H   UNK     0      -4.251  -5.118  30.361  0.00  0.00     0.165 HD
HETATM   30  H   UNK     0      -3.159  -5.206  27.150  0.00  0.00     0.165 HD
HETATM   31  H   UNK     0      -1.612  -3.632  27.697  0.00  0.00     0.165 HD
HETATM   32  H   UNK     0      -2.624  -3.491  30.844  0.00  0.00     0.165 HD
ENDROOT
BRANCH   6  33
HETATM   33  C   UNK     0      -3.833  -9.528  28.644  0.00  0.00     0.051 C 
BRANCH  33  34
HETATM   34  C   UNK     0      -2.534  -9.926  27.983  0.00  0.00     0.114 C 
BRANCH  34  35
HETATM   35  C   UNK     0      -2.698 -11.321  27.482  0.00  0.00     0.139 C 
HETATM   36  O   UNK     0      -3.802 -11.697  26.993  0.00  0.00    -0.650 OA
BRANCH  35  37
HETATM   37  O   UNK     0      -1.672 -12.257  27.524  0.00  0.00    -0.776 OA
HETATM   38  H   UNK     0      -1.018 -12.367  26.766  0.00  0.00     0.167 HD
ENDBRANCH  35  37
ENDBRANCH  34  35
ENDBRANCH  33  34
ENDBRANCH   6  33
BRANCH  27  39
HETATM   39  C   UNK     0       2.124  -3.512  30.643  0.00  0.00     0.051 C 
BRANCH  39  40
HETATM   40  C   UNK     0       2.682  -3.444  29.292  0.00  0.00     0.114 C 
BRANCH  40  41
HETATM   41  C   UNK     0       3.493  -4.504  28.739  0.00  0.00     0.139 C 
HETATM   42  O   UNK     0       3.618  -5.617  29.268  0.00  0.00    -0.650 OA
BRANCH  41  43
HETATM   43  O   UNK     0       4.193  -4.274  27.520  0.00  0.00    -0.776 OA
HETATM   44  H   UNK     0       4.063  -4.995  26.820  0.00  0.00     0.167 HD
ENDBRANCH  41  43
ENDBRANCH  40  41
ENDBRANCH  39  40
ENDBRANCH  27  39
BRANCH  11  45
HETATM   45  C   UNK     0      -6.912  -2.607  25.861  0.00  0.00     0.051 C 
BRANCH  45  46
HETATM   46  C   UNK     0      -7.082  -1.425  26.744  0.00  0.00     0.114 C 
BRANCH  46  47
HETATM   47  C   UNK     0      -8.443  -1.517  27.346  0.00  0.00     0.139 C 
HETATM   48  O   UNK     0      -8.559  -1.383  28.572  0.00  0.00    -0.650 OA
BRANCH  47  49
HETATM   49  O   UNK     0      -9.545  -1.745  26.561  0.00  0.00    -0.776 OA
HETATM   50  H   UNK     0      -9.538  -2.434  25.799  0.00  0.00     0.167 HD
ENDBRANCH  47  49
ENDBRANCH  46  47
ENDBRANCH  45  46
ENDBRANCH  11  45
BRANCH  18  51
HETATM   51  C   UNK     0      -1.770   0.908  29.017  0.00  0.00     0.051 C 
BRANCH  51  52
HETATM   52  C   UNK     0      -0.690   1.598  28.197  0.00  0.00     0.114 C 
BRANCH  52  53
HETATM   53  C   UNK     0      -0.331   2.915  28.757  0.00  0.00     0.139 C 
HETATM   54  O   UNK     0      -1.168   3.564  29.404  0.00  0.00    -0.650 OA
BRANCH  53  55
HETATM   55  O   UNK     0       0.931   3.419  28.554  0.00  0.00    -0.776 OA
HETATM   56  H   UNK     0       1.155   4.361  28.335  0.00  0.00     0.167 HD
ENDBRANCH  53  55
ENDBRANCH  52  53
ENDBRANCH  51  52
ENDBRANCH  18  51
TORSDOF 16
ENDMDL
MODEL 15
REMARK VINA RESULT:      -8.8      2.258      6.740
REMARK  16 active torsions:
REMARK  status: ('A' for Active; 'I' for Inactive)
REMARK    1  A    between atoms: C_6  and  C_7 
REMARK    2  A    between atoms: C_7  and  C_8 
REMARK    3  A    between atoms: C_8  and  C_9 
REMARK    4  A    between atoms: C_9  and  O_11 
REMARK    5  A    between atoms: C_16  and  C_17 
REMARK    6  A    between atoms: C_17  and  C_18 
REMARK    7  A    between atoms: C_18  and  C_19 
REMARK    8  A    between atoms: C_19  and  O_21 
REMARK    9  A    between atoms: C_28  and  C_29 
REMARK   10  A    between atoms: C_29  and  C_30 
REMARK   11  A    between atoms: C_30  and  C_31 
REMARK   12  A    between atoms: C_31  and  O_33 
REMARK   13  A    between atoms: C_42  and  C_43 
REMARK   14  A    between atoms: C_43  and  C_44 
REMARK   15  A    between atoms: C_44  and  C_45 
REMARK   16  A    between atoms: C_45  and  O_47 
ROOT
HETATM    1  C   UNK     0       1.679   0.750  28.382  0.00  0.00     0.051 C 
HETATM    2  C   UNK     0       0.902  -0.419  28.951  0.00  0.00    -0.031 A 
HETATM    3  C   UNK     0      -0.436  -0.497  29.307  0.00  0.00     0.021 A 
HETATM    4  N   UNK     0      -0.690  -1.731  29.802  0.00  0.00    -0.361 N 
HETATM    5  C   UNK     0       0.455  -2.444  29.762  0.00  0.00     0.022 A 
HETATM    6  C   UNK     0       1.471  -1.653  29.238  0.00  0.00    -0.027 A 
HETATM    7  C   UNK     0       0.693  -3.882  30.104  0.00  0.00     0.115 C 
HETATM    8  C   UNK     0      -0.351  -4.877  29.628  0.00  0.00     0.021 A 
HETATM    9  N   UNK     0      -1.065  -4.862  28.491  0.00  0.00    -0.361 N 
HETATM   10  C   UNK     0      -1.938  -5.890  28.530  0.00  0.00     0.022 A 
HETATM   11  C   UNK     0      -1.775  -6.594  29.720  0.00  0.00    -0.027 A 
HETATM   12  C   UNK     0      -0.777  -5.961  30.416  0.00  0.00    -0.031 A 
HETATM   13  C   UNK     0      -0.255  -6.382  31.772  0.00  0.00     0.051 C 
HETATM   14  C   UNK     0      -2.991  -6.219  27.476  0.00  0.00     0.115 C 
HETATM   15  C   UNK     0      -4.015  -5.115  27.264  0.00  0.00     0.021 A 
HETATM   16  N   UNK     0      -3.784  -3.842  26.892  0.00  0.00    -0.361 N 
HETATM   17  C   UNK     0      -4.938  -3.171  26.886  0.00  0.00     0.022 A 
HETATM   18  C   UNK     0      -5.972  -4.052  27.263  0.00  0.00    -0.027 A 
HETATM   19  C   UNK     0      -5.380  -5.266  27.495  0.00  0.00    -0.031 A 
HETATM   20  C   UNK     0      -6.146  -6.515  27.892  0.00  0.00     0.051 C 
HETATM   21  C   UNK     0      -5.211  -1.709  26.613  0.00  0.00     0.115 C 
HETATM   22  C   UNK     0      -4.161  -0.711  27.041  0.00  0.00     0.022 A 
HETATM   23  N   UNK     0      -3.432  -0.705  28.165  0.00  0.00    -0.361 N 
HETATM   24  C   UNK     0      -2.517   0.281  28.070  0.00  0.00     0.021 A 
HETATM   25  C   UNK     0      -2.667   0.931  26.861  0.00  0.00    -0.031 A 
HETATM   26  C   UNK     0      -1.905   2.122  26.318  0.00  0.00     0.051 C 
HETATM   27  C   UNK     0      -3.713   0.314  26.184  0.00  0.00    -0.027 A 
HETATM   28  C   UNK     0      -1.410   0.619  29.054  0.00  0.00     0.115 C 
HETATM   29  H   UNK     0      -1.666  -2.077  30.214  0.00  0.00     0.165 HD
HETATM   30  H   UNK     0      -0.921  -4.155  27.637  0.00  0.00     0.165 HD
HETATM   31  H   UNK     0      -2.794  -3.419  26.581  0.00  0.00     0.165 HD
HETATM   32  H   UNK     0      -3.585  -1.369  29.055  0.00  0.00     0.165 HD
ENDROOT
BRANCH   6  33
HETATM   33  C   UNK     0       2.924  -1.975  28.994  0.00  0.00     0.051 C 
BRANCH  33  34
HETATM   34  C   UNK     0       3.072  -2.931  27.834  0.00  0.00     0.114 C 
BRANCH  34  35
HETATM   35  C   UNK     0       4.222  -3.829  28.139  0.00  0.00     0.139 C 
HETATM   36  O   UNK     0       4.641  -3.946  29.328  0.00  0.00    -0.650 OA
BRANCH  35  37
HETATM   37  O   UNK     0       4.877  -4.568  27.161  0.00  0.00    -0.776 OA
HETATM   38  H   UNK     0       5.265  -5.478  27.349  0.00  0.00     0.167 HD
ENDBRANCH  35  37
ENDBRANCH  34  35
ENDBRANCH  33  34
ENDBRANCH   6  33
BRANCH  27  39
HETATM   39  C   UNK     0      -4.218   0.788  24.867  0.00  0.00     0.051 C 
BRANCH  39  40
HETATM   40  C   UNK     0      -5.511   1.471  24.823  0.00  0.00     0.114 C 
BRANCH  40  41
HETATM   41  C   UNK     0      -5.620   2.906  24.693  0.00  0.00     0.139 C 
HETATM   42  O   UNK     0      -4.898   3.705  25.305  0.00  0.00    -0.650 OA
BRANCH  41  43
HETATM   43  O   UNK     0      -6.604   3.448  23.819  0.00  0.00    -0.776 OA
HETATM   44  H   UNK     0      -6.458   3.235  22.839  0.00  0.00     0.167 HD
ENDBRANCH  41  43
ENDBRANCH  40  41
ENDBRANCH  39  40
ENDBRANCH  27  39
BRANCH  11  45
HETATM   45  C   UNK     0      -2.514  -7.814  30.201  0.00  0.00     0.051 C 
BRANCH  45  46
HETATM   46  C   UNK     0      -1.770  -9.086  30.017  0.00  0.00     0.114 C 
BRANCH  46  47
HETATM   47  C   UNK     0      -2.028  -9.551  28.624  0.00  0.00     0.139 C 
HETATM   48  O   UNK     0      -3.142 -10.021  28.354  0.00  0.00    -0.650 OA
BRANCH  47  49
HETATM   49  O   UNK     0      -1.055  -9.462  27.661  0.00  0.00    -0.776 OA
HETATM   50  H   UNK     0      -0.607  -8.571  27.419  0.00  0.00     0.167 HD
ENDBRANCH  47  49
ENDBRANCH  46  47
ENDBRANCH  45  46
ENDBRANCH  11  45
BRANCH  18  51
HETATM   51  C   UNK     0      -7.445  -3.757  27.374  0.00  0.00     0.051 C 
BRANCH  51  52
HETATM   52  C   UNK     0      -8.037  -4.018  25.997  0.00  0.00     0.114 C 
BRANCH  52  53
HETATM   53  C   UNK     0      -9.266  -4.832  26.072  0.00  0.00     0.139 C 
HETATM   54  O   UNK     0      -9.189  -6.069  26.132  0.00  0.00    -0.650 OA
BRANCH  53  55
HETATM   55  O   UNK     0     -10.492  -4.212  26.071  0.00  0.00    -0.776 OA
HETATM   56  H   UNK     0     -11.374  -4.663  25.996  0.00  0.00     0.167 HD
ENDBRANCH  53  55
ENDBRANCH  52  53
ENDBRANCH  51  52
ENDBRANCH  18  51
TORSDOF 16
ENDMDL
MODEL 16
REMARK VINA RESULT:      -8.7     34.460     36.963
REMARK  16 active torsions:
REMARK  status: ('A' for Active; 'I' for Inactive)
REMARK    1  A    between atoms: C_6  and  C_7 
REMARK    2  A    between atoms: C_7  and  C_8 
REMARK    3  A    between atoms: C_8  and  C_9 
REMARK    4  A    between atoms: C_9  and  O_11 
REMARK    5  A    between atoms: C_16  and  C_17 
REMARK    6  A    between atoms: C_17  and  C_18 
REMARK    7  A    between atoms: C_18  and  C_19 
REMARK    8  A    between atoms: C_19  and  O_21 
REMARK    9  A    between atoms: C_28  and  C_29 
REMARK   10  A    between atoms: C_29  and  C_30 
REMARK   11  A    between atoms: C_30  and  C_31 
REMARK   12  A    between atoms: C_31  and  O_33 
REMARK   13  A    between atoms: C_42  and  C_43 
REMARK   14  A    between atoms: C_43  and  C_44 
REMARK   15  A    between atoms: C_44  and  C_45 
REMARK   16  A    between atoms: C_45  and  O_47 
ROOT
HETATM    1  C   UNK     0      17.375 -22.782   0.930  0.00  0.00     0.051 C 
HETATM    2  C   UNK     0      17.806 -21.329   0.926  0.00  0.00    -0.031 A 
HETATM    3  C   UNK     0      17.666 -20.373  -0.067  0.00  0.00     0.021 A 
HETATM    4  N   UNK     0      18.227 -19.214   0.354  0.00  0.00    -0.361 N 
HETATM    5  C   UNK     0      18.713 -19.409   1.597  0.00  0.00     0.022 A 
HETATM    6  C   UNK     0      18.469 -20.722   1.985  0.00  0.00    -0.027 A 
HETATM    7  C   UNK     0      19.340 -18.429   2.539  0.00  0.00     0.115 C 
HETATM    8  C   UNK     0      18.686 -17.062   2.635  0.00  0.00     0.021 A 
HETATM    9  N   UNK     0      17.382 -16.752   2.563  0.00  0.00    -0.361 N 
HETATM   10  C   UNK     0      17.268 -15.407   2.604  0.00  0.00     0.022 A 
HETATM   11  C   UNK     0      18.533 -14.836   2.715  0.00  0.00    -0.027 A 
HETATM   12  C   UNK     0      19.430 -15.873   2.734  0.00  0.00    -0.031 A 
HETATM   13  C   UNK     0      20.931 -15.727   2.848  0.00  0.00     0.051 C 
HETATM   14  C   UNK     0      15.973 -14.608   2.488  0.00  0.00     0.115 C 
HETATM   15  C   UNK     0      15.236 -14.818   1.175  0.00  0.00     0.021 A 
HETATM   16  N   UNK     0      14.775 -15.976   0.667  0.00  0.00    -0.361 N 
HETATM   17  C   UNK     0      14.250 -15.748  -0.538  0.00  0.00     0.022 A 
HETATM   18  C   UNK     0      14.366 -14.373  -0.826  0.00  0.00    -0.027 A 
HETATM   19  C   UNK     0      14.984 -13.802   0.255  0.00  0.00    -0.031 A 
HETATM   20  C   UNK     0      15.273 -12.316   0.375  0.00  0.00     0.051 C 
HETATM   21  C   UNK     0      13.669 -16.716  -1.544  0.00  0.00     0.115 C 
HETATM   22  C   UNK     0      14.282 -18.094  -1.620  0.00  0.00     0.022 A 
HETATM   23  N   UNK     0      15.576 -18.433  -1.548  0.00  0.00    -0.361 N 
HETATM   24  C   UNK     0      15.660 -19.778  -1.512  0.00  0.00     0.021 A 
HETATM   25  C   UNK     0      14.390 -20.319  -1.573  0.00  0.00    -0.031 A 
HETATM   26  C   UNK     0      13.975 -21.775  -1.603  0.00  0.00     0.051 C 
HETATM   27  C   UNK     0      13.491 -19.261  -1.642  0.00  0.00    -0.027 A 
HETATM   28  C   UNK     0      16.908 -20.627  -1.339  0.00  0.00     0.115 C 
HETATM   29  H   UNK     0      18.311 -18.278  -0.246  0.00  0.00     0.165 HD
HETATM   30  H   UNK     0      16.536 -17.481   2.535  0.00  0.00     0.165 HD
HETATM   31  H   UNK     0      14.777 -16.967   1.190  0.00  0.00     0.165 HD
HETATM   32  H   UNK     0      16.445 -17.725  -1.565  0.00  0.00     0.165 HD
ENDROOT
BRANCH   6  33
HETATM   33  C   UNK     0      18.815 -21.436   3.267  0.00  0.00     0.051 C 
BRANCH  33  34
HETATM   34  C   UNK     0      20.255 -21.892   3.254  0.00  0.00     0.114 C 
BRANCH  34  35
HETATM   35  C   UNK     0      20.268 -23.340   3.612  0.00  0.00     0.139 C 
HETATM   36  O   UNK     0      20.544 -23.701   4.792  0.00  0.00    -0.650 OA
BRANCH  35  37
HETATM   37  O   UNK     0      19.982 -24.341   2.692  0.00  0.00    -0.776 OA
HETATM   38  H   UNK     0      20.145 -25.315   2.894  0.00  0.00     0.167 HD
ENDBRANCH  35  37
ENDBRANCH  34  35
ENDBRANCH  33  34
ENDBRANCH   6  33
BRANCH  27  39
HETATM   39  C   UNK     0      12.023 -19.454  -1.792  0.00  0.00     0.051 C 
BRANCH  39  40
HETATM   40  C   UNK     0      11.174 -19.253  -0.619  0.00  0.00     0.114 C 
BRANCH  40  41
HETATM   41  C   UNK     0      11.463 -19.869   0.657  0.00  0.00     0.139 C 
HETATM   42  O   UNK     0      12.338 -19.459   1.431  0.00  0.00    -0.650 OA
BRANCH  41  43
HETATM   43  O   UNK     0      10.711 -21.009   1.060  0.00  0.00    -0.776 OA
HETATM   44  H   UNK     0      11.250 -21.717   1.544  0.00  0.00     0.167 HD
ENDBRANCH  41  43
ENDBRANCH  40  41
ENDBRANCH  39  40
ENDBRANCH  27  39
BRANCH  11  45
HETATM   45  C   UNK     0      18.904 -13.380   2.802  0.00  0.00     0.051 C 
BRANCH  45  46
HETATM   46  C   UNK     0      18.831 -12.657   1.506  0.00  0.00     0.114 C 
BRANCH  46  47
HETATM   47  C   UNK     0      19.670 -11.431   1.637  0.00  0.00     0.139 C 
HETATM   48  O   UNK     0      19.659 -10.818   2.714  0.00  0.00    -0.650 OA
BRANCH  47  49
HETATM   49  O   UNK     0      20.437 -10.989   0.589  0.00  0.00    -0.776 OA
HETATM   50  H   UNK     0      20.126 -11.071  -0.387  0.00  0.00     0.167 HD
ENDBRANCH  47  49
ENDBRANCH  46  47
ENDBRANCH  45  46
ENDBRANCH  11  45
BRANCH  18  51
HETATM   51  C   UNK     0      13.894 -13.641  -2.056  0.00  0.00     0.051 C 
BRANCH  51  52
HETATM   52  C   UNK     0      15.116 -13.473  -2.946  0.00  0.00     0.114 C 
BRANCH  52  53
HETATM   53  C   UNK     0      15.158 -14.484  -4.020  0.00  0.00     0.139 C 
HETATM   54  O   UNK     0      15.918 -15.461  -3.925  0.00  0.00    -0.650 OA
BRANCH  53  55
HETATM   55  O   UNK     0      14.354 -14.336  -5.124  0.00  0.00    -0.776 OA
HETATM   56  H   UNK     0      14.421 -14.853  -5.969  0.00  0.00     0.167 HD
ENDBRANCH  53  55
ENDBRANCH  52  53
ENDBRANCH  51  52
ENDBRANCH  18  51
TORSDOF 16
ENDMDL
MODEL 17
REMARK VINA RESULT:      -8.6     35.379     37.030
REMARK  16 active torsions:
REMARK  status: ('A' for Active; 'I' for Inactive)
REMARK    1  A    between atoms: C_6  and  C_7 
REMARK    2  A    between atoms: C_7  and  C_8 
REMARK    3  A    between atoms: C_8  and  C_9 
REMARK    4  A    between atoms: C_9  and  O_11 
REMARK    5  A    between atoms: C_16  and  C_17 
REMARK    6  A    between atoms: C_17  and  C_18 
REMARK    7  A    between atoms: C_18  and  C_19 
REMARK    8  A    between atoms: C_19  and  O_21 
REMARK    9  A    between atoms: C_28  and  C_29 
REMARK   10  A    between atoms: C_29  and  C_30 
REMARK   11  A    between atoms: C_30  and  C_31 
REMARK   12  A    between atoms: C_31  and  O_33 
REMARK   13  A    between atoms: C_42  and  C_43 
REMARK   14  A    between atoms: C_43  and  C_44 
REMARK   15  A    between atoms: C_44  and  C_45 
REMARK   16  A    between atoms: C_45  and  O_47 
ROOT
HETATM    1  C   UNK     0      14.683 -23.294   1.192  0.00  0.00     0.051 C 
HETATM    2  C   UNK     0      15.597 -22.136   0.844  0.00  0.00    -0.031 A 
HETATM    3  C   UNK     0      15.643 -21.367  -0.307  0.00  0.00     0.021 A 
HETATM    4  N   UNK     0      16.643 -20.461  -0.193  0.00  0.00    -0.361 N 
HETATM    5  C   UNK     0      17.229 -20.630   1.010  0.00  0.00     0.022 A 
HETATM    6  C   UNK     0      16.601 -21.672   1.684  0.00  0.00    -0.027 A 
HETATM    7  C   UNK     0      18.314 -19.830   1.661  0.00  0.00     0.115 C 
HETATM    8  C   UNK     0      18.218 -18.320   1.534  0.00  0.00     0.021 A 
HETATM    9  N   UNK     0      17.119 -17.550   1.528  0.00  0.00    -0.361 N 
HETATM   10  C   UNK     0      17.501 -16.276   1.300  0.00  0.00     0.022 A 
HETATM   11  C   UNK     0      18.885 -16.222   1.164  0.00  0.00    -0.027 A 
HETATM   12  C   UNK     0      19.343 -17.507   1.311  0.00  0.00    -0.031 A 
HETATM   13  C   UNK     0      20.793 -17.931   1.245  0.00  0.00     0.051 C 
HETATM   14  C   UNK     0      16.577 -15.071   1.148  0.00  0.00     0.115 C 
HETATM   15  C   UNK     0      15.603 -15.184  -0.015  0.00  0.00     0.021 A 
HETATM   16  N   UNK     0      14.680 -16.142  -0.223  0.00  0.00    -0.361 N 
HETATM   17  C   UNK     0      14.076 -15.921  -1.392  0.00  0.00     0.022 A 
HETATM   18  C   UNK     0      14.625 -14.759  -1.970  0.00  0.00    -0.027 A 
HETATM   19  C   UNK     0      15.579 -14.306  -1.096  0.00  0.00    -0.031 A 
HETATM   20  C   UNK     0      16.395 -13.046  -1.317  0.00  0.00     0.051 C 
HETATM   21  C   UNK     0      13.027 -16.737  -2.114  0.00  0.00     0.115 C 
HETATM   22  C   UNK     0      13.085 -18.239  -1.960  0.00  0.00     0.022 A 
HETATM   23  N   UNK     0      14.165 -19.031  -1.947  0.00  0.00    -0.361 N 
HETATM   24  C   UNK     0      13.768 -20.283  -1.640  0.00  0.00     0.021 A 
HETATM   25  C   UNK     0      12.398 -20.299  -1.463  0.00  0.00    -0.031 A 
HETATM   26  C   UNK     0      11.491 -21.471  -1.149  0.00  0.00     0.051 C 
HETATM   27  C   UNK     0      11.938 -19.003  -1.663  0.00  0.00    -0.027 A 
HETATM   28  C   UNK     0      14.641 -21.506  -1.418  0.00  0.00     0.115 C 
HETATM   29  H   UNK     0      16.953 -19.734  -0.980  0.00  0.00     0.165 HD
HETATM   30  H   UNK     0      16.076 -17.896   1.735  0.00  0.00     0.165 HD
HETATM   31  H   UNK     0      14.416 -16.964   0.492  0.00  0.00     0.165 HD
HETATM   32  H   UNK     0      15.213 -18.722  -2.196  0.00  0.00     0.165 HD
ENDROOT
BRANCH   6  33
HETATM   33  C   UNK     0      16.881 -22.254   3.046  0.00  0.00     0.051 C 
BRANCH  33  34
HETATM   34  C   UNK     0      17.332 -23.691   2.932  0.00  0.00     0.114 C 
BRANCH  34  35
HETATM   35  C   UNK     0      18.657 -23.690   2.247  0.00  0.00     0.139 C 
HETATM   36  O   UNK     0      18.810 -24.311   1.155  0.00  0.00    -0.650 OA
BRANCH  35  37
HETATM   37  O   UNK     0      19.763 -23.022   2.757  0.00  0.00    -0.776 OA
HETATM   38  H   UNK     0      19.760 -22.028   2.918  0.00  0.00     0.167 HD
ENDBRANCH  35  37
ENDBRANCH  34  35
ENDBRANCH  33  34
ENDBRANCH   6  33
BRANCH  27  39
HETATM   39  C   UNK     0      10.495 -18.640  -1.625  0.00  0.00     0.051 C 
BRANCH  39  40
HETATM   40  C   UNK     0       9.941 -17.881  -2.746  0.00  0.00     0.114 C 
BRANCH  40  41
HETATM   41  C   UNK     0       8.787 -17.022  -2.599  0.00  0.00     0.139 C 
HETATM   42  O   UNK     0       7.925 -17.179  -1.725  0.00  0.00    -0.650 OA
BRANCH  41  43
HETATM   43  O   UNK     0       8.618 -15.933  -3.501  0.00  0.00    -0.776 OA
HETATM   44  H   UNK     0       8.086 -16.157  -4.333  0.00  0.00     0.167 HD
ENDBRANCH  41  43
ENDBRANCH  40  41
ENDBRANCH  39  40
ENDBRANCH  27  39
BRANCH  11  45
HETATM   45  C   UNK     0      19.761 -15.025   0.911  0.00  0.00     0.051 C 
BRANCH  45  46
HETATM   46  C   UNK     0      20.283 -14.383   2.144  0.00  0.00     0.114 C 
BRANCH  46  47
HETATM   47  C   UNK     0      19.448 -13.175   2.401  0.00  0.00     0.139 C 
HETATM   48  O   UNK     0      19.151 -12.899   3.572  0.00  0.00    -0.650 OA
BRANCH  47  49
HETATM   49  O   UNK     0      19.017 -12.386   1.365  0.00  0.00    -0.776 OA
HETATM   50  H   UNK     0      19.038 -12.706   0.390  0.00  0.00     0.167 HD
ENDBRANCH  47  49
ENDBRANCH  46  47
ENDBRANCH  45  46
ENDBRANCH  11  45
BRANCH  18  51
HETATM   51  C   UNK     0      14.245 -14.104  -3.272  0.00  0.00     0.051 C 
BRANCH  51  52
HETATM   52  C   UNK     0      12.800 -13.654  -3.118  0.00  0.00     0.114 C 
BRANCH  52  53
HETATM   53  C   UNK     0      11.985 -14.011  -4.295  0.00  0.00     0.139 C 
HETATM   54  O   UNK     0      10.748 -13.927  -4.243  0.00  0.00    -0.650 OA
BRANCH  53  55
HETATM   55  O   UNK     0      12.603 -14.440  -5.444  0.00  0.00    -0.776 OA
HETATM   56  H   UNK     0      12.412 -15.286  -5.929  0.00  0.00     0.167 HD
ENDBRANCH  53  55
ENDBRANCH  52  53
ENDBRANCH  51  52
ENDBRANCH  18  51
TORSDOF 16
ENDMDL
MODEL 18
REMARK VINA RESULT:      -8.6      2.905      7.370
REMARK  16 active torsions:
REMARK  status: ('A' for Active; 'I' for Inactive)
REMARK    1  A    between atoms: C_6  and  C_7 
REMARK    2  A    between atoms: C_7  and  C_8 
REMARK    3  A    between atoms: C_8  and  C_9 
REMARK    4  A    between atoms: C_9  and  O_11 
REMARK    5  A    between atoms: C_16  and  C_17 
REMARK    6  A    between atoms: C_17  and  C_18 
REMARK    7  A    between atoms: C_18  and  C_19 
REMARK    8  A    between atoms: C_19  and  O_21 
REMARK    9  A    between atoms: C_28  and  C_29 
REMARK   10  A    between atoms: C_29  and  C_30 
REMARK   11  A    between atoms: C_30  and  C_31 
REMARK   12  A    between atoms: C_31  and  O_33 
REMARK   13  A    between atoms: C_42  and  C_43 
REMARK   14  A    between atoms: C_43  and  C_44 
REMARK   15  A    between atoms: C_44  and  C_45 
REMARK   16  A    between atoms: C_45  and  O_47 
ROOT
HETATM    1  C   UNK     0       2.033  -7.927  30.758  0.00  0.00     0.051 C 
HETATM    2  C   UNK     0       0.625  -7.400  30.572  0.00  0.00    -0.031 A 
HETATM    3  C   UNK     0       0.131  -6.121  30.776  0.00  0.00     0.021 A 
HETATM    4  N   UNK     0      -1.198  -6.115  30.514  0.00  0.00    -0.361 N 
HETATM    5  C   UNK     0      -1.559  -7.360  30.140  0.00  0.00     0.022 A 
HETATM    6  C   UNK     0      -0.444  -8.189  30.168  0.00  0.00    -0.027 A 
HETATM    7  C   UNK     0      -2.885  -7.862  29.658  0.00  0.00     0.115 C 
HETATM    8  C   UNK     0      -3.634  -6.976  28.678  0.00  0.00     0.021 A 
HETATM    9  N   UNK     0      -3.136  -6.199  27.703  0.00  0.00    -0.361 N 
HETATM   10  C   UNK     0      -4.160  -5.520  27.144  0.00  0.00     0.022 A 
HETATM   11  C   UNK     0      -5.351  -5.876  27.770  0.00  0.00    -0.027 A 
HETATM   12  C   UNK     0      -5.027  -6.793  28.737  0.00  0.00    -0.031 A 
HETATM   13  C   UNK     0      -6.010  -7.465  29.669  0.00  0.00     0.051 C 
HETATM   14  C   UNK     0      -4.050  -4.473  26.039  0.00  0.00     0.115 C 
HETATM   15  C   UNK     0      -3.210  -3.264  26.418  0.00  0.00     0.021 A 
HETATM   16  N   UNK     0      -1.920  -3.249  26.803  0.00  0.00    -0.361 N 
HETATM   17  C   UNK     0      -1.571  -1.999  27.115  0.00  0.00     0.022 A 
HETATM   18  C   UNK     0      -2.683  -1.158  26.914  0.00  0.00    -0.027 A 
HETATM   19  C   UNK     0      -3.703  -1.963  26.476  0.00  0.00    -0.031 A 
HETATM   20  C   UNK     0      -5.082  -1.450  26.103  0.00  0.00     0.051 C 
HETATM   21  C   UNK     0      -0.269  -1.462  27.666  0.00  0.00     0.115 C 
HETATM   22  C   UNK     0       0.509  -2.351  28.608  0.00  0.00     0.022 A 
HETATM   23  N   UNK     0       0.039  -3.138  29.585  0.00  0.00    -0.361 N 
HETATM   24  C   UNK     0       1.065  -3.863  30.075  0.00  0.00     0.021 A 
HETATM   25  C   UNK     0       2.226  -3.526  29.405  0.00  0.00    -0.031 A 
HETATM   26  C   UNK     0       3.635  -4.037  29.624  0.00  0.00     0.051 C 
HETATM   27  C   UNK     0       1.895  -2.560  28.461  0.00  0.00    -0.027 A 
HETATM   28  C   UNK     0       1.011  -4.956  31.128  0.00  0.00     0.115 C 
HETATM   29  H   UNK     0      -1.879  -5.240  30.634  0.00  0.00     0.165 HD
HETATM   30  H   UNK     0      -2.068  -6.165  27.374  0.00  0.00     0.165 HD
HETATM   31  H   UNK     0      -1.227  -4.130  26.811  0.00  0.00     0.165 HD
HETATM   32  H   UNK     0      -1.014  -3.158  29.967  0.00  0.00     0.165 HD
ENDROOT
BRANCH   6  33
HETATM   33  C   UNK     0      -0.318  -9.657  29.846  0.00  0.00     0.051 C 
BRANCH  33  34
HETATM   34  C   UNK     0      -0.618 -10.499  31.064  0.00  0.00     0.114 C 
BRANCH  34  35
HETATM   35  C   UNK     0       0.021 -11.830  30.854  0.00  0.00     0.139 C 
HETATM   36  O   UNK     0      -0.112 -12.434  29.750  0.00  0.00    -0.650 OA
BRANCH  35  37
HETATM   37  O   UNK     0       0.779 -12.460  31.834  0.00  0.00    -0.776 OA
HETATM   38  H   UNK     0       1.710 -12.799  31.654  0.00  0.00     0.167 HD
ENDBRANCH  35  37
ENDBRANCH  34  35
ENDBRANCH  33  34
ENDBRANCH   6  33
BRANCH  27  39
HETATM   39  C   UNK     0       2.905  -1.899  27.590  0.00  0.00     0.051 C 
BRANCH  39  40
HETATM   40  C   UNK     0       3.523  -0.661  28.062  0.00  0.00     0.114 C 
BRANCH  40  41
HETATM   41  C   UNK     0       2.746   0.513  28.390  0.00  0.00     0.139 C 
HETATM   42  O   UNK     0       2.511   0.875  29.551  0.00  0.00    -0.650 OA
BRANCH  41  43
HETATM   43  O   UNK     0       2.214   1.307  27.335  0.00  0.00    -0.776 OA
HETATM   44  H   UNK     0       1.323   1.741  27.545  0.00  0.00     0.167 HD
ENDBRANCH  41  43
ENDBRANCH  40  41
ENDBRANCH  39  40
ENDBRANCH  27  39
BRANCH  11  45
HETATM   45  C   UNK     0      -6.746  -5.390  27.484  0.00  0.00     0.051 C 
BRANCH  45  46
HETATM   46  C   UNK     0      -7.475  -6.197  26.472  0.00  0.00     0.114 C 
BRANCH  46  47
HETATM   47  C   UNK     0      -8.665  -5.404  26.048  0.00  0.00     0.139 C 
HETATM   48  O   UNK     0      -9.587  -5.989  25.463  0.00  0.00    -0.650 OA
BRANCH  47  49
HETATM   49  O   UNK     0      -8.738  -4.058  26.300  0.00  0.00    -0.776 OA
HETATM   50  H   UNK     0      -7.939  -3.527  26.666  0.00  0.00     0.167 HD
ENDBRANCH  47  49
ENDBRANCH  46  47
ENDBRANCH  45  46
ENDBRANCH  11  45
BRANCH  18  51
HETATM   51  C   UNK     0      -2.764   0.334  27.108  0.00  0.00     0.051 C 
BRANCH  51  52
HETATM   52  C   UNK     0      -2.175   0.617  28.482  0.00  0.00     0.114 C 
BRANCH  52  53
HETATM   53  C   UNK     0      -1.473   1.915  28.522  0.00  0.00     0.139 C 
HETATM   54  O   UNK     0      -2.007   2.925  28.037  0.00  0.00    -0.650 OA
BRANCH  53  55
HETATM   55  O   UNK     0      -0.227   1.996  29.095  0.00  0.00    -0.776 OA
HETATM   56  H   UNK     0       0.469   1.288  29.082  0.00  0.00     0.167 HD
ENDBRANCH  53  55
ENDBRANCH  52  53
ENDBRANCH  51  52
ENDBRANCH  18  51
TORSDOF 16
ENDMDL
MODEL 19
REMARK VINA RESULT:      -8.5      5.101     11.166
REMARK  16 active torsions:
REMARK  status: ('A' for Active; 'I' for Inactive)
REMARK    1  A    between atoms: C_6  and  C_7 
REMARK    2  A    between atoms: C_7  and  C_8 
REMARK    3  A    between atoms: C_8  and  C_9 
REMARK    4  A    between atoms: C_9  and  O_11 
REMARK    5  A    between atoms: C_16  and  C_17 
REMARK    6  A    between atoms: C_17  and  C_18 
REMARK    7  A    between atoms: C_18  and  C_19 
REMARK    8  A    between atoms: C_19  and  O_21 
REMARK    9  A    between atoms: C_28  and  C_29 
REMARK   10  A    between atoms: C_29  and  C_30 
REMARK   11  A    between atoms: C_30  and  C_31 
REMARK   12  A    between atoms: C_31  and  O_33 
REMARK   13  A    between atoms: C_42  and  C_43 
REMARK   14  A    between atoms: C_43  and  C_44 
REMARK   15  A    between atoms: C_44  and  C_45 
REMARK   16  A    between atoms: C_45  and  O_47 
ROOT
HETATM    1  C   UNK     0       0.599  -6.183  30.597  0.00  0.00     0.051 C 
HETATM    2  C   UNK     0      -0.501  -6.197  29.555  0.00  0.00    -0.031 A 
HETATM    3  C   UNK     0      -0.727  -7.099  28.527  0.00  0.00     0.021 A 
HETATM    4  N   UNK     0      -1.811  -6.700  27.821  0.00  0.00    -0.361 N 
HETATM    5  C   UNK     0      -2.286  -5.568  28.382  0.00  0.00     0.022 A 
HETATM    6  C   UNK     0      -1.488  -5.224  29.468  0.00  0.00    -0.027 A 
HETATM    7  C   UNK     0      -3.513  -4.781  28.044  0.00  0.00     0.115 C 
HETATM    8  C   UNK     0      -4.773  -5.575  27.750  0.00  0.00     0.021 A 
HETATM    9  N   UNK     0      -5.190  -6.720  28.312  0.00  0.00    -0.361 N 
HETATM   10  C   UNK     0      -6.315  -7.113  27.677  0.00  0.00     0.022 A 
HETATM   11  C   UNK     0      -6.637  -6.191  26.686  0.00  0.00    -0.027 A 
HETATM   12  C   UNK     0      -5.670  -5.219  26.726  0.00  0.00    -0.031 A 
HETATM   13  C   UNK     0      -5.613  -4.005  25.827  0.00  0.00     0.051 C 
HETATM   14  C   UNK     0      -7.099  -8.395  27.944  0.00  0.00     0.115 C 
HETATM   15  C   UNK     0      -6.299  -9.666  27.708  0.00  0.00     0.021 A 
HETATM   16  N   UNK     0      -5.149 -10.035  28.303  0.00  0.00    -0.361 N 
HETATM   17  C   UNK     0      -4.729 -11.185  27.770  0.00  0.00     0.022 A 
HETATM   18  C   UNK     0      -5.654 -11.589  26.787  0.00  0.00    -0.027 A 
HETATM   19  C   UNK     0      -6.633 -10.630  26.759  0.00  0.00    -0.031 A 
HETATM   20  C   UNK     0      -7.852 -10.695  25.856  0.00  0.00     0.051 C 
HETATM   21  C   UNK     0      -3.468 -11.975  28.036  0.00  0.00     0.115 C 
HETATM   22  C   UNK     0      -2.216 -11.199  28.373  0.00  0.00     0.022 A 
HETATM   23  N   UNK     0      -1.778 -10.055  27.833  0.00  0.00    -0.361 N 
HETATM   24  C   UNK     0      -0.701  -9.641  28.531  0.00  0.00     0.021 A 
HETATM   25  C   UNK     0      -0.433 -10.547  29.539  0.00  0.00    -0.031 A 
HETATM   26  C   UNK     0       0.691 -10.539  30.554  0.00  0.00     0.051 C 
HETATM   27  C   UNK     0      -1.389 -11.553  29.458  0.00  0.00    -0.027 A 
HETATM   28  C   UNK     0       0.083  -8.353  28.354  0.00  0.00     0.115 C 
HETATM   29  H   UNK     0      -2.210  -7.198  26.907  0.00  0.00     0.165 HD
HETATM   30  H   UNK     0      -4.721  -7.227  29.190  0.00  0.00     0.165 HD
HETATM   31  H   UNK     0      -4.648  -9.499  29.151  0.00  0.00     0.165 HD
HETATM   32  H   UNK     0      -2.200  -9.549  26.925  0.00  0.00     0.165 HD
ENDROOT
BRANCH   6  33
HETATM   33  C   UNK     0      -1.589  -4.055  30.414  0.00  0.00     0.051 C 
BRANCH  33  34
HETATM   34  C   UNK     0      -2.564  -4.352  31.529  0.00  0.00     0.114 C 
BRANCH  34  35
HETATM   35  C   UNK     0      -1.790  -4.381  32.803  0.00  0.00     0.139 C 
HETATM   36  O   UNK     0      -1.422  -5.485  33.300  0.00  0.00    -0.650 OA
BRANCH  35  37
HETATM   37  O   UNK     0      -1.440  -3.227  33.493  0.00  0.00    -0.776 OA
HETATM   38  H   UNK     0      -1.513  -3.161  34.496  0.00  0.00     0.167 HD
ENDBRANCH  35  37
ENDBRANCH  34  35
ENDBRANCH  33  34
ENDBRANCH   6  33
BRANCH  27  39
HETATM   39  C   UNK     0      -1.382 -12.751  30.342  0.00  0.00     0.051 C 
BRANCH  39  40
HETATM   40  C   UNK     0      -0.968 -14.032  29.772  0.00  0.00     0.114 C 
BRANCH  40  41
HETATM   41  C   UNK     0      -0.041 -14.912  30.446  0.00  0.00     0.139 C 
HETATM   42  O   UNK     0       0.060 -14.984  31.679  0.00  0.00    -0.650 OA
BRANCH  41  43
HETATM   43  O   UNK     0       0.810 -15.748  29.668  0.00  0.00    -0.776 OA
HETATM   44  H   UNK     0       1.536 -16.215  30.197  0.00  0.00     0.167 HD
ENDBRANCH  41  43
ENDBRANCH  40  41
ENDBRANCH  39  40
ENDBRANCH  27  39
BRANCH  11  45
HETATM   45  C   UNK     0      -7.801  -6.202  25.731  0.00  0.00     0.051 C 
BRANCH  45  46
HETATM   46  C   UNK     0      -9.030  -5.564  26.267  0.00  0.00     0.114 C 
BRANCH  46  47
HETATM   47  C   UNK     0     -10.113  -6.588  26.226  0.00  0.00     0.139 C 
HETATM   48  O   UNK     0      -9.817  -7.750  25.917  0.00  0.00    -0.650 OA
BRANCH  47  49
HETATM   49  O   UNK     0     -11.410  -6.251  26.522  0.00  0.00    -0.776 OA
HETATM   50  H   UNK     0     -12.184  -6.442  25.875  0.00  0.00     0.167 HD
ENDBRANCH  47  49
ENDBRANCH  46  47
ENDBRANCH  45  46
ENDBRANCH  11  45
BRANCH  18  51
HETATM   51  C   UNK     0      -5.617 -12.831  25.936  0.00  0.00     0.051 C 
BRANCH  51  52
HETATM   52  C   UNK     0      -4.977 -12.426  24.617  0.00  0.00     0.114 C 
BRANCH  52  53
HETATM   53  C   UNK     0      -3.519 -12.655  24.620  0.00  0.00     0.139 C 
HETATM   54  O   UNK     0      -2.762 -11.852  24.052  0.00  0.00    -0.650 OA
BRANCH  53  55
HETATM   55  O   UNK     0      -3.007 -13.763  25.252  0.00  0.00    -0.776 OA
HETATM   56  H   UNK     0      -3.022 -13.937  26.229  0.00  0.00     0.167 HD
ENDBRANCH  53  55
ENDBRANCH  52  53
ENDBRANCH  51  52
ENDBRANCH  18  51
TORSDOF 16
ENDMDL
MODEL 20
REMARK VINA RESULT:      -8.5      5.071      9.706
REMARK  16 active torsions:
REMARK  status: ('A' for Active; 'I' for Inactive)
REMARK    1  A    between atoms: C_6  and  C_7 
REMARK    2  A    between atoms: C_7  and  C_8 
REMARK    3  A    between atoms: C_8  and  C_9 
REMARK    4  A    between atoms: C_9  and  O_11 
REMARK    5  A    between atoms: C_16  and  C_17 
REMARK    6  A    between atoms: C_17  and  C_18 
REMARK    7  A    between atoms: C_18  and  C_19 
REMARK    8  A    between atoms: C_19  and  O_21 
REMARK    9  A    between atoms: C_28  and  C_29 
REMARK   10  A    between atoms: C_29  and  C_30 
REMARK   11  A    between atoms: C_30  and  C_31 
REMARK   12  A    between atoms: C_31  and  O_33 
REMARK   13  A    between atoms: C_42  and  C_43 
REMARK   14  A    between atoms: C_43  and  C_44 
REMARK   15  A    between atoms: C_44  and  C_45 
REMARK   16  A    between atoms: C_45  and  O_47 
ROOT
HETATM    1  C   UNK     0      -0.339  -4.996  30.946  0.00  0.00     0.051 C 
HETATM    2  C   UNK     0      -0.851  -6.413  31.100  0.00  0.00    -0.031 A 
HETATM    3  C   UNK     0      -2.154  -6.870  31.221  0.00  0.00     0.021 A 
HETATM    4  N   UNK     0      -2.138  -8.216  31.369  0.00  0.00    -0.361 N 
HETATM    5  C   UNK     0      -0.854  -8.628  31.336  0.00  0.00     0.022 A 
HETATM    6  C   UNK     0      -0.022  -7.525  31.172  0.00  0.00    -0.027 A 
HETATM    7  C   UNK     0      -0.299 -10.018  31.363  0.00  0.00     0.115 C 
HETATM    8  C   UNK     0      -1.015 -11.054  30.514  0.00  0.00     0.021 A 
HETATM    9  N   UNK     0      -1.603 -10.894  29.319  0.00  0.00    -0.361 N 
HETATM   10  C   UNK     0      -2.193 -12.060  28.982  0.00  0.00     0.022 A 
HETATM   11  C   UNK     0      -1.971 -13.000  29.984  0.00  0.00    -0.027 A 
HETATM   12  C   UNK     0      -1.229 -12.373  30.952  0.00  0.00    -0.031 A 
HETATM   13  C   UNK     0      -0.745 -13.013  32.234  0.00  0.00     0.051 C 
HETATM   14  C   UNK     0      -3.031 -12.319  27.733  0.00  0.00     0.115 C 
HETATM   15  C   UNK     0      -4.273 -11.447  27.634  0.00  0.00     0.021 A 
HETATM   16  N   UNK     0      -4.332 -10.103  27.610  0.00  0.00    -0.361 N 
HETATM   17  C   UNK     0      -5.611  -9.721  27.587  0.00  0.00     0.022 A 
HETATM   18  C   UNK     0      -6.424 -10.872  27.586  0.00  0.00    -0.027 A 
HETATM   19  C   UNK     0      -5.573 -11.947  27.614  0.00  0.00    -0.031 A 
HETATM   20  C   UNK     0      -6.038 -13.391  27.586  0.00  0.00     0.051 C 
HETATM   21  C   UNK     0      -6.212  -8.334  27.627  0.00  0.00     0.115 C 
HETATM   22  C   UNK     0      -5.486  -7.282  28.431  0.00  0.00     0.022 A 
HETATM   23  N   UNK     0      -4.888  -7.414  29.622  0.00  0.00    -0.361 N 
HETATM   24  C   UNK     0      -4.241  -6.264  29.901  0.00  0.00     0.021 A 
HETATM   25  C   UNK     0      -4.437  -5.366  28.870  0.00  0.00    -0.031 A 
HETATM   26  C   UNK     0      -3.947  -3.938  28.743  0.00  0.00     0.051 C 
HETATM   27  C   UNK     0      -5.231  -5.994  27.917  0.00  0.00    -0.027 A 
HETATM   28  C   UNK     0      -3.347  -5.966  31.093  0.00  0.00     0.115 C 
HETATM   29  H   UNK     0      -3.031  -8.861  31.535  0.00  0.00     0.165 HD
HETATM   30  H   UNK     0      -1.561  -9.973  28.686  0.00  0.00     0.165 HD
HETATM   31  H   UNK     0      -3.453  -9.408  27.561  0.00  0.00     0.165 HD
HETATM   32  H   UNK     0      -4.952  -8.306  30.298  0.00  0.00     0.165 HD
ENDROOT
BRANCH   6  33
HETATM   33  C   UNK     0       1.481  -7.449  31.082  0.00  0.00     0.051 C 
BRANCH  33  34
HETATM   34  C   UNK     0       1.941  -7.616  29.653  0.00  0.00     0.114 C 
BRANCH  34  35
HETATM   35  C   UNK     0       3.204  -6.838  29.497  0.00  0.00     0.139 C 
HETATM   36  O   UNK     0       3.165  -5.627  29.132  0.00  0.00    -0.650 OA
BRANCH  35  37
HETATM   37  O   UNK     0       4.457  -7.387  29.740  0.00  0.00    -0.776 OA
HETATM   38  H   UNK     0       5.271  -7.115  29.213  0.00  0.00     0.167 HD
ENDBRANCH  35  37
ENDBRANCH  34  35
ENDBRANCH  33  34
ENDBRANCH   6  33
BRANCH  27  39
HETATM   39  C   UNK     0      -5.714  -5.311  26.687  0.00  0.00     0.051 C 
BRANCH  39  40
HETATM   40  C   UNK     0      -7.029  -4.671  26.719  0.00  0.00     0.114 C 
BRANCH  40  41
HETATM   41  C   UNK     0      -7.234  -3.309  26.279  0.00  0.00     0.139 C 
HETATM   42  O   UNK     0      -6.481  -2.726  25.487  0.00  0.00    -0.650 OA
BRANCH  41  43
HETATM   43  O   UNK     0      -8.355  -2.584  26.773  0.00  0.00    -0.776 OA
HETATM   44  H   UNK     0      -9.162  -3.157  26.988  0.00  0.00     0.167 HD
ENDBRANCH  41  43
ENDBRANCH  40  41
ENDBRANCH  39  40
ENDBRANCH  27  39
BRANCH  11  45
HETATM   45  C   UNK     0      -2.425 -14.434  30.048  0.00  0.00     0.051 C 
BRANCH  45  46
HETATM   46  C   UNK     0      -1.600 -15.367  29.239  0.00  0.00     0.114 C 
BRANCH  46  47
HETATM   47  C   UNK     0      -1.185 -16.482  30.138  0.00  0.00     0.139 C 
HETATM   48  O   UNK     0      -1.646 -17.613  29.931  0.00  0.00    -0.650 OA
BRANCH  47  49
HETATM   49  O   UNK     0      -0.312 -16.261  31.174  0.00  0.00    -0.776 OA
HETATM   50  H   UNK     0      -0.636 -16.066  32.128  0.00  0.00     0.167 HD
ENDBRANCH  47  49
ENDBRANCH  46  47
ENDBRANCH  45  46
ENDBRANCH  11  45
BRANCH  18  51
HETATM   51  C   UNK     0      -7.928 -10.944  27.539  0.00  0.00     0.051 C 
BRANCH  51  52
HETATM   52  C   UNK     0      -8.316 -10.788  26.076  0.00  0.00     0.114 C 
BRANCH  52  53
HETATM   53  C   UNK     0      -9.598 -10.073  25.921  0.00  0.00     0.139 C 
HETATM   54  O   UNK     0      -9.622  -8.832  25.931  0.00  0.00    -0.650 OA
BRANCH  53  55
HETATM   55  O   UNK     0     -10.761 -10.788  25.769  0.00  0.00    -0.776 OA
HETATM   56  H   UNK     0     -11.034 -11.294  24.960  0.00  0.00     0.167 HD
ENDBRANCH  53  55
ENDBRANCH  52  53
ENDBRANCH  51  52
ENDBRANCH  18  51
TORSDOF 16
ENDMDL
