MODEL 1
REMARK VINA RESULT:     -10.2      0.000      0.000
REMARK  28 active torsions:
REMARK  status: ('A' for Active; 'I' for Inactive)
REMARK    1  A    between atoms: C_2  and  O_3 
REMARK    2  A    between atoms: C_2  and  C_4 
REMARK    3  A    between atoms: C_4  and  C_5 
REMARK    4  A    between atoms: C_5  and  C_6 
REMARK    5  A    between atoms: C_7  and  C_8 
REMARK    6  A    between atoms: C_8  and  C_9 
REMARK    7  A    between atoms: C_9  and  O_11 
REMARK    8  A    between atoms: C_28  and  C_29 
REMARK    9  A    between atoms: C_29  and  C_30 
REMARK   10  A    between atoms: C_30  and  O_32 
REMARK   11  A    between atoms: C_33  and  C_34 
REMARK   12  A    between atoms: C_34  and  C_35 
REMARK   13  A    between atoms: C_35  and  C_36 
REMARK   14  A    between atoms: C_36  and  O_38 
REMARK   15  A    between atoms: C_39  and  C_40 
REMARK   16  A    between atoms: C_40  and  C_41 
REMARK   17  A    between atoms: C_41  and  C_42 
REMARK   18  A    between atoms: C_42  and  O_44 
REMARK   19  A    between atoms: C_45  and  C_46 
REMARK   20  A    between atoms: C_46  and  C_47 
REMARK   21  A    between atoms: C_47  and  O_49 
REMARK   22  A    between atoms: C_50  and  C_51 
REMARK   23  A    between atoms: C_51  and  C_52 
REMARK   24  A    between atoms: C_52  and  O_54 
REMARK   25  A    between atoms: C_55  and  C_56 
REMARK   26  A    between atoms: C_56  and  C_57 
REMARK   27  A    between atoms: C_57  and  C_58 
REMARK   28  A    between atoms: C_58  and  O_60 
ROOT
ATOM      1  O   UNK d   0      14.860  13.345 -12.343  0.00  0.00    -0.650 OA
ATOM      2  C   UNK d   0      14.001  14.094 -11.828  0.00  0.00     0.139 C 
ENDROOT
BRANCH   2   3
ATOM      3  O   UNK d   0      13.554  15.189 -12.529  0.00  0.00    -0.776 OA
ATOM      4  H   UNK d   0      14.060  16.076 -12.499  0.00  0.00     0.167 HD
ENDBRANCH   2   3
BRANCH   2   5
ATOM      5  C   UNK d   0      13.470  13.800 -10.466  0.00  0.00     0.115 C 
BRANCH   5   6
ATOM      6  C   UNK d   0      14.561  13.952  -9.442  0.00  0.00     0.052 C 
BRANCH   6   7
ATOM      7  C   UNK d   0      14.634  12.780  -8.492  0.00  0.00    -0.020 A 
ATOM      8  C   UNK d   0      14.327  12.763  -7.220  0.00  0.00    -0.011 A 
ATOM      9  C   UNK d   0      14.565  11.418  -6.723  0.00  0.00     0.067 A 
ATOM     10  C   UNK d   0      14.420  10.752  -5.496  0.00  0.00     0.062 C 
ATOM     11  N   UNK d   0      15.022  10.683  -7.758  0.00  0.00    -0.248 NA
ATOM     12  C   UNK d   0      14.439   9.371  -5.274  0.00  0.00     0.041 A 
ATOM     13  N   UNK d   0      15.237   8.405  -5.768  0.00  0.00    -0.355 N 
ATOM     14  C   UNK d   0      13.455   8.801  -4.447  0.00  0.00    -0.022 A 
ATOM     15  C   UNK d   0      14.779   7.236  -5.281  0.00  0.00     0.042 A 
ATOM     16  H   UNK d   0      16.118   8.548  -6.431  0.00  0.00     0.166 HD
ATOM     17  C   UNK d   0      15.244   5.920  -5.478  0.00  0.00     0.062 C 
ATOM     18  C   UNK d   0      13.662   7.444  -4.449  0.00  0.00    -0.013 A 
ATOM     19  C   UNK d   0      15.627   5.306  -6.642  0.00  0.00     0.067 A 
ATOM     20  N   UNK d   0      15.778   6.086  -7.716  0.00  0.00    -0.248 NA
ATOM     21  C   UNK d   0      15.920   3.944  -7.058  0.00  0.00    -0.011 A 
ATOM     22  C   UNK d   0      16.147   5.333  -8.804  0.00  0.00     0.066 A 
ATOM     23  C   UNK d   0      16.375   6.025  -9.984  0.00  0.00     0.062 C 
ATOM     24  C   UNK d   0      16.219   3.966  -8.325  0.00  0.00    -0.020 A 
ATOM     25  C   UNK d   0      16.364   7.414 -10.182  0.00  0.00     0.041 A 
ATOM     26  N   UNK d   0      15.562   8.373  -9.704  0.00  0.00    -0.355 N 
ATOM     27  C   UNK d   0      17.355   7.986 -11.009  0.00  0.00    -0.022 A 
ATOM     28  C   UNK d   0      16.011   9.539 -10.195  0.00  0.00     0.042 A 
ATOM     29  H   UNK d   0      14.670   8.226  -9.046  0.00  0.00     0.166 HD
ATOM     30  C   UNK d   0      15.553  10.853 -10.015  0.00  0.00     0.062 C 
ATOM     31  C   UNK d   0      17.140   9.330 -11.022  0.00  0.00    -0.013 A 
ATOM     32  C   UNK d   0      15.086  11.444  -8.852  0.00  0.00     0.066 A 
BRANCH   8  33
ATOM     33  C   UNK d   0      13.831  13.894  -6.414  0.00  0.00     0.151 C 
BRANCH  33  34
ATOM     34  C   UNK d   0      14.832  14.965  -6.258  0.00  0.00     0.143 C 
ATOM     35  O   UNK d   0      14.484  16.135  -6.043  0.00  0.00    -0.650 OA
BRANCH  34  36
ATOM     36  O   UNK d   0      16.170  14.659  -6.356  0.00  0.00    -0.776 OA
ATOM     37  H   UNK d   0      16.885  15.240  -5.897  0.00  0.00     0.167 HD
ENDBRANCH  34  36
ENDBRANCH  33  34
ENDBRANCH   8  33
BRANCH  31  38
ATOM     38  C   UNK d   0      17.962  10.357 -11.764  0.00  0.00     0.151 C 
BRANCH  38  39
ATOM     39  C   UNK d   0      19.135  10.778 -11.026  0.00  0.00     0.143 C 
ATOM     40  O   UNK d   0      19.654  10.071 -10.144  0.00  0.00    -0.650 OA
BRANCH  39  41
ATOM     41  O   UNK d   0      19.713  12.016 -11.303  0.00  0.00    -0.776 OA
ATOM     42  H   UNK d   0      19.501  12.430 -12.216  0.00  0.00     0.167 HD
ENDBRANCH  39  41
ENDBRANCH  38  39
ENDBRANCH  31  38
BRANCH  27  43
ATOM     43  C   UNK d   0      18.471   7.316 -11.771  0.00  0.00     0.052 C 
BRANCH  43  44
ATOM     44  C   UNK d   0      17.985   6.379 -12.829  0.00  0.00     0.115 C 
BRANCH  44  45
ATOM     45  C   UNK d   0      17.517   7.222 -13.960  0.00  0.00     0.139 C 
ATOM     46  O   UNK d   0      18.381   7.779 -14.680  0.00  0.00    -0.650 OA
BRANCH  45  47
ATOM     47  O   UNK d   0      16.182   7.410 -14.249  0.00  0.00    -0.776 OA
ATOM     48  H   UNK d   0      15.478   7.630 -13.526  0.00  0.00     0.167 HD
ENDBRANCH  45  47
ENDBRANCH  44  45
ENDBRANCH  43  44
ENDBRANCH  27  43
BRANCH  24  49
ATOM     49  C   UNK d   0      16.619   2.808  -9.143  0.00  0.00     0.052 C 
BRANCH  49  50
ATOM     50  C   UNK d   0      17.951   3.066  -9.800  0.00  0.00     0.115 C 
BRANCH  50  51
ATOM     51  C   UNK d   0      18.933   1.991  -9.756  0.00  0.00     0.139 C 
ATOM     52  O   UNK d   0      19.426   1.482 -10.790  0.00  0.00    -0.650 OA
BRANCH  51  53
ATOM     53  O   UNK d   0      19.351   1.493  -8.531  0.00  0.00    -0.776 OA
ATOM     54  H   UNK d   0      20.336   1.361  -8.383  0.00  0.00     0.167 HD
ENDBRANCH  51  53
ENDBRANCH  50  51
ENDBRANCH  49  50
ENDBRANCH  24  49
BRANCH  21  55
ATOM     55  C   UNK d   0      15.874   2.764  -6.145  0.00  0.00     0.151 C 
BRANCH  55  56
ATOM     56  C   UNK d   0      17.024   1.868  -6.344  0.00  0.00     0.143 C 
ATOM     57  O   UNK d   0      18.195   2.204  -6.081  0.00  0.00    -0.650 OA
BRANCH  56  58
ATOM     58  O   UNK d   0      16.773   0.593  -6.848  0.00  0.00    -0.776 OA
ATOM     59  H   UNK d   0      16.596  -0.133  -6.130  0.00  0.00     0.167 HD
ENDBRANCH  56  58
ENDBRANCH  55  56
ENDBRANCH  21  55
BRANCH  18  60
ATOM     60  C   UNK d   0      12.825   6.440  -3.695  0.00  0.00     0.151 C 
BRANCH  60  61
ATOM     61  C   UNK d   0      11.657   6.168  -4.547  0.00  0.00     0.143 C 
ATOM     62  O   UNK d   0      11.644   5.550  -5.612  0.00  0.00    -0.650 OA
BRANCH  61  63
ATOM     63  O   UNK d   0      10.429   6.681  -4.067  0.00  0.00    -0.776 OA
ATOM     64  H   UNK d   0       9.553   6.273  -4.344  0.00  0.00     0.167 HD
ENDBRANCH  61  63
ENDBRANCH  60  61
ENDBRANCH  18  60
BRANCH  14  65
ATOM     65  C   UNK d   0      12.405   9.444  -3.585  0.00  0.00     0.052 C 
BRANCH  65  66
ATOM     66  C   UNK d   0      12.736   9.400  -2.136  0.00  0.00     0.115 C 
BRANCH  66  67
ATOM     67  C   UNK d   0      11.908   8.643  -1.240  0.00  0.00     0.139 C 
ATOM     68  O   UNK d   0      10.684   8.427  -1.570  0.00  0.00    -0.650 OA
BRANCH  67  69
ATOM     69  O   UNK d   0      12.265   8.088  -0.011  0.00  0.00    -0.776 OA
ATOM     70  H   UNK d   0      12.004   8.637   0.821  0.00  0.00     0.167 HD
ENDBRANCH  67  69
ENDBRANCH  66  67
ENDBRANCH  65  66
ENDBRANCH  14  65
ENDBRANCH   6   7
ENDBRANCH   5   6
ENDBRANCH   2   5
TORSDOF 28
ENDMDL
MODEL 2
REMARK VINA RESULT:     -10.2      1.362      1.855
REMARK  28 active torsions:
REMARK  status: ('A' for Active; 'I' for Inactive)
REMARK    1  A    between atoms: C_2  and  O_3 
REMARK    2  A    between atoms: C_2  and  C_4 
REMARK    3  A    between atoms: C_4  and  C_5 
REMARK    4  A    between atoms: C_5  and  C_6 
REMARK    5  A    between atoms: C_7  and  C_8 
REMARK    6  A    between atoms: C_8  and  C_9 
REMARK    7  A    between atoms: C_9  and  O_11 
REMARK    8  A    between atoms: C_28  and  C_29 
REMARK    9  A    between atoms: C_29  and  C_30 
REMARK   10  A    between atoms: C_30  and  O_32 
REMARK   11  A    between atoms: C_33  and  C_34 
REMARK   12  A    between atoms: C_34  and  C_35 
REMARK   13  A    between atoms: C_35  and  C_36 
REMARK   14  A    between atoms: C_36  and  O_38 
REMARK   15  A    between atoms: C_39  and  C_40 
REMARK   16  A    between atoms: C_40  and  C_41 
REMARK   17  A    between atoms: C_41  and  C_42 
REMARK   18  A    between atoms: C_42  and  O_44 
REMARK   19  A    between atoms: C_45  and  C_46 
REMARK   20  A    between atoms: C_46  and  C_47 
REMARK   21  A    between atoms: C_47  and  O_49 
REMARK   22  A    between atoms: C_50  and  C_51 
REMARK   23  A    between atoms: C_51  and  C_52 
REMARK   24  A    between atoms: C_52  and  O_54 
REMARK   25  A    between atoms: C_55  and  C_56 
REMARK   26  A    between atoms: C_56  and  C_57 
REMARK   27  A    between atoms: C_57  and  C_58 
REMARK   28  A    between atoms: C_58  and  O_60 
ROOT
ATOM      1  O   UNK d   0      16.038  14.498 -12.262  0.00  0.00    -0.650 OA
ATOM      2  C   UNK d   0      16.659  14.377 -11.182  0.00  0.00     0.139 C 
ENDROOT
BRANCH   2   3
ATOM      3  O   UNK d   0      18.005  14.105 -11.206  0.00  0.00    -0.776 OA
ATOM      4  H   UNK d   0      18.670  14.688 -10.693  0.00  0.00     0.167 HD
ENDBRANCH   2   3
BRANCH   2   5
ATOM      5  C   UNK d   0      15.940  14.527  -9.885  0.00  0.00     0.115 C 
BRANCH   5   6
ATOM      6  C   UNK d   0      14.672  13.717  -9.900  0.00  0.00     0.052 C 
BRANCH   6   7
ATOM      7  C   UNK d   0      14.718  12.548  -8.945  0.00  0.00    -0.020 A 
ATOM      8  C   UNK d   0      14.324  12.520  -7.698  0.00  0.00    -0.011 A 
ATOM      9  C   UNK d   0      14.572  11.184  -7.182  0.00  0.00     0.067 A 
ATOM     10  C   UNK d   0      14.366  10.513  -5.967  0.00  0.00     0.062 C 
ATOM     11  N   UNK d   0      15.125  10.466  -8.182  0.00  0.00    -0.248 NA
ATOM     12  C   UNK d   0      14.416   9.133  -5.742  0.00  0.00     0.041 A 
ATOM     13  N   UNK d   0      15.278   8.195  -6.177  0.00  0.00    -0.355 N 
ATOM     14  C   UNK d   0      13.396   8.529  -4.984  0.00  0.00    -0.022 A 
ATOM     15  C   UNK d   0      14.828   7.011  -5.721  0.00  0.00     0.042 A 
ATOM     16  H   UNK d   0      16.198   8.368  -6.778  0.00  0.00     0.166 HD
ATOM     17  C   UNK d   0      15.349   5.712  -5.883  0.00  0.00     0.062 C 
ATOM     18  C   UNK d   0      13.649   7.180  -4.969  0.00  0.00    -0.013 A 
ATOM     19  C   UNK d   0      15.833   5.111  -7.017  0.00  0.00     0.067 A 
ATOM     20  N   UNK d   0      16.032   5.896  -8.079  0.00  0.00    -0.248 NA
ATOM     21  C   UNK d   0      16.200   3.761  -7.408  0.00  0.00    -0.011 A 
ATOM     22  C   UNK d   0      16.501   5.157  -9.137  0.00  0.00     0.066 A 
ATOM     23  C   UNK d   0      16.787   5.857 -10.299  0.00  0.00     0.062 C 
ATOM     24  C   UNK d   0      16.586   3.793  -8.651  0.00  0.00    -0.020 A 
ATOM     25  C   UNK d   0      16.742   7.245 -10.501  0.00  0.00     0.041 A 
ATOM     26  N   UNK d   0      15.877   8.176 -10.081  0.00  0.00    -0.355 N 
ATOM     27  C   UNK d   0      17.769   7.851 -11.258  0.00  0.00    -0.022 A 
ATOM     28  C   UNK d   0      16.319   9.356 -10.542  0.00  0.00     0.042 A 
ATOM     29  H   UNK d   0      14.947   7.998  -9.486  0.00  0.00     0.166 HD
ATOM     30  C   UNK d   0      15.806  10.655 -10.397  0.00  0.00     0.062 C 
ATOM     31  C   UNK d   0      17.509   9.186 -11.288  0.00  0.00    -0.013 A 
ATOM     32  C   UNK d   0      15.239  11.229  -9.270  0.00  0.00     0.066 A 
BRANCH   8  33
ATOM     33  C   UNK d   0      13.735  13.634  -6.930  0.00  0.00     0.151 C 
BRANCH  33  34
ATOM     34  C   UNK d   0      14.746  14.596  -6.456  0.00  0.00     0.143 C 
ATOM     35  O   UNK d   0      14.429  15.758  -6.161  0.00  0.00    -0.650 OA
BRANCH  34  36
ATOM     36  O   UNK d   0      16.057  14.197  -6.341  0.00  0.00    -0.776 OA
ATOM     37  H   UNK d   0      16.384  13.311  -6.750  0.00  0.00     0.167 HD
ENDBRANCH  34  36
ENDBRANCH  33  34
ENDBRANCH   8  33
BRANCH  31  38
ATOM     38  C   UNK d   0      18.346  10.242 -11.973  0.00  0.00     0.151 C 
BRANCH  38  39
ATOM     39  C   UNK d   0      19.355  10.809 -11.104  0.00  0.00     0.143 C 
ATOM     40  O   UNK d   0      19.700  10.265 -10.041  0.00  0.00    -0.650 OA
BRANCH  39  41
ATOM     41  O   UNK d   0      19.970  12.009 -11.460  0.00  0.00    -0.776 OA
ATOM     42  H   UNK d   0      19.430  12.647 -12.053  0.00  0.00     0.167 HD
ENDBRANCH  39  41
ENDBRANCH  38  39
ENDBRANCH  31  38
BRANCH  27  43
ATOM     43  C   UNK d   0      18.957   7.219 -11.939  0.00  0.00     0.052 C 
BRANCH  43  44
ATOM     44  C   UNK d   0      20.177   7.175 -11.078  0.00  0.00     0.115 C 
BRANCH  44  45
ATOM     45  C   UNK d   0      20.778   5.828 -11.261  0.00  0.00     0.139 C 
ATOM     46  O   UNK d   0      20.248   5.053 -12.095  0.00  0.00    -0.650 OA
BRANCH  45  47
ATOM     47  O   UNK d   0      21.887   5.403 -10.562  0.00  0.00    -0.776 OA
ATOM     48  H   UNK d   0      21.947   4.472 -10.119  0.00  0.00     0.167 HD
ENDBRANCH  45  47
ENDBRANCH  44  45
ENDBRANCH  43  44
ENDBRANCH  27  43
BRANCH  24  49
ATOM     49  C   UNK d   0      17.081   2.650  -9.437  0.00  0.00     0.052 C 
BRANCH  49  50
ATOM     50  C   UNK d   0      18.522   2.864  -9.824  0.00  0.00     0.115 C 
BRANCH  50  51
ATOM     51  C   UNK d   0      19.357   1.678  -9.958  0.00  0.00     0.139 C 
ATOM     52  O   UNK d   0      19.801   1.285 -11.063  0.00  0.00    -0.650 OA
BRANCH  51  53
ATOM     53  O   UNK d   0      19.685   0.938  -8.832  0.00  0.00    -0.776 OA
ATOM     54  H   UNK d   0      19.988  -0.011  -8.959  0.00  0.00     0.167 HD
ENDBRANCH  51  53
ENDBRANCH  50  51
ENDBRANCH  49  50
ENDBRANCH  24  49
BRANCH  21  55
ATOM     55  C   UNK d   0      16.132   2.579  -6.498  0.00  0.00     0.151 C 
BRANCH  55  56
ATOM     56  C   UNK d   0      17.364   1.777  -6.541  0.00  0.00     0.143 C 
ATOM     57  O   UNK d   0      17.365   0.553  -6.776  0.00  0.00    -0.650 OA
BRANCH  56  58
ATOM     58  O   UNK d   0      18.572   2.431  -6.307  0.00  0.00    -0.776 OA
ATOM     59  H   UNK d   0      19.403   1.813  -6.271  0.00  0.00     0.167 HD
ENDBRANCH  56  58
ENDBRANCH  55  56
ENDBRANCH  21  55
BRANCH  18  60
ATOM     60  C   UNK d   0      12.796   6.148  -4.274  0.00  0.00     0.151 C 
BRANCH  60  61
ATOM     61  C   UNK d   0      13.699   5.425  -3.364  0.00  0.00     0.143 C 
ATOM     62  O   UNK d   0      13.864   4.207  -3.296  0.00  0.00    -0.650 OA
BRANCH  61  63
ATOM     63  O   UNK d   0      14.447   6.242  -2.483  0.00  0.00    -0.776 OA
ATOM     64  H   UNK d   0      14.139   7.169  -2.247  0.00  0.00     0.167 HD
ENDBRANCH  61  63
ENDBRANCH  60  61
ENDBRANCH  18  60
BRANCH  14  65
ATOM     65  C   UNK d   0      12.268   9.136  -4.199  0.00  0.00     0.052 C 
BRANCH  65  66
ATOM     66  C   UNK d   0      12.688   9.622  -2.857  0.00  0.00     0.115 C 
BRANCH  66  67
ATOM     67  C   UNK d   0      12.354   8.860  -1.687  0.00  0.00     0.139 C 
ATOM     68  O   UNK d   0      13.309   8.410  -0.953  0.00  0.00    -0.650 OA
BRANCH  67  69
ATOM     69  O   UNK d   0      11.082   8.528  -1.220  0.00  0.00    -0.776 OA
ATOM     70  H   UNK d   0      11.055   7.920  -0.389  0.00  0.00     0.167 HD
ENDBRANCH  67  69
ENDBRANCH  66  67
ENDBRANCH  65  66
ENDBRANCH  14  65
ENDBRANCH   6   7
ENDBRANCH   5   6
ENDBRANCH   2   5
TORSDOF 28
ENDMDL
MODEL 3
REMARK VINA RESULT:      -9.6      1.346      7.572
REMARK  28 active torsions:
REMARK  status: ('A' for Active; 'I' for Inactive)
REMARK    1  A    between atoms: C_2  and  O_3 
REMARK    2  A    between atoms: C_2  and  C_4 
REMARK    3  A    between atoms: C_4  and  C_5 
REMARK    4  A    between atoms: C_5  and  C_6 
REMARK    5  A    between atoms: C_7  and  C_8 
REMARK    6  A    between atoms: C_8  and  C_9 
REMARK    7  A    between atoms: C_9  and  O_11 
REMARK    8  A    between atoms: C_28  and  C_29 
REMARK    9  A    between atoms: C_29  and  C_30 
REMARK   10  A    between atoms: C_30  and  O_32 
REMARK   11  A    between atoms: C_33  and  C_34 
REMARK   12  A    between atoms: C_34  and  C_35 
REMARK   13  A    between atoms: C_35  and  C_36 
REMARK   14  A    between atoms: C_36  and  O_38 
REMARK   15  A    between atoms: C_39  and  C_40 
REMARK   16  A    between atoms: C_40  and  C_41 
REMARK   17  A    between atoms: C_41  and  C_42 
REMARK   18  A    between atoms: C_42  and  O_44 
REMARK   19  A    between atoms: C_45  and  C_46 
REMARK   20  A    between atoms: C_46  and  C_47 
REMARK   21  A    between atoms: C_47  and  O_49 
REMARK   22  A    between atoms: C_50  and  C_51 
REMARK   23  A    between atoms: C_51  and  C_52 
REMARK   24  A    between atoms: C_52  and  O_54 
REMARK   25  A    between atoms: C_55  and  C_56 
REMARK   26  A    between atoms: C_56  and  C_57 
REMARK   27  A    between atoms: C_57  and  C_58 
REMARK   28  A    between atoms: C_58  and  O_60 
ROOT
ATOM      1  O   UNK d   0      13.676  16.276  -7.741  0.00  0.00    -0.650 OA
ATOM      2  C   UNK d   0      14.208  15.956  -6.654  0.00  0.00     0.139 C 
ENDROOT
BRANCH   2   3
ATOM      3  O   UNK d   0      14.172  16.838  -5.601  0.00  0.00    -0.776 OA
ATOM      4  H   UNK d   0      14.734  16.681  -4.762  0.00  0.00     0.167 HD
ENDBRANCH   2   3
BRANCH   2   5
ATOM      5  C   UNK d   0      14.875  14.631  -6.509  0.00  0.00     0.115 C 
BRANCH   5   6
ATOM      6  C   UNK d   0      13.855  13.527  -6.581  0.00  0.00     0.052 C 
BRANCH   6   7
ATOM      7  C   UNK d   0      14.324  12.356  -7.411  0.00  0.00    -0.020 A 
ATOM      8  C   UNK d   0      14.770  12.376  -8.641  0.00  0.00    -0.011 A 
ATOM      9  C   UNK d   0      15.092  11.010  -9.019  0.00  0.00     0.067 A 
ATOM     10  C   UNK d   0      15.615  10.371 -10.154  0.00  0.00     0.062 C 
ATOM     11  N   UNK d   0      14.806  10.223  -7.961  0.00  0.00    -0.248 NA
ATOM     12  C   UNK d   0      16.120   9.068 -10.236  0.00  0.00     0.041 A 
ATOM     13  N   UNK d   0      15.667   7.909  -9.723  0.00  0.00    -0.355 N 
ATOM     14  C   UNK d   0      17.336   8.851 -10.908  0.00  0.00    -0.022 A 
ATOM     15  C   UNK d   0      16.570   6.963 -10.045  0.00  0.00     0.042 A 
ATOM     16  H   UNK d   0      14.720   7.758  -9.161  0.00  0.00     0.166 HD
ATOM     17  C   UNK d   0      16.588   5.583  -9.760  0.00  0.00     0.062 C 
ATOM     18  C   UNK d   0      17.631   7.516 -10.788  0.00  0.00    -0.013 A 
ATOM     19  C   UNK d   0      16.311   4.942  -8.579  0.00  0.00     0.067 A 
ATOM     20  N   UNK d   0      15.761   5.675  -7.608  0.00  0.00    -0.248 NA
ATOM     21  C   UNK d   0      16.477   3.596  -8.057  0.00  0.00    -0.011 A 
ATOM     22  C   UNK d   0      15.557   4.907  -6.488  0.00  0.00     0.066 A 
ATOM     23  C   UNK d   0      14.953   5.537  -5.410  0.00  0.00     0.062 C 
ATOM     24  C   UNK d   0      16.038   3.583  -6.831  0.00  0.00    -0.020 A 
ATOM     25  C   UNK d   0      14.441   6.843  -5.353  0.00  0.00     0.041 A 
ATOM     26  N   UNK d   0      14.898   7.998  -5.850  0.00  0.00    -0.355 N 
ATOM     27  C   UNK d   0      13.217   7.059  -4.682  0.00  0.00    -0.022 A 
ATOM     28  C   UNK d   0      14.004   8.945  -5.523  0.00  0.00     0.042 A 
ATOM     29  H   UNK d   0      15.856   8.150  -6.406  0.00  0.00     0.166 HD
ATOM     30  C   UNK d   0      13.978  10.322  -5.791  0.00  0.00     0.062 C 
ATOM     31  C   UNK d   0      12.933   8.386  -4.785  0.00  0.00    -0.013 A 
ATOM     32  C   UNK d   0      14.341  10.972  -6.961  0.00  0.00     0.066 A 
BRANCH   8  33
ATOM     33  C   UNK d   0      14.921  13.559  -9.508  0.00  0.00     0.151 C 
BRANCH  33  34
ATOM     34  C   UNK d   0      13.757  13.776 -10.385  0.00  0.00     0.143 C 
ATOM     35  O   UNK d   0      13.747  13.346 -11.548  0.00  0.00    -0.650 OA
BRANCH  34  36
ATOM     36  O   UNK d   0      12.668  14.466  -9.905  0.00  0.00    -0.776 OA
ATOM     37  H   UNK d   0      12.468  15.428 -10.211  0.00  0.00     0.167 HD
ENDBRANCH  34  36
ENDBRANCH  33  34
ENDBRANCH   8  33
BRANCH  31  38
ATOM     38  C   UNK d   0      11.713   9.082  -4.229  0.00  0.00     0.151 C 
BRANCH  38  39
ATOM     39  C   UNK d   0      11.864   9.457  -2.840  0.00  0.00     0.143 C 
ATOM     40  O   UNK d   0      12.963   9.779  -2.353  0.00  0.00    -0.650 OA
BRANCH  39  41
ATOM     41  O   UNK d   0      10.747   9.463  -2.005  0.00  0.00    -0.776 OA
ATOM     42  H   UNK d   0      10.237   8.579  -1.910  0.00  0.00     0.167 HD
ENDBRANCH  39  41
ENDBRANCH  38  39
ENDBRANCH  31  38
BRANCH  27  43
ATOM     43  C   UNK d   0      12.332   6.073  -3.962  0.00  0.00     0.052 C 
BRANCH  43  44
ATOM     44  C   UNK d   0      12.645   5.951  -2.506  0.00  0.00     0.115 C 
BRANCH  44  45
ATOM     45  C   UNK d   0      11.343   5.959  -1.789  0.00  0.00     0.139 C 
ATOM     46  O   UNK d   0      10.436   5.195  -2.202  0.00  0.00    -0.650 OA
BRANCH  45  47
ATOM     47  O   UNK d   0      11.097   6.760  -0.695  0.00  0.00    -0.776 OA
ATOM     48  H   UNK d   0      10.514   6.458   0.101  0.00  0.00     0.167 HD
ENDBRANCH  45  47
ENDBRANCH  44  45
ENDBRANCH  43  44
ENDBRANCH  27  43
BRANCH  24  49
ATOM     49  C   UNK d   0      15.983   2.411  -5.941  0.00  0.00     0.052 C 
BRANCH  49  50
ATOM     50  C   UNK d   0      15.368   1.237  -6.657  0.00  0.00     0.115 C 
BRANCH  50  51
ATOM     51  C   UNK d   0      15.403  -0.050  -5.975  0.00  0.00     0.139 C 
ATOM     52  O   UNK d   0      16.205  -0.961  -6.290  0.00  0.00    -0.650 OA
BRANCH  51  53
ATOM     53  O   UNK d   0      14.520  -0.300  -4.936  0.00  0.00    -0.776 OA
ATOM     54  H   UNK d   0      14.778  -0.001  -4.011  0.00  0.00     0.167 HD
ENDBRANCH  51  53
ENDBRANCH  50  51
ENDBRANCH  49  50
ENDBRANCH  24  49
BRANCH  21  55
ATOM     55  C   UNK d   0      17.054   2.463  -8.838  0.00  0.00     0.151 C 
BRANCH  55  56
ATOM     56  C   UNK d   0      18.522   2.422  -8.749  0.00  0.00     0.143 C 
ATOM     57  O   UNK d   0      19.133   1.588  -8.052  0.00  0.00    -0.650 OA
BRANCH  56  58
ATOM     58  O   UNK d   0      19.243   3.363  -9.482  0.00  0.00    -0.776 OA
ATOM     59  H   UNK d   0      19.012   4.350  -9.272  0.00  0.00     0.167 HD
ENDBRANCH  56  58
ENDBRANCH  55  56
ENDBRANCH  21  55
BRANCH  18  60
ATOM     60  C   UNK d   0      18.857   6.846 -11.357  0.00  0.00     0.151 C 
BRANCH  60  61
ATOM     61  C   UNK d   0      18.373   5.950 -12.417  0.00  0.00     0.143 C 
ATOM     62  O   UNK d   0      18.539   4.732 -12.493  0.00  0.00    -0.650 OA
BRANCH  61  63
ATOM     63  O   UNK d   0      17.638   6.581 -13.450  0.00  0.00    -0.776 OA
ATOM     64  H   UNK d   0      17.880   6.445 -14.416  0.00  0.00     0.167 HD
ENDBRANCH  61  63
ENDBRANCH  60  61
ENDBRANCH  18  60
BRANCH  14  65
ATOM     65  C   UNK d   0      18.182   9.781 -11.730  0.00  0.00     0.052 C 
BRANCH  65  66
ATOM     66  C   UNK d   0      19.177  10.533 -10.919  0.00  0.00     0.115 C 
BRANCH  66  67
ATOM     67  C   UNK d   0      20.393   9.890 -10.509  0.00  0.00     0.139 C 
ATOM     68  O   UNK d   0      21.021   9.163 -11.364  0.00  0.00    -0.650 OA
BRANCH  67  69
ATOM     69  O   UNK d   0      21.010   9.949  -9.260  0.00  0.00    -0.776 OA
ATOM     70  H   UNK d   0      21.824   9.329  -9.133  0.00  0.00     0.167 HD
ENDBRANCH  67  69
ENDBRANCH  66  67
ENDBRANCH  65  66
ENDBRANCH  14  65
ENDBRANCH   6   7
ENDBRANCH   5   6
ENDBRANCH   2   5
TORSDOF 28
ENDMDL
MODEL 4
REMARK VINA RESULT:      -9.1      1.666      8.140
REMARK  28 active torsions:
REMARK  status: ('A' for Active; 'I' for Inactive)
REMARK    1  A    between atoms: C_2  and  O_3 
REMARK    2  A    between atoms: C_2  and  C_4 
REMARK    3  A    between atoms: C_4  and  C_5 
REMARK    4  A    between atoms: C_5  and  C_6 
REMARK    5  A    between atoms: C_7  and  C_8 
REMARK    6  A    between atoms: C_8  and  C_9 
REMARK    7  A    between atoms: C_9  and  O_11 
REMARK    8  A    between atoms: C_28  and  C_29 
REMARK    9  A    between atoms: C_29  and  C_30 
REMARK   10  A    between atoms: C_30  and  O_32 
REMARK   11  A    between atoms: C_33  and  C_34 
REMARK   12  A    between atoms: C_34  and  C_35 
REMARK   13  A    between atoms: C_35  and  C_36 
REMARK   14  A    between atoms: C_36  and  O_38 
REMARK   15  A    between atoms: C_39  and  C_40 
REMARK   16  A    between atoms: C_40  and  C_41 
REMARK   17  A    between atoms: C_41  and  C_42 
REMARK   18  A    between atoms: C_42  and  O_44 
REMARK   19  A    between atoms: C_45  and  C_46 
REMARK   20  A    between atoms: C_46  and  C_47 
REMARK   21  A    between atoms: C_47  and  O_49 
REMARK   22  A    between atoms: C_50  and  C_51 
REMARK   23  A    between atoms: C_51  and  C_52 
REMARK   24  A    between atoms: C_52  and  O_54 
REMARK   25  A    between atoms: C_55  and  C_56 
REMARK   26  A    between atoms: C_56  and  C_57 
REMARK   27  A    between atoms: C_57  and  C_58 
REMARK   28  A    between atoms: C_58  and  O_60 
ROOT
ATOM      1  O   UNK d   0      17.968  12.806 -13.034  0.00  0.00    -0.650 OA
ATOM      2  C   UNK d   0      19.070  12.224 -13.145  0.00  0.00     0.139 C 
ENDROOT
BRANCH   2   3
ATOM      3  O   UNK d   0      20.187  12.953 -13.476  0.00  0.00    -0.776 OA
ATOM      4  H   UNK d   0      20.655  12.823 -14.375  0.00  0.00     0.167 HD
ENDBRANCH   2   3
BRANCH   2   5
ATOM      5  C   UNK d   0      19.165  10.753 -12.921  0.00  0.00     0.115 C 
BRANCH   5   6
ATOM      6  C   UNK d   0      17.878  10.085 -13.322  0.00  0.00     0.052 C 
BRANCH   6   7
ATOM      7  C   UNK d   0      17.438   9.031 -12.333  0.00  0.00    -0.020 A 
ATOM      8  C   UNK d   0      17.572   7.734 -12.437  0.00  0.00    -0.011 A 
ATOM      9  C   UNK d   0      16.992   7.130 -11.249  0.00  0.00     0.067 A 
ATOM     10  C   UNK d   0      16.835   5.828 -10.748  0.00  0.00     0.062 C 
ATOM     11  N   UNK d   0      16.522   8.134 -10.479  0.00  0.00    -0.248 NA
ATOM     12  C   UNK d   0      16.494   5.458  -9.443  0.00  0.00     0.041 A 
ATOM     13  N   UNK d   0      15.577   5.956  -8.591  0.00  0.00    -0.355 N 
ATOM     14  C   UNK d   0      17.222   4.432  -8.814  0.00  0.00    -0.022 A 
ATOM     15  C   UNK d   0      15.710   5.276  -7.436  0.00  0.00     0.042 A 
ATOM     16  H   UNK d   0      14.837   6.757  -8.809  0.00  0.00     0.166 HD
ATOM     17  C   UNK d   0      15.003   5.392  -6.222  0.00  0.00     0.062 C 
ATOM     18  C   UNK d   0      16.732   4.313  -7.538  0.00  0.00    -0.013 A 
ATOM     19  C   UNK d   0      14.647   6.525  -5.536  0.00  0.00     0.067 A 
ATOM     20  N   UNK d   0      14.803   7.690  -6.170  0.00  0.00    -0.248 NA
ATOM     21  C   UNK d   0      14.125   6.824  -4.213  0.00  0.00    -0.011 A 
ATOM     22  C   UNK d   0      14.422   8.729  -5.358  0.00  0.00     0.066 A 
ATOM     23  C   UNK d   0      14.496  10.001  -5.907  0.00  0.00     0.062 C 
ATOM     24  C   UNK d   0      13.999   8.116  -4.114  0.00  0.00    -0.020 A 
ATOM     25  C   UNK d   0      14.829  10.350  -7.225  0.00  0.00     0.041 A 
ATOM     26  N   UNK d   0      15.751   9.866  -8.066  0.00  0.00    -0.355 N 
ATOM     27  C   UNK d   0      14.095  11.378  -7.856  0.00  0.00    -0.022 A 
ATOM     28  C   UNK d   0      15.626  10.548  -9.216  0.00  0.00     0.042 A 
ATOM     29  H   UNK d   0      16.500   9.067  -7.843  0.00  0.00     0.166 HD
ATOM     30  C   UNK d   0      16.328  10.450 -10.428  0.00  0.00     0.062 C 
ATOM     31  C   UNK d   0      14.592  11.509  -9.117  0.00  0.00    -0.013 A 
ATOM     32  C   UNK d   0      16.760   9.303 -11.075  0.00  0.00     0.066 A 
BRANCH   8  33
ATOM     33  C   UNK d   0      18.192   6.994 -13.552  0.00  0.00     0.151 C 
BRANCH  33  34
ATOM     34  C   UNK d   0      19.404   6.260 -13.146  0.00  0.00     0.143 C 
ATOM     35  O   UNK d   0      20.220   6.764 -12.361  0.00  0.00    -0.650 OA
BRANCH  34  36
ATOM     36  O   UNK d   0      19.630   4.999 -13.648  0.00  0.00    -0.776 OA
ATOM     37  H   UNK d   0      20.268   4.343 -13.177  0.00  0.00     0.167 HD
ENDBRANCH  34  36
ENDBRANCH  33  34
ENDBRANCH   8  33
BRANCH  31  38
ATOM     38  C   UNK d   0      14.108  12.478 -10.170  0.00  0.00     0.151 C 
BRANCH  38  39
ATOM     39  C   UNK d   0      15.038  13.562 -10.405  0.00  0.00     0.143 C 
ATOM     40  O   UNK d   0      15.291  13.985 -11.547  0.00  0.00    -0.650 OA
BRANCH  39  41
ATOM     41  O   UNK d   0      15.679  14.164  -9.323  0.00  0.00    -0.776 OA
ATOM     42  H   UNK d   0      15.558  13.717  -8.408  0.00  0.00     0.167 HD
ENDBRANCH  39  41
ENDBRANCH  38  39
ENDBRANCH  31  38
BRANCH  27  43
ATOM     43  C   UNK d   0      12.966  12.220  -7.316  0.00  0.00     0.052 C 
BRANCH  43  44
ATOM     44  C   UNK d   0      13.424  13.517  -6.732  0.00  0.00     0.115 C 
BRANCH  44  45
ATOM     45  C   UNK d   0      12.814  14.593  -7.555  0.00  0.00     0.139 C 
ATOM     46  O   UNK d   0      11.587  14.517  -7.813  0.00  0.00    -0.650 OA
BRANCH  45  47
ATOM     47  O   UNK d   0      13.533  15.664  -8.038  0.00  0.00    -0.776 OA
ATOM     48  H   UNK d   0      13.118  16.598  -8.184  0.00  0.00     0.167 HD
ENDBRANCH  45  47
ENDBRANCH  44  45
ENDBRANCH  43  44
ENDBRANCH  27  43
BRANCH  24  49
ATOM     49  C   UNK d   0      13.467   8.850  -2.952  0.00  0.00     0.052 C 
BRANCH  49  50
ATOM     50  C   UNK d   0      12.148   9.492  -3.297  0.00  0.00     0.115 C 
BRANCH  50  51
ATOM     51  C   UNK d   0      10.970   9.011  -2.588  0.00  0.00     0.139 C 
ATOM     52  O   UNK d   0      11.011   8.613  -1.400  0.00  0.00    -0.650 OA
BRANCH  51  53
ATOM     53  O   UNK d   0       9.744   8.983  -3.235  0.00  0.00    -0.776 OA
ATOM     54  H   UNK d   0       8.924   8.776  -2.691  0.00  0.00     0.167 HD
ENDBRANCH  51  53
ENDBRANCH  50  51
ENDBRANCH  49  50
ENDBRANCH  24  49
BRANCH  21  55
ATOM     55  C   UNK d   0      13.803   5.787  -3.189  0.00  0.00     0.151 C 
BRANCH  55  56
ATOM     56  C   UNK d   0      12.360   5.510  -3.121  0.00  0.00     0.143 C 
ATOM     57  O   UNK d   0      11.691   5.165  -4.115  0.00  0.00    -0.650 OA
BRANCH  56  58
ATOM     58  O   UNK d   0      11.731   5.642  -1.884  0.00  0.00    -0.776 OA
ATOM     59  H   UNK d   0      12.289   6.131  -1.161  0.00  0.00     0.167 HD
ENDBRANCH  56  58
ENDBRANCH  55  56
ENDBRANCH  21  55
BRANCH  18  60
ATOM     60  C   UNK d   0      17.233   3.332  -6.507  0.00  0.00     0.151 C 
BRANCH  60  61
ATOM     61  C   UNK d   0      16.301   2.195  -6.543  0.00  0.00     0.143 C 
ATOM     62  O   UNK d   0      16.205   1.342  -7.425  0.00  0.00    -0.650 OA
BRANCH  61  63
ATOM     63  O   UNK d   0      15.430   2.095  -5.431  0.00  0.00    -0.776 OA
ATOM     64  H   UNK d   0      14.512   1.696  -5.526  0.00  0.00     0.167 HD
ENDBRANCH  61  63
ENDBRANCH  60  61
ENDBRANCH  18  60
BRANCH  14  65
ATOM     65  C   UNK d   0      18.268   3.498  -9.355  0.00  0.00     0.052 C 
BRANCH  65  66
ATOM     66  C   UNK d   0      19.589   4.154  -9.549  0.00  0.00     0.115 C 
BRANCH  66  67
ATOM     67  C   UNK d   0      20.399   3.802 -10.681  0.00  0.00     0.139 C 
ATOM     68  O   UNK d   0      20.006   2.844 -11.442  0.00  0.00    -0.650 OA
BRANCH  67  69
ATOM     69  O   UNK d   0      21.602   4.382 -11.082  0.00  0.00    -0.776 OA
ATOM     70  H   UNK d   0      21.568   4.927 -11.956  0.00  0.00     0.167 HD
ENDBRANCH  67  69
ENDBRANCH  66  67
ENDBRANCH  65  66
ENDBRANCH  14  65
ENDBRANCH   6   7
ENDBRANCH   5   6
ENDBRANCH   2   5
TORSDOF 28
ENDMDL
MODEL 5
REMARK VINA RESULT:      -8.9      1.876      8.080
REMARK  28 active torsions:
REMARK  status: ('A' for Active; 'I' for Inactive)
REMARK    1  A    between atoms: C_2  and  O_3 
REMARK    2  A    between atoms: C_2  and  C_4 
REMARK    3  A    between atoms: C_4  and  C_5 
REMARK    4  A    between atoms: C_5  and  C_6 
REMARK    5  A    between atoms: C_7  and  C_8 
REMARK    6  A    between atoms: C_8  and  C_9 
REMARK    7  A    between atoms: C_9  and  O_11 
REMARK    8  A    between atoms: C_28  and  C_29 
REMARK    9  A    between atoms: C_29  and  C_30 
REMARK   10  A    between atoms: C_30  and  O_32 
REMARK   11  A    between atoms: C_33  and  C_34 
REMARK   12  A    between atoms: C_34  and  C_35 
REMARK   13  A    between atoms: C_35  and  C_36 
REMARK   14  A    between atoms: C_36  and  O_38 
REMARK   15  A    between atoms: C_39  and  C_40 
REMARK   16  A    between atoms: C_40  and  C_41 
REMARK   17  A    between atoms: C_41  and  C_42 
REMARK   18  A    between atoms: C_42  and  O_44 
REMARK   19  A    between atoms: C_45  and  C_46 
REMARK   20  A    between atoms: C_46  and  C_47 
REMARK   21  A    between atoms: C_47  and  O_49 
REMARK   22  A    between atoms: C_50  and  C_51 
REMARK   23  A    between atoms: C_51  and  C_52 
REMARK   24  A    between atoms: C_52  and  O_54 
REMARK   25  A    between atoms: C_55  and  C_56 
REMARK   26  A    between atoms: C_56  and  C_57 
REMARK   27  A    between atoms: C_57  and  C_58 
REMARK   28  A    between atoms: C_58  and  O_60 
ROOT
ATOM      1  O   UNK d   0      20.389   4.407 -11.327  0.00  0.00    -0.650 OA
ATOM      2  C   UNK d   0      19.601   4.712 -12.249  0.00  0.00     0.139 C 
ENDROOT
BRANCH   2   3
ATOM      3  O   UNK d   0      18.744   3.759 -12.745  0.00  0.00    -0.776 OA
ATOM      4  H   UNK d   0      17.744   3.947 -12.839  0.00  0.00     0.167 HD
ENDBRANCH   2   3
BRANCH   2   5
ATOM      5  C   UNK d   0      19.595   6.097 -12.801  0.00  0.00     0.115 C 
BRANCH   5   6
ATOM      6  C   UNK d   0      18.186   6.524 -13.112  0.00  0.00     0.052 C 
BRANCH   6   7
ATOM      7  C   UNK d   0      17.564   7.332 -11.998  0.00  0.00    -0.020 A 
ATOM      8  C   UNK d   0      17.415   8.630 -11.941  0.00  0.00    -0.011 A 
ATOM      9  C   UNK d   0      16.776   8.950 -10.675  0.00  0.00     0.067 A 
ATOM     10  C   UNK d   0      16.333  10.115 -10.030  0.00  0.00     0.062 C 
ATOM     11  N   UNK d   0      16.576   7.786 -10.022  0.00  0.00    -0.248 NA
ATOM     12  C   UNK d   0      15.480  10.199  -8.924  0.00  0.00     0.041 A 
ATOM     13  N   UNK d   0      15.435   9.484  -7.784  0.00  0.00    -0.355 N 
ATOM     14  C   UNK d   0      14.426  11.130  -8.946  0.00  0.00    -0.022 A 
ATOM     15  C   UNK d   0      14.374   9.932  -7.086  0.00  0.00     0.042 A 
ATOM     16  H   UNK d   0      16.150   8.692  -7.469  0.00  0.00     0.166 HD
ATOM     17  C   UNK d   0      13.873   9.535  -5.830  0.00  0.00     0.062 C 
ATOM     18  C   UNK d   0      13.717  10.964  -7.783  0.00  0.00    -0.013 A 
ATOM     19  C   UNK d   0      13.685   8.268  -5.339  0.00  0.00     0.067 A 
ATOM     20  N   UNK d   0      14.217   7.262  -6.038  0.00  0.00    -0.248 NA
ATOM     21  C   UNK d   0      13.006   7.681  -4.195  0.00  0.00    -0.011 A 
ATOM     22  C   UNK d   0      13.934   6.061  -5.436  0.00  0.00     0.066 A 
ATOM     23  C   UNK d   0      14.462   4.929  -6.040  0.00  0.00     0.062 C 
ATOM     24  C   UNK d   0      13.153   6.390  -4.260  0.00  0.00    -0.020 A 
ATOM     25  C   UNK d   0      15.327   4.867  -7.144  0.00  0.00     0.041 A 
ATOM     26  N   UNK d   0      15.363   5.567  -8.284  0.00  0.00    -0.355 N 
ATOM     27  C   UNK d   0      16.388   3.936  -7.118  0.00  0.00    -0.022 A 
ATOM     28  C   UNK d   0      16.415   5.117  -8.985  0.00  0.00     0.042 A 
ATOM     29  H   UNK d   0      14.637   6.356  -8.603  0.00  0.00     0.166 HD
ATOM     30  C   UNK d   0      16.919   5.497 -10.239  0.00  0.00     0.062 C 
ATOM     31  C   UNK d   0      17.081   4.087  -8.279  0.00  0.00    -0.013 A 
ATOM     32  C   UNK d   0      17.028   6.774 -10.765  0.00  0.00     0.066 A 
BRANCH   8  33
ATOM     33  C   UNK d   0      17.821   9.613 -12.962  0.00  0.00     0.151 C 
BRANCH  33  34
ATOM     34  C   UNK d   0      19.118  10.246 -12.661  0.00  0.00     0.143 C 
ATOM     35  O   UNK d   0      19.988   9.641 -12.018  0.00  0.00    -0.650 OA
BRANCH  34  36
ATOM     36  O   UNK d   0      19.363  11.526 -13.102  0.00  0.00    -0.776 OA
ATOM     37  H   UNK d   0      18.598  12.200 -13.239  0.00  0.00     0.167 HD
ENDBRANCH  34  36
ENDBRANCH  33  34
ENDBRANCH   8  33
BRANCH  31  38
ATOM     38  C   UNK d   0      18.311   3.312  -8.691  0.00  0.00     0.151 C 
BRANCH  38  39
ATOM     39  C   UNK d   0      18.010   2.215  -9.585  0.00  0.00     0.143 C 
ATOM     40  O   UNK d   0      16.913   1.629  -9.574  0.00  0.00    -0.650 OA
BRANCH  39  41
ATOM     41  O   UNK d   0      18.975   1.788 -10.497  0.00  0.00    -0.776 OA
ATOM     42  H   UNK d   0      18.830   0.869 -10.927  0.00  0.00     0.167 HD
ENDBRANCH  39  41
ENDBRANCH  38  39
ENDBRANCH  31  38
BRANCH  27  43
ATOM     43  C   UNK d   0      16.755   2.930  -6.056  0.00  0.00     0.052 C 
BRANCH  43  44
ATOM     44  C   UNK d   0      15.935   1.682  -6.115  0.00  0.00     0.115 C 
BRANCH  44  45
ATOM     45  C   UNK d   0      16.888   0.556  -6.294  0.00  0.00     0.139 C 
ATOM     46  O   UNK d   0      18.115   0.821  -6.341  0.00  0.00    -0.650 OA
BRANCH  45  47
ATOM     47  O   UNK d   0      16.483  -0.756  -6.403  0.00  0.00    -0.776 OA
ATOM     48  H   UNK d   0      15.493  -1.045  -6.334  0.00  0.00     0.167 HD
ENDBRANCH  45  47
ENDBRANCH  44  45
ENDBRANCH  43  44
ENDBRANCH  27  43
BRANCH  24  49
ATOM     49  C   UNK d   0      12.656   5.409  -3.279  0.00  0.00     0.052 C 
BRANCH  49  50
ATOM     50  C   UNK d   0      11.204   5.098  -3.539  0.00  0.00     0.115 C 
BRANCH  50  51
ATOM     51  C   UNK d   0      10.245   5.499  -2.518  0.00  0.00     0.139 C 
ATOM     52  O   UNK d   0      10.591   5.840  -1.362  0.00  0.00    -0.650 OA
BRANCH  51  53
ATOM     53  O   UNK d   0       8.891   5.511  -2.816  0.00  0.00    -0.776 OA
ATOM     54  H   UNK d   0       8.455   4.645  -3.079  0.00  0.00     0.167 HD
ENDBRANCH  51  53
ENDBRANCH  50  51
ENDBRANCH  49  50
ENDBRANCH  24  49
BRANCH  21  55
ATOM     55  C   UNK d   0      12.286   8.474  -3.154  0.00  0.00     0.151 C 
BRANCH  55  56
ATOM     56  C   UNK d   0      13.010   8.489  -1.874  0.00  0.00     0.143 C 
ATOM     57  O   UNK d   0      14.215   8.796  -1.783  0.00  0.00    -0.650 OA
BRANCH  56  58
ATOM     58  O   UNK d   0      12.302   8.143  -0.724  0.00  0.00    -0.776 OA
ATOM     59  H   UNK d   0      12.000   8.944  -0.140  0.00  0.00     0.167 HD
ENDBRANCH  56  58
ENDBRANCH  55  56
ENDBRANCH  21  55
BRANCH  18  60
ATOM     60  C   UNK d   0      12.492  11.756  -7.397  0.00  0.00     0.151 C 
BRANCH  60  61
ATOM     61  C   UNK d   0      11.417  11.298  -8.290  0.00  0.00     0.143 C 
ATOM     62  O   UNK d   0      10.521  11.982  -8.784  0.00  0.00    -0.650 OA
BRANCH  61  63
ATOM     63  O   UNK d   0      11.437   9.916  -8.598  0.00  0.00    -0.776 OA
ATOM     64  H   UNK d   0      11.212   9.588  -9.521  0.00  0.00     0.167 HD
ENDBRANCH  61  63
ENDBRANCH  60  61
ENDBRANCH  18  60
BRANCH  14  65
ATOM     65  C   UNK d   0      14.100  12.219  -9.928  0.00  0.00     0.052 C 
BRANCH  65  66
ATOM     66  C   UNK d   0      14.782  13.504  -9.619  0.00  0.00     0.115 C 
BRANCH  66  67
ATOM     67  C   UNK d   0      14.127  14.747  -9.915  0.00  0.00     0.139 C 
ATOM     68  O   UNK d   0      12.859  14.834  -9.721  0.00  0.00    -0.650 OA
BRANCH  67  69
ATOM     69  O   UNK d   0      14.702  15.920 -10.404  0.00  0.00    -0.776 OA
ATOM     70  H   UNK d   0      15.655  15.827 -10.783  0.00  0.00     0.167 HD
ENDBRANCH  67  69
ENDBRANCH  66  67
ENDBRANCH  65  66
ENDBRANCH  14  65
ENDBRANCH   6   7
ENDBRANCH   5   6
ENDBRANCH   2   5
TORSDOF 28
ENDMDL
MODEL 6
REMARK VINA RESULT:      -8.3      1.651      7.962
REMARK  28 active torsions:
REMARK  status: ('A' for Active; 'I' for Inactive)
REMARK    1  A    between atoms: C_2  and  O_3 
REMARK    2  A    between atoms: C_2  and  C_4 
REMARK    3  A    between atoms: C_4  and  C_5 
REMARK    4  A    between atoms: C_5  and  C_6 
REMARK    5  A    between atoms: C_7  and  C_8 
REMARK    6  A    between atoms: C_8  and  C_9 
REMARK    7  A    between atoms: C_9  and  O_11 
REMARK    8  A    between atoms: C_28  and  C_29 
REMARK    9  A    between atoms: C_29  and  C_30 
REMARK   10  A    between atoms: C_30  and  O_32 
REMARK   11  A    between atoms: C_33  and  C_34 
REMARK   12  A    between atoms: C_34  and  C_35 
REMARK   13  A    between atoms: C_35  and  C_36 
REMARK   14  A    between atoms: C_36  and  O_38 
REMARK   15  A    between atoms: C_39  and  C_40 
REMARK   16  A    between atoms: C_40  and  C_41 
REMARK   17  A    between atoms: C_41  and  C_42 
REMARK   18  A    between atoms: C_42  and  O_44 
REMARK   19  A    between atoms: C_45  and  C_46 
REMARK   20  A    between atoms: C_46  and  C_47 
REMARK   21  A    between atoms: C_47  and  O_49 
REMARK   22  A    between atoms: C_50  and  C_51 
REMARK   23  A    between atoms: C_51  and  C_52 
REMARK   24  A    between atoms: C_52  and  O_54 
REMARK   25  A    between atoms: C_55  and  C_56 
REMARK   26  A    between atoms: C_56  and  C_57 
REMARK   27  A    between atoms: C_57  and  C_58 
REMARK   28  A    between atoms: C_58  and  O_60 
ROOT
ATOM      1  O   UNK d   0      11.240   5.578  -2.150  0.00  0.00    -0.650 OA
ATOM      2  C   UNK d   0      11.787   4.733  -2.892  0.00  0.00     0.139 C 
ENDROOT
BRANCH   2   3
ATOM      3  O   UNK d   0      11.073   3.631  -3.299  0.00  0.00    -0.776 OA
ATOM      4  H   UNK d   0      11.540   2.827  -3.722  0.00  0.00     0.167 HD
ENDBRANCH   2   3
BRANCH   2   5
ATOM      5  C   UNK d   0      13.199   4.922  -3.328  0.00  0.00     0.115 C 
BRANCH   5   6
ATOM      6  C   UNK d   0      13.701   6.270  -2.885  0.00  0.00     0.052 C 
BRANCH   6   7
ATOM      7  C   UNK d   0      13.764   7.268  -4.017  0.00  0.00    -0.020 A 
ATOM      8  C   UNK d   0      13.222   8.458  -4.062  0.00  0.00    -0.011 A 
ATOM      9  C   UNK d   0      13.543   9.044  -5.352  0.00  0.00     0.067 A 
ATOM     10  C   UNK d   0      13.293  10.264  -6.001  0.00  0.00     0.062 C 
ATOM     11  N   UNK d   0      14.279   8.139  -6.032  0.00  0.00    -0.248 NA
ATOM     12  C   UNK d   0      13.925  10.759  -7.147  0.00  0.00     0.041 A 
ATOM     13  N   UNK d   0      14.273  10.154  -8.299  0.00  0.00    -0.355 N 
ATOM     14  C   UNK d   0      14.352  12.099  -7.163  0.00  0.00    -0.022 A 
ATOM     15  C   UNK d   0      14.917  11.074  -9.042  0.00  0.00     0.042 A 
ATOM     16  H   UNK d   0      14.050   9.103  -8.589  0.00  0.00     0.166 HD
ATOM     17  C   UNK d   0      15.488  10.973 -10.327  0.00  0.00     0.062 C 
ATOM     18  C   UNK d   0      14.987  12.305  -8.363  0.00  0.00    -0.013 A 
ATOM     19  C   UNK d   0      16.274   9.977 -10.846  0.00  0.00     0.067 A 
ATOM     20  N   UNK d   0      16.369   8.849 -10.136  0.00  0.00    -0.248 NA
ATOM     21  C   UNK d   0      17.099   9.807 -12.030  0.00  0.00    -0.011 A 
ATOM     22  C   UNK d   0      17.197   7.955 -10.769  0.00  0.00     0.066 A 
ATOM     23  C   UNK d   0      17.355   6.721 -10.156  0.00  0.00     0.062 C 
ATOM     24  C   UNK d   0      17.639   8.623 -11.977  0.00  0.00    -0.020 A 
ATOM     25  C   UNK d   0      16.701   6.238  -9.012  0.00  0.00     0.041 A 
ATOM     26  N   UNK d   0      16.369   6.835  -7.861  0.00  0.00    -0.355 N 
ATOM     27  C   UNK d   0      16.269   4.894  -8.999  0.00  0.00    -0.022 A 
ATOM     28  C   UNK d   0      15.734   5.918  -7.115  0.00  0.00     0.042 A 
ATOM     29  H   UNK d   0      16.602   7.888  -7.567  0.00  0.00     0.166 HD
ATOM     30  C   UNK d   0      15.170   6.001  -5.832  0.00  0.00     0.062 C 
ATOM     31  C   UNK d   0      15.655   4.683  -7.802  0.00  0.00    -0.013 A 
ATOM     32  C   UNK d   0      14.447   7.048  -5.283  0.00  0.00     0.066 A 
BRANCH   8  33
ATOM     33  C   UNK d   0      12.422   9.107  -3.007  0.00  0.00     0.151 C 
BRANCH  33  34
ATOM     34  C   UNK d   0      10.972   9.024  -3.259  0.00  0.00     0.143 C 
ATOM     35  O   UNK d   0      10.237  10.006  -3.081  0.00  0.00    -0.650 OA
BRANCH  34  36
ATOM     36  O   UNK d   0      10.429   7.838  -3.697  0.00  0.00    -0.776 OA
ATOM     37  H   UNK d   0      10.426   6.999  -3.100  0.00  0.00     0.167 HD
ENDBRANCH  34  36
ENDBRANCH  33  34
ENDBRANCH   8  33
BRANCH  31  38
ATOM     38  C   UNK d   0      15.019   3.392  -7.342  0.00  0.00     0.151 C 
BRANCH  38  39
ATOM     39  C   UNK d   0      15.763   2.747  -6.281  0.00  0.00     0.143 C 
ATOM     40  O   UNK d   0      15.237   2.420  -5.203  0.00  0.00    -0.650 OA
BRANCH  39  41
ATOM     41  O   UNK d   0      17.119   2.474  -6.462  0.00  0.00    -0.776 OA
ATOM     42  H   UNK d   0      17.541   1.792  -5.824  0.00  0.00     0.167 HD
ENDBRANCH  39  41
ENDBRANCH  38  39
ENDBRANCH  31  38
BRANCH  27  43
ATOM     43  C   UNK d   0      16.417   3.829 -10.056  0.00  0.00     0.052 C 
BRANCH  43  44
ATOM     44  C   UNK d   0      17.840   3.476 -10.344  0.00  0.00     0.115 C 
BRANCH  44  45
ATOM     45  C   UNK d   0      18.115   2.204  -9.627  0.00  0.00     0.139 C 
ATOM     46  O   UNK d   0      19.312   1.893  -9.411  0.00  0.00    -0.650 OA
BRANCH  45  47
ATOM     47  O   UNK d   0      17.115   1.363  -9.188  0.00  0.00    -0.776 OA
ATOM     48  H   UNK d   0      17.236   0.718  -8.390  0.00  0.00     0.167 HD
ENDBRANCH  45  47
ENDBRANCH  44  45
ENDBRANCH  43  44
ENDBRANCH  27  43
BRANCH  24  49
ATOM     49  C   UNK d   0      18.519   8.024 -12.996  0.00  0.00     0.052 C 
BRANCH  49  50
ATOM     50  C   UNK d   0      19.961   8.340 -12.694  0.00  0.00     0.115 C 
BRANCH  50  51
ATOM     51  C   UNK d   0      20.559   7.682 -11.541  0.00  0.00     0.139 C 
ATOM     52  O   UNK d   0      20.930   8.309 -10.520  0.00  0.00    -0.650 OA
BRANCH  51  53
ATOM     53  O   UNK d   0      20.737   6.307 -11.552  0.00  0.00    -0.776 OA
ATOM     54  H   UNK d   0      20.044   5.734 -11.103  0.00  0.00     0.167 HD
ENDBRANCH  51  53
ENDBRANCH  50  51
ENDBRANCH  49  50
ENDBRANCH  24  49
BRANCH  21  55
ATOM     55  C   UNK d   0      17.257  10.843 -13.093  0.00  0.00     0.151 C 
BRANCH  55  56
ATOM     56  C   UNK d   0      18.315  11.811 -12.766  0.00  0.00     0.143 C 
ATOM     57  O   UNK d   0      19.517  11.614 -13.034  0.00  0.00    -0.650 OA
BRANCH  56  58
ATOM     58  O   UNK d   0      17.939  12.993 -12.130  0.00  0.00    -0.776 OA
ATOM     59  H   UNK d   0      17.943  13.834 -12.735  0.00  0.00     0.167 HD
ENDBRANCH  56  58
ENDBRANCH  55  56
ENDBRANCH  21  55
BRANCH  18  60
ATOM     60  C   UNK d   0      15.611  13.608  -8.798  0.00  0.00     0.151 C 
BRANCH  60  61
ATOM     61  C   UNK d   0      14.862  14.037  -9.988  0.00  0.00     0.143 C 
ATOM     62  O   UNK d   0      13.639  14.114 -10.108  0.00  0.00    -0.650 OA
BRANCH  61  63
ATOM     63  O   UNK d   0      15.657  14.396 -11.104  0.00  0.00    -0.776 OA
ATOM     64  H   UNK d   0      15.483  14.004 -12.012  0.00  0.00     0.167 HD
ENDBRANCH  61  63
ENDBRANCH  60  61
ENDBRANCH  18  60
BRANCH  14  65
ATOM     65  C   UNK d   0      14.122  13.214  -6.183  0.00  0.00     0.052 C 
BRANCH  65  66
ATOM     66  C   UNK d   0      13.285  14.312  -6.736  0.00  0.00     0.115 C 
BRANCH  66  67
ATOM     67  C   UNK d   0      13.763  15.665  -6.686  0.00  0.00     0.139 C 
ATOM     68  O   UNK d   0      13.514  16.441  -7.681  0.00  0.00    -0.650 OA
BRANCH  67  69
ATOM     69  O   UNK d   0      14.489  16.276  -5.665  0.00  0.00    -0.776 OA
ATOM     70  H   UNK d   0      15.374  15.816  -5.407  0.00  0.00     0.167 HD
ENDBRANCH  67  69
ENDBRANCH  66  67
ENDBRANCH  65  66
ENDBRANCH  14  65
ENDBRANCH   6   7
ENDBRANCH   5   6
ENDBRANCH   2   5
TORSDOF 28
ENDMDL
MODEL 7
REMARK VINA RESULT:      -8.0      1.872      4.538
REMARK  28 active torsions:
REMARK  status: ('A' for Active; 'I' for Inactive)
REMARK    1  A    between atoms: C_2  and  O_3 
REMARK    2  A    between atoms: C_2  and  C_4 
REMARK    3  A    between atoms: C_4  and  C_5 
REMARK    4  A    between atoms: C_5  and  C_6 
REMARK    5  A    between atoms: C_7  and  C_8 
REMARK    6  A    between atoms: C_8  and  C_9 
REMARK    7  A    between atoms: C_9  and  O_11 
REMARK    8  A    between atoms: C_28  and  C_29 
REMARK    9  A    between atoms: C_29  and  C_30 
REMARK   10  A    between atoms: C_30  and  O_32 
REMARK   11  A    between atoms: C_33  and  C_34 
REMARK   12  A    between atoms: C_34  and  C_35 
REMARK   13  A    between atoms: C_35  and  C_36 
REMARK   14  A    between atoms: C_36  and  O_38 
REMARK   15  A    between atoms: C_39  and  C_40 
REMARK   16  A    between atoms: C_40  and  C_41 
REMARK   17  A    between atoms: C_41  and  C_42 
REMARK   18  A    between atoms: C_42  and  O_44 
REMARK   19  A    between atoms: C_45  and  C_46 
REMARK   20  A    between atoms: C_46  and  C_47 
REMARK   21  A    between atoms: C_47  and  O_49 
REMARK   22  A    between atoms: C_50  and  C_51 
REMARK   23  A    between atoms: C_51  and  C_52 
REMARK   24  A    between atoms: C_52  and  O_54 
REMARK   25  A    between atoms: C_55  and  C_56 
REMARK   26  A    between atoms: C_56  and  C_57 
REMARK   27  A    between atoms: C_57  and  C_58 
REMARK   28  A    between atoms: C_58  and  O_60 
ROOT
ATOM      1  O   UNK d   0      19.624  10.551 -12.999  0.00  0.00    -0.650 OA
ATOM      2  C   UNK d   0      19.223  11.657 -12.572  0.00  0.00     0.139 C 
ENDROOT
BRANCH   2   3
ATOM      3  O   UNK d   0      19.809  12.201 -11.455  0.00  0.00    -0.776 OA
ATOM      4  H   UNK d   0      20.793  12.028 -11.238  0.00  0.00     0.167 HD
ENDBRANCH   2   3
BRANCH   2   5
ATOM      5  C   UNK d   0      18.119  12.373 -13.272  0.00  0.00     0.115 C 
BRANCH   5   6
ATOM      6  C   UNK d   0      16.852  11.566 -13.202  0.00  0.00     0.052 C 
BRANCH   6   7
ATOM      7  C   UNK d   0      16.440  11.252 -11.784  0.00  0.00    -0.020 A 
ATOM      8  C   UNK d   0      15.951  12.076 -10.893  0.00  0.00    -0.011 A 
ATOM      9  C   UNK d   0      15.716  11.324  -9.672  0.00  0.00     0.067 A 
ATOM     10  C   UNK d   0      15.202  11.600  -8.396  0.00  0.00     0.062 C 
ATOM     11  N   UNK d   0      16.096  10.050  -9.907  0.00  0.00    -0.248 NA
ATOM     12  C   UNK d   0      14.790  10.676  -7.429  0.00  0.00     0.041 A 
ATOM     13  N   UNK d   0      15.344   9.520  -7.016  0.00  0.00    -0.355 N 
ATOM     14  C   UNK d   0      13.570  10.886  -6.762  0.00  0.00    -0.022 A 
ATOM     15  C   UNK d   0      14.502   8.987  -6.111  0.00  0.00     0.042 A 
ATOM     16  H   UNK d   0      16.319   9.098  -7.344  0.00  0.00     0.166 HD
ATOM     17  C   UNK d   0      14.595   7.792  -5.369  0.00  0.00     0.062 C 
ATOM     18  C   UNK d   0      13.378   9.815  -5.925  0.00  0.00    -0.013 A 
ATOM     19  C   UNK d   0      14.959   6.540  -5.793  0.00  0.00     0.067 A 
ATOM     20  N   UNK d   0      15.489   6.446  -7.016  0.00  0.00    -0.248 NA
ATOM     21  C   UNK d   0      14.910   5.195  -5.244  0.00  0.00    -0.011 A 
ATOM     22  C   UNK d   0      15.788   5.138  -7.306  0.00  0.00     0.066 A 
ATOM     23  C   UNK d   0      16.382   4.900  -8.537  0.00  0.00     0.062 C 
ATOM     24  C   UNK d   0      15.393   4.379  -6.136  0.00  0.00    -0.020 A 
ATOM     25  C   UNK d   0      16.799   5.844  -9.488  0.00  0.00     0.041 A 
ATOM     26  N   UNK d   0      16.241   6.985  -9.909  0.00  0.00    -0.355 N 
ATOM     27  C   UNK d   0      18.026   5.634 -10.154  0.00  0.00    -0.022 A 
ATOM     28  C   UNK d   0      17.075   7.514 -10.819  0.00  0.00     0.042 A 
ATOM     29  H   UNK d   0      15.256   7.402  -9.586  0.00  0.00     0.166 HD
ATOM     30  C   UNK d   0      16.990   8.696 -11.571  0.00  0.00     0.062 C 
ATOM     31  C   UNK d   0      18.209   6.687 -10.997  0.00  0.00    -0.013 A 
ATOM     32  C   UNK d   0      16.541   9.941 -11.159  0.00  0.00     0.066 A 
BRANCH   8  33
ATOM     33  C   UNK d   0      15.683  13.515 -11.072  0.00  0.00     0.151 C 
BRANCH  33  34
ATOM     34  C   UNK d   0      14.243  13.825 -11.126  0.00  0.00     0.143 C 
ATOM     35  O   UNK d   0      13.664  14.330 -10.153  0.00  0.00    -0.650 OA
BRANCH  34  36
ATOM     36  O   UNK d   0      13.534  13.547 -12.272  0.00  0.00    -0.776 OA
ATOM     37  H   UNK d   0      12.512  13.431 -12.253  0.00  0.00     0.167 HD
ENDBRANCH  34  36
ENDBRANCH  33  34
ENDBRANCH   8  33
BRANCH  31  38
ATOM     38  C   UNK d   0      19.394   6.903 -11.909  0.00  0.00     0.151 C 
BRANCH  38  39
ATOM     39  C   UNK d   0      20.529   7.485 -11.226  0.00  0.00     0.143 C 
ATOM     40  O   UNK d   0      21.609   6.881 -11.094  0.00  0.00    -0.650 OA
BRANCH  39  41
ATOM     41  O   UNK d   0      20.424   8.769 -10.691  0.00  0.00    -0.776 OA
ATOM     42  H   UNK d   0      21.301   9.262 -10.499  0.00  0.00     0.167 HD
ENDBRANCH  39  41
ENDBRANCH  38  39
ENDBRANCH  31  38
BRANCH  27  43
ATOM     43  C   UNK d   0      19.006   4.495 -10.021  0.00  0.00     0.052 C 
BRANCH  43  44
ATOM     44  C   UNK d   0      18.745   3.377 -10.977  0.00  0.00     0.115 C 
BRANCH  44  45
ATOM     45  C   UNK d   0      18.572   2.150 -10.157  0.00  0.00     0.139 C 
ATOM     46  O   UNK d   0      17.478   1.537 -10.232  0.00  0.00    -0.650 OA
BRANCH  45  47
ATOM     47  O   UNK d   0      19.558   1.659  -9.329  0.00  0.00    -0.776 OA
ATOM     48  H   UNK d   0      20.511   2.055  -9.296  0.00  0.00     0.167 HD
ENDBRANCH  45  47
ENDBRANCH  44  45
ENDBRANCH  43  44
ENDBRANCH  27  43
BRANCH  24  49
ATOM     49  C   UNK d   0      15.564   2.924  -5.979  0.00  0.00     0.052 C 
BRANCH  49  50
ATOM     50  C   UNK d   0      16.510   2.392  -7.025  0.00  0.00     0.115 C 
BRANCH  50  51
ATOM     51  C   UNK d   0      17.617   1.566  -6.561  0.00  0.00     0.139 C 
ATOM     52  O   UNK d   0      17.499   0.336  -6.348  0.00  0.00    -0.650 OA
BRANCH  51  53
ATOM     53  O   UNK d   0      18.858   2.142  -6.339  0.00  0.00    -0.776 OA
ATOM     54  H   UNK d   0      19.478   2.253  -7.122  0.00  0.00     0.167 HD
ENDBRANCH  51  53
ENDBRANCH  50  51
ENDBRANCH  49  50
ENDBRANCH  24  49
BRANCH  21  55
ATOM     55  C   UNK d   0      14.390   4.868  -3.884  0.00  0.00     0.151 C 
BRANCH  55  56
ATOM     56  C   UNK d   0      12.920   4.842  -3.847  0.00  0.00     0.143 C 
ATOM     57  O   UNK d   0      12.214   5.556  -4.585  0.00  0.00    -0.650 OA
BRANCH  56  58
ATOM     58  O   UNK d   0      12.309   3.975  -2.942  0.00  0.00    -0.776 OA
ATOM     59  H   UNK d   0      11.280   3.902  -3.035  0.00  0.00     0.167 HD
ENDBRANCH  56  58
ENDBRANCH  55  56
ENDBRANCH  21  55
BRANCH  18  60
ATOM     60  C   UNK d   0      12.184   9.627  -5.022  0.00  0.00     0.151 C 
BRANCH  60  61
ATOM     61  C   UNK d   0      12.730   9.334  -3.688  0.00  0.00     0.143 C 
ATOM     62  O   UNK d   0      13.555   9.999  -3.061  0.00  0.00    -0.650 OA
BRANCH  61  63
ATOM     63  O   UNK d   0      12.235   8.155  -3.080  0.00  0.00    -0.776 OA
ATOM     64  H   UNK d   0      12.554   7.248  -3.371  0.00  0.00     0.167 HD
ENDBRANCH  61  63
ENDBRANCH  60  61
ENDBRANCH  18  60
BRANCH  14  65
ATOM     65  C   UNK d   0      12.630  12.057  -6.783  0.00  0.00     0.052 C 
BRANCH  65  66
ATOM     66  C   UNK d   0      11.371  11.780  -7.525  0.00  0.00     0.115 C 
BRANCH  66  67
ATOM     67  C   UNK d   0      11.420  11.053  -8.763  0.00  0.00     0.139 C 
ATOM     68  O   UNK d   0      11.720  11.691  -9.838  0.00  0.00    -0.650 OA
BRANCH  67  69
ATOM     69  O   UNK d   0      11.175   9.695  -8.965  0.00  0.00    -0.776 OA
ATOM     70  H   UNK d   0      10.318   9.467  -9.488  0.00  0.00     0.167 HD
ENDBRANCH  67  69
ENDBRANCH  66  67
ENDBRANCH  65  66
ENDBRANCH  14  65
ENDBRANCH   6   7
ENDBRANCH   5   6
ENDBRANCH   2   5
TORSDOF 28
ENDMDL
MODEL 8
REMARK VINA RESULT:      -8.0      2.138      7.789
REMARK  28 active torsions:
REMARK  status: ('A' for Active; 'I' for Inactive)
REMARK    1  A    between atoms: C_2  and  O_3 
REMARK    2  A    between atoms: C_2  and  C_4 
REMARK    3  A    between atoms: C_4  and  C_5 
REMARK    4  A    between atoms: C_5  and  C_6 
REMARK    5  A    between atoms: C_7  and  C_8 
REMARK    6  A    between atoms: C_8  and  C_9 
REMARK    7  A    between atoms: C_9  and  O_11 
REMARK    8  A    between atoms: C_28  and  C_29 
REMARK    9  A    between atoms: C_29  and  C_30 
REMARK   10  A    between atoms: C_30  and  O_32 
REMARK   11  A    between atoms: C_33  and  C_34 
REMARK   12  A    between atoms: C_34  and  C_35 
REMARK   13  A    between atoms: C_35  and  C_36 
REMARK   14  A    between atoms: C_36  and  O_38 
REMARK   15  A    between atoms: C_39  and  C_40 
REMARK   16  A    between atoms: C_40  and  C_41 
REMARK   17  A    between atoms: C_41  and  C_42 
REMARK   18  A    between atoms: C_42  and  O_44 
REMARK   19  A    between atoms: C_45  and  C_46 
REMARK   20  A    between atoms: C_46  and  C_47 
REMARK   21  A    between atoms: C_47  and  O_49 
REMARK   22  A    between atoms: C_50  and  C_51 
REMARK   23  A    between atoms: C_51  and  C_52 
REMARK   24  A    between atoms: C_52  and  O_54 
REMARK   25  A    between atoms: C_55  and  C_56 
REMARK   26  A    between atoms: C_56  and  C_57 
REMARK   27  A    between atoms: C_57  and  C_58 
REMARK   28  A    between atoms: C_58  and  O_60 
ROOT
ATOM      1  O   UNK d   0      17.484  16.262 -11.194  0.00  0.00    -0.650 OA
ATOM      2  C   UNK d   0      17.150  15.882 -10.050  0.00  0.00     0.139 C 
ENDROOT
BRANCH   2   3
ATOM      3  O   UNK d   0      17.561  16.602  -8.955  0.00  0.00    -0.776 OA
ATOM      4  H   UNK d   0      18.511  16.508  -8.588  0.00  0.00     0.167 HD
ENDBRANCH   2   3
BRANCH   2   5
ATOM      5  C   UNK d   0      16.313  14.660  -9.882  0.00  0.00     0.115 C 
BRANCH   5   6
ATOM      6  C   UNK d   0      16.054  14.022 -11.219  0.00  0.00     0.052 C 
BRANCH   6   7
ATOM      7  C   UNK d   0      16.185  12.518 -11.181  0.00  0.00    -0.020 A 
ATOM      8  C   UNK d   0      16.656  11.733 -12.116  0.00  0.00    -0.011 A 
ATOM      9  C   UNK d   0      16.575  10.365 -11.631  0.00  0.00     0.067 A 
ATOM     10  C   UNK d   0      16.923   9.096 -12.119  0.00  0.00     0.062 C 
ATOM     11  N   UNK d   0      16.037  10.410 -10.394  0.00  0.00    -0.248 NA
ATOM     12  C   UNK d   0      17.026   7.907 -11.390  0.00  0.00     0.041 A 
ATOM     13  N   UNK d   0      16.237   7.383 -10.432  0.00  0.00    -0.355 N 
ATOM     14  C   UNK d   0      18.146   7.080 -11.591  0.00  0.00    -0.022 A 
ATOM     15  C   UNK d   0      16.832   6.250 -10.015  0.00  0.00     0.042 A 
ATOM     16  H   UNK d   0      15.269   7.797 -10.072  0.00  0.00     0.166 HD
ATOM     17  C   UNK d   0      16.435   5.317  -9.036  0.00  0.00     0.062 C 
ATOM     18  C   UNK d   0      18.031   6.026 -10.718  0.00  0.00    -0.013 A 
ATOM     19  C   UNK d   0      15.945   5.545  -7.775  0.00  0.00     0.067 A 
ATOM     20  N   UNK d   0      15.603   6.802  -7.478  0.00  0.00    -0.248 NA
ATOM     21  C   UNK d   0      15.692   4.741  -6.591  0.00  0.00    -0.011 A 
ATOM     22  C   UNK d   0      15.147   6.878  -6.184  0.00  0.00     0.066 A 
ATOM     23  C   UNK d   0      14.721   8.125  -5.754  0.00  0.00     0.062 C 
ATOM     24  C   UNK d   0      15.229   5.528  -5.663  0.00  0.00    -0.020 A 
ATOM     25  C   UNK d   0      14.613   9.305  -6.506  0.00  0.00     0.041 A 
ATOM     26  N   UNK d   0      15.405   9.833  -7.448  0.00  0.00    -0.355 N 
ATOM     27  C   UNK d   0      13.486  10.132  -6.307  0.00  0.00    -0.022 A 
ATOM     28  C   UNK d   0      14.818  10.968  -7.859  0.00  0.00     0.042 A 
ATOM     29  H   UNK d   0      16.382   9.422  -7.801  0.00  0.00     0.166 HD
ATOM     30  C   UNK d   0      15.206  11.910  -8.825  0.00  0.00     0.062 C 
ATOM     31  C   UNK d   0      13.608  11.186  -7.159  0.00  0.00    -0.013 A 
ATOM     32  C   UNK d   0      15.780  11.676 -10.064  0.00  0.00     0.066 A 
BRANCH   8  33
ATOM     33  C   UNK d   0      17.175  12.141 -13.434  0.00  0.00     0.151 C 
BRANCH  33  34
ATOM     34  C   UNK d   0      18.646  12.230 -13.465  0.00  0.00     0.143 C 
ATOM     35  O   UNK d   0      19.218  13.329 -13.445  0.00  0.00    -0.650 OA
BRANCH  34  36
ATOM     36  O   UNK d   0      19.392  11.075 -13.520  0.00  0.00    -0.776 OA
ATOM     37  H   UNK d   0      20.226  10.950 -12.930  0.00  0.00     0.167 HD
ENDBRANCH  34  36
ENDBRANCH  33  34
ENDBRANCH   8  33
BRANCH  31  38
ATOM     38  C   UNK d   0      12.628  12.327  -7.312  0.00  0.00     0.151 C 
BRANCH  38  39
ATOM     39  C   UNK d   0      11.715  12.138  -8.419  0.00  0.00     0.143 C 
ATOM     40  O   UNK d   0      11.620  12.957  -9.350  0.00  0.00    -0.650 OA
BRANCH  39  41
ATOM     41  O   UNK d   0      10.907  11.002  -8.456  0.00  0.00    -0.776 OA
ATOM     42  H   UNK d   0      11.127  10.257  -7.787  0.00  0.00     0.167 HD
ENDBRANCH  39  41
ENDBRANCH  38  39
ENDBRANCH  31  38
BRANCH  27  43
ATOM     43  C   UNK d   0      12.328   9.961  -5.356  0.00  0.00     0.052 C 
BRANCH  43  44
ATOM     44  C   UNK d   0      12.720  10.080  -3.919  0.00  0.00     0.115 C 
BRANCH  44  45
ATOM     45  C   UNK d   0      11.520   9.719  -3.120  0.00  0.00     0.139 C 
ATOM     46  O   UNK d   0      11.695   9.263  -1.963  0.00  0.00    -0.650 OA
BRANCH  45  47
ATOM     47  O   UNK d   0      10.235   9.867  -3.594  0.00  0.00    -0.776 OA
ATOM     48  H   UNK d   0       9.411   9.469  -3.114  0.00  0.00     0.167 HD
ENDBRANCH  45  47
ENDBRANCH  44  45
ENDBRANCH  43  44
ENDBRANCH  27  43
BRANCH  24  49
ATOM     49  C   UNK d   0      14.805   5.121  -4.312  0.00  0.00     0.052 C 
BRANCH  49  50
ATOM     50  C   UNK d   0      13.569   5.879  -3.900  0.00  0.00     0.115 C 
BRANCH  50  51
ATOM     51  C   UNK d   0      13.596   6.536  -2.600  0.00  0.00     0.139 C 
ATOM     52  O   UNK d   0      14.537   7.280  -2.237  0.00  0.00    -0.650 OA
BRANCH  51  53
ATOM     53  O   UNK d   0      12.549   6.343  -1.712  0.00  0.00    -0.776 OA
ATOM     54  H   UNK d   0      12.538   5.499  -1.166  0.00  0.00     0.167 HD
ENDBRANCH  51  53
ENDBRANCH  50  51
ENDBRANCH  49  50
ENDBRANCH  24  49
BRANCH  21  55
ATOM     55  C   UNK d   0      15.935   3.270  -6.513  0.00  0.00     0.151 C 
BRANCH  55  56
ATOM     56  C   UNK d   0      17.111   2.863  -7.298  0.00  0.00     0.143 C 
ATOM     57  O   UNK d   0      18.270   3.226  -7.014  0.00  0.00    -0.650 OA
BRANCH  56  58
ATOM     58  O   UNK d   0      16.901   2.038  -8.401  0.00  0.00    -0.776 OA
ATOM     59  H   UNK d   0      17.379   1.120  -8.356  0.00  0.00     0.167 HD
ENDBRANCH  56  58
ENDBRANCH  55  56
ENDBRANCH  21  55
BRANCH  18  60
ATOM     60  C   UNK d   0      19.025   4.898 -10.589  0.00  0.00     0.151 C 
BRANCH  60  61
ATOM     61  C   UNK d   0      18.505   3.805 -11.425  0.00  0.00     0.143 C 
ATOM     62  O   UNK d   0      17.673   2.956 -11.103  0.00  0.00    -0.650 OA
BRANCH  61  63
ATOM     63  O   UNK d   0      19.034   3.745 -12.736  0.00  0.00    -0.776 OA
ATOM     64  H   UNK d   0      19.957   4.086 -12.939  0.00  0.00     0.167 HD
ENDBRANCH  61  63
ENDBRANCH  60  61
ENDBRANCH  18  60
BRANCH  14  65
ATOM     65  C   UNK d   0      19.253   7.157 -12.603  0.00  0.00     0.052 C 
BRANCH  65  66
ATOM     66  C   UNK d   0      20.575   7.471 -11.996  0.00  0.00     0.115 C 
BRANCH  66  67
ATOM     67  C   UNK d   0      20.700   8.590 -11.105  0.00  0.00     0.139 C 
ATOM     68  O   UNK d   0      21.450   8.467 -10.067  0.00  0.00    -0.650 OA
BRANCH  67  69
ATOM     69  O   UNK d   0      20.096   9.842 -11.216  0.00  0.00    -0.776 OA
ATOM     70  H   UNK d   0      20.636  10.635 -10.842  0.00  0.00     0.167 HD
ENDBRANCH  67  69
ENDBRANCH  66  67
ENDBRANCH  65  66
ENDBRANCH  14  65
ENDBRANCH   6   7
ENDBRANCH   5   6
ENDBRANCH   2   5
TORSDOF 28
ENDMDL
MODEL 9
REMARK VINA RESULT:      -7.8     19.886     21.945
REMARK  28 active torsions:
REMARK  status: ('A' for Active; 'I' for Inactive)
REMARK    1  A    between atoms: C_2  and  O_3 
REMARK    2  A    between atoms: C_2  and  C_4 
REMARK    3  A    between atoms: C_4  and  C_5 
REMARK    4  A    between atoms: C_5  and  C_6 
REMARK    5  A    between atoms: C_7  and  C_8 
REMARK    6  A    between atoms: C_8  and  C_9 
REMARK    7  A    between atoms: C_9  and  O_11 
REMARK    8  A    between atoms: C_28  and  C_29 
REMARK    9  A    between atoms: C_29  and  C_30 
REMARK   10  A    between atoms: C_30  and  O_32 
REMARK   11  A    between atoms: C_33  and  C_34 
REMARK   12  A    between atoms: C_34  and  C_35 
REMARK   13  A    between atoms: C_35  and  C_36 
REMARK   14  A    between atoms: C_36  and  O_38 
REMARK   15  A    between atoms: C_39  and  C_40 
REMARK   16  A    between atoms: C_40  and  C_41 
REMARK   17  A    between atoms: C_41  and  C_42 
REMARK   18  A    between atoms: C_42  and  O_44 
REMARK   19  A    between atoms: C_45  and  C_46 
REMARK   20  A    between atoms: C_46  and  C_47 
REMARK   21  A    between atoms: C_47  and  O_49 
REMARK   22  A    between atoms: C_50  and  C_51 
REMARK   23  A    between atoms: C_51  and  C_52 
REMARK   24  A    between atoms: C_52  and  O_54 
REMARK   25  A    between atoms: C_55  and  C_56 
REMARK   26  A    between atoms: C_56  and  C_57 
REMARK   27  A    between atoms: C_57  and  C_58 
REMARK   28  A    between atoms: C_58  and  O_60 
ROOT
ATOM      1  O   UNK d   0      -6.084  11.865 -16.453  0.00  0.00    -0.650 OA
ATOM      2  C   UNK d   0      -6.782  11.112 -15.738  0.00  0.00     0.139 C 
ENDROOT
BRANCH   2   3
ATOM      3  O   UNK d   0      -7.833  10.430 -16.303  0.00  0.00    -0.776 OA
ATOM      4  H   UNK d   0      -8.718  10.899 -16.504  0.00  0.00     0.167 HD
ENDBRANCH   2   3
BRANCH   2   5
ATOM      5  C   UNK d   0      -6.473  10.960 -14.288  0.00  0.00     0.115 C 
BRANCH   5   6
ATOM      6  C   UNK d   0      -6.101   9.534 -13.984  0.00  0.00     0.052 C 
BRANCH   6   7
ATOM      7  C   UNK d   0      -4.875   9.080 -14.740  0.00  0.00    -0.020 A 
ATOM      8  C   UNK d   0      -3.637   9.462 -14.556  0.00  0.00    -0.011 A 
ATOM      9  C   UNK d   0      -2.808   8.762 -15.523  0.00  0.00     0.067 A 
ATOM     10  C   UNK d   0      -1.440   8.708 -15.832  0.00  0.00     0.062 C 
ATOM     11  N   UNK d   0      -3.624   7.979 -16.259  0.00  0.00    -0.248 NA
ATOM     12  C   UNK d   0      -0.787   7.756 -16.623  0.00  0.00     0.041 A 
ATOM     13  N   UNK d   0      -1.131   7.193 -17.797  0.00  0.00    -0.355 N 
ATOM     14  C   UNK d   0       0.419   7.198 -16.161  0.00  0.00    -0.022 A 
ATOM     15  C   UNK d   0      -0.178   6.286 -18.087  0.00  0.00     0.042 A 
ATOM     16  H   UNK d   0      -2.019   7.445 -18.418  0.00  0.00     0.166 HD
ATOM     17  C   UNK d   0      -0.047   5.422 -19.192  0.00  0.00     0.062 C 
ATOM     18  C   UNK d   0       0.810   6.261 -17.084  0.00  0.00    -0.013 A 
ATOM     19  C   UNK d   0      -0.999   4.640 -19.794  0.00  0.00     0.067 A 
ATOM     20  N   UNK d   0      -2.269   4.850 -19.435  0.00  0.00    -0.248 NA
ATOM     21  C   UNK d   0      -1.004   3.564 -20.771  0.00  0.00    -0.011 A 
ATOM     22  C   UNK d   0      -3.102   3.988 -20.105  0.00  0.00     0.066 A 
ATOM     23  C   UNK d   0      -4.459   4.123 -19.854  0.00  0.00     0.062 C 
ATOM     24  C   UNK d   0      -2.236   3.184 -20.945  0.00  0.00    -0.020 A 
ATOM     25  C   UNK d   0      -5.096   5.094 -19.065  0.00  0.00     0.041 A 
ATOM     26  N   UNK d   0      -4.762   5.643 -17.892  0.00  0.00    -0.355 N 
ATOM     27  C   UNK d   0      -6.304   5.657 -19.533  0.00  0.00    -0.022 A 
ATOM     28  C   UNK d   0      -5.715   6.541 -17.596  0.00  0.00     0.042 A 
ATOM     29  H   UNK d   0      -3.875   5.381 -17.264  0.00  0.00     0.166 HD
ATOM     30  C   UNK d   0      -5.863   7.401 -16.496  0.00  0.00     0.062 C 
ATOM     31  C   UNK d   0      -6.702   6.574 -18.609  0.00  0.00    -0.013 A 
ATOM     32  C   UNK d   0      -4.881   8.124 -15.838  0.00  0.00     0.066 A 
BRANCH   8  33
ATOM     33  C   UNK d   0      -3.149  10.431 -13.558  0.00  0.00     0.151 C 
BRANCH  33  34
ATOM     34  C   UNK d   0      -2.611  11.659 -14.170  0.00  0.00     0.143 C 
ATOM     35  O   UNK d   0      -1.522  12.126 -13.808  0.00  0.00    -0.650 OA
BRANCH  34  36
ATOM     36  O   UNK d   0      -3.331  12.294 -15.156  0.00  0.00    -0.776 OA
ATOM     37  H   UNK d   0      -3.258  13.310 -15.300  0.00  0.00     0.167 HD
ENDBRANCH  34  36
ENDBRANCH  33  34
ENDBRANCH   8  33
BRANCH  31  38
ATOM     38  C   UNK d   0      -7.938   7.440 -18.688  0.00  0.00     0.151 C 
BRANCH  38  39
ATOM     39  C   UNK d   0      -7.728   8.649 -19.455  0.00  0.00     0.143 C 
ATOM     40  O   UNK d   0      -7.032   9.591 -19.035  0.00  0.00    -0.650 OA
BRANCH  39  41
ATOM     41  O   UNK d   0      -8.321   8.777 -20.710  0.00  0.00    -0.776 OA
ATOM     42  H   UNK d   0      -8.347   7.937 -21.296  0.00  0.00     0.167 HD
ENDBRANCH  39  41
ENDBRANCH  38  39
ENDBRANCH  31  38
BRANCH  27  43
ATOM     43  C   UNK d   0      -7.075   5.359 -20.794  0.00  0.00     0.052 C 
BRANCH  43  44
ATOM     44  C   UNK d   0      -8.229   4.435 -20.577  0.00  0.00     0.115 C 
BRANCH  44  45
ATOM     45  C   UNK d   0      -9.429   5.117 -21.126  0.00  0.00     0.139 C 
ATOM     46  O   UNK d   0     -10.553   4.598 -20.917  0.00  0.00    -0.650 OA
BRANCH  45  47
ATOM     47  O   UNK d   0      -9.358   6.291 -21.846  0.00  0.00    -0.776 OA
ATOM     48  H   UNK d   0      -9.950   6.479 -22.670  0.00  0.00     0.167 HD
ENDBRANCH  45  47
ENDBRANCH  44  45
ENDBRANCH  43  44
ENDBRANCH  27  43
BRANCH  24  49
ATOM     49  C   UNK d   0      -2.701   2.143 -21.878  0.00  0.00     0.052 C 
BRANCH  49  50
ATOM     50  C   UNK d   0      -2.542   0.777 -21.262  0.00  0.00     0.115 C 
BRANCH  50  51
ATOM     51  C   UNK d   0      -2.935   0.628 -19.867  0.00  0.00     0.139 C 
ATOM     52  O   UNK d   0      -2.101   0.505 -18.939  0.00  0.00    -0.650 OA
BRANCH  51  53
ATOM     53  O   UNK d   0      -4.280   0.616 -19.530  0.00  0.00    -0.776 OA
ATOM     54  H   UNK d   0      -4.638   1.377 -18.980  0.00  0.00     0.167 HD
ENDBRANCH  51  53
ENDBRANCH  50  51
ENDBRANCH  49  50
ENDBRANCH  24  49
BRANCH  21  55
ATOM     55  C   UNK d   0       0.225   3.031 -21.431  0.00  0.00     0.151 C 
BRANCH  55  56
ATOM     56  C   UNK d   0       0.829   1.930 -20.664  0.00  0.00     0.143 C 
ATOM     57  O   UNK d   0       1.573   1.075 -21.184  0.00  0.00    -0.650 OA
BRANCH  56  58
ATOM     58  O   UNK d   0       0.547   1.857 -19.301  0.00  0.00    -0.776 OA
ATOM     59  H   UNK d   0      -0.306   1.320 -19.060  0.00  0.00     0.167 HD
ENDBRANCH  56  58
ENDBRANCH  55  56
ENDBRANCH  21  55
BRANCH  18  60
ATOM     60  C   UNK d   0       2.053   5.412 -16.981  0.00  0.00     0.151 C 
BRANCH  60  61
ATOM     61  C   UNK d   0       1.620   4.132 -16.398  0.00  0.00     0.143 C 
ATOM     62  O   UNK d   0       1.453   3.066 -16.989  0.00  0.00    -0.650 OA
BRANCH  61  63
ATOM     63  O   UNK d   0       1.376   4.158 -15.003  0.00  0.00    -0.776 OA
ATOM     64  H   UNK d   0       1.849   3.524 -14.383  0.00  0.00     0.167 HD
ENDBRANCH  61  63
ENDBRANCH  60  61
ENDBRANCH  18  60
BRANCH  14  65
ATOM     65  C   UNK d   0       1.271   7.550 -14.975  0.00  0.00     0.052 C 
BRANCH  65  66
ATOM     66  C   UNK d   0       2.265   8.618 -15.268  0.00  0.00     0.115 C 
BRANCH  66  67
ATOM     67  C   UNK d   0       3.663   8.366 -15.058  0.00  0.00     0.139 C 
ATOM     68  O   UNK d   0       4.013   7.242 -14.543  0.00  0.00    -0.650 OA
BRANCH  67  69
ATOM     69  O   UNK d   0       4.734   9.210 -15.348  0.00  0.00    -0.776 OA
ATOM     70  H   UNK d   0       5.469   9.265 -14.628  0.00  0.00     0.167 HD
ENDBRANCH  67  69
ENDBRANCH  66  67
ENDBRANCH  65  66
ENDBRANCH  14  65
ENDBRANCH   6   7
ENDBRANCH   5   6
ENDBRANCH   2   5
TORSDOF 28
ENDMDL
MODEL 10
REMARK VINA RESULT:      -7.6      6.847     11.177
REMARK  28 active torsions:
REMARK  status: ('A' for Active; 'I' for Inactive)
REMARK    1  A    between atoms: C_2  and  O_3 
REMARK    2  A    between atoms: C_2  and  C_4 
REMARK    3  A    between atoms: C_4  and  C_5 
REMARK    4  A    between atoms: C_5  and  C_6 
REMARK    5  A    between atoms: C_7  and  C_8 
REMARK    6  A    between atoms: C_8  and  C_9 
REMARK    7  A    between atoms: C_9  and  O_11 
REMARK    8  A    between atoms: C_28  and  C_29 
REMARK    9  A    between atoms: C_29  and  C_30 
REMARK   10  A    between atoms: C_30  and  O_32 
REMARK   11  A    between atoms: C_33  and  C_34 
REMARK   12  A    between atoms: C_34  and  C_35 
REMARK   13  A    between atoms: C_35  and  C_36 
REMARK   14  A    between atoms: C_36  and  O_38 
REMARK   15  A    between atoms: C_39  and  C_40 
REMARK   16  A    between atoms: C_40  and  C_41 
REMARK   17  A    between atoms: C_41  and  C_42 
REMARK   18  A    between atoms: C_42  and  O_44 
REMARK   19  A    between atoms: C_45  and  C_46 
REMARK   20  A    between atoms: C_46  and  C_47 
REMARK   21  A    between atoms: C_47  and  O_49 
REMARK   22  A    between atoms: C_50  and  C_51 
REMARK   23  A    between atoms: C_51  and  C_52 
REMARK   24  A    between atoms: C_52  and  O_54 
REMARK   25  A    between atoms: C_55  and  C_56 
REMARK   26  A    between atoms: C_56  and  C_57 
REMARK   27  A    between atoms: C_57  and  C_58 
REMARK   28  A    between atoms: C_58  and  O_60 
ROOT
ATOM      1  O   UNK d   0       3.192  14.530 -10.755  0.00  0.00    -0.650 OA
ATOM      2  C   UNK d   0       3.188  15.027  -9.607  0.00  0.00     0.139 C 
ENDROOT
BRANCH   2   3
ATOM      3  O   UNK d   0       2.932  14.220  -8.525  0.00  0.00    -0.776 OA
ATOM      4  H   UNK d   0       2.287  13.430  -8.596  0.00  0.00     0.167 HD
ENDBRANCH   2   3
BRANCH   2   5
ATOM      5  C   UNK d   0       3.459  16.481  -9.421  0.00  0.00     0.115 C 
BRANCH   5   6
ATOM      6  C   UNK d   0       3.843  16.756  -7.992  0.00  0.00     0.052 C 
BRANCH   6   7
ATOM      7  C   UNK d   0       5.298  17.132  -7.844  0.00  0.00    -0.020 A 
ATOM      8  C   UNK d   0       5.793  18.306  -7.544  0.00  0.00    -0.011 A 
ATOM      9  C   UNK d   0       7.241  18.186  -7.524  0.00  0.00     0.067 A 
ATOM     10  C   UNK d   0       8.324  19.040  -7.260  0.00  0.00     0.062 C 
ATOM     11  N   UNK d   0       7.542  16.906  -7.828  0.00  0.00    -0.248 NA
ATOM     12  C   UNK d   0       9.652  18.673  -7.016  0.00  0.00     0.041 A 
ATOM     13  N   UNK d   0      10.444  17.762  -7.612  0.00  0.00    -0.355 N 
ATOM     14  C   UNK d   0      10.337  19.273  -5.944  0.00  0.00    -0.022 A 
ATOM     15  C   UNK d   0      11.611  17.762  -6.941  0.00  0.00     0.042 A 
ATOM     16  H   UNK d   0      10.189  17.144  -8.502  0.00  0.00     0.166 HD
ATOM     17  C   UNK d   0      12.782  17.006  -7.145  0.00  0.00     0.062 C 
ATOM     18  C   UNK d   0      11.582  18.697  -5.888  0.00  0.00    -0.013 A 
ATOM     19  C   UNK d   0      12.909  15.664  -7.399  0.00  0.00     0.067 A 
ATOM     20  N   UNK d   0      11.790  14.996  -7.692  0.00  0.00    -0.248 NA
ATOM     21  C   UNK d   0      13.999  14.703  -7.425  0.00  0.00    -0.011 A 
ATOM     22  C   UNK d   0      12.069  13.668  -7.906  0.00  0.00     0.066 A 
ATOM     23  C   UNK d   0      10.997  12.861  -8.257  0.00  0.00     0.062 C 
ATOM     24  C   UNK d   0      13.501  13.537  -7.718  0.00  0.00    -0.020 A 
ATOM     25  C   UNK d   0       9.673  13.252  -8.510  0.00  0.00     0.041 A 
ATOM     26  N   UNK d   0       8.881  14.147  -7.908  0.00  0.00    -0.355 N 
ATOM     27  C   UNK d   0       8.987  12.652  -9.589  0.00  0.00    -0.022 A 
ATOM     28  C   UNK d   0       7.713  14.141  -8.569  0.00  0.00     0.042 A 
ATOM     29  H   UNK d   0       9.134  14.759  -7.008  0.00  0.00     0.166 HD
ATOM     30  C   UNK d   0       6.537  14.882  -8.372  0.00  0.00     0.062 C 
ATOM     31  C   UNK d   0       7.746  13.210  -9.634  0.00  0.00    -0.013 A 
ATOM     32  C   UNK d   0       6.416  16.220  -8.031  0.00  0.00     0.066 A 
BRANCH   8  33
ATOM     33  C   UNK d   0       5.036  19.543  -7.278  0.00  0.00     0.151 C 
BRANCH  33  34
ATOM     34  C   UNK d   0       4.737  19.732  -5.846  0.00  0.00     0.143 C 
ATOM     35  O   UNK d   0       3.568  19.834  -5.448  0.00  0.00    -0.650 OA
BRANCH  34  36
ATOM     36  O   UNK d   0       5.773  19.796  -4.943  0.00  0.00    -0.776 OA
ATOM     37  H   UNK d   0       6.129  18.950  -4.477  0.00  0.00     0.167 HD
ENDBRANCH  34  36
ENDBRANCH  33  34
ENDBRANCH   8  33
BRANCH  31  38
ATOM     38  C   UNK d   0       6.661  12.889 -10.635  0.00  0.00     0.151 C 
BRANCH  38  39
ATOM     39  C   UNK d   0       5.841  11.765 -10.233  0.00  0.00     0.143 C 
ATOM     40  O   UNK d   0       6.310  10.626 -10.065  0.00  0.00    -0.650 OA
BRANCH  39  41
ATOM     41  O   UNK d   0       4.475  11.953 -10.023  0.00  0.00    -0.776 OA
ATOM     42  H   UNK d   0       4.128  12.915 -10.075  0.00  0.00     0.167 HD
ENDBRANCH  39  41
ENDBRANCH  38  39
ENDBRANCH  31  38
BRANCH  27  43
ATOM     43  C   UNK d   0       9.458  11.592 -10.553  0.00  0.00     0.052 C 
BRANCH  43  44
ATOM     44  C   UNK d   0       9.715  12.117 -11.929  0.00  0.00     0.115 C 
BRANCH  44  45
ATOM     45  C   UNK d   0       8.950  11.252 -12.863  0.00  0.00     0.139 C 
ATOM     46  O   UNK d   0       8.957  11.548 -14.084  0.00  0.00    -0.650 OA
BRANCH  45  47
ATOM     47  O   UNK d   0       8.243  10.144 -12.448  0.00  0.00    -0.776 OA
ATOM     48  H   UNK d   0       8.688   9.228 -12.276  0.00  0.00     0.167 HD
ENDBRANCH  45  47
ENDBRANCH  44  45
ENDBRANCH  43  44
ENDBRANCH  27  43
BRANCH  24  49
ATOM     49  C   UNK d   0      14.260  12.286  -7.886  0.00  0.00     0.052 C 
BRANCH  49  50
ATOM     50  C   UNK d   0      14.491  12.005  -9.349  0.00  0.00     0.115 C 
BRANCH  50  51
ATOM     51  C   UNK d   0      15.188  10.771  -9.687  0.00  0.00     0.139 C 
ATOM     52  O   UNK d   0      15.862  10.641 -10.736  0.00  0.00    -0.650 OA
BRANCH  51  53
ATOM     53  O   UNK d   0      15.115   9.684  -8.829  0.00  0.00    -0.776 OA
ATOM     54  H   UNK d   0      15.269   9.841  -7.849  0.00  0.00     0.167 HD
ENDBRANCH  51  53
ENDBRANCH  50  51
ENDBRANCH  49  50
ENDBRANCH  24  49
BRANCH  21  55
ATOM     55  C   UNK d   0      15.426  15.053  -7.159  0.00  0.00     0.151 C 
BRANCH  55  56
ATOM     56  C   UNK d   0      16.022  15.819  -8.265  0.00  0.00     0.143 C 
ATOM     57  O   UNK d   0      16.189  17.053  -8.217  0.00  0.00    -0.650 OA
BRANCH  56  58
ATOM     58  O   UNK d   0      16.409  15.118  -9.406  0.00  0.00    -0.776 OA
ATOM     59  H   UNK d   0      15.731  14.405  -9.731  0.00  0.00     0.167 HD
ENDBRANCH  56  58
ENDBRANCH  55  56
ENDBRANCH  21  55
BRANCH  18  60
ATOM     60  C   UNK d   0      12.649  19.040  -4.878  0.00  0.00     0.151 C 
BRANCH  60  61
ATOM     61  C   UNK d   0      13.629  19.872  -5.593  0.00  0.00     0.143 C 
ATOM     62  O   UNK d   0      14.760  19.542  -5.954  0.00  0.00    -0.650 OA
BRANCH  61  63
ATOM     63  O   UNK d   0      13.202  21.189  -5.887  0.00  0.00    -0.776 OA
ATOM     64  H   UNK d   0      13.803  21.977  -5.725  0.00  0.00     0.167 HD
ENDBRANCH  61  63
ENDBRANCH  60  61
ENDBRANCH  18  60
BRANCH  14  65
ATOM     65  C   UNK d   0       9.945  20.407  -5.040  0.00  0.00     0.052 C 
BRANCH  65  66
ATOM     66  C   UNK d   0       9.832  20.001  -3.613  0.00  0.00     0.115 C 
BRANCH  66  67
ATOM     67  C   UNK d   0       8.756  19.145  -3.200  0.00  0.00     0.139 C 
ATOM     68  O   UNK d   0       7.732  19.676  -2.633  0.00  0.00    -0.650 OA
BRANCH  67  69
ATOM     69  O   UNK d   0       8.668  17.759  -3.335  0.00  0.00    -0.776 OA
ATOM     70  H   UNK d   0       7.714  17.373  -3.372  0.00  0.00     0.167 HD
ENDBRANCH  67  69
ENDBRANCH  66  67
ENDBRANCH  65  66
ENDBRANCH  14  65
ENDBRANCH   6   7
ENDBRANCH   5   6
ENDBRANCH   2   5
TORSDOF 28
ENDMDL
MODEL 11
REMARK VINA RESULT:      -7.5      7.032     11.990
REMARK  28 active torsions:
REMARK  status: ('A' for Active; 'I' for Inactive)
REMARK    1  A    between atoms: C_2  and  O_3 
REMARK    2  A    between atoms: C_2  and  C_4 
REMARK    3  A    between atoms: C_4  and  C_5 
REMARK    4  A    between atoms: C_5  and  C_6 
REMARK    5  A    between atoms: C_7  and  C_8 
REMARK    6  A    between atoms: C_8  and  C_9 
REMARK    7  A    between atoms: C_9  and  O_11 
REMARK    8  A    between atoms: C_28  and  C_29 
REMARK    9  A    between atoms: C_29  and  C_30 
REMARK   10  A    between atoms: C_30  and  O_32 
REMARK   11  A    between atoms: C_33  and  C_34 
REMARK   12  A    between atoms: C_34  and  C_35 
REMARK   13  A    between atoms: C_35  and  C_36 
REMARK   14  A    between atoms: C_36  and  O_38 
REMARK   15  A    between atoms: C_39  and  C_40 
REMARK   16  A    between atoms: C_40  and  C_41 
REMARK   17  A    between atoms: C_41  and  C_42 
REMARK   18  A    between atoms: C_42  and  O_44 
REMARK   19  A    between atoms: C_45  and  C_46 
REMARK   20  A    between atoms: C_46  and  C_47 
REMARK   21  A    between atoms: C_47  and  O_49 
REMARK   22  A    between atoms: C_50  and  C_51 
REMARK   23  A    between atoms: C_51  and  C_52 
REMARK   24  A    between atoms: C_52  and  O_54 
REMARK   25  A    between atoms: C_55  and  C_56 
REMARK   26  A    between atoms: C_56  and  C_57 
REMARK   27  A    between atoms: C_57  and  C_58 
REMARK   28  A    between atoms: C_58  and  O_60 
ROOT
ATOM      1  O   UNK d   0       7.796  20.110  -3.767  0.00  0.00    -0.650 OA
ATOM      2  C   UNK d   0       8.530  19.469  -2.982  0.00  0.00     0.139 C 
ENDROOT
BRANCH   2   3
ATOM      3  O   UNK d   0       8.005  18.993  -1.805  0.00  0.00    -0.776 OA
ATOM      4  H   UNK d   0       8.430  18.199  -1.321  0.00  0.00     0.167 HD
ENDBRANCH   2   3
BRANCH   2   5
ATOM      5  C   UNK d   0       9.961  19.228  -3.325  0.00  0.00     0.115 C 
BRANCH   5   6
ATOM      6  C   UNK d   0      10.262  19.765  -4.698  0.00  0.00     0.052 C 
BRANCH   6   7
ATOM      7  C   UNK d   0      10.598  18.676  -5.688  0.00  0.00    -0.020 A 
ATOM      8  C   UNK d   0      11.782  18.340  -6.134  0.00  0.00    -0.011 A 
ATOM      9  C   UNK d   0      11.609  17.245  -7.074  0.00  0.00     0.067 A 
ATOM     10  C   UNK d   0      12.451  16.443  -7.859  0.00  0.00     0.062 C 
ATOM     11  N   UNK d   0      10.287  16.982  -7.144  0.00  0.00    -0.248 NA
ATOM     12  C   UNK d   0      12.122  15.242  -8.498  0.00  0.00     0.041 A 
ATOM     13  N   UNK d   0      11.031  14.882  -9.201  0.00  0.00    -0.355 N 
ATOM     14  C   UNK d   0      13.005  14.152  -8.395  0.00  0.00    -0.022 A 
ATOM     15  C   UNK d   0      11.196  13.589  -9.539  0.00  0.00     0.042 A 
ATOM     16  H   UNK d   0      10.171  15.534  -9.470  0.00  0.00     0.166 HD
ATOM     17  C   UNK d   0      10.361  12.723 -10.273  0.00  0.00     0.062 C 
ATOM     18  C   UNK d   0      12.422  13.097  -9.051  0.00  0.00    -0.013 A 
ATOM     19  C   UNK d   0       9.005  12.543 -10.174  0.00  0.00     0.067 A 
ATOM     20  N   UNK d   0       8.330  13.426  -9.433  0.00  0.00    -0.248 NA
ATOM     21  C   UNK d   0       8.039  11.581 -10.677  0.00  0.00    -0.011 A 
ATOM     22  C   UNK d   0       6.994  13.111  -9.414  0.00  0.00     0.066 A 
ATOM     23  C   UNK d   0       6.167  13.972  -8.709  0.00  0.00     0.062 C 
ATOM     24  C   UNK d   0       6.865  11.916 -10.226  0.00  0.00    -0.020 A 
ATOM     25  C   UNK d   0       6.515  15.180  -8.084  0.00  0.00     0.041 A 
ATOM     26  N   UNK d   0       7.592  15.533  -7.373  0.00  0.00    -0.355 N 
ATOM     27  C   UNK d   0       5.630  16.275  -8.192  0.00  0.00    -0.022 A 
ATOM     28  C   UNK d   0       7.426  16.820  -7.027  0.00  0.00     0.042 A 
ATOM     29  H   UNK d   0       8.450  14.874  -7.095  0.00  0.00     0.166 HD
ATOM     30  C   UNK d   0       8.244  17.690  -6.290  0.00  0.00     0.062 C 
ATOM     31  C   UNK d   0       6.199  17.317  -7.527  0.00  0.00    -0.013 A 
ATOM     32  C   UNK d   0       9.624  17.808  -6.333  0.00  0.00     0.066 A 
BRANCH   8  33
ATOM     33  C   UNK d   0      13.072  18.953  -5.767  0.00  0.00     0.151 C 
BRANCH  33  34
ATOM     34  C   UNK d   0      13.667  19.732  -6.868  0.00  0.00     0.143 C 
ATOM     35  O   UNK d   0      14.875  19.643  -7.131  0.00  0.00    -0.650 OA
BRANCH  34  36
ATOM     36  O   UNK d   0      12.868  20.570  -7.611  0.00  0.00    -0.776 OA
ATOM     37  H   UNK d   0      13.102  21.565  -7.729  0.00  0.00     0.167 HD
ENDBRANCH  34  36
ENDBRANCH  33  34
ENDBRANCH   8  33
BRANCH  31  38
ATOM     38  C   UNK d   0       5.621  18.705  -7.385  0.00  0.00     0.151 C 
BRANCH  38  39
ATOM     39  C   UNK d   0       5.875  19.541  -8.539  0.00  0.00     0.143 C 
ATOM     40  O   UNK d   0       7.024  19.774  -8.953  0.00  0.00    -0.650 OA
BRANCH  39  41
ATOM     41  O   UNK d   0       4.801  20.110  -9.223  0.00  0.00    -0.776 OA
ATOM     42  H   UNK d   0       4.986  20.983  -9.728  0.00  0.00     0.167 HD
ENDBRANCH  39  41
ENDBRANCH  38  39
ENDBRANCH  31  38
BRANCH  27  43
ATOM     43  C   UNK d   0       4.294  16.362  -8.887  0.00  0.00     0.052 C 
BRANCH  43  44
ATOM     44  C   UNK d   0       3.150  15.940  -8.023  0.00  0.00     0.115 C 
BRANCH  44  45
ATOM     45  C   UNK d   0       2.092  15.436  -8.937  0.00  0.00     0.139 C 
ATOM     46  O   UNK d   0       2.182  15.715 -10.158  0.00  0.00    -0.650 OA
BRANCH  45  47
ATOM     47  O   UNK d   0       1.027  14.677  -8.502  0.00  0.00    -0.776 OA
ATOM     48  H   UNK d   0       0.391  14.181  -9.147  0.00  0.00     0.167 HD
ENDBRANCH  45  47
ENDBRANCH  44  45
ENDBRANCH  43  44
ENDBRANCH  27  43
BRANCH  24  49
ATOM     49  C   UNK d   0       5.593  11.235 -10.523  0.00  0.00     0.052 C 
BRANCH  49  50
ATOM     50  C   UNK d   0       5.099  11.620 -11.894  0.00  0.00     0.115 C 
BRANCH  50  51
ATOM     51  C   UNK d   0       4.420  12.902 -12.020  0.00  0.00     0.139 C 
ATOM     52  O   UNK d   0       4.487  13.604 -13.056  0.00  0.00    -0.650 OA
BRANCH  51  53
ATOM     53  O   UNK d   0       3.665  13.386 -10.962  0.00  0.00    -0.776 OA
ATOM     54  H   UNK d   0       3.512  12.783 -10.173  0.00  0.00     0.167 HD
ENDBRANCH  51  53
ENDBRANCH  50  51
ENDBRANCH  49  50
ENDBRANCH  24  49
BRANCH  21  55
ATOM     55  C   UNK d   0       8.390  10.430 -11.561  0.00  0.00     0.151 C 
BRANCH  55  56
ATOM     56  C   UNK d   0       8.506  10.832 -12.971  0.00  0.00     0.143 C 
ATOM     57  O   UNK d   0       7.559  10.746 -13.778  0.00  0.00    -0.650 OA
BRANCH  56  58
ATOM     58  O   UNK d   0       9.734  11.329 -13.405  0.00  0.00    -0.776 OA
ATOM     59  H   UNK d   0       9.890  11.272 -14.428  0.00  0.00     0.167 HD
ENDBRANCH  56  58
ENDBRANCH  55  56
ENDBRANCH  21  55
BRANCH  18  60
ATOM     60  C   UNK d   0      13.024  11.720  -9.180  0.00  0.00     0.151 C 
BRANCH  60  61
ATOM     61  C   UNK d   0      12.135  10.818  -8.432  0.00  0.00     0.143 C 
ATOM     62  O   UNK d   0      11.556   9.821  -8.864  0.00  0.00    -0.650 OA
BRANCH  61  63
ATOM     63  O   UNK d   0      11.941  11.155  -7.071  0.00  0.00    -0.776 OA
ATOM     64  H   UNK d   0      12.712  11.438  -6.492  0.00  0.00     0.167 HD
ENDBRANCH  61  63
ENDBRANCH  60  61
ENDBRANCH  18  60
BRANCH  14  65
ATOM     65  C   UNK d   0      14.388  14.061  -7.814  0.00  0.00     0.052 C 
BRANCH  65  66
ATOM     66  C   UNK d   0      14.421  13.369  -6.498  0.00  0.00     0.115 C 
BRANCH  66  67
ATOM     67  C   UNK d   0      15.339  12.285  -6.287  0.00  0.00     0.139 C 
ATOM     68  O   UNK d   0      14.924  11.083  -6.478  0.00  0.00    -0.650 OA
BRANCH  67  69
ATOM     69  O   UNK d   0      16.673  12.362  -5.887  0.00  0.00    -0.776 OA
ATOM     70  H   UNK d   0      16.950  11.724  -5.127  0.00  0.00     0.167 HD
ENDBRANCH  67  69
ENDBRANCH  66  67
ENDBRANCH  65  66
ENDBRANCH  14  65
ENDBRANCH   6   7
ENDBRANCH   5   6
ENDBRANCH   2   5
TORSDOF 28
ENDMDL
MODEL 12
REMARK VINA RESULT:      -7.3     19.382     21.357
REMARK  28 active torsions:
REMARK  status: ('A' for Active; 'I' for Inactive)
REMARK    1  A    between atoms: C_2  and  O_3 
REMARK    2  A    between atoms: C_2  and  C_4 
REMARK    3  A    between atoms: C_4  and  C_5 
REMARK    4  A    between atoms: C_5  and  C_6 
REMARK    5  A    between atoms: C_7  and  C_8 
REMARK    6  A    between atoms: C_8  and  C_9 
REMARK    7  A    between atoms: C_9  and  O_11 
REMARK    8  A    between atoms: C_28  and  C_29 
REMARK    9  A    between atoms: C_29  and  C_30 
REMARK   10  A    between atoms: C_30  and  O_32 
REMARK   11  A    between atoms: C_33  and  C_34 
REMARK   12  A    between atoms: C_34  and  C_35 
REMARK   13  A    between atoms: C_35  and  C_36 
REMARK   14  A    between atoms: C_36  and  O_38 
REMARK   15  A    between atoms: C_39  and  C_40 
REMARK   16  A    between atoms: C_40  and  C_41 
REMARK   17  A    between atoms: C_41  and  C_42 
REMARK   18  A    between atoms: C_42  and  O_44 
REMARK   19  A    between atoms: C_45  and  C_46 
REMARK   20  A    between atoms: C_46  and  C_47 
REMARK   21  A    between atoms: C_47  and  O_49 
REMARK   22  A    between atoms: C_50  and  C_51 
REMARK   23  A    between atoms: C_51  and  C_52 
REMARK   24  A    between atoms: C_52  and  O_54 
REMARK   25  A    between atoms: C_55  and  C_56 
REMARK   26  A    between atoms: C_56  and  C_57 
REMARK   27  A    between atoms: C_57  and  C_58 
REMARK   28  A    between atoms: C_58  and  O_60 
ROOT
ATOM      1  O   UNK d   0       0.102  13.524 -16.062  0.00  0.00    -0.650 OA
ATOM      2  C   UNK d   0      -0.377  12.854 -15.121  0.00  0.00     0.139 C 
ENDROOT
BRANCH   2   3
ATOM      3  O   UNK d   0       0.447  12.030 -14.393  0.00  0.00    -0.776 OA
ATOM      4  H   UNK d   0       0.777  11.142 -14.775  0.00  0.00     0.167 HD
ENDBRANCH   2   3
BRANCH   2   5
ATOM      5  C   UNK d   0      -1.829  12.950 -14.796  0.00  0.00     0.115 C 
BRANCH   5   6
ATOM      6  C   UNK d   0      -2.229  11.828 -13.878  0.00  0.00     0.052 C 
BRANCH   6   7
ATOM      7  C   UNK d   0      -3.039  10.764 -14.580  0.00  0.00    -0.020 A 
ATOM      8  C   UNK d   0      -4.339  10.614 -14.571  0.00  0.00    -0.011 A 
ATOM      9  C   UNK d   0      -4.658   9.450 -15.379  0.00  0.00     0.067 A 
ATOM     10  C   UNK d   0      -5.828   8.784 -15.779  0.00  0.00     0.062 C 
ATOM     11  N   UNK d   0      -3.492   8.947 -15.837  0.00  0.00    -0.248 NA
ATOM     12  C   UNK d   0      -5.955   7.832 -16.796  0.00  0.00     0.041 A 
ATOM     13  N   UNK d   0      -5.179   6.785 -17.132  0.00  0.00    -0.355 N 
ATOM     14  C   UNK d   0      -7.024   7.945 -17.704  0.00  0.00    -0.022 A 
ATOM     15  C   UNK d   0      -5.722   6.235 -18.235  0.00  0.00     0.042 A 
ATOM     16  H   UNK d   0      -4.275   6.429 -16.590  0.00  0.00     0.166 HD
ATOM     17  C   UNK d   0      -5.315   5.122 -18.997  0.00  0.00     0.062 C 
ATOM     18  C   UNK d   0      -6.881   6.936 -18.623  0.00  0.00    -0.013 A 
ATOM     19  C   UNK d   0      -4.057   4.786 -19.428  0.00  0.00     0.067 A 
ATOM     20  N   UNK d   0      -3.036   5.476 -18.911  0.00  0.00    -0.248 NA
ATOM     21  C   UNK d   0      -3.495   3.829 -20.366  0.00  0.00    -0.011 A 
ATOM     22  C   UNK d   0      -1.848   5.040 -19.445  0.00  0.00     0.066 A 
ATOM     23  C   UNK d   0      -0.697   5.648 -18.966  0.00  0.00     0.062 C 
ATOM     24  C   UNK d   0      -2.202   3.986 -20.375  0.00  0.00    -0.020 A 
ATOM     25  C   UNK d   0      -0.590   6.594 -17.935  0.00  0.00     0.041 A 
ATOM     26  N   UNK d   0      -1.353   7.644 -17.609  0.00  0.00    -0.355 N 
ATOM     27  C   UNK d   0       0.481   6.477 -17.021  0.00  0.00    -0.022 A 
ATOM     28  C   UNK d   0      -0.808   8.199 -16.515  0.00  0.00     0.042 A 
ATOM     29  H   UNK d   0      -2.255   8.006 -18.161  0.00  0.00     0.166 HD
ATOM     30  C   UNK d   0      -1.198   9.311 -15.753  0.00  0.00     0.062 C 
ATOM     31  C   UNK d   0       0.350   7.488 -16.119  0.00  0.00    -0.013 A 
ATOM     32  C   UNK d   0      -2.480   9.693 -15.391  0.00  0.00     0.066 A 
BRANCH   8  33
ATOM     33  C   UNK d   0      -5.322  11.460 -13.870  0.00  0.00     0.151 C 
BRANCH  33  34
ATOM     34  C   UNK d   0      -5.937  10.783 -12.714  0.00  0.00     0.143 C 
ATOM     35  O   UNK d   0      -7.116  10.405 -12.751  0.00  0.00    -0.650 OA
BRANCH  34  36
ATOM     36  O   UNK d   0      -5.188  10.569 -11.580  0.00  0.00    -0.776 OA
ATOM     37  H   UNK d   0      -4.650   9.702 -11.450  0.00  0.00     0.167 HD
ENDBRANCH  34  36
ENDBRANCH  33  34
ENDBRANCH   8  33
BRANCH  31  38
ATOM     38  C   UNK d   0       1.260   7.757 -14.944  0.00  0.00     0.151 C 
BRANCH  38  39
ATOM     39  C   UNK d   0       2.353   8.647 -15.272  0.00  0.00     0.143 C 
ATOM     40  O   UNK d   0       2.167   9.814 -15.661  0.00  0.00    -0.650 OA
BRANCH  39  41
ATOM     41  O   UNK d   0       3.667   8.194 -15.153  0.00  0.00    -0.776 OA
ATOM     42  H   UNK d   0       3.862   7.543 -14.386  0.00  0.00     0.167 HD
ENDBRANCH  39  41
ENDBRANCH  38  39
ENDBRANCH  31  38
BRANCH  27  43
ATOM     43  C   UNK d   0       1.598   5.464 -16.978  0.00  0.00     0.052 C 
BRANCH  43  44
ATOM     44  C   UNK d   0       2.727   5.790 -17.901  0.00  0.00     0.115 C 
BRANCH  44  45
ATOM     45  C   UNK d   0       3.952   5.863 -17.064  0.00  0.00     0.139 C 
ATOM     46  O   UNK d   0       4.880   6.623 -17.437  0.00  0.00    -0.650 OA
BRANCH  45  47
ATOM     47  O   UNK d   0       4.107   5.139 -15.901  0.00  0.00    -0.776 OA
ATOM     48  H   UNK d   0       4.576   5.519 -15.063  0.00  0.00     0.167 HD
ENDBRANCH  45  47
ENDBRANCH  44  45
ENDBRANCH  43  44
ENDBRANCH  27  43
BRANCH  24  49
ATOM     49  C   UNK d   0      -1.237   3.195 -21.158  0.00  0.00     0.052 C 
BRANCH  49  50
ATOM     50  C   UNK d   0      -0.589   2.149 -20.288  0.00  0.00     0.115 C 
BRANCH  50  51
ATOM     51  C   UNK d   0      -1.231   0.842 -20.229  0.00  0.00     0.139 C 
ATOM     52  O   UNK d   0      -1.615   0.326 -19.154  0.00  0.00    -0.650 OA
BRANCH  51  53
ATOM     53  O   UNK d   0      -1.432   0.123 -21.397  0.00  0.00    -0.776 OA
ATOM     54  H   UNK d   0      -0.666   0.042 -22.043  0.00  0.00     0.167 HD
ENDBRANCH  51  53
ENDBRANCH  50  51
ENDBRANCH  49  50
ENDBRANCH  24  49
BRANCH  21  55
ATOM     55  C   UNK d   0      -4.308   2.855 -21.153  0.00  0.00     0.151 C 
BRANCH  55  56
ATOM     56  C   UNK d   0      -4.541   1.606 -20.413  0.00  0.00     0.143 C 
ATOM     57  O   UNK d   0      -4.792   1.582 -19.192  0.00  0.00    -0.650 OA
BRANCH  56  58
ATOM     58  O   UNK d   0      -4.475   0.409 -21.123  0.00  0.00    -0.776 OA
ATOM     59  H   UNK d   0      -3.709  -0.227 -20.835  0.00  0.00     0.167 HD
ENDBRANCH  56  58
ENDBRANCH  55  56
ENDBRANCH  21  55
BRANCH  18  60
ATOM     60  C   UNK d   0      -7.808   6.688 -19.787  0.00  0.00     0.151 C 
BRANCH  60  61
ATOM     61  C   UNK d   0      -7.274   7.480 -20.905  0.00  0.00     0.143 C 
ATOM     62  O   UNK d   0      -6.134   7.932 -21.016  0.00  0.00    -0.650 OA
BRANCH  61  63
ATOM     63  O   UNK d   0      -8.189   7.736 -21.954  0.00  0.00    -0.776 OA
ATOM     64  H   UNK d   0      -8.108   8.561 -22.523  0.00  0.00     0.167 HD
ENDBRANCH  61  63
ENDBRANCH  60  61
ENDBRANCH  18  60
BRANCH  14  65
ATOM     65  C   UNK d   0      -8.212   8.864 -17.711  0.00  0.00     0.052 C 
BRANCH  65  66
ATOM     66  C   UNK d   0      -8.011  10.069 -18.560  0.00  0.00     0.115 C 
BRANCH  66  67
ATOM     67  C   UNK d   0      -7.348  11.221 -18.016  0.00  0.00     0.139 C 
ATOM     68  O   UNK d   0      -8.057  12.109 -17.414  0.00  0.00    -0.650 OA
BRANCH  67  69
ATOM     69  O   UNK d   0      -5.987  11.519 -18.053  0.00  0.00    -0.776 OA
ATOM     70  H   UNK d   0      -5.541  11.694 -17.141  0.00  0.00     0.167 HD
ENDBRANCH  67  69
ENDBRANCH  66  67
ENDBRANCH  65  66
ENDBRANCH  14  65
ENDBRANCH   6   7
ENDBRANCH   5   6
ENDBRANCH   2   5
TORSDOF 28
ENDMDL
MODEL 13
REMARK VINA RESULT:      -7.3     21.621     23.669
REMARK  28 active torsions:
REMARK  status: ('A' for Active; 'I' for Inactive)
REMARK    1  A    between atoms: C_2  and  O_3 
REMARK    2  A    between atoms: C_2  and  C_4 
REMARK    3  A    between atoms: C_4  and  C_5 
REMARK    4  A    between atoms: C_5  and  C_6 
REMARK    5  A    between atoms: C_7  and  C_8 
REMARK    6  A    between atoms: C_8  and  C_9 
REMARK    7  A    between atoms: C_9  and  O_11 
REMARK    8  A    between atoms: C_28  and  C_29 
REMARK    9  A    between atoms: C_29  and  C_30 
REMARK   10  A    between atoms: C_30  and  O_32 
REMARK   11  A    between atoms: C_33  and  C_34 
REMARK   12  A    between atoms: C_34  and  C_35 
REMARK   13  A    between atoms: C_35  and  C_36 
REMARK   14  A    between atoms: C_36  and  O_38 
REMARK   15  A    between atoms: C_39  and  C_40 
REMARK   16  A    between atoms: C_40  and  C_41 
REMARK   17  A    between atoms: C_41  and  C_42 
REMARK   18  A    between atoms: C_42  and  O_44 
REMARK   19  A    between atoms: C_45  and  C_46 
REMARK   20  A    between atoms: C_46  and  C_47 
REMARK   21  A    between atoms: C_47  and  O_49 
REMARK   22  A    between atoms: C_50  and  C_51 
REMARK   23  A    between atoms: C_51  and  C_52 
REMARK   24  A    between atoms: C_52  and  O_54 
REMARK   25  A    between atoms: C_55  and  C_56 
REMARK   26  A    between atoms: C_56  and  C_57 
REMARK   27  A    between atoms: C_57  and  C_58 
REMARK   28  A    between atoms: C_58  and  O_60 
ROOT
ATOM      1  O   UNK d   0      -8.007   4.883 -24.447  0.00  0.00    -0.650 OA
ATOM      2  C   UNK d   0      -8.983   4.195 -24.073  0.00  0.00     0.139 C 
ENDROOT
BRANCH   2   3
ATOM      3  O   UNK d   0     -10.234   4.476 -24.567  0.00  0.00    -0.776 OA
ATOM      4  H   UNK d   0     -10.366   4.751 -25.542  0.00  0.00     0.167 HD
ENDBRANCH   2   3
BRANCH   2   5
ATOM      5  C   UNK d   0      -8.786   3.083 -23.100  0.00  0.00     0.115 C 
BRANCH   5   6
ATOM      6  C   UNK d   0      -9.219   3.515 -21.726  0.00  0.00     0.052 C 
BRANCH   6   7
ATOM      7  C   UNK d   0      -8.314   4.569 -21.135  0.00  0.00    -0.020 A 
ATOM      8  C   UNK d   0      -8.641   5.776 -20.748  0.00  0.00    -0.011 A 
ATOM      9  C   UNK d   0      -7.437   6.426 -20.257  0.00  0.00     0.067 A 
ATOM     10  C   UNK d   0      -7.116   7.674 -19.700  0.00  0.00     0.062 C 
ATOM     11  N   UNK d   0      -6.424   5.545 -20.388  0.00  0.00    -0.248 NA
ATOM     12  C   UNK d   0      -5.942   8.023 -19.025  0.00  0.00     0.041 A 
ATOM     13  N   UNK d   0      -4.651   7.748 -19.291  0.00  0.00    -0.355 N 
ATOM     14  C   UNK d   0      -6.038   8.742 -17.819  0.00  0.00    -0.022 A 
ATOM     15  C   UNK d   0      -3.926   8.267 -18.282  0.00  0.00     0.042 A 
ATOM     16  H   UNK d   0      -4.258   7.215 -20.185  0.00  0.00     0.166 HD
ATOM     17  C   UNK d   0      -2.534   8.266 -18.063  0.00  0.00     0.062 C 
ATOM     18  C   UNK d   0      -4.761   8.897 -17.339  0.00  0.00    -0.013 A 
ATOM     19  C   UNK d   0      -1.640   7.235 -18.199  0.00  0.00     0.067 A 
ATOM     20  N   UNK d   0      -2.080   6.129 -18.804  0.00  0.00    -0.248 NA
ATOM     21  C   UNK d   0      -0.255   6.997 -17.827  0.00  0.00    -0.011 A 
ATOM     22  C   UNK d   0      -1.085   5.184 -18.853  0.00  0.00     0.066 A 
ATOM     23  C   UNK d   0      -1.396   3.993 -19.492  0.00  0.00     0.062 C 
ATOM     24  C   UNK d   0       0.063   5.794 -18.209  0.00  0.00    -0.020 A 
ATOM     25  C   UNK d   0      -2.578   3.667 -20.176  0.00  0.00     0.041 A 
ATOM     26  N   UNK d   0      -3.862   3.927 -19.903  0.00  0.00    -0.355 N 
ATOM     27  C   UNK d   0      -2.480   2.950 -21.388  0.00  0.00    -0.022 A 
ATOM     28  C   UNK d   0      -4.587   3.404 -20.904  0.00  0.00     0.042 A 
ATOM     29  H   UNK d   0      -4.256   4.454 -18.999  0.00  0.00     0.166 HD
ATOM     30  C   UNK d   0      -5.972   3.389 -21.130  0.00  0.00     0.062 C 
ATOM     31  C   UNK d   0      -3.747   2.780 -21.856  0.00  0.00    -0.013 A 
ATOM     32  C   UNK d   0      -6.885   4.408 -20.910  0.00  0.00     0.066 A 
BRANCH   8  33
ATOM     33  C   UNK d   0      -9.981   6.389 -20.797  0.00  0.00     0.151 C 
BRANCH  33  34
ATOM     34  C   UNK d   0     -10.266   7.035 -22.091  0.00  0.00     0.143 C 
ATOM     35  O   UNK d   0     -11.174   6.619 -22.824  0.00  0.00    -0.650 OA
BRANCH  34  36
ATOM     36  O   UNK d   0      -9.510   8.114 -22.488  0.00  0.00    -0.776 OA
ATOM     37  H   UNK d   0      -9.885   8.819 -23.136  0.00  0.00     0.167 HD
ENDBRANCH  34  36
ENDBRANCH  33  34
ENDBRANCH   8  33
BRANCH  31  38
ATOM     38  C   UNK d   0      -4.137   2.079 -23.136  0.00  0.00     0.151 C 
BRANCH  38  39
ATOM     39  C   UNK d   0      -4.074   2.946 -24.293  0.00  0.00     0.143 C 
ATOM     40  O   UNK d   0      -4.382   4.150 -24.241  0.00  0.00    -0.650 OA
BRANCH  39  41
ATOM     41  O   UNK d   0      -3.652   2.427 -25.517  0.00  0.00    -0.776 OA
ATOM     42  H   UNK d   0      -3.249   3.091 -26.186  0.00  0.00     0.167 HD
ENDBRANCH  39  41
ENDBRANCH  38  39
ENDBRANCH  31  38
BRANCH  27  43
ATOM     43  C   UNK d   0      -1.255   2.431 -22.099  0.00  0.00     0.052 C 
BRANCH  43  44
ATOM     44  C   UNK d   0      -0.963   0.996 -21.804  0.00  0.00     0.115 C 
BRANCH  44  45
ATOM     45  C   UNK d   0       0.447   0.936 -21.338  0.00  0.00     0.139 C 
ATOM     46  O   UNK d   0       1.182   0.024 -21.792  0.00  0.00    -0.650 OA
BRANCH  45  47
ATOM     47  O   UNK d   0       0.977   1.838 -20.441  0.00  0.00    -0.776 OA
ATOM     48  H   UNK d   0       1.065   1.638 -19.432  0.00  0.00     0.167 HD
ENDBRANCH  45  47
ENDBRANCH  44  45
ENDBRANCH  43  44
ENDBRANCH  27  43
BRANCH  24  49
ATOM     49  C   UNK d   0       1.383   5.157 -18.065  0.00  0.00     0.052 C 
BRANCH  49  50
ATOM     50  C   UNK d   0       1.423   4.309 -16.820  0.00  0.00     0.115 C 
BRANCH  50  51
ATOM     51  C   UNK d   0       2.392   4.677 -15.796  0.00  0.00     0.139 C 
ATOM     52  O   UNK d   0       3.615   4.808 -16.038  0.00  0.00    -0.650 OA
BRANCH  51  53
ATOM     53  O   UNK d   0       1.965   4.895 -14.495  0.00  0.00    -0.776 OA
ATOM     54  H   UNK d   0       1.953   5.839 -14.150  0.00  0.00     0.167 HD
ENDBRANCH  51  53
ENDBRANCH  50  51
ENDBRANCH  49  50
ENDBRANCH  24  49
BRANCH  21  55
ATOM     55  C   UNK d   0       0.607   7.999 -17.134  0.00  0.00     0.151 C 
BRANCH  55  56
ATOM     56  C   UNK d   0       0.589   7.824 -15.673  0.00  0.00     0.143 C 
ATOM     57  O   UNK d   0       1.596   8.002 -14.960  0.00  0.00    -0.650 OA
BRANCH  56  58
ATOM     58  O   UNK d   0      -0.613   7.444 -15.080  0.00  0.00    -0.776 OA
ATOM     59  H   UNK d   0      -1.135   6.705 -15.584  0.00  0.00     0.167 HD
ENDBRANCH  56  58
ENDBRANCH  55  56
ENDBRANCH  21  55
BRANCH  18  60
ATOM     60  C   UNK d   0      -4.400   9.606 -16.057  0.00  0.00     0.151 C 
BRANCH  60  61
ATOM     61  C   UNK d   0      -4.018   8.550 -15.107  0.00  0.00     0.143 C 
ATOM     62  O   UNK d   0      -4.529   7.436 -14.990  0.00  0.00    -0.650 OA
BRANCH  61  63
ATOM     63  O   UNK d   0      -2.944   8.877 -14.243  0.00  0.00    -0.776 OA
ATOM     64  H   UNK d   0      -3.056   8.853 -13.245  0.00  0.00     0.167 HD
ENDBRANCH  61  63
ENDBRANCH  60  61
ENDBRANCH  18  60
BRANCH  14  65
ATOM     65  C   UNK d   0      -7.223   9.371 -17.144  0.00  0.00     0.052 C 
BRANCH  65  66
ATOM     66  C   UNK d   0      -7.969   8.421 -16.275  0.00  0.00     0.115 C 
BRANCH  66  67
ATOM     67  C   UNK d   0      -7.809   8.485 -14.849  0.00  0.00     0.139 C 
ATOM     68  O   UNK d   0      -7.743   7.384 -14.189  0.00  0.00    -0.650 OA
BRANCH  67  69
ATOM     69  O   UNK d   0      -7.712   9.625 -14.052  0.00  0.00    -0.776 OA
ATOM     70  H   UNK d   0      -8.098   9.540 -13.100  0.00  0.00     0.167 HD
ENDBRANCH  67  69
ENDBRANCH  66  67
ENDBRANCH  65  66
ENDBRANCH  14  65
ENDBRANCH   6   7
ENDBRANCH   5   6
ENDBRANCH   2   5
TORSDOF 28
ENDMDL
MODEL 14
REMARK VINA RESULT:      -7.3     19.080     21.541
REMARK  28 active torsions:
REMARK  status: ('A' for Active; 'I' for Inactive)
REMARK    1  A    between atoms: C_2  and  O_3 
REMARK    2  A    between atoms: C_2  and  C_4 
REMARK    3  A    between atoms: C_4  and  C_5 
REMARK    4  A    between atoms: C_5  and  C_6 
REMARK    5  A    between atoms: C_7  and  C_8 
REMARK    6  A    between atoms: C_8  and  C_9 
REMARK    7  A    between atoms: C_9  and  O_11 
REMARK    8  A    between atoms: C_28  and  C_29 
REMARK    9  A    between atoms: C_29  and  C_30 
REMARK   10  A    between atoms: C_30  and  O_32 
REMARK   11  A    between atoms: C_33  and  C_34 
REMARK   12  A    between atoms: C_34  and  C_35 
REMARK   13  A    between atoms: C_35  and  C_36 
REMARK   14  A    between atoms: C_36  and  O_38 
REMARK   15  A    between atoms: C_39  and  C_40 
REMARK   16  A    between atoms: C_40  and  C_41 
REMARK   17  A    between atoms: C_41  and  C_42 
REMARK   18  A    between atoms: C_42  and  O_44 
REMARK   19  A    between atoms: C_45  and  C_46 
REMARK   20  A    between atoms: C_46  and  C_47 
REMARK   21  A    between atoms: C_47  and  O_49 
REMARK   22  A    between atoms: C_50  and  C_51 
REMARK   23  A    between atoms: C_51  and  C_52 
REMARK   24  A    between atoms: C_52  and  O_54 
REMARK   25  A    between atoms: C_55  and  C_56 
REMARK   26  A    between atoms: C_56  and  C_57 
REMARK   27  A    between atoms: C_57  and  C_58 
REMARK   28  A    between atoms: C_58  and  O_60 
ROOT
ATOM      1  O   UNK d   0      -2.660  13.902 -11.595  0.00  0.00    -0.650 OA
ATOM      2  C   UNK d   0      -3.225  13.296 -12.532  0.00  0.00     0.139 C 
ENDROOT
BRANCH   2   3
ATOM      3  O   UNK d   0      -4.529  13.600 -12.842  0.00  0.00    -0.776 OA
ATOM      4  H   UNK d   0      -5.284  13.428 -12.175  0.00  0.00     0.167 HD
ENDBRANCH   2   3
BRANCH   2   5
ATOM      5  C   UNK d   0      -2.488  12.254 -13.302  0.00  0.00     0.115 C 
BRANCH   5   6
ATOM      6  C   UNK d   0      -2.174  12.756 -14.685  0.00  0.00     0.052 C 
BRANCH   6   7
ATOM      7  C   UNK d   0      -1.713  11.657 -15.611  0.00  0.00    -0.020 A 
ATOM      8  C   UNK d   0      -0.531  11.515 -16.155  0.00  0.00    -0.011 A 
ATOM      9  C   UNK d   0      -0.560  10.317 -16.976  0.00  0.00     0.067 A 
ATOM     10  C   UNK d   0       0.354   9.617 -17.780  0.00  0.00     0.062 C 
ATOM     11  N   UNK d   0      -1.800   9.795 -16.879  0.00  0.00    -0.248 NA
ATOM     12  C   UNK d   0       0.223   8.317 -18.278  0.00  0.00     0.041 A 
ATOM     13  N   UNK d   0      -0.830   7.679 -18.824  0.00  0.00    -0.355 N 
ATOM     14  C   UNK d   0       1.316   7.437 -18.181  0.00  0.00    -0.022 A 
ATOM     15  C   UNK d   0      -0.435   6.416 -19.070  0.00  0.00     0.042 A 
ATOM     16  H   UNK d   0      -1.826   8.119 -19.050  0.00  0.00     0.166 HD
ATOM     17  C   UNK d   0      -1.138   5.332 -19.634  0.00  0.00     0.062 C 
ATOM     18  C   UNK d   0       0.905   6.226 -18.679  0.00  0.00    -0.013 A 
ATOM     19  C   UNK d   0      -2.414   4.902 -19.372  0.00  0.00     0.067 A 
ATOM     20  N   UNK d   0      -3.185   5.708 -18.638  0.00  0.00    -0.248 NA
ATOM     21  C   UNK d   0      -3.203   3.723 -19.686  0.00  0.00    -0.011 A 
ATOM     22  C   UNK d   0      -4.421   5.140 -18.448  0.00  0.00     0.066 A 
ATOM     23  C   UNK d   0      -5.340   5.891 -17.729  0.00  0.00     0.062 C 
ATOM     24  C   UNK d   0      -4.375   3.866 -19.138  0.00  0.00    -0.020 A 
ATOM     25  C   UNK d   0      -5.192   7.202 -17.249  0.00  0.00     0.041 A 
ATOM     26  N   UNK d   0      -4.151   7.831 -16.692  0.00  0.00    -0.355 N 
ATOM     27  C   UNK d   0      -6.289   8.085 -17.350  0.00  0.00    -0.022 A 
ATOM     28  C   UNK d   0      -4.545   9.089 -16.438  0.00  0.00     0.042 A 
ATOM     29  H   UNK d   0      -3.153   7.384 -16.456  0.00  0.00     0.166 HD
ATOM     30  C   UNK d   0      -3.859  10.173 -15.869  0.00  0.00     0.062 C 
ATOM     31  C   UNK d   0      -5.888   9.282 -16.840  0.00  0.00    -0.013 A 
ATOM     32  C   UNK d   0      -2.542  10.554 -16.072  0.00  0.00     0.066 A 
BRANCH   8  33
ATOM     33  C   UNK d   0       0.634  12.403 -15.983  0.00  0.00     0.151 C 
BRANCH  33  34
ATOM     34  C   UNK d   0       1.724  11.772 -15.217  0.00  0.00     0.143 C 
ATOM     35  O   UNK d   0       2.812  11.516 -15.752  0.00  0.00    -0.650 OA
BRANCH  34  36
ATOM     36  O   UNK d   0       1.527  11.464 -13.891  0.00  0.00    -0.776 OA
ATOM     37  H   UNK d   0       2.319  11.253 -13.269  0.00  0.00     0.167 HD
ENDBRANCH  34  36
ENDBRANCH  33  34
ENDBRANCH   8  33
BRANCH  31  38
ATOM     38  C   UNK d   0      -6.723  10.538 -16.751  0.00  0.00     0.151 C 
BRANCH  38  39
ATOM     39  C   UNK d   0      -6.757  11.278 -17.994  0.00  0.00     0.143 C 
ATOM     40  O   UNK d   0      -5.755  11.412 -18.717  0.00  0.00    -0.650 OA
BRANCH  39  41
ATOM     41  O   UNK d   0      -7.951  11.868 -18.408  0.00  0.00    -0.776 OA
ATOM     42  H   UNK d   0      -8.544  12.273 -17.677  0.00  0.00     0.167 HD
ENDBRANCH  39  41
ENDBRANCH  38  39
ENDBRANCH  31  38
BRANCH  27  43
ATOM     43  C   UNK d   0      -7.671   7.838 -17.900  0.00  0.00     0.052 C 
BRANCH  43  44
ATOM     44  C   UNK d   0      -7.673   7.451 -19.343  0.00  0.00     0.115 C 
BRANCH  44  45
ATOM     45  C   UNK d   0      -7.543   8.711 -20.120  0.00  0.00     0.139 C 
ATOM     46  O   UNK d   0      -8.558   9.442 -20.236  0.00  0.00    -0.650 OA
BRANCH  45  47
ATOM     47  O   UNK d   0      -6.362   9.108 -20.708  0.00  0.00    -0.776 OA
ATOM     48  H   UNK d   0      -6.260   9.239 -21.728  0.00  0.00     0.167 HD
ENDBRANCH  45  47
ENDBRANCH  44  45
ENDBRANCH  43  44
ENDBRANCH  27  43
BRANCH  24  49
ATOM     49  C   UNK d   0      -5.502   2.922 -19.237  0.00  0.00     0.052 C 
BRANCH  49  50
ATOM     50  C   UNK d   0      -6.520   3.423 -20.230  0.00  0.00     0.115 C 
BRANCH  50  51
ATOM     51  C   UNK d   0      -6.727   2.623 -21.429  0.00  0.00     0.139 C 
ATOM     52  O   UNK d   0      -7.726   2.766 -22.173  0.00  0.00    -0.650 OA
BRANCH  51  53
ATOM     53  O   UNK d   0      -5.796   1.657 -21.780  0.00  0.00    -0.776 OA
ATOM     54  H   UNK d   0      -6.050   0.984 -22.482  0.00  0.00     0.167 HD
ENDBRANCH  51  53
ENDBRANCH  50  51
ENDBRANCH  49  50
ENDBRANCH  24  49
BRANCH  21  55
ATOM     55  C   UNK d   0      -2.705   2.577 -20.504  0.00  0.00     0.151 C 
BRANCH  55  56
ATOM     56  C   UNK d   0      -1.974   1.595 -19.689  0.00  0.00     0.143 C 
ATOM     57  O   UNK d   0      -0.729   1.548 -19.643  0.00  0.00    -0.650 OA
BRANCH  56  58
ATOM     58  O   UNK d   0      -2.723   0.684 -18.944  0.00  0.00    -0.776 OA
ATOM     59  H   UNK d   0      -3.507   0.243 -19.456  0.00  0.00     0.167 HD
ENDBRANCH  56  58
ENDBRANCH  55  56
ENDBRANCH  21  55
BRANCH  18  60
ATOM     60  C   UNK d   0       1.762   4.987 -18.759  0.00  0.00     0.151 C 
BRANCH  60  61
ATOM     61  C   UNK d   0       1.425   4.185 -17.574  0.00  0.00     0.143 C 
ATOM     62  O   UNK d   0       1.415   4.561 -16.401  0.00  0.00    -0.650 OA
BRANCH  61  63
ATOM     63  O   UNK d   0       1.076   2.838 -17.837  0.00  0.00    -0.776 OA
ATOM     64  H   UNK d   0       1.287   2.110 -17.178  0.00  0.00     0.167 HD
ENDBRANCH  61  63
ENDBRANCH  60  61
ENDBRANCH  18  60
BRANCH  14  65
ATOM     65  C   UNK d   0       2.735   7.679 -17.749  0.00  0.00     0.052 C 
BRANCH  65  66
ATOM     66  C   UNK d   0       2.903   7.662 -16.271  0.00  0.00     0.115 C 
BRANCH  66  67
ATOM     67  C   UNK d   0       4.072   7.059 -15.695  0.00  0.00     0.139 C 
ATOM     68  O   UNK d   0       4.695   6.159 -16.371  0.00  0.00    -0.650 OA
BRANCH  67  69
ATOM     69  O   UNK d   0       4.645   7.325 -14.452  0.00  0.00    -0.776 OA
ATOM     70  H   UNK d   0       5.026   8.275 -14.329  0.00  0.00     0.167 HD
ENDBRANCH  67  69
ENDBRANCH  66  67
ENDBRANCH  65  66
ENDBRANCH  14  65
ENDBRANCH   6   7
ENDBRANCH   5   6
ENDBRANCH   2   5
TORSDOF 28
ENDMDL
MODEL 15
REMARK VINA RESULT:      -7.2     21.686     24.369
REMARK  28 active torsions:
REMARK  status: ('A' for Active; 'I' for Inactive)
REMARK    1  A    between atoms: C_2  and  O_3 
REMARK    2  A    between atoms: C_2  and  C_4 
REMARK    3  A    between atoms: C_4  and  C_5 
REMARK    4  A    between atoms: C_5  and  C_6 
REMARK    5  A    between atoms: C_7  and  C_8 
REMARK    6  A    between atoms: C_8  and  C_9 
REMARK    7  A    between atoms: C_9  and  O_11 
REMARK    8  A    between atoms: C_28  and  C_29 
REMARK    9  A    between atoms: C_29  and  C_30 
REMARK   10  A    between atoms: C_30  and  O_32 
REMARK   11  A    between atoms: C_33  and  C_34 
REMARK   12  A    between atoms: C_34  and  C_35 
REMARK   13  A    between atoms: C_35  and  C_36 
REMARK   14  A    between atoms: C_36  and  O_38 
REMARK   15  A    between atoms: C_39  and  C_40 
REMARK   16  A    between atoms: C_40  and  C_41 
REMARK   17  A    between atoms: C_41  and  C_42 
REMARK   18  A    between atoms: C_42  and  O_44 
REMARK   19  A    between atoms: C_45  and  C_46 
REMARK   20  A    between atoms: C_46  and  C_47 
REMARK   21  A    between atoms: C_47  and  O_49 
REMARK   22  A    between atoms: C_50  and  C_51 
REMARK   23  A    between atoms: C_51  and  C_52 
REMARK   24  A    between atoms: C_52  and  O_54 
REMARK   25  A    between atoms: C_55  and  C_56 
REMARK   26  A    between atoms: C_56  and  C_57 
REMARK   27  A    between atoms: C_57  and  C_58 
REMARK   28  A    between atoms: C_58  and  O_60 
ROOT
ATOM      1  O   UNK d   0     -10.706   8.103 -23.281  0.00  0.00    -0.650 OA
ATOM      2  C   UNK d   0     -10.655   7.390 -22.255  0.00  0.00     0.139 C 
ENDROOT
BRANCH   2   3
ATOM      3  O   UNK d   0     -11.738   6.613 -21.920  0.00  0.00    -0.776 OA
ATOM      4  H   UNK d   0     -11.992   6.457 -20.942  0.00  0.00     0.167 HD
ENDBRANCH   2   3
BRANCH   2   5
ATOM      5  C   UNK d   0      -9.429   7.387 -21.406  0.00  0.00     0.115 C 
BRANCH   5   6
ATOM      6  C   UNK d   0      -9.448   6.205 -20.475  0.00  0.00     0.052 C 
BRANCH   6   7
ATOM      7  C   UNK d   0      -8.173   5.397 -20.537  0.00  0.00    -0.020 A 
ATOM      8  C   UNK d   0      -7.988   4.241 -21.122  0.00  0.00    -0.011 A 
ATOM      9  C   UNK d   0      -6.605   3.851 -20.908  0.00  0.00     0.067 A 
ATOM     10  C   UNK d   0      -5.788   2.771 -21.279  0.00  0.00     0.062 C 
ATOM     11  N   UNK d   0      -6.022   4.824 -20.177  0.00  0.00    -0.248 NA
ATOM     12  C   UNK d   0      -4.392   2.702 -21.213  0.00  0.00     0.041 A 
ATOM     13  N   UNK d   0      -3.530   3.098 -20.257  0.00  0.00    -0.355 N 
ATOM     14  C   UNK d   0      -3.683   2.194 -22.316  0.00  0.00    -0.022 A 
ATOM     15  C   UNK d   0      -2.291   2.861 -20.729  0.00  0.00     0.042 A 
ATOM     16  H   UNK d   0      -3.791   3.518 -19.261  0.00  0.00     0.166 HD
ATOM     17  C   UNK d   0      -1.031   3.085 -20.140  0.00  0.00     0.062 C 
ATOM     18  C   UNK d   0      -2.347   2.295 -22.018  0.00  0.00    -0.013 A 
ATOM     19  C   UNK d   0      -0.580   4.188 -19.460  0.00  0.00     0.067 A 
ATOM     20  N   UNK d   0      -1.491   5.105 -19.126  0.00  0.00    -0.248 NA
ATOM     21  C   UNK d   0       0.706   4.668 -18.985  0.00  0.00    -0.011 A 
ATOM     22  C   UNK d   0      -0.893   6.152 -18.468  0.00  0.00     0.066 A 
ATOM     23  C   UNK d   0      -1.733   7.164 -18.028  0.00  0.00     0.062 C 
ATOM     24  C   UNK d   0       0.517   5.820 -18.409  0.00  0.00    -0.020 A 
ATOM     25  C   UNK d   0      -3.135   7.208 -18.093  0.00  0.00     0.041 A 
ATOM     26  N   UNK d   0      -3.991   6.829 -19.048  0.00  0.00    -0.355 N 
ATOM     27  C   UNK d   0      -3.846   7.714 -16.983  0.00  0.00    -0.022 A 
ATOM     28  C   UNK d   0      -5.227   7.072 -18.583  0.00  0.00     0.042 A 
ATOM     29  H   UNK d   0      -3.726   6.417 -20.053  0.00  0.00     0.166 HD
ATOM     30  C   UNK d   0      -6.489   6.863 -19.162  0.00  0.00     0.062 C 
ATOM     31  C   UNK d   0      -5.171   7.631 -17.285  0.00  0.00    -0.013 A 
ATOM     32  C   UNK d   0      -6.913   5.784 -19.921  0.00  0.00     0.066 A 
BRANCH   8  33
ATOM     33  C   UNK d   0      -8.990   3.456 -21.866  0.00  0.00     0.151 C 
BRANCH  33  34
ATOM     34  C   UNK d   0      -8.973   3.735 -23.314  0.00  0.00     0.143 C 
ATOM     35  O   UNK d   0      -9.880   4.391 -23.846  0.00  0.00    -0.650 OA
BRANCH  34  36
ATOM     36  O   UNK d   0      -7.937   3.257 -24.082  0.00  0.00    -0.776 OA
ATOM     37  H   UNK d   0      -7.642   2.272 -24.028  0.00  0.00     0.167 HD
ENDBRANCH  34  36
ENDBRANCH  33  34
ENDBRANCH   8  33
BRANCH  31  38
ATOM     38  C   UNK d   0      -6.316   8.045 -16.391  0.00  0.00     0.151 C 
BRANCH  38  39
ATOM     39  C   UNK d   0      -6.416   7.234 -15.195  0.00  0.00     0.143 C 
ATOM     40  O   UNK d   0      -6.449   5.992 -15.235  0.00  0.00    -0.650 OA
BRANCH  39  41
ATOM     41  O   UNK d   0      -6.479   7.856 -13.948  0.00  0.00    -0.776 OA
ATOM     42  H   UNK d   0      -7.414   8.028 -13.565  0.00  0.00     0.167 HD
ENDBRANCH  39  41
ENDBRANCH  38  39
ENDBRANCH  31  38
BRANCH  27  43
ATOM     43  C   UNK d   0      -3.323   8.263 -15.679  0.00  0.00     0.052 C 
BRANCH  43  44
ATOM     44  C   UNK d   0      -3.207   9.752 -15.668  0.00  0.00     0.115 C 
BRANCH  44  45
ATOM     45  C   UNK d   0      -3.404  10.184 -14.260  0.00  0.00     0.139 C 
ATOM     46  O   UNK d   0      -2.529  10.919 -13.739  0.00  0.00    -0.650 OA
BRANCH  45  47
ATOM     47  O   UNK d   0      -4.502   9.817 -13.513  0.00  0.00    -0.776 OA
ATOM     48  H   UNK d   0      -4.484   9.036 -12.837  0.00  0.00     0.167 HD
ENDBRANCH  45  47
ENDBRANCH  44  45
ENDBRANCH  43  44
ENDBRANCH  27  43
BRANCH  24  49
ATOM     49  C   UNK d   0       1.548   6.643 -17.753  0.00  0.00     0.052 C 
BRANCH  49  50
ATOM     50  C   UNK d   0       1.597   6.343 -16.277  0.00  0.00     0.115 C 
BRANCH  50  51
ATOM     51  C   UNK d   0       1.072   7.359 -15.374  0.00  0.00     0.139 C 
ATOM     52  O   UNK d   0       1.748   8.345 -14.998  0.00  0.00    -0.650 OA
BRANCH  51  53
ATOM     53  O   UNK d   0      -0.226   7.248 -14.897  0.00  0.00    -0.776 OA
ATOM     54  H   UNK d   0      -0.365   6.848 -13.986  0.00  0.00     0.167 HD
ENDBRANCH  51  53
ENDBRANCH  50  51
ENDBRANCH  49  50
ENDBRANCH  24  49
BRANCH  21  55
ATOM     55  C   UNK d   0       1.989   3.924 -19.152  0.00  0.00     0.151 C 
BRANCH  55  56
ATOM     56  C   UNK d   0       2.122   2.828 -18.181  0.00  0.00     0.143 C 
ATOM     57  O   UNK d   0       1.651   2.887 -17.028  0.00  0.00    -0.650 OA
BRANCH  56  58
ATOM     58  O   UNK d   0       2.806   1.682 -18.584  0.00  0.00    -0.776 OA
ATOM     59  H   UNK d   0       2.999   1.000 -17.828  0.00  0.00     0.167 HD
ENDBRANCH  56  58
ENDBRANCH  55  56
ENDBRANCH  21  55
BRANCH  18  60
ATOM     60  C   UNK d   0      -1.223   1.870 -22.930  0.00  0.00     0.151 C 
BRANCH  60  61
ATOM     61  C   UNK d   0      -0.969   0.454 -22.626  0.00  0.00     0.143 C 
ATOM     62  O   UNK d   0      -0.660  -0.028 -21.536  0.00  0.00    -0.650 OA
BRANCH  61  63
ATOM     63  O   UNK d   0      -1.102  -0.431 -23.723  0.00  0.00    -0.776 OA
ATOM     64  H   UNK d   0      -2.007  -0.693 -24.071  0.00  0.00     0.167 HD
ENDBRANCH  61  63
ENDBRANCH  60  61
ENDBRANCH  18  60
BRANCH  14  65
ATOM     65  C   UNK d   0      -4.169   1.536 -23.576  0.00  0.00     0.052 C 
BRANCH  65  66
ATOM     66  C   UNK d   0      -4.570   0.118 -23.375  0.00  0.00     0.115 C 
BRANCH  66  67
ATOM     67  C   UNK d   0      -4.453  -0.815 -24.460  0.00  0.00     0.139 C 
ATOM     68  O   UNK d   0      -3.511  -0.644 -25.318  0.00  0.00    -0.650 OA
BRANCH  67  69
ATOM     69  O   UNK d   0      -5.255  -1.926 -24.720  0.00  0.00    -0.776 OA
ATOM     70  H   UNK d   0      -5.548  -2.047 -25.701  0.00  0.00     0.167 HD
ENDBRANCH  67  69
ENDBRANCH  66  67
ENDBRANCH  65  66
ENDBRANCH  14  65
ENDBRANCH   6   7
ENDBRANCH   5   6
ENDBRANCH   2   5
TORSDOF 28
ENDMDL
