MODEL 1
REMARK VINA RESULT:      -7.1      0.000      0.000
REMARK  28 active torsions:
REMARK  status: ('A' for Active; 'I' for Inactive)
REMARK    1  A    between atoms: C_2  and  O_3 
REMARK    2  A    between atoms: C_2  and  C_4 
REMARK    3  A    between atoms: C_4  and  C_5 
REMARK    4  A    between atoms: C_5  and  C_6 
REMARK    5  A    between atoms: C_7  and  C_8 
REMARK    6  A    between atoms: C_8  and  C_9 
REMARK    7  A    between atoms: C_9  and  O_11 
REMARK    8  A    between atoms: C_28  and  C_29 
REMARK    9  A    between atoms: C_29  and  C_30 
REMARK   10  A    between atoms: C_30  and  O_32 
REMARK   11  A    between atoms: C_33  and  C_34 
REMARK   12  A    between atoms: C_34  and  C_35 
REMARK   13  A    between atoms: C_35  and  C_36 
REMARK   14  A    between atoms: C_36  and  O_38 
REMARK   15  A    between atoms: C_39  and  C_40 
REMARK   16  A    between atoms: C_40  and  C_41 
REMARK   17  A    between atoms: C_41  and  C_42 
REMARK   18  A    between atoms: C_42  and  O_44 
REMARK   19  A    between atoms: C_45  and  C_46 
REMARK   20  A    between atoms: C_46  and  C_47 
REMARK   21  A    between atoms: C_47  and  O_49 
REMARK   22  A    between atoms: C_50  and  C_51 
REMARK   23  A    between atoms: C_51  and  C_52 
REMARK   24  A    between atoms: C_52  and  O_54 
REMARK   25  A    between atoms: C_55  and  C_56 
REMARK   26  A    between atoms: C_56  and  C_57 
REMARK   27  A    between atoms: C_57  and  C_58 
REMARK   28  A    between atoms: C_58  and  O_60 
ROOT
ATOM      1  O   UNK d   0     -43.756  19.437   4.925  0.00  0.00    -0.650 OA
ATOM      2  C   UNK d   0     -44.145  18.262   4.746  0.00  0.00     0.139 C 
ENDROOT
BRANCH   2   3
ATOM      3  O   UNK d   0     -44.445  17.478   5.834  0.00  0.00    -0.776 OA
ATOM      4  H   UNK d   0     -43.763  17.326   6.579  0.00  0.00     0.167 HD
ENDBRANCH   2   3
BRANCH   2   5
ATOM      5  C   UNK d   0     -44.280  17.721   3.363  0.00  0.00     0.115 C 
BRANCH   5   6
ATOM      6  C   UNK d   0     -43.279  16.620   3.138  0.00  0.00     0.052 C 
BRANCH   6   7
ATOM      7  C   UNK d   0     -41.992  17.121   2.529  0.00  0.00    -0.020 A 
ATOM      8  C   UNK d   0     -40.783  17.018   3.020  0.00  0.00    -0.011 A 
ATOM      9  C   UNK d   0     -39.868  17.654   2.087  0.00  0.00     0.067 A 
ATOM     10  C   UNK d   0     -38.482  17.862   2.011  0.00  0.00     0.062 C 
ATOM     11  N   UNK d   0     -40.606  18.122   1.058  0.00  0.00    -0.248 NA
ATOM     12  C   UNK d   0     -37.745  18.256   0.889  0.00  0.00     0.041 A 
ATOM     13  N   UNK d   0     -37.992  19.188  -0.052  0.00  0.00    -0.355 N 
ATOM     14  C   UNK d   0     -36.551  17.577   0.586  0.00  0.00    -0.022 A 
ATOM     15  C   UNK d   0     -36.990  19.112  -0.948  0.00  0.00     0.042 A 
ATOM     16  H   UNK d   0     -38.848  19.898  -0.072  0.00  0.00     0.166 HD
ATOM     17  C   UNK d   0     -36.756  19.855  -2.122  0.00  0.00     0.062 C 
ATOM     18  C   UNK d   0     -36.067  18.113  -0.581  0.00  0.00    -0.013 A 
ATOM     19  C   UNK d   0     -37.638  20.203  -3.112  0.00  0.00     0.067 A 
ATOM     20  N   UNK d   0     -38.935  19.995  -2.868  0.00  0.00    -0.248 NA
ATOM     21  C   UNK d   0     -37.540  20.761  -4.451  0.00  0.00    -0.011 A 
ATOM     22  C   UNK d   0     -39.691  20.375  -3.949  0.00  0.00     0.066 A 
ATOM     23  C   UNK d   0     -41.066  20.248  -3.816  0.00  0.00     0.062 C 
ATOM     24  C   UNK d   0     -38.744  20.855  -4.937  0.00  0.00    -0.020 A 
ATOM     25  C   UNK d   0     -41.787  19.862  -2.675  0.00  0.00     0.041 A 
ATOM     26  N   UNK d   0     -41.549  18.927  -1.749  0.00  0.00    -0.355 N 
ATOM     27  C   UNK d   0     -42.984  20.547  -2.370  0.00  0.00    -0.022 A 
ATOM     28  C   UNK d   0     -42.552  18.994  -0.859  0.00  0.00     0.042 A 
ATOM     29  H   UNK d   0     -40.694  18.207  -1.736  0.00  0.00     0.166 HD
ATOM     30  C   UNK d   0     -42.802  18.256   0.308  0.00  0.00     0.062 C 
ATOM     31  C   UNK d   0     -43.474  20.005  -1.222  0.00  0.00    -0.013 A 
ATOM     32  C   UNK d   0     -41.892  17.833   1.264  0.00  0.00     0.066 A 
BRANCH   8  33
ATOM     33  C   UNK d   0     -40.396  16.381   4.292  0.00  0.00     0.151 C 
BRANCH  33  34
ATOM     34  C   UNK d   0     -40.055  14.956   4.136  0.00  0.00     0.143 C 
ATOM     35  O   UNK d   0     -38.874  14.580   4.143  0.00  0.00    -0.650 OA
BRANCH  34  36
ATOM     36  O   UNK d   0     -41.063  14.033   3.980  0.00  0.00    -0.776 OA
ATOM     37  H   UNK d   0     -41.887  14.236   3.398  0.00  0.00     0.167 HD
ENDBRANCH  34  36
ENDBRANCH  33  34
ENDBRANCH   8  33
BRANCH  31  38
ATOM     38  C   UNK d   0     -44.734  20.428  -0.504  0.00  0.00     0.151 C 
BRANCH  38  39
ATOM     39  C   UNK d   0     -45.909  19.724  -0.970  0.00  0.00     0.143 C 
ATOM     40  O   UNK d   0     -46.051  18.497  -0.827  0.00  0.00    -0.650 OA
BRANCH  39  41
ATOM     41  O   UNK d   0     -46.928  20.434  -1.605  0.00  0.00    -0.776 OA
ATOM     42  H   UNK d   0     -47.147  21.362  -1.228  0.00  0.00     0.167 HD
ENDBRANCH  39  41
ENDBRANCH  38  39
ENDBRANCH  31  38
BRANCH  27  43
ATOM     43  C   UNK d   0     -43.662  21.670  -3.115  0.00  0.00     0.052 C 
BRANCH  43  44
ATOM     44  C   UNK d   0     -44.623  21.194  -4.155  0.00  0.00     0.115 C 
BRANCH  44  45
ATOM     45  C   UNK d   0     -44.079  21.630  -5.467  0.00  0.00     0.139 C 
ATOM     46  O   UNK d   0     -43.346  22.650  -5.495  0.00  0.00    -0.650 OA
BRANCH  45  47
ATOM     47  O   UNK d   0     -44.339  20.961  -6.644  0.00  0.00    -0.776 OA
ATOM     48  H   UNK d   0     -43.614  20.775  -7.355  0.00  0.00     0.167 HD
ENDBRANCH  45  47
ENDBRANCH  44  45
ENDBRANCH  43  44
ENDBRANCH  27  43
BRANCH  24  49
ATOM     49  C   UNK d   0     -39.108  21.406  -6.253  0.00  0.00     0.052 C 
BRANCH  49  50
ATOM     50  C   UNK d   0     -39.557  20.302  -7.177  0.00  0.00     0.115 C 
BRANCH  50  51
ATOM     51  C   UNK d   0     -40.739  20.556  -7.991  0.00  0.00     0.139 C 
ATOM     52  O   UNK d   0     -41.056  19.835  -8.966  0.00  0.00    -0.650 OA
BRANCH  51  53
ATOM     53  O   UNK d   0     -41.558  21.635  -7.694  0.00  0.00    -0.776 OA
ATOM     54  H   UNK d   0     -41.583  22.404  -8.340  0.00  0.00     0.167 HD
ENDBRANCH  51  53
ENDBRANCH  50  51
ENDBRANCH  49  50
ENDBRANCH  24  49
BRANCH  21  55
ATOM     55  C   UNK d   0     -36.253  21.145  -5.103  0.00  0.00     0.151 C 
BRANCH  55  56
ATOM     56  C   UNK d   0     -35.981  22.585  -4.980  0.00  0.00     0.143 C 
ATOM     57  O   UNK d   0     -35.866  23.337  -5.968  0.00  0.00    -0.650 OA
BRANCH  56  58
ATOM     58  O   UNK d   0     -35.851  23.115  -3.697  0.00  0.00    -0.776 OA
ATOM     59  H   UNK d   0     -36.371  22.605  -2.960  0.00  0.00     0.167 HD
ENDBRANCH  56  58
ENDBRANCH  55  56
ENDBRANCH  21  55
BRANCH  18  60
ATOM     60  C   UNK d   0     -34.802  17.672  -1.276  0.00  0.00     0.151 C 
BRANCH  60  61
ATOM     61  C   UNK d   0     -33.834  18.763  -1.083  0.00  0.00     0.143 C 
ATOM     62  O   UNK d   0     -33.477  19.595  -1.917  0.00  0.00    -0.650 OA
BRANCH  61  63
ATOM     63  O   UNK d   0     -33.267  18.843   0.212  0.00  0.00    -0.776 OA
ATOM     64  H   UNK d   0     -33.799  19.190   0.990  0.00  0.00     0.167 HD
ENDBRANCH  61  63
ENDBRANCH  60  61
ENDBRANCH  18  60
BRANCH  14  65
ATOM     65  C   UNK d   0     -35.789  16.540   1.361  0.00  0.00     0.052 C 
BRANCH  65  66
ATOM     66  C   UNK d   0     -35.174  17.077   2.604  0.00  0.00     0.115 C 
BRANCH  66  67
ATOM     67  C   UNK d   0     -35.080  16.243   3.769  0.00  0.00     0.139 C 
ATOM     68  O   UNK d   0     -34.202  16.533   4.663  0.00  0.00    -0.650 OA
BRANCH  67  69
ATOM     69  O   UNK d   0     -35.842  15.116   4.076  0.00  0.00    -0.776 OA
ATOM     70  H   UNK d   0     -35.653  14.683   4.991  0.00  0.00     0.167 HD
ENDBRANCH  67  69
ENDBRANCH  66  67
ENDBRANCH  65  66
ENDBRANCH  14  65
ENDBRANCH   6   7
ENDBRANCH   5   6
ENDBRANCH   2   5
TORSDOF 28
ENDMDL
MODEL 2
REMARK VINA RESULT:      -7.0      1.906      7.921
REMARK  28 active torsions:
REMARK  status: ('A' for Active; 'I' for Inactive)
REMARK    1  A    between atoms: C_2  and  O_3 
REMARK    2  A    between atoms: C_2  and  C_4 
REMARK    3  A    between atoms: C_4  and  C_5 
REMARK    4  A    between atoms: C_5  and  C_6 
REMARK    5  A    between atoms: C_7  and  C_8 
REMARK    6  A    between atoms: C_8  and  C_9 
REMARK    7  A    between atoms: C_9  and  O_11 
REMARK    8  A    between atoms: C_28  and  C_29 
REMARK    9  A    between atoms: C_29  and  C_30 
REMARK   10  A    between atoms: C_30  and  O_32 
REMARK   11  A    between atoms: C_33  and  C_34 
REMARK   12  A    between atoms: C_34  and  C_35 
REMARK   13  A    between atoms: C_35  and  C_36 
REMARK   14  A    between atoms: C_36  and  O_38 
REMARK   15  A    between atoms: C_39  and  C_40 
REMARK   16  A    between atoms: C_40  and  C_41 
REMARK   17  A    between atoms: C_41  and  C_42 
REMARK   18  A    between atoms: C_42  and  O_44 
REMARK   19  A    between atoms: C_45  and  C_46 
REMARK   20  A    between atoms: C_46  and  C_47 
REMARK   21  A    between atoms: C_47  and  O_49 
REMARK   22  A    between atoms: C_50  and  C_51 
REMARK   23  A    between atoms: C_51  and  C_52 
REMARK   24  A    between atoms: C_52  and  O_54 
REMARK   25  A    between atoms: C_55  and  C_56 
REMARK   26  A    between atoms: C_56  and  C_57 
REMARK   27  A    between atoms: C_57  and  C_58 
REMARK   28  A    between atoms: C_58  and  O_60 
ROOT
ATOM      1  O   UNK d   0     -44.830  19.423   4.808  0.00  0.00    -0.650 OA
ATOM      2  C   UNK d   0     -44.869  18.264   4.340  0.00  0.00     0.139 C 
ENDROOT
BRANCH   2   3
ATOM      3  O   UNK d   0     -44.751  17.190   5.189  0.00  0.00    -0.776 OA
ATOM      4  H   UNK d   0     -45.290  16.335   5.036  0.00  0.00     0.167 HD
ENDBRANCH   2   3
BRANCH   2   5
ATOM      5  C   UNK d   0     -45.039  18.054   2.874  0.00  0.00     0.115 C 
BRANCH   5   6
ATOM      6  C   UNK d   0     -44.856  19.354   2.140  0.00  0.00     0.052 C 
BRANCH   6   7
ATOM      7  C   UNK d   0     -43.875  19.244   0.997  0.00  0.00    -0.020 A 
ATOM      8  C   UNK d   0     -44.135  19.288  -0.284  0.00  0.00    -0.011 A 
ATOM      9  C   UNK d   0     -42.879  19.130  -0.998  0.00  0.00     0.067 A 
ATOM     10  C   UNK d   0     -42.474  19.109  -2.342  0.00  0.00     0.062 C 
ATOM     11  N   UNK d   0     -41.907  18.989  -0.073  0.00  0.00    -0.248 NA
ATOM     12  C   UNK d   0     -41.170  19.224  -2.836  0.00  0.00     0.041 A 
ATOM     13  N   UNK d   0     -40.013  18.674  -2.421  0.00  0.00    -0.355 N 
ATOM     14  C   UNK d   0     -40.926  20.087  -3.920  0.00  0.00    -0.022 A 
ATOM     15  C   UNK d   0     -39.041  19.171  -3.209  0.00  0.00     0.042 A 
ATOM     16  H   UNK d   0     -39.889  17.933  -1.600  0.00  0.00     0.166 HD
ATOM     17  C   UNK d   0     -37.653  18.929  -3.209  0.00  0.00     0.062 C 
ATOM     18  C   UNK d   0     -39.575  20.061  -4.160  0.00  0.00    -0.013 A 
ATOM     19  C   UNK d   0     -36.787  18.871  -2.147  0.00  0.00     0.067 A 
ATOM     20  N   UNK d   0     -37.328  18.840  -0.927  0.00  0.00    -0.248 NA
ATOM     21  C   UNK d   0     -35.344  18.846  -1.976  0.00  0.00    -0.011 A 
ATOM     22  C   UNK d   0     -36.344  18.798   0.030  0.00  0.00     0.066 A 
ATOM     23  C   UNK d   0     -36.769  18.724   1.349  0.00  0.00     0.062 C 
ATOM     24  C   UNK d   0     -35.091  18.807  -0.699  0.00  0.00    -0.020 A 
ATOM     25  C   UNK d   0     -38.084  18.596   1.823  0.00  0.00     0.041 A 
ATOM     26  N   UNK d   0     -39.231  19.155   1.420  0.00  0.00    -0.355 N 
ATOM     27  C   UNK d   0     -38.328  17.727   2.908  0.00  0.00    -0.022 A 
ATOM     28  C   UNK d   0     -40.201  18.668   2.210  0.00  0.00     0.042 A 
ATOM     29  H   UNK d   0     -39.353  19.907   0.602  0.00  0.00     0.166 HD
ATOM     30  C   UNK d   0     -41.584  18.906   2.228  0.00  0.00     0.062 C 
ATOM     31  C   UNK d   0     -39.665  17.765   3.159  0.00  0.00    -0.013 A 
ATOM     32  C   UNK d   0     -42.441  19.049   1.148  0.00  0.00     0.066 A 
BRANCH   8  33
ATOM     33  C   UNK d   0     -45.457  19.461  -0.914  0.00  0.00     0.151 C 
BRANCH  33  34
ATOM     34  C   UNK d   0     -46.161  18.183  -1.122  0.00  0.00     0.143 C 
ATOM     35  O   UNK d   0     -45.903  17.466  -2.099  0.00  0.00    -0.650 OA
BRANCH  34  36
ATOM     36  O   UNK d   0     -47.119  17.785  -0.219  0.00  0.00    -0.776 OA
ATOM     37  H   UNK d   0     -47.939  17.237  -0.516  0.00  0.00     0.167 HD
ENDBRANCH  34  36
ENDBRANCH  33  34
ENDBRANCH   8  33
BRANCH  31  38
ATOM     38  C   UNK d   0     -40.395  16.983   4.226  0.00  0.00     0.151 C 
BRANCH  38  39
ATOM     39  C   UNK d   0     -40.731  17.788   5.381  0.00  0.00     0.143 C 
ATOM     40  O   UNK d   0     -40.020  18.735   5.762  0.00  0.00    -0.650 OA
BRANCH  39  41
ATOM     41  O   UNK d   0     -41.890  17.504   6.102  0.00  0.00    -0.776 OA
ATOM     42  H   UNK d   0     -42.273  18.260   6.678  0.00  0.00     0.167 HD
ENDBRANCH  39  41
ENDBRANCH  38  39
ENDBRANCH  31  38
BRANCH  27  43
ATOM     43  C   UNK d   0     -37.358  16.883   3.697  0.00  0.00     0.052 C 
BRANCH  43  44
ATOM     44  C   UNK d   0     -36.058  16.664   2.994  0.00  0.00     0.115 C 
BRANCH  44  45
ATOM     45  C   UNK d   0     -35.178  15.936   3.946  0.00  0.00     0.139 C 
ATOM     46  O   UNK d   0     -35.387  14.711   4.125  0.00  0.00    -0.650 OA
BRANCH  45  47
ATOM     47  O   UNK d   0     -34.148  16.547   4.628  0.00  0.00    -0.776 OA
ATOM     48  H   UNK d   0     -34.052  17.573   4.696  0.00  0.00     0.167 HD
ENDBRANCH  45  47
ENDBRANCH  44  45
ENDBRANCH  43  44
ENDBRANCH  27  43
BRANCH  24  49
ATOM     49  C   UNK d   0     -33.757  18.733  -0.080  0.00  0.00     0.052 C 
BRANCH  49  50
ATOM     50  C   UNK d   0     -33.413  20.042   0.583  0.00  0.00     0.115 C 
BRANCH  50  51
ATOM     51  C   UNK d   0     -33.532  20.104   2.034  0.00  0.00     0.139 C 
ATOM     52  O   UNK d   0     -33.822  21.160   2.644  0.00  0.00    -0.650 OA
BRANCH  51  53
ATOM     53  O   UNK d   0     -33.318  18.961   2.789  0.00  0.00    -0.776 OA
ATOM     54  H   UNK d   0     -33.961  18.196   2.687  0.00  0.00     0.167 HD
ENDBRANCH  51  53
ENDBRANCH  50  51
ENDBRANCH  49  50
ENDBRANCH  24  49
BRANCH  21  55
ATOM     55  C   UNK d   0     -34.368  18.858  -3.106  0.00  0.00     0.151 C 
BRANCH  55  56
ATOM     56  C   UNK d   0     -34.220  20.199  -3.691  0.00  0.00     0.143 C 
ATOM     57  O   UNK d   0     -33.588  21.115  -3.130  0.00  0.00    -0.650 OA
BRANCH  56  58
ATOM     58  O   UNK d   0     -34.819  20.437  -4.928  0.00  0.00    -0.776 OA
ATOM     59  H   UNK d   0     -35.182  21.398  -5.059  0.00  0.00     0.167 HD
ENDBRANCH  56  58
ENDBRANCH  55  56
ENDBRANCH  21  55
BRANCH  18  60
ATOM     60  C   UNK d   0     -38.873  20.851  -5.237  0.00  0.00     0.151 C 
BRANCH  60  61
ATOM     61  C   UNK d   0     -38.466  22.117  -4.608  0.00  0.00     0.143 C 
ATOM     62  O   UNK d   0     -39.176  23.100  -4.391  0.00  0.00    -0.650 OA
BRANCH  61  63
ATOM     63  O   UNK d   0     -37.107  22.187  -4.220  0.00  0.00    -0.776 OA
ATOM     64  H   UNK d   0     -36.710  23.043  -3.875  0.00  0.00     0.167 HD
ENDBRANCH  61  63
ENDBRANCH  60  61
ENDBRANCH  18  60
BRANCH  14  65
ATOM     65  C   UNK d   0     -41.876  20.850  -4.799  0.00  0.00     0.052 C 
BRANCH  65  66
ATOM     66  C   UNK d   0     -42.583  21.944  -4.080  0.00  0.00     0.115 C 
BRANCH  66  67
ATOM     67  C   UNK d   0     -43.962  21.780  -3.714  0.00  0.00     0.139 C 
ATOM     68  O   UNK d   0     -44.418  22.458  -2.721  0.00  0.00    -0.650 OA
BRANCH  67  69
ATOM     69  O   UNK d   0     -44.911  20.952  -4.312  0.00  0.00    -0.776 OA
ATOM     70  H   UNK d   0     -44.907  20.937  -5.342  0.00  0.00     0.167 HD
ENDBRANCH  67  69
ENDBRANCH  66  67
ENDBRANCH  65  66
ENDBRANCH  14  65
ENDBRANCH   6   7
ENDBRANCH   5   6
ENDBRANCH   2   5
TORSDOF 28
ENDMDL
MODEL 3
REMARK VINA RESULT:      -7.0      2.153     11.209
REMARK  28 active torsions:
REMARK  status: ('A' for Active; 'I' for Inactive)
REMARK    1  A    between atoms: C_2  and  O_3 
REMARK    2  A    between atoms: C_2  and  C_4 
REMARK    3  A    between atoms: C_4  and  C_5 
REMARK    4  A    between atoms: C_5  and  C_6 
REMARK    5  A    between atoms: C_7  and  C_8 
REMARK    6  A    between atoms: C_8  and  C_9 
REMARK    7  A    between atoms: C_9  and  O_11 
REMARK    8  A    between atoms: C_28  and  C_29 
REMARK    9  A    between atoms: C_29  and  C_30 
REMARK   10  A    between atoms: C_30  and  O_32 
REMARK   11  A    between atoms: C_33  and  C_34 
REMARK   12  A    between atoms: C_34  and  C_35 
REMARK   13  A    between atoms: C_35  and  C_36 
REMARK   14  A    between atoms: C_36  and  O_38 
REMARK   15  A    between atoms: C_39  and  C_40 
REMARK   16  A    between atoms: C_40  and  C_41 
REMARK   17  A    between atoms: C_41  and  C_42 
REMARK   18  A    between atoms: C_42  and  O_44 
REMARK   19  A    between atoms: C_45  and  C_46 
REMARK   20  A    between atoms: C_46  and  C_47 
REMARK   21  A    between atoms: C_47  and  O_49 
REMARK   22  A    between atoms: C_50  and  C_51 
REMARK   23  A    between atoms: C_51  and  C_52 
REMARK   24  A    between atoms: C_52  and  O_54 
REMARK   25  A    between atoms: C_55  and  C_56 
REMARK   26  A    between atoms: C_56  and  C_57 
REMARK   27  A    between atoms: C_57  and  C_58 
REMARK   28  A    between atoms: C_58  and  O_60 
ROOT
ATOM      1  O   UNK d   0     -41.103  21.700  -9.898  0.00  0.00    -0.650 OA
ATOM      2  C   UNK d   0     -40.253  20.854  -9.542  0.00  0.00     0.139 C 
ENDROOT
BRANCH   2   3
ATOM      3  O   UNK d   0     -39.274  20.469 -10.427  0.00  0.00    -0.776 OA
ATOM      4  H   UNK d   0     -38.750  19.602 -10.289  0.00  0.00     0.167 HD
ENDBRANCH   2   3
BRANCH   2   5
ATOM      5  C   UNK d   0     -40.306  20.270  -8.171  0.00  0.00     0.115 C 
BRANCH   5   6
ATOM      6  C   UNK d   0     -40.105  21.349  -7.142  0.00  0.00     0.052 C 
BRANCH   6   7
ATOM      7  C   UNK d   0     -41.073  21.238  -5.988  0.00  0.00    -0.020 A 
ATOM      8  C   UNK d   0     -42.268  21.762  -5.895  0.00  0.00    -0.011 A 
ATOM      9  C   UNK d   0     -42.817  21.393  -4.601  0.00  0.00     0.067 A 
ATOM     10  C   UNK d   0     -44.022  21.608  -3.914  0.00  0.00     0.062 C 
ATOM     11  N   UNK d   0     -41.886  20.649  -3.969  0.00  0.00    -0.248 NA
ATOM     12  C   UNK d   0     -44.480  20.934  -2.777  0.00  0.00     0.041 A 
ATOM     13  N   UNK d   0     -43.842  20.557  -1.652  0.00  0.00    -0.355 N 
ATOM     14  C   UNK d   0     -45.814  20.489  -2.740  0.00  0.00    -0.022 A 
ATOM     15  C   UNK d   0     -44.734  19.878  -0.907  0.00  0.00     0.042 A 
ATOM     16  H   UNK d   0     -42.787  20.784  -1.382  0.00  0.00     0.166 HD
ATOM     17  C   UNK d   0     -44.594  19.269   0.356  0.00  0.00     0.062 C 
ATOM     18  C   UNK d   0     -45.982  19.814  -1.557  0.00  0.00    -0.013 A 
ATOM     19  C   UNK d   0     -43.575  18.479   0.824  0.00  0.00     0.067 A 
ATOM     20  N   UNK d   0     -42.465  18.421   0.083  0.00  0.00    -0.248 NA
ATOM     21  C   UNK d   0     -43.364  17.619   1.977  0.00  0.00    -0.011 A 
ATOM     22  C   UNK d   0     -41.545  17.585   0.667  0.00  0.00     0.066 A 
ATOM     23  C   UNK d   0     -40.325  17.462   0.018  0.00  0.00     0.062 C 
ATOM     24  C   UNK d   0     -42.177  17.096   1.877  0.00  0.00    -0.020 A 
ATOM     25  C   UNK d   0     -39.880  18.158  -1.117  0.00  0.00     0.041 A 
ATOM     26  N   UNK d   0     -40.510  18.519  -2.241  0.00  0.00    -0.355 N 
ATOM     27  C   UNK d   0     -38.542  18.608  -1.150  0.00  0.00    -0.022 A 
ATOM     28  C   UNK d   0     -39.620  19.189  -2.989  0.00  0.00     0.042 A 
ATOM     29  H   UNK d   0     -41.568  18.281  -2.515  0.00  0.00     0.166 HD
ATOM     30  C   UNK d   0     -39.743  19.792  -4.251  0.00  0.00     0.062 C 
ATOM     31  C   UNK d   0     -38.369  19.262  -2.331  0.00  0.00    -0.013 A 
ATOM     32  C   UNK d   0     -40.813  20.518  -4.750  0.00  0.00     0.066 A 
BRANCH   8  33
ATOM     33  C   UNK d   0     -42.953  22.588  -6.907  0.00  0.00     0.151 C 
BRANCH  33  34
ATOM     34  C   UNK d   0     -44.009  21.851  -7.626  0.00  0.00     0.143 C 
ATOM     35  O   UNK d   0     -45.205  22.025  -7.352  0.00  0.00    -0.650 OA
BRANCH  34  36
ATOM     36  O   UNK d   0     -43.657  20.957  -8.611  0.00  0.00    -0.776 OA
ATOM     37  H   UNK d   0     -42.955  21.197  -9.324  0.00  0.00     0.167 HD
ENDBRANCH  34  36
ENDBRANCH  33  34
ENDBRANCH   8  33
BRANCH  31  38
ATOM     38  C   UNK d   0     -37.098  19.928  -2.804  0.00  0.00     0.151 C 
BRANCH  38  39
ATOM     39  C   UNK d   0     -36.203  19.014  -3.480  0.00  0.00     0.143 C 
ATOM     40  O   UNK d   0     -35.025  18.847  -3.118  0.00  0.00    -0.650 OA
BRANCH  39  41
ATOM     41  O   UNK d   0     -36.664  18.287  -4.577  0.00  0.00    -0.776 OA
ATOM     42  H   UNK d   0     -37.238  18.794  -5.257  0.00  0.00     0.167 HD
ENDBRANCH  39  41
ENDBRANCH  38  39
ENDBRANCH  31  38
BRANCH  27  43
ATOM     43  C   UNK d   0     -37.449  18.440  -0.125  0.00  0.00     0.052 C 
BRANCH  43  44
ATOM     44  C   UNK d   0     -36.591  17.241  -0.367  0.00  0.00     0.115 C 
BRANCH  44  45
ATOM     45  C   UNK d   0     -35.210  17.619   0.032  0.00  0.00     0.139 C 
ATOM     46  O   UNK d   0     -34.478  16.734   0.540  0.00  0.00    -0.650 OA
BRANCH  45  47
ATOM     47  O   UNK d   0     -34.705  18.890  -0.136  0.00  0.00    -0.776 OA
ATOM     48  H   UNK d   0     -34.881  19.455  -0.983  0.00  0.00     0.167 HD
ENDBRANCH  45  47
ENDBRANCH  44  45
ENDBRANCH  43  44
ENDBRANCH  27  43
BRANCH  24  49
ATOM     49  C   UNK d   0     -41.541  16.193   2.851  0.00  0.00     0.052 C 
BRANCH  49  50
ATOM     50  C   UNK d   0     -40.324  16.845   3.455  0.00  0.00     0.115 C 
BRANCH  50  51
ATOM     51  C   UNK d   0     -40.509  17.566   4.708  0.00  0.00     0.139 C 
ATOM     52  O   UNK d   0     -39.889  18.622   4.978  0.00  0.00    -0.650 OA
BRANCH  51  53
ATOM     53  O   UNK d   0     -41.400  17.082   5.653  0.00  0.00    -0.776 OA
ATOM     54  H   UNK d   0     -41.368  16.103   5.879  0.00  0.00     0.167 HD
ENDBRANCH  51  53
ENDBRANCH  50  51
ENDBRANCH  49  50
ENDBRANCH  24  49
BRANCH  21  55
ATOM     55  C   UNK d   0     -44.371  17.414   3.060  0.00  0.00     0.151 C 
BRANCH  55  56
ATOM     56  C   UNK d   0     -44.025  18.157   4.282  0.00  0.00     0.143 C 
ATOM     57  O   UNK d   0     -43.445  19.260   4.259  0.00  0.00    -0.650 OA
BRANCH  56  58
ATOM     58  O   UNK d   0     -44.369  17.588   5.507  0.00  0.00    -0.776 OA
ATOM     59  H   UNK d   0     -43.639  16.986   5.928  0.00  0.00     0.167 HD
ENDBRANCH  56  58
ENDBRANCH  55  56
ENDBRANCH  21  55
BRANCH  18  60
ATOM     60  C   UNK d   0     -47.266  19.160  -1.109  0.00  0.00     0.151 C 
BRANCH  60  61
ATOM     61  C   UNK d   0     -47.210  17.778  -1.609  0.00  0.00     0.143 C 
ATOM     62  O   UNK d   0     -46.425  17.320  -2.440  0.00  0.00    -0.650 OA
BRANCH  61  63
ATOM     63  O   UNK d   0     -48.174  16.899  -1.059  0.00  0.00    -0.776 OA
ATOM     64  H   UNK d   0     -48.532  17.038  -0.131  0.00  0.00     0.167 HD
ENDBRANCH  61  63
ENDBRANCH  60  61
ENDBRANCH  18  60
BRANCH  14  65
ATOM     65  C   UNK d   0     -46.956  20.735  -3.684  0.00  0.00     0.052 C 
BRANCH  65  66
ATOM     66  C   UNK d   0     -46.991  19.774  -4.819  0.00  0.00     0.115 C 
BRANCH  66  67
ATOM     67  C   UNK d   0     -48.172  18.992  -5.053  0.00  0.00     0.139 C 
ATOM     68  O   UNK d   0     -49.212  19.578  -5.531  0.00  0.00    -0.650 OA
BRANCH  67  69
ATOM     69  O   UNK d   0     -48.352  17.628  -4.823  0.00  0.00    -0.776 OA
ATOM     70  H   UNK d   0     -48.494  17.047  -5.662  0.00  0.00     0.167 HD
ENDBRANCH  67  69
ENDBRANCH  66  67
ENDBRANCH  65  66
ENDBRANCH  14  65
ENDBRANCH   6   7
ENDBRANCH   5   6
ENDBRANCH   2   5
TORSDOF 28
ENDMDL
MODEL 4
REMARK VINA RESULT:      -6.9      1.762      3.470
REMARK  28 active torsions:
REMARK  status: ('A' for Active; 'I' for Inactive)
REMARK    1  A    between atoms: C_2  and  O_3 
REMARK    2  A    between atoms: C_2  and  C_4 
REMARK    3  A    between atoms: C_4  and  C_5 
REMARK    4  A    between atoms: C_5  and  C_6 
REMARK    5  A    between atoms: C_7  and  C_8 
REMARK    6  A    between atoms: C_8  and  C_9 
REMARK    7  A    between atoms: C_9  and  O_11 
REMARK    8  A    between atoms: C_28  and  C_29 
REMARK    9  A    between atoms: C_29  and  C_30 
REMARK   10  A    between atoms: C_30  and  O_32 
REMARK   11  A    between atoms: C_33  and  C_34 
REMARK   12  A    between atoms: C_34  and  C_35 
REMARK   13  A    between atoms: C_35  and  C_36 
REMARK   14  A    between atoms: C_36  and  O_38 
REMARK   15  A    between atoms: C_39  and  C_40 
REMARK   16  A    between atoms: C_40  and  C_41 
REMARK   17  A    between atoms: C_41  and  C_42 
REMARK   18  A    between atoms: C_42  and  O_44 
REMARK   19  A    between atoms: C_45  and  C_46 
REMARK   20  A    between atoms: C_46  and  C_47 
REMARK   21  A    between atoms: C_47  and  O_49 
REMARK   22  A    between atoms: C_50  and  C_51 
REMARK   23  A    between atoms: C_51  and  C_52 
REMARK   24  A    between atoms: C_52  and  O_54 
REMARK   25  A    between atoms: C_55  and  C_56 
REMARK   26  A    between atoms: C_56  and  C_57 
REMARK   27  A    between atoms: C_57  and  C_58 
REMARK   28  A    between atoms: C_58  and  O_60 
ROOT
ATOM      1  O   UNK d   0     -40.611  12.741   4.671  0.00  0.00    -0.650 OA
ATOM      2  C   UNK d   0     -39.922  13.689   4.232  0.00  0.00     0.139 C 
ENDROOT
BRANCH   2   3
ATOM      3  O   UNK d   0     -38.560  13.669   4.408  0.00  0.00    -0.776 OA
ATOM      4  H   UNK d   0     -37.930  13.470   3.627  0.00  0.00     0.167 HD
ENDBRANCH   2   3
BRANCH   2   5
ATOM      5  C   UNK d   0     -40.578  14.827   3.528  0.00  0.00     0.115 C 
BRANCH   5   6
ATOM      6  C   UNK d   0     -40.150  16.132   4.143  0.00  0.00     0.052 C 
BRANCH   6   7
ATOM      7  C   UNK d   0     -39.439  17.032   3.161  0.00  0.00    -0.020 A 
ATOM      8  C   UNK d   0     -38.226  17.515   3.254  0.00  0.00    -0.011 A 
ATOM      9  C   UNK d   0     -37.982  18.334   2.078  0.00  0.00     0.067 A 
ATOM     10  C   UNK d   0     -36.911  19.089   1.575  0.00  0.00     0.062 C 
ATOM     11  N   UNK d   0     -39.102  18.299   1.326  0.00  0.00    -0.248 NA
ATOM     12  C   UNK d   0     -36.764  19.590   0.277  0.00  0.00     0.041 A 
ATOM     13  N   UNK d   0     -37.646  20.189  -0.547  0.00  0.00    -0.355 N 
ATOM     14  C   UNK d   0     -35.528  19.437  -0.376  0.00  0.00    -0.022 A 
ATOM     15  C   UNK d   0     -37.003  20.411  -1.709  0.00  0.00     0.042 A 
ATOM     16  H   UNK d   0     -38.695  20.466  -0.305  0.00  0.00     0.166 HD
ATOM     17  C   UNK d   0     -37.454  21.008  -2.903  0.00  0.00     0.062 C 
ATOM     18  C   UNK d   0     -35.673  19.953  -1.640  0.00  0.00    -0.013 A 
ATOM     19  C   UNK d   0     -38.634  20.811  -3.573  0.00  0.00     0.067 A 
ATOM     20  N   UNK d   0     -39.583  20.119  -2.937  0.00  0.00    -0.248 NA
ATOM     21  C   UNK d   0     -39.165  21.162  -4.880  0.00  0.00    -0.011 A 
ATOM     22  C   UNK d   0     -40.694  19.990  -3.733  0.00  0.00     0.066 A 
ATOM     23  C   UNK d   0     -41.775  19.321  -3.179  0.00  0.00     0.062 C 
ATOM     24  C   UNK d   0     -40.369  20.675  -4.969  0.00  0.00    -0.020 A 
ATOM     25  C   UNK d   0     -41.907  18.836  -1.869  0.00  0.00     0.041 A 
ATOM     26  N   UNK d   0     -41.036  18.228  -1.055  0.00  0.00    -0.355 N 
ATOM     27  C   UNK d   0     -43.147  18.995  -1.212  0.00  0.00    -0.022 A 
ATOM     28  C   UNK d   0     -41.678  17.997   0.101  0.00  0.00     0.042 A 
ATOM     29  H   UNK d   0     -39.985  17.940  -1.303  0.00  0.00     0.166 HD
ATOM     30  C   UNK d   0     -41.244  17.396   1.293  0.00  0.00     0.062 C 
ATOM     31  C   UNK d   0     -43.011  18.467   0.035  0.00  0.00    -0.013 A 
ATOM     32  C   UNK d   0     -40.016  17.533   1.922  0.00  0.00     0.066 A 
BRANCH   8  33
ATOM     33  C   UNK d   0     -37.264  17.286   4.348  0.00  0.00     0.151 C 
BRANCH  33  34
ATOM     34  C   UNK d   0     -36.103  16.482   3.927  0.00  0.00     0.143 C 
ATOM     35  O   UNK d   0     -36.153  15.244   3.925  0.00  0.00    -0.650 OA
BRANCH  34  36
ATOM     36  O   UNK d   0     -34.948  17.118   3.534  0.00  0.00    -0.776 OA
ATOM     37  H   UNK d   0     -34.932  17.738   2.713  0.00  0.00     0.167 HD
ENDBRANCH  34  36
ENDBRANCH  33  34
ENDBRANCH   8  33
BRANCH  31  38
ATOM     38  C   UNK d   0     -44.075  18.423   1.106  0.00  0.00     0.151 C 
BRANCH  38  39
ATOM     39  C   UNK d   0     -43.942  19.490   2.075  0.00  0.00     0.143 C 
ATOM     40  O   UNK d   0     -43.816  19.272   3.292  0.00  0.00    -0.650 OA
BRANCH  39  41
ATOM     41  O   UNK d   0     -43.954  20.816   1.641  0.00  0.00    -0.776 OA
ATOM     42  H   UNK d   0     -43.792  21.535   2.352  0.00  0.00     0.167 HD
ENDBRANCH  39  41
ENDBRANCH  38  39
ENDBRANCH  31  38
BRANCH  27  43
ATOM     43  C   UNK d   0     -44.427  19.613  -1.717  0.00  0.00     0.052 C 
BRANCH  43  44
ATOM     44  C   UNK d   0     -45.477  18.605  -2.055  0.00  0.00     0.115 C 
BRANCH  44  45
ATOM     45  C   UNK d   0     -46.531  19.329  -2.814  0.00  0.00     0.139 C 
ATOM     46  O   UNK d   0     -47.649  19.489  -2.265  0.00  0.00    -0.650 OA
BRANCH  45  47
ATOM     47  O   UNK d   0     -46.328  19.830  -4.081  0.00  0.00    -0.776 OA
ATOM     48  H   UNK d   0     -46.992  20.474  -4.541  0.00  0.00     0.167 HD
ENDBRANCH  45  47
ENDBRANCH  44  45
ENDBRANCH  43  44
ENDBRANCH  27  43
BRANCH  24  49
ATOM     49  C   UNK d   0     -41.286  20.829  -6.111  0.00  0.00     0.052 C 
BRANCH  49  50
ATOM     50  C   UNK d   0     -42.272  21.938  -5.847  0.00  0.00     0.115 C 
BRANCH  50  51
ATOM     51  C   UNK d   0     -43.662  21.556  -5.637  0.00  0.00     0.139 C 
ATOM     52  O   UNK d   0     -44.228  21.648  -4.522  0.00  0.00    -0.650 OA
BRANCH  51  53
ATOM     53  O   UNK d   0     -44.406  21.066  -6.699  0.00  0.00    -0.776 OA
ATOM     54  H   UNK d   0     -44.250  21.459  -7.611  0.00  0.00     0.167 HD
ENDBRANCH  51  53
ENDBRANCH  50  51
ENDBRANCH  49  50
ENDBRANCH  24  49
BRANCH  21  55
ATOM     55  C   UNK d   0     -38.415  21.951  -5.901  0.00  0.00     0.151 C 
BRANCH  55  56
ATOM     56  C   UNK d   0     -38.573  23.400  -5.703  0.00  0.00     0.143 C 
ATOM     57  O   UNK d   0     -37.936  24.038  -4.842  0.00  0.00    -0.650 OA
BRANCH  56  58
ATOM     58  O   UNK d   0     -39.478  24.073  -6.524  0.00  0.00    -0.776 OA
ATOM     59  H   UNK d   0     -39.246  24.057  -7.533  0.00  0.00     0.167 HD
ENDBRANCH  56  58
ENDBRANCH  55  56
ENDBRANCH  21  55
BRANCH  18  60
ATOM     60  C   UNK d   0     -34.589  19.987  -2.689  0.00  0.00     0.151 C 
BRANCH  60  61
ATOM     61  C   UNK d   0     -34.572  18.646  -3.295  0.00  0.00     0.143 C 
ATOM     62  O   UNK d   0     -33.632  17.852  -3.312  0.00  0.00    -0.650 OA
BRANCH  61  63
ATOM     63  O   UNK d   0     -35.780  18.252  -3.920  0.00  0.00    -0.776 OA
ATOM     64  H   UNK d   0     -35.777  17.622  -4.702  0.00  0.00     0.167 HD
ENDBRANCH  61  63
ENDBRANCH  60  61
ENDBRANCH  18  60
BRANCH  14  65
ATOM     65  C   UNK d   0     -34.207  18.934   0.131  0.00  0.00     0.052 C 
BRANCH  65  66
ATOM     66  C   UNK d   0     -33.943  17.517  -0.239  0.00  0.00     0.115 C 
BRANCH  66  67
ATOM     67  C   UNK d   0     -34.983  16.538  -0.094  0.00  0.00     0.139 C 
ATOM     68  O   UNK d   0     -34.906  15.700   0.879  0.00  0.00    -0.650 OA
BRANCH  67  69
ATOM     69  O   UNK d   0     -36.110  16.365  -0.897  0.00  0.00    -0.776 OA
ATOM     70  H   UNK d   0     -36.834  17.093  -0.815  0.00  0.00     0.167 HD
ENDBRANCH  67  69
ENDBRANCH  66  67
ENDBRANCH  65  66
ENDBRANCH  14  65
ENDBRANCH   6   7
ENDBRANCH   5   6
ENDBRANCH   2   5
TORSDOF 28
ENDMDL
MODEL 5
REMARK VINA RESULT:      -6.9      1.319      8.323
REMARK  28 active torsions:
REMARK  status: ('A' for Active; 'I' for Inactive)
REMARK    1  A    between atoms: C_2  and  O_3 
REMARK    2  A    between atoms: C_2  and  C_4 
REMARK    3  A    between atoms: C_4  and  C_5 
REMARK    4  A    between atoms: C_5  and  C_6 
REMARK    5  A    between atoms: C_7  and  C_8 
REMARK    6  A    between atoms: C_8  and  C_9 
REMARK    7  A    between atoms: C_9  and  O_11 
REMARK    8  A    between atoms: C_28  and  C_29 
REMARK    9  A    between atoms: C_29  and  C_30 
REMARK   10  A    between atoms: C_30  and  O_32 
REMARK   11  A    between atoms: C_33  and  C_34 
REMARK   12  A    between atoms: C_34  and  C_35 
REMARK   13  A    between atoms: C_35  and  C_36 
REMARK   14  A    between atoms: C_36  and  O_38 
REMARK   15  A    between atoms: C_39  and  C_40 
REMARK   16  A    between atoms: C_40  and  C_41 
REMARK   17  A    between atoms: C_41  and  C_42 
REMARK   18  A    between atoms: C_42  and  O_44 
REMARK   19  A    between atoms: C_45  and  C_46 
REMARK   20  A    between atoms: C_46  and  C_47 
REMARK   21  A    between atoms: C_47  and  O_49 
REMARK   22  A    between atoms: C_50  and  C_51 
REMARK   23  A    between atoms: C_51  and  C_52 
REMARK   24  A    between atoms: C_52  and  O_54 
REMARK   25  A    between atoms: C_55  and  C_56 
REMARK   26  A    between atoms: C_56  and  C_57 
REMARK   27  A    between atoms: C_57  and  C_58 
REMARK   28  A    between atoms: C_58  and  O_60 
ROOT
ATOM      1  O   UNK d   0     -48.575  18.863  -0.299  0.00  0.00    -0.650 OA
ATOM      2  C   UNK d   0     -47.502  18.238  -0.459  0.00  0.00     0.139 C 
ENDROOT
BRANCH   2   3
ATOM      3  O   UNK d   0     -47.462  17.184  -1.339  0.00  0.00    -0.776 OA
ATOM      4  H   UNK d   0     -46.599  16.939  -1.829  0.00  0.00     0.167 HD
ENDBRANCH   2   3
BRANCH   2   5
ATOM      5  C   UNK d   0     -46.283  18.637   0.301  0.00  0.00     0.115 C 
BRANCH   5   6
ATOM      6  C   UNK d   0     -45.688  19.884  -0.295  0.00  0.00     0.052 C 
BRANCH   6   7
ATOM      7  C   UNK d   0     -44.314  19.651  -0.877  0.00  0.00    -0.020 A 
ATOM      8  C   UNK d   0     -43.940  19.797  -2.122  0.00  0.00    -0.011 A 
ATOM      9  C   UNK d   0     -42.531  19.450  -2.207  0.00  0.00     0.067 A 
ATOM     10  C   UNK d   0     -41.555  19.416  -3.215  0.00  0.00     0.062 C 
ATOM     11  N   UNK d   0     -42.130  19.098  -0.967  0.00  0.00    -0.248 NA
ATOM     12  C   UNK d   0     -40.169  19.320  -3.050  0.00  0.00     0.041 A 
ATOM     13  N   UNK d   0     -39.426  18.554  -2.229  0.00  0.00    -0.355 N 
ATOM     14  C   UNK d   0     -39.334  20.172  -3.795  0.00  0.00    -0.022 A 
ATOM     15  C   UNK d   0     -38.141  18.905  -2.427  0.00  0.00     0.042 A 
ATOM     16  H   UNK d   0     -39.800  17.769  -1.537  0.00  0.00     0.166 HD
ATOM     17  C   UNK d   0     -36.959  18.421  -1.832  0.00  0.00     0.062 C 
ATOM     18  C   UNK d   0     -38.044  19.917  -3.402  0.00  0.00    -0.013 A 
ATOM     19  C   UNK d   0     -36.703  18.163  -0.509  0.00  0.00     0.067 A 
ATOM     20  N   UNK d   0     -37.748  18.175   0.323  0.00  0.00    -0.248 NA
ATOM     21  C   UNK d   0     -35.524  17.874   0.290  0.00  0.00    -0.011 A 
ATOM     22  C   UNK d   0     -37.337  17.917   1.607  0.00  0.00     0.066 A 
ATOM     23  C   UNK d   0     -38.332  17.863   2.573  0.00  0.00     0.062 C 
ATOM     24  C   UNK d   0     -35.901  17.736   1.528  0.00  0.00    -0.020 A 
ATOM     25  C   UNK d   0     -39.720  17.950   2.385  0.00  0.00     0.041 A 
ATOM     26  N   UNK d   0     -40.460  18.721   1.579  0.00  0.00    -0.355 N 
ATOM     27  C   UNK d   0     -40.557  17.090   3.130  0.00  0.00    -0.022 A 
ATOM     28  C   UNK d   0     -41.742  18.379   1.782  0.00  0.00     0.042 A 
ATOM     29  H   UNK d   0     -40.083  19.517   0.892  0.00  0.00     0.166 HD
ATOM     30  C   UNK d   0     -42.928  18.859   1.203  0.00  0.00     0.062 C 
ATOM     31  C   UNK d   0     -41.838  17.355   2.754  0.00  0.00    -0.013 A 
ATOM     32  C   UNK d   0     -43.156  19.199  -0.121  0.00  0.00     0.066 A 
BRANCH   8  33
ATOM     33  C   UNK d   0     -44.780  20.230  -3.254  0.00  0.00     0.151 C 
BRANCH  33  34
ATOM     34  C   UNK d   0     -44.196  21.358  -4.000  0.00  0.00     0.143 C 
ATOM     35  O   UNK d   0     -44.014  22.456  -3.455  0.00  0.00    -0.650 OA
BRANCH  34  36
ATOM     36  O   UNK d   0     -43.849  21.188  -5.321  0.00  0.00    -0.776 OA
ATOM     37  H   UNK d   0     -43.696  20.250  -5.716  0.00  0.00     0.167 HD
ENDBRANCH  34  36
ENDBRANCH  33  34
ENDBRANCH   8  33
BRANCH  31  38
ATOM     38  C   UNK d   0     -43.079  16.669   3.274  0.00  0.00     0.151 C 
BRANCH  38  39
ATOM     39  C   UNK d   0     -43.752  17.432   4.305  0.00  0.00     0.143 C 
ATOM     40  O   UNK d   0     -44.862  17.961   4.122  0.00  0.00    -0.650 OA
BRANCH  39  41
ATOM     41  O   UNK d   0     -43.146  17.586   5.551  0.00  0.00    -0.776 OA
ATOM     42  H   UNK d   0     -42.505  18.378   5.658  0.00  0.00     0.167 HD
ENDBRANCH  39  41
ENDBRANCH  38  39
ENDBRANCH  31  38
BRANCH  27  43
ATOM     43  C   UNK d   0     -40.191  16.054   4.162  0.00  0.00     0.052 C 
BRANCH  43  44
ATOM     44  C   UNK d   0     -40.356  14.651   3.675  0.00  0.00     0.115 C 
BRANCH  44  45
ATOM     45  C   UNK d   0     -39.884  13.764   4.770  0.00  0.00     0.139 C 
ATOM     46  O   UNK d   0     -38.693  13.367   4.740  0.00  0.00    -0.650 OA
BRANCH  45  47
ATOM     47  O   UNK d   0     -40.695  13.367   5.812  0.00  0.00    -0.776 OA
ATOM     48  H   UNK d   0     -40.401  12.672   6.517  0.00  0.00     0.167 HD
ENDBRANCH  45  47
ENDBRANCH  44  45
ENDBRANCH  43  44
ENDBRANCH  27  43
BRANCH  24  49
ATOM     49  C   UNK d   0     -35.032  17.399   2.668  0.00  0.00     0.052 C 
BRANCH  49  50
ATOM     50  C   UNK d   0     -35.130  15.928   2.985  0.00  0.00     0.115 C 
BRANCH  50  51
ATOM     51  C   UNK d   0     -33.934  15.123   2.781  0.00  0.00     0.139 C 
ATOM     52  O   UNK d   0     -32.896  15.266   3.469  0.00  0.00    -0.650 OA
BRANCH  51  53
ATOM     53  O   UNK d   0     -33.920  14.154   1.788  0.00  0.00    -0.776 OA
ATOM     54  H   UNK d   0     -33.183  13.472   1.801  0.00  0.00     0.167 HD
ENDBRANCH  51  53
ENDBRANCH  50  51
ENDBRANCH  49  50
ENDBRANCH  24  49
BRANCH  21  55
ATOM     55  C   UNK d   0     -34.144  17.763  -0.269  0.00  0.00     0.151 C 
BRANCH  55  56
ATOM     56  C   UNK d   0     -33.540  19.082  -0.514  0.00  0.00     0.143 C 
ATOM     57  O   UNK d   0     -33.613  19.662  -1.615  0.00  0.00    -0.650 OA
BRANCH  56  58
ATOM     58  O   UNK d   0     -32.863  19.692   0.540  0.00  0.00    -0.776 OA
ATOM     59  H   UNK d   0     -33.262  19.509   1.479  0.00  0.00     0.167 HD
ENDBRANCH  56  58
ENDBRANCH  55  56
ENDBRANCH  21  55
BRANCH  18  60
ATOM     60  C   UNK d   0     -36.821  20.616  -3.943  0.00  0.00     0.151 C 
BRANCH  60  61
ATOM     61  C   UNK d   0     -36.609  21.786  -3.076  0.00  0.00     0.143 C 
ATOM     62  O   UNK d   0     -37.157  22.885  -3.165  0.00  0.00    -0.650 OA
BRANCH  61  63
ATOM     63  O   UNK d   0     -35.668  21.600  -2.034  0.00  0.00    -0.776 OA
ATOM     64  H   UNK d   0     -35.289  20.692  -1.834  0.00  0.00     0.167 HD
ENDBRANCH  61  63
ENDBRANCH  60  61
ENDBRANCH  18  60
BRANCH  14  65
ATOM     65  C   UNK d   0     -39.652  21.129  -4.909  0.00  0.00     0.052 C 
BRANCH  65  66
ATOM     66  C   UNK d   0     -39.269  20.610  -6.249  0.00  0.00     0.115 C 
BRANCH  66  67
ATOM     67  C   UNK d   0     -40.287  20.155  -7.153  0.00  0.00     0.139 C 
ATOM     68  O   UNK d   0     -39.957  19.332  -8.085  0.00  0.00    -0.650 OA
BRANCH  67  69
ATOM     69  O   UNK d   0     -41.639  20.498  -7.159  0.00  0.00    -0.776 OA
ATOM     70  H   UNK d   0     -42.186  20.177  -6.348  0.00  0.00     0.167 HD
ENDBRANCH  67  69
ENDBRANCH  66  67
ENDBRANCH  65  66
ENDBRANCH  14  65
ENDBRANCH   6   7
ENDBRANCH   5   6
ENDBRANCH   2   5
TORSDOF 28
ENDMDL
MODEL 6
REMARK VINA RESULT:      -6.9      1.798      4.066
REMARK  28 active torsions:
REMARK  status: ('A' for Active; 'I' for Inactive)
REMARK    1  A    between atoms: C_2  and  O_3 
REMARK    2  A    between atoms: C_2  and  C_4 
REMARK    3  A    between atoms: C_4  and  C_5 
REMARK    4  A    between atoms: C_5  and  C_6 
REMARK    5  A    between atoms: C_7  and  C_8 
REMARK    6  A    between atoms: C_8  and  C_9 
REMARK    7  A    between atoms: C_9  and  O_11 
REMARK    8  A    between atoms: C_28  and  C_29 
REMARK    9  A    between atoms: C_29  and  C_30 
REMARK   10  A    between atoms: C_30  and  O_32 
REMARK   11  A    between atoms: C_33  and  C_34 
REMARK   12  A    between atoms: C_34  and  C_35 
REMARK   13  A    between atoms: C_35  and  C_36 
REMARK   14  A    between atoms: C_36  and  O_38 
REMARK   15  A    between atoms: C_39  and  C_40 
REMARK   16  A    between atoms: C_40  and  C_41 
REMARK   17  A    between atoms: C_41  and  C_42 
REMARK   18  A    between atoms: C_42  and  O_44 
REMARK   19  A    between atoms: C_45  and  C_46 
REMARK   20  A    between atoms: C_46  and  C_47 
REMARK   21  A    between atoms: C_47  and  O_49 
REMARK   22  A    between atoms: C_50  and  C_51 
REMARK   23  A    between atoms: C_51  and  C_52 
REMARK   24  A    between atoms: C_52  and  O_54 
REMARK   25  A    between atoms: C_55  and  C_56 
REMARK   26  A    between atoms: C_56  and  C_57 
REMARK   27  A    between atoms: C_57  and  C_58 
REMARK   28  A    between atoms: C_58  and  O_60 
ROOT
ATOM      1  O   UNK d   0     -40.947  12.519   4.253  0.00  0.00    -0.650 OA
ATOM      2  C   UNK d   0     -40.366  13.415   4.905  0.00  0.00     0.139 C 
ENDROOT
BRANCH   2   3
ATOM      3  O   UNK d   0     -40.577  13.508   6.259  0.00  0.00    -0.776 OA
ATOM      4  H   UNK d   0     -41.416  13.114   6.690  0.00  0.00     0.167 HD
ENDBRANCH   2   3
BRANCH   2   5
ATOM      5  C   UNK d   0     -39.453  14.370   4.214  0.00  0.00     0.115 C 
BRANCH   5   6
ATOM      6  C   UNK d   0     -39.872  15.786   4.503  0.00  0.00     0.052 C 
BRANCH   6   7
ATOM      7  C   UNK d   0     -39.347  16.767   3.482  0.00  0.00    -0.020 A 
ATOM      8  C   UNK d   0     -38.154  17.302   3.429  0.00  0.00    -0.011 A 
ATOM      9  C   UNK d   0     -38.116  18.190   2.279  0.00  0.00     0.067 A 
ATOM     10  C   UNK d   0     -37.160  19.019   1.672  0.00  0.00     0.062 C 
ATOM     11  N   UNK d   0     -39.330  18.138   1.692  0.00  0.00    -0.248 NA
ATOM     12  C   UNK d   0     -37.222  19.591   0.396  0.00  0.00     0.041 A 
ATOM     13  N   UNK d   0     -38.236  20.186  -0.260  0.00  0.00    -0.355 N 
ATOM     14  C   UNK d   0     -36.087  19.530  -0.433  0.00  0.00    -0.022 A 
ATOM     15  C   UNK d   0     -37.777  20.497  -1.487  0.00  0.00     0.042 A 
ATOM     16  H   UNK d   0     -39.251  20.400   0.143  0.00  0.00     0.166 HD
ATOM     17  C   UNK d   0     -38.420  21.130  -2.570  0.00  0.00     0.062 C 
ATOM     18  C   UNK d   0     -36.433  20.100  -1.633  0.00  0.00    -0.013 A 
ATOM     19  C   UNK d   0     -39.675  20.909  -3.076  0.00  0.00     0.067 A 
ATOM     20  N   UNK d   0     -40.493  20.141  -2.352  0.00  0.00    -0.248 NA
ATOM     21  C   UNK d   0     -40.402  21.299  -4.273  0.00  0.00    -0.011 A 
ATOM     22  C   UNK d   0     -41.701  19.998  -2.989  0.00  0.00     0.066 A 
ATOM     23  C   UNK d   0     -42.663  19.251  -2.325  0.00  0.00     0.062 C 
ATOM     24  C   UNK d   0     -41.585  20.759  -4.217  0.00  0.00    -0.020 A 
ATOM     25  C   UNK d   0     -42.585  18.696  -1.038  0.00  0.00     0.041 A 
ATOM     26  N   UNK d   0     -41.582  18.091  -0.392  0.00  0.00    -0.355 N 
ATOM     27  C   UNK d   0     -43.723  18.762  -0.205  0.00  0.00    -0.022 A 
ATOM     28  C   UNK d   0     -42.040  17.772   0.829  0.00  0.00     0.042 A 
ATOM     29  H   UNK d   0     -40.566  17.868  -0.802  0.00  0.00     0.166 HD
ATOM     30  C   UNK d   0     -41.415  17.135   1.912  0.00  0.00     0.062 C 
ATOM     31  C   UNK d   0     -43.387  18.180   0.979  0.00  0.00    -0.013 A 
ATOM     32  C   UNK d   0     -40.116  17.299   2.368  0.00  0.00     0.066 A 
BRANCH   8  33
ATOM     33  C   UNK d   0     -37.036  17.066   4.361  0.00  0.00     0.151 C 
BRANCH  33  34
ATOM     34  C   UNK d   0     -35.954  16.264   3.763  0.00  0.00     0.143 C 
ATOM     35  O   UNK d   0     -35.907  15.036   3.927  0.00  0.00    -0.650 OA
BRANCH  34  36
ATOM     36  O   UNK d   0     -34.984  16.889   3.015  0.00  0.00    -0.776 OA
ATOM     37  H   UNK d   0     -34.023  16.522   2.972  0.00  0.00     0.167 HD
ENDBRANCH  34  36
ENDBRANCH  33  34
ENDBRANCH   8  33
BRANCH  31  38
ATOM     38  C   UNK d   0     -44.284  18.032   2.185  0.00  0.00     0.151 C 
BRANCH  38  39
ATOM     39  C   UNK d   0     -44.097  19.088   3.158  0.00  0.00     0.143 C 
ATOM     40  O   UNK d   0     -43.587  20.183   2.861  0.00  0.00    -0.650 OA
BRANCH  39  41
ATOM     41  O   UNK d   0     -44.499  18.885   4.477  0.00  0.00    -0.776 OA
ATOM     42  H   UNK d   0     -44.117  19.525   5.180  0.00  0.00     0.167 HD
ENDBRANCH  39  41
ENDBRANCH  38  39
ENDBRANCH  31  38
BRANCH  27  43
ATOM     43  C   UNK d   0     -45.086  19.342  -0.488  0.00  0.00     0.052 C 
BRANCH  43  44
ATOM     44  C   UNK d   0     -46.164  18.310  -0.560  0.00  0.00     0.115 C 
BRANCH  44  45
ATOM     45  C   UNK d   0     -46.448  18.092  -2.002  0.00  0.00     0.139 C 
ATOM     46  O   UNK d   0     -47.162  17.109  -2.323  0.00  0.00    -0.650 OA
BRANCH  45  47
ATOM     47  O   UNK d   0     -45.969  18.922  -2.992  0.00  0.00    -0.776 OA
ATOM     48  H   UNK d   0     -45.146  19.532  -2.861  0.00  0.00     0.167 HD
ENDBRANCH  45  47
ENDBRANCH  44  45
ENDBRANCH  43  44
ENDBRANCH  27  43
BRANCH  24  49
ATOM     49  C   UNK d   0     -42.663  20.925  -5.208  0.00  0.00     0.052 C 
BRANCH  49  50
ATOM     50  C   UNK d   0     -43.681  21.920  -4.714  0.00  0.00     0.115 C 
BRANCH  50  51
ATOM     51  C   UNK d   0     -45.072  21.491  -4.689  0.00  0.00     0.139 C 
ATOM     52  O   UNK d   0     -45.892  21.903  -3.834  0.00  0.00    -0.650 OA
BRANCH  51  53
ATOM     53  O   UNK d   0     -45.530  20.590  -5.638  0.00  0.00    -0.776 OA
ATOM     54  H   UNK d   0     -44.911  19.855  -5.932  0.00  0.00     0.167 HD
ENDBRANCH  51  53
ENDBRANCH  50  51
ENDBRANCH  49  50
ENDBRANCH  24  49
BRANCH  21  55
ATOM     55  C   UNK d   0     -39.840  22.173  -5.344  0.00  0.00     0.151 C 
BRANCH  55  56
ATOM     56  C   UNK d   0     -39.305  21.391  -6.469  0.00  0.00     0.143 C 
ATOM     57  O   UNK d   0     -39.184  21.858  -7.619  0.00  0.00    -0.650 OA
BRANCH  56  58
ATOM     58  O   UNK d   0     -38.921  20.074  -6.221  0.00  0.00    -0.776 OA
ATOM     59  H   UNK d   0     -39.370  19.367  -6.830  0.00  0.00     0.167 HD
ENDBRANCH  56  58
ENDBRANCH  55  56
ENDBRANCH  21  55
BRANCH  18  60
ATOM     60  C   UNK d   0     -35.515  20.238  -2.821  0.00  0.00     0.151 C 
BRANCH  60  61
ATOM     61  C   UNK d   0     -35.830  19.109  -3.709  0.00  0.00     0.143 C 
ATOM     62  O   UNK d   0     -36.711  19.064  -4.568  0.00  0.00    -0.650 OA
BRANCH  61  63
ATOM     63  O   UNK d   0     -35.018  17.962  -3.537  0.00  0.00    -0.776 OA
ATOM     64  H   UNK d   0     -34.044  17.975  -3.783  0.00  0.00     0.167 HD
ENDBRANCH  61  63
ENDBRANCH  60  61
ENDBRANCH  18  60
BRANCH  14  65
ATOM     65  C   UNK d   0     -34.687  19.067  -0.147  0.00  0.00     0.052 C 
BRANCH  65  66
ATOM     66  C   UNK d   0     -33.846  20.116   0.488  0.00  0.00     0.115 C 
BRANCH  66  67
ATOM     67  C   UNK d   0     -33.708  20.149   1.917  0.00  0.00     0.139 C 
ATOM     68  O   UNK d   0     -33.966  21.248   2.533  0.00  0.00    -0.650 OA
BRANCH  67  69
ATOM     69  O   UNK d   0     -33.315  19.111   2.760  0.00  0.00    -0.776 OA
ATOM     70  H   UNK d   0     -33.395  18.161   2.369  0.00  0.00     0.167 HD
ENDBRANCH  67  69
ENDBRANCH  66  67
ENDBRANCH  65  66
ENDBRANCH  14  65
ENDBRANCH   6   7
ENDBRANCH   5   6
ENDBRANCH   2   5
TORSDOF 28
ENDMDL
MODEL 7
REMARK VINA RESULT:      -6.8      1.376      7.413
REMARK  28 active torsions:
REMARK  status: ('A' for Active; 'I' for Inactive)
REMARK    1  A    between atoms: C_2  and  O_3 
REMARK    2  A    between atoms: C_2  and  C_4 
REMARK    3  A    between atoms: C_4  and  C_5 
REMARK    4  A    between atoms: C_5  and  C_6 
REMARK    5  A    between atoms: C_7  and  C_8 
REMARK    6  A    between atoms: C_8  and  C_9 
REMARK    7  A    between atoms: C_9  and  O_11 
REMARK    8  A    between atoms: C_28  and  C_29 
REMARK    9  A    between atoms: C_29  and  C_30 
REMARK   10  A    between atoms: C_30  and  O_32 
REMARK   11  A    between atoms: C_33  and  C_34 
REMARK   12  A    between atoms: C_34  and  C_35 
REMARK   13  A    between atoms: C_35  and  C_36 
REMARK   14  A    between atoms: C_36  and  O_38 
REMARK   15  A    between atoms: C_39  and  C_40 
REMARK   16  A    between atoms: C_40  and  C_41 
REMARK   17  A    between atoms: C_41  and  C_42 
REMARK   18  A    between atoms: C_42  and  O_44 
REMARK   19  A    between atoms: C_45  and  C_46 
REMARK   20  A    between atoms: C_46  and  C_47 
REMARK   21  A    between atoms: C_47  and  O_49 
REMARK   22  A    between atoms: C_50  and  C_51 
REMARK   23  A    between atoms: C_51  and  C_52 
REMARK   24  A    between atoms: C_52  and  O_54 
REMARK   25  A    between atoms: C_55  and  C_56 
REMARK   26  A    between atoms: C_56  and  C_57 
REMARK   27  A    between atoms: C_57  and  C_58 
REMARK   28  A    between atoms: C_58  and  O_60 
ROOT
ATOM      1  O   UNK d   0     -43.623  22.608  -5.137  0.00  0.00    -0.650 OA
ATOM      2  C   UNK d   0     -44.535  21.772  -4.945  0.00  0.00     0.139 C 
ENDROOT
BRANCH   2   3
ATOM      3  O   UNK d   0     -44.840  20.869  -5.934  0.00  0.00    -0.776 OA
ATOM      4  H   UNK d   0     -45.462  20.078  -5.754  0.00  0.00     0.167 HD
ENDBRANCH   2   3
BRANCH   2   5
ATOM      5  C   UNK d   0     -45.280  21.761  -3.654  0.00  0.00     0.115 C 
BRANCH   5   6
ATOM      6  C   UNK d   0     -45.339  20.362  -3.102  0.00  0.00     0.052 C 
BRANCH   6   7
ATOM      7  C   UNK d   0     -44.388  20.153  -1.948  0.00  0.00    -0.020 A 
ATOM      8  C   UNK d   0     -44.664  20.193  -0.670  0.00  0.00    -0.011 A 
ATOM      9  C   UNK d   0     -43.432  19.940   0.059  0.00  0.00     0.067 A 
ATOM     10  C   UNK d   0     -43.057  19.830   1.408  0.00  0.00     0.062 C 
ATOM     11  N   UNK d   0     -42.455  19.763  -0.855  0.00  0.00    -0.248 NA
ATOM     12  C   UNK d   0     -41.865  19.303   1.915  0.00  0.00     0.041 A 
ATOM     13  N   UNK d   0     -40.588  19.455   1.516  0.00  0.00    -0.355 N 
ATOM     14  C   UNK d   0     -41.923  18.407   2.998  0.00  0.00    -0.022 A 
ATOM     15  C   UNK d   0     -39.836  18.672   2.313  0.00  0.00     0.042 A 
ATOM     16  H   UNK d   0     -40.223  20.117   0.700  0.00  0.00     0.166 HD
ATOM     17  C   UNK d   0     -38.443  18.457   2.330  0.00  0.00     0.062 C 
ATOM     18  C   UNK d   0     -40.638  17.999   3.254  0.00  0.00    -0.013 A 
ATOM     19  C   UNK d   0     -37.592  18.236   1.278  0.00  0.00     0.067 A 
ATOM     20  N   UNK d   0     -38.080  18.439   0.052  0.00  0.00    -0.248 NA
ATOM     21  C   UNK d   0     -36.214  17.798   1.123  0.00  0.00    -0.011 A 
ATOM     22  C   UNK d   0     -37.122  18.164  -0.894  0.00  0.00     0.066 A 
ATOM     23  C   UNK d   0     -37.486  18.370  -2.217  0.00  0.00     0.062 C 
ATOM     24  C   UNK d   0     -35.947  17.754  -0.151  0.00  0.00    -0.020 A 
ATOM     25  C   UNK d   0     -38.684  18.913  -2.705  0.00  0.00     0.041 A 
ATOM     26  N   UNK d   0     -39.955  18.750  -2.318  0.00  0.00    -0.355 N 
ATOM     27  C   UNK d   0     -38.624  19.815  -3.790  0.00  0.00    -0.022 A 
ATOM     28  C   UNK d   0     -40.708  19.523  -3.117  0.00  0.00     0.042 A 
ATOM     29  H   UNK d   0     -40.321  18.076  -1.505  0.00  0.00     0.166 HD
ATOM     30  C   UNK d   0     -42.095  19.739  -3.151  0.00  0.00     0.062 C 
ATOM     31  C   UNK d   0     -39.900  20.207  -4.056  0.00  0.00    -0.013 A 
ATOM     32  C   UNK d   0     -42.965  19.878  -2.081  0.00  0.00     0.066 A 
BRANCH   8  33
ATOM     33  C   UNK d   0     -45.979  20.452  -0.056  0.00  0.00     0.151 C 
BRANCH  33  34
ATOM     34  C   UNK d   0     -46.693  19.215   0.306  0.00  0.00     0.143 C 
ATOM     35  O   UNK d   0     -47.496  18.690  -0.479  0.00  0.00    -0.650 OA
BRANCH  34  36
ATOM     36  O   UNK d   0     -46.465  18.637   1.534  0.00  0.00    -0.776 OA
ATOM     37  H   UNK d   0     -46.151  19.197   2.338  0.00  0.00     0.167 HD
ENDBRANCH  34  36
ENDBRANCH  33  34
ENDBRANCH   8  33
BRANCH  31  38
ATOM     38  C   UNK d   0     -40.328  21.182  -5.128  0.00  0.00     0.151 C 
BRANCH  38  39
ATOM     39  C   UNK d   0     -40.710  20.528  -6.361  0.00  0.00     0.143 C 
ATOM     40  O   UNK d   0     -39.962  19.728  -6.950  0.00  0.00    -0.650 OA
BRANCH  39  41
ATOM     41  O   UNK d   0     -41.960  20.794  -6.920  0.00  0.00    -0.776 OA
ATOM     42  H   UNK d   0     -42.102  21.732  -7.307  0.00  0.00     0.167 HD
ENDBRANCH  39  41
ENDBRANCH  38  39
ENDBRANCH  31  38
BRANCH  27  43
ATOM     43  C   UNK d   0     -37.426  20.305  -4.564  0.00  0.00     0.052 C 
BRANCH  43  44
ATOM     44  C   UNK d   0     -36.694  21.414  -3.880  0.00  0.00     0.115 C 
BRANCH  44  45
ATOM     45  C   UNK d   0     -36.958  22.646  -4.668  0.00  0.00     0.139 C 
ATOM     46  O   UNK d   0     -37.678  23.536  -4.150  0.00  0.00    -0.650 OA
BRANCH  45  47
ATOM     47  O   UNK d   0     -36.445  22.850  -5.931  0.00  0.00    -0.776 OA
ATOM     48  H   UNK d   0     -35.914  22.128  -6.443  0.00  0.00     0.167 HD
ENDBRANCH  45  47
ENDBRANCH  44  45
ENDBRANCH  43  44
ENDBRANCH  27  43
BRANCH  24  49
ATOM     49  C   UNK d   0     -34.652  17.397  -0.755  0.00  0.00     0.052 C 
BRANCH  49  50
ATOM     50  C   UNK d   0     -34.007  18.614  -1.368  0.00  0.00     0.115 C 
BRANCH  50  51
ATOM     51  C   UNK d   0     -33.991  18.696  -2.822  0.00  0.00     0.139 C 
ATOM     52  O   UNK d   0     -33.596  19.715  -3.437  0.00  0.00    -0.650 OA
BRANCH  51  53
ATOM     53  O   UNK d   0     -34.428  17.618  -3.575  0.00  0.00    -0.776 OA
ATOM     54  H   UNK d   0     -35.132  17.018  -3.183  0.00  0.00     0.167 HD
ENDBRANCH  51  53
ENDBRANCH  50  51
ENDBRANCH  49  50
ENDBRANCH  24  49
BRANCH  21  55
ATOM     55  C   UNK d   0     -35.308  17.473   2.264  0.00  0.00     0.151 C 
BRANCH  55  56
ATOM     56  C   UNK d   0     -35.433  16.070   2.686  0.00  0.00     0.143 C 
ATOM     57  O   UNK d   0     -36.248  15.696   3.552  0.00  0.00    -0.650 OA
BRANCH  56  58
ATOM     58  O   UNK d   0     -34.598  15.132   2.079  0.00  0.00    -0.776 OA
ATOM     59  H   UNK d   0     -34.906  14.148   2.175  0.00  0.00     0.167 HD
ENDBRANCH  56  58
ENDBRANCH  55  56
ENDBRANCH  21  55
BRANCH  18  60
ATOM     60  C   UNK d   0     -40.239  17.025   4.335  0.00  0.00     0.151 C 
BRANCH  60  61
ATOM     61  C   UNK d   0     -40.252  15.696   3.706  0.00  0.00     0.143 C 
ATOM     62  O   UNK d   0     -41.112  15.240   2.952  0.00  0.00    -0.650 OA
BRANCH  61  63
ATOM     63  O   UNK d   0     -39.144  14.872   4.017  0.00  0.00    -0.776 OA
ATOM     64  H   UNK d   0     -39.023  13.977   3.576  0.00  0.00     0.167 HD
ENDBRANCH  61  63
ENDBRANCH  60  61
ENDBRANCH  18  60
BRANCH  14  65
ATOM     65  C   UNK d   0     -43.078  17.988   3.863  0.00  0.00     0.052 C 
BRANCH  65  66
ATOM     66  C   UNK d   0     -43.381  18.966   4.943  0.00  0.00     0.115 C 
BRANCH  66  67
ATOM     67  C   UNK d   0     -43.234  18.577   6.317  0.00  0.00     0.139 C 
ATOM     68  O   UNK d   0     -44.092  19.008   7.172  0.00  0.00    -0.650 OA
BRANCH  67  69
ATOM     69  O   UNK d   0     -42.247  17.764   6.873  0.00  0.00    -0.776 OA
ATOM     70  H   UNK d   0     -42.027  16.905   6.349  0.00  0.00     0.167 HD
ENDBRANCH  67  69
ENDBRANCH  66  67
ENDBRANCH  65  66
ENDBRANCH  14  65
ENDBRANCH   6   7
ENDBRANCH   5   6
ENDBRANCH   2   5
TORSDOF 28
ENDMDL
MODEL 8
REMARK VINA RESULT:      -6.7      1.331      7.372
REMARK  28 active torsions:
REMARK  status: ('A' for Active; 'I' for Inactive)
REMARK    1  A    between atoms: C_2  and  O_3 
REMARK    2  A    between atoms: C_2  and  C_4 
REMARK    3  A    between atoms: C_4  and  C_5 
REMARK    4  A    between atoms: C_5  and  C_6 
REMARK    5  A    between atoms: C_7  and  C_8 
REMARK    6  A    between atoms: C_8  and  C_9 
REMARK    7  A    between atoms: C_9  and  O_11 
REMARK    8  A    between atoms: C_28  and  C_29 
REMARK    9  A    between atoms: C_29  and  C_30 
REMARK   10  A    between atoms: C_30  and  O_32 
REMARK   11  A    between atoms: C_33  and  C_34 
REMARK   12  A    between atoms: C_34  and  C_35 
REMARK   13  A    between atoms: C_35  and  C_36 
REMARK   14  A    between atoms: C_36  and  O_38 
REMARK   15  A    between atoms: C_39  and  C_40 
REMARK   16  A    between atoms: C_40  and  C_41 
REMARK   17  A    between atoms: C_41  and  C_42 
REMARK   18  A    between atoms: C_42  and  O_44 
REMARK   19  A    between atoms: C_45  and  C_46 
REMARK   20  A    between atoms: C_46  and  C_47 
REMARK   21  A    between atoms: C_47  and  O_49 
REMARK   22  A    between atoms: C_50  and  C_51 
REMARK   23  A    between atoms: C_51  and  C_52 
REMARK   24  A    between atoms: C_52  and  O_54 
REMARK   25  A    between atoms: C_55  and  C_56 
REMARK   26  A    between atoms: C_56  and  C_57 
REMARK   27  A    between atoms: C_57  and  C_58 
REMARK   28  A    between atoms: C_58  and  O_60 
ROOT
ATOM      1  O   UNK d   0     -34.244  16.533   4.671  0.00  0.00    -0.650 OA
ATOM      2  C   UNK d   0     -35.042  15.942   3.910  0.00  0.00     0.139 C 
ENDROOT
BRANCH   2   3
ATOM      3  O   UNK d   0     -35.081  14.569   3.911  0.00  0.00    -0.776 OA
ATOM      4  H   UNK d   0     -35.746  14.060   3.324  0.00  0.00     0.167 HD
ENDBRANCH   2   3
BRANCH   2   5
ATOM      5  C   UNK d   0     -35.938  16.725   3.012  0.00  0.00     0.115 C 
BRANCH   5   6
ATOM      6  C   UNK d   0     -37.130  17.227   3.781  0.00  0.00     0.052 C 
BRANCH   6   7
ATOM      7  C   UNK d   0     -38.357  17.382   2.914  0.00  0.00    -0.020 A 
ATOM      8  C   UNK d   0     -39.569  16.955   3.162  0.00  0.00    -0.011 A 
ATOM      9  C   UNK d   0     -40.411  17.329   2.038  0.00  0.00     0.067 A 
ATOM     10  C   UNK d   0     -41.767  17.194   1.700  0.00  0.00     0.062 C 
ATOM     11  N   UNK d   0     -39.628  17.974   1.148  0.00  0.00    -0.248 NA
ATOM     12  C   UNK d   0     -42.458  17.868   0.688  0.00  0.00     0.041 A 
ATOM     13  N   UNK d   0     -42.113  18.156  -0.582  0.00  0.00    -0.355 N 
ATOM     14  C   UNK d   0     -43.720  18.420   0.977  0.00  0.00    -0.022 A 
ATOM     15  C   UNK d   0     -43.119  18.883  -1.103  0.00  0.00     0.042 A 
ATOM     16  H   UNK d   0     -41.186  17.835  -1.105  0.00  0.00     0.166 HD
ATOM     17  C   UNK d   0     -43.273  19.440  -2.388  0.00  0.00     0.062 C 
ATOM     18  C   UNK d   0     -44.144  19.070  -0.156  0.00  0.00    -0.013 A 
ATOM     19  C   UNK d   0     -42.359  20.128  -3.145  0.00  0.00     0.067 A 
ATOM     20  N   UNK d   0     -41.093  20.116  -2.722  0.00  0.00    -0.248 NA
ATOM     21  C   UNK d   0     -42.399  20.931  -4.356  0.00  0.00    -0.011 A 
ATOM     22  C   UNK d   0     -40.301  20.855  -3.567  0.00  0.00     0.066 A 
ATOM     23  C   UNK d   0     -38.948  20.897  -3.265  0.00  0.00     0.062 C 
ATOM     24  C   UNK d   0     -41.192  21.357  -4.595  0.00  0.00    -0.020 A 
ATOM     25  C   UNK d   0     -38.271  20.202  -2.251  0.00  0.00     0.041 A 
ATOM     26  N   UNK d   0     -38.607  19.929  -0.985  0.00  0.00    -0.355 N 
ATOM     27  C   UNK d   0     -37.007  19.644  -2.544  0.00  0.00    -0.022 A 
ATOM     28  C   UNK d   0     -37.602  19.211  -0.460  0.00  0.00     0.042 A 
ATOM     29  H   UNK d   0     -39.535  20.262  -0.458  0.00  0.00     0.166 HD
ATOM     30  C   UNK d   0     -37.432  18.659   0.819  0.00  0.00     0.062 C 
ATOM     31  C   UNK d   0     -36.577  19.015  -1.416  0.00  0.00    -0.013 A 
ATOM     32  C   UNK d   0     -38.381  18.039   1.616  0.00  0.00     0.066 A 
BRANCH   8  33
ATOM     33  C   UNK d   0     -40.021  16.221   4.359  0.00  0.00     0.151 C 
BRANCH  33  34
ATOM     34  C   UNK d   0     -39.938  14.758   4.195  0.00  0.00     0.143 C 
ATOM     35  O   UNK d   0     -38.852  14.168   4.286  0.00  0.00    -0.650 OA
BRANCH  34  36
ATOM     36  O   UNK d   0     -41.083  14.041   3.938  0.00  0.00    -0.776 OA
ATOM     37  H   UNK d   0     -41.631  13.618   4.699  0.00  0.00     0.167 HD
ENDBRANCH  34  36
ENDBRANCH  33  34
ENDBRANCH   8  33
BRANCH  31  38
ATOM     38  C   UNK d   0     -35.278  18.260  -1.257  0.00  0.00     0.151 C 
BRANCH  38  39
ATOM     39  C   UNK d   0     -34.356  18.913  -0.352  0.00  0.00     0.143 C 
ATOM     40  O   UNK d   0     -33.750  18.295   0.541  0.00  0.00    -0.650 OA
BRANCH  39  41
ATOM     41  O   UNK d   0     -34.130  20.284  -0.474  0.00  0.00    -0.776 OA
ATOM     42  H   UNK d   0     -34.753  20.800  -1.101  0.00  0.00     0.167 HD
ENDBRANCH  39  41
ENDBRANCH  38  39
ENDBRANCH  31  38
BRANCH  27  43
ATOM     43  C   UNK d   0     -36.213  19.689  -3.825  0.00  0.00     0.052 C 
BRANCH  43  44
ATOM     44  C   UNK d   0     -35.479  20.976  -4.020  0.00  0.00     0.115 C 
BRANCH  44  45
ATOM     45  C   UNK d   0     -34.031  20.661  -3.901  0.00  0.00     0.139 C 
ATOM     46  O   UNK d   0     -33.361  21.275  -3.035  0.00  0.00    -0.650 OA
BRANCH  45  47
ATOM     47  O   UNK d   0     -33.403  19.725  -4.694  0.00  0.00    -0.776 OA
ATOM     48  H   UNK d   0     -32.814  18.969  -4.309  0.00  0.00     0.167 HD
ENDBRANCH  45  47
ENDBRANCH  44  45
ENDBRANCH  43  44
ENDBRANCH  27  43
BRANCH  24  49
ATOM     49  C   UNK d   0     -40.772  22.175  -5.746  0.00  0.00     0.052 C 
BRANCH  49  50
ATOM     50  C   UNK d   0     -39.879  21.375  -6.659  0.00  0.00     0.115 C 
BRANCH  50  51
ATOM     51  C   UNK d   0     -40.527  20.469  -7.597  0.00  0.00     0.139 C 
ATOM     52  O   UNK d   0     -39.950  19.464  -8.075  0.00  0.00    -0.650 OA
BRANCH  51  53
ATOM     53  O   UNK d   0     -41.834  20.710  -7.992  0.00  0.00    -0.776 OA
ATOM     54  H   UNK d   0     -42.522  20.881  -7.280  0.00  0.00     0.167 HD
ENDBRANCH  51  53
ENDBRANCH  50  51
ENDBRANCH  49  50
ENDBRANCH  24  49
BRANCH  21  55
ATOM     55  C   UNK d   0     -43.637  21.186  -5.149  0.00  0.00     0.151 C 
BRANCH  55  56
ATOM     56  C   UNK d   0     -44.247  22.483  -4.819  0.00  0.00     0.143 C 
ATOM     57  O   UNK d   0     -44.532  23.334  -5.684  0.00  0.00    -0.650 OA
BRANCH  56  58
ATOM     58  O   UNK d   0     -44.510  22.754  -3.477  0.00  0.00    -0.776 OA
ATOM     59  H   UNK d   0     -45.423  23.208  -3.295  0.00  0.00     0.167 HD
ENDBRANCH  56  58
ENDBRANCH  55  56
ENDBRANCH  21  55
BRANCH  18  60
ATOM     60  C   UNK d   0     -45.450  19.814  -0.287  0.00  0.00     0.151 C 
BRANCH  60  61
ATOM     61  C   UNK d   0     -46.348  18.924  -1.038  0.00  0.00     0.143 C 
ATOM     62  O   UNK d   0     -46.403  17.696  -0.971  0.00  0.00    -0.650 OA
BRANCH  61  63
ATOM     63  O   UNK d   0     -47.236  19.575  -1.928  0.00  0.00    -0.776 OA
ATOM     64  H   UNK d   0     -47.968  19.069  -2.393  0.00  0.00     0.167 HD
ENDBRANCH  61  63
ENDBRANCH  60  61
ENDBRANCH  18  60
BRANCH  14  65
ATOM     65  C   UNK d   0     -44.588  18.298   2.197  0.00  0.00     0.052 C 
BRANCH  65  66
ATOM     66  C   UNK d   0     -44.057  19.050   3.366  0.00  0.00     0.115 C 
BRANCH  66  67
ATOM     67  C   UNK d   0     -43.729  18.347   4.574  0.00  0.00     0.139 C 
ATOM     68  O   UNK d   0     -42.550  18.494   5.068  0.00  0.00    -0.650 OA
BRANCH  67  69
ATOM     69  O   UNK d   0     -44.546  17.494   5.314  0.00  0.00    -0.776 OA
ATOM     70  H   UNK d   0     -45.514  17.815   5.459  0.00  0.00     0.167 HD
ENDBRANCH  67  69
ENDBRANCH  66  67
ENDBRANCH  65  66
ENDBRANCH  14  65
ENDBRANCH   6   7
ENDBRANCH   5   6
ENDBRANCH   2   5
TORSDOF 28
ENDMDL
MODEL 9
REMARK VINA RESULT:      -6.7      1.616      8.146
REMARK  28 active torsions:
REMARK  status: ('A' for Active; 'I' for Inactive)
REMARK    1  A    between atoms: C_2  and  O_3 
REMARK    2  A    between atoms: C_2  and  C_4 
REMARK    3  A    between atoms: C_4  and  C_5 
REMARK    4  A    between atoms: C_5  and  C_6 
REMARK    5  A    between atoms: C_7  and  C_8 
REMARK    6  A    between atoms: C_8  and  C_9 
REMARK    7  A    between atoms: C_9  and  O_11 
REMARK    8  A    between atoms: C_28  and  C_29 
REMARK    9  A    between atoms: C_29  and  C_30 
REMARK   10  A    between atoms: C_30  and  O_32 
REMARK   11  A    between atoms: C_33  and  C_34 
REMARK   12  A    between atoms: C_34  and  C_35 
REMARK   13  A    between atoms: C_35  and  C_36 
REMARK   14  A    between atoms: C_36  and  O_38 
REMARK   15  A    between atoms: C_39  and  C_40 
REMARK   16  A    between atoms: C_40  and  C_41 
REMARK   17  A    between atoms: C_41  and  C_42 
REMARK   18  A    between atoms: C_42  and  O_44 
REMARK   19  A    between atoms: C_45  and  C_46 
REMARK   20  A    between atoms: C_46  and  C_47 
REMARK   21  A    between atoms: C_47  and  O_49 
REMARK   22  A    between atoms: C_50  and  C_51 
REMARK   23  A    between atoms: C_51  and  C_52 
REMARK   24  A    between atoms: C_52  and  O_54 
REMARK   25  A    between atoms: C_55  and  C_56 
REMARK   26  A    between atoms: C_56  and  C_57 
REMARK   27  A    between atoms: C_57  and  C_58 
REMARK   28  A    between atoms: C_58  and  O_60 
ROOT
ATOM      1  O   UNK d   0     -44.041  24.527  -4.515  0.00  0.00    -0.650 OA
ATOM      2  C   UNK d   0     -43.737  23.375  -4.896  0.00  0.00     0.139 C 
ENDROOT
BRANCH   2   3
ATOM      3  O   UNK d   0     -44.535  22.315  -4.540  0.00  0.00    -0.776 OA
ATOM      4  H   UNK d   0     -44.580  21.990  -3.572  0.00  0.00     0.167 HD
ENDBRANCH   2   3
BRANCH   2   5
ATOM      5  C   UNK d   0     -42.518  23.159  -5.727  0.00  0.00     0.115 C 
BRANCH   5   6
ATOM      6  C   UNK d   0     -42.381  21.702  -6.076  0.00  0.00     0.052 C 
BRANCH   6   7
ATOM      7  C   UNK d   0     -41.155  21.071  -5.460  0.00  0.00    -0.020 A 
ATOM      8  C   UNK d   0     -39.980  20.905  -6.012  0.00  0.00    -0.011 A 
ATOM      9  C   UNK d   0     -39.122  20.245  -5.042  0.00  0.00     0.067 A 
ATOM     10  C   UNK d   0     -37.786  19.817  -4.998  0.00  0.00     0.062 C 
ATOM     11  N   UNK d   0     -39.858  20.042  -3.929  0.00  0.00    -0.248 NA
ATOM     12  C   UNK d   0     -37.052  19.447  -3.866  0.00  0.00     0.041 A 
ATOM     13  N   UNK d   0     -37.386  18.697  -2.799  0.00  0.00    -0.355 N 
ATOM     14  C   UNK d   0     -35.746  19.946  -3.709  0.00  0.00    -0.022 A 
ATOM     15  C   UNK d   0     -36.328  18.714  -1.965  0.00  0.00     0.042 A 
ATOM     16  H   UNK d   0     -38.342  18.150  -2.646  0.00  0.00     0.166 HD
ATOM     17  C   UNK d   0     -36.143  18.095  -0.713  0.00  0.00     0.062 C 
ATOM     18  C   UNK d   0     -35.281  19.487  -2.502  0.00  0.00    -0.013 A 
ATOM     19  C   UNK d   0     -37.004  18.029   0.352  0.00  0.00     0.067 A 
ATOM     20  N   UNK d   0     -38.263  18.420   0.138  0.00  0.00    -0.248 NA
ATOM     21  C   UNK d   0     -36.911  17.635   1.748  0.00  0.00    -0.011 A 
ATOM     22  C   UNK d   0     -38.999  18.313   1.292  0.00  0.00     0.066 A 
ATOM     23  C   UNK d   0     -40.340  18.653   1.202  0.00  0.00     0.062 C 
ATOM     24  C   UNK d   0     -38.080  17.807   2.294  0.00  0.00    -0.020 A 
ATOM     25  C   UNK d   0     -41.062  19.010   0.052  0.00  0.00     0.041 A 
ATOM     26  N   UNK d   0     -40.736  19.768  -1.001  0.00  0.00    -0.355 N 
ATOM     27  C   UNK d   0     -42.371  18.504  -0.107  0.00  0.00    -0.022 A 
ATOM     28  C   UNK d   0     -41.792  19.760  -1.830  0.00  0.00     0.042 A 
ATOM     29  H   UNK d   0     -39.778  20.325  -1.148  0.00  0.00     0.166 HD
ATOM     30  C   UNK d   0     -41.993  20.378  -3.074  0.00  0.00     0.062 C 
ATOM     31  C   UNK d   0     -42.840  18.974  -1.295  0.00  0.00    -0.013 A 
ATOM     32  C   UNK d   0     -41.090  20.517  -4.116  0.00  0.00     0.066 A 
BRANCH   8  33
ATOM     33  C   UNK d   0     -39.578  21.302  -7.374  0.00  0.00     0.151 C 
BRANCH  33  34
ATOM     34  C   UNK d   0     -39.894  20.276  -8.384  0.00  0.00     0.143 C 
ATOM     35  O   UNK d   0     -39.515  20.401  -9.558  0.00  0.00    -0.650 OA
BRANCH  34  36
ATOM     36  O   UNK d   0     -40.620  19.167  -8.016  0.00  0.00    -0.776 OA
ATOM     37  H   UNK d   0     -41.480  19.253  -7.458  0.00  0.00     0.167 HD
ENDBRANCH  34  36
ENDBRANCH  33  34
ENDBRANCH   8  33
BRANCH  31  38
ATOM     38  C   UNK d   0     -44.196  18.684  -1.895  0.00  0.00     0.151 C 
BRANCH  38  39
ATOM     39  C   UNK d   0     -45.153  19.744  -1.659  0.00  0.00     0.143 C 
ATOM     40  O   UNK d   0     -44.978  20.616  -0.790  0.00  0.00    -0.650 OA
BRANCH  39  41
ATOM     41  O   UNK d   0     -46.316  19.801  -2.426  0.00  0.00    -0.776 OA
ATOM     42  H   UNK d   0     -46.309  19.291  -3.314  0.00  0.00     0.167 HD
ENDBRANCH  39  41
ENDBRANCH  38  39
ENDBRANCH  31  38
BRANCH  27  43
ATOM     43  C   UNK d   0     -43.173  17.615   0.811  0.00  0.00     0.052 C 
BRANCH  43  44
ATOM     44  C   UNK d   0     -44.024  18.375   1.775  0.00  0.00     0.115 C 
BRANCH  44  45
ATOM     45  C   UNK d   0     -43.535  18.031   3.135  0.00  0.00     0.139 C 
ATOM     46  O   UNK d   0     -42.767  18.841   3.711  0.00  0.00    -0.650 OA
BRANCH  45  47
ATOM     47  O   UNK d   0     -43.894  16.871   3.787  0.00  0.00    -0.776 OA
ATOM     48  H   UNK d   0     -43.557  16.633   4.734  0.00  0.00     0.167 HD
ENDBRANCH  45  47
ENDBRANCH  44  45
ENDBRANCH  43  44
ENDBRANCH  27  43
BRANCH  24  49
ATOM     49  C   UNK d   0     -38.443  17.496   3.687  0.00  0.00     0.052 C 
BRANCH  49  50
ATOM     50  C   UNK d   0     -39.040  16.115   3.778  0.00  0.00     0.115 C 
BRANCH  50  51
ATOM     51  C   UNK d   0     -40.484  16.025   3.952  0.00  0.00     0.139 C 
ATOM     52  O   UNK d   0     -41.224  15.409   3.150  0.00  0.00    -0.650 OA
BRANCH  51  53
ATOM     53  O   UNK d   0     -41.084  16.641   5.040  0.00  0.00    -0.776 OA
ATOM     54  H   UNK d   0     -42.002  16.336   5.311  0.00  0.00     0.167 HD
ENDBRANCH  51  53
ENDBRANCH  50  51
ENDBRANCH  49  50
ENDBRANCH  24  49
BRANCH  21  55
ATOM     55  C   UNK d   0     -35.664  17.123   2.390  0.00  0.00     0.151 C 
BRANCH  55  56
ATOM     56  C   UNK d   0     -34.488  17.930   2.032  0.00  0.00     0.143 C 
ATOM     57  O   UNK d   0     -34.333  19.105   2.420  0.00  0.00    -0.650 OA
BRANCH  56  58
ATOM     58  O   UNK d   0     -33.517  17.340   1.225  0.00  0.00    -0.776 OA
ATOM     59  H   UNK d   0     -32.759  17.977   0.918  0.00  0.00     0.167 HD
ENDBRANCH  56  58
ENDBRANCH  55  56
ENDBRANCH  21  55
BRANCH  18  60
ATOM     60  C   UNK d   0     -33.919  19.791  -1.928  0.00  0.00     0.151 C 
BRANCH  60  61
ATOM     61  C   UNK d   0     -34.139  20.795  -0.876  0.00  0.00     0.143 C 
ATOM     62  O   UNK d   0     -34.994  21.681  -0.862  0.00  0.00    -0.650 OA
BRANCH  61  63
ATOM     63  O   UNK d   0     -33.259  20.711   0.230  0.00  0.00    -0.776 OA
ATOM     64  H   UNK d   0     -33.063  21.516   0.798  0.00  0.00     0.167 HD
ENDBRANCH  61  63
ENDBRANCH  60  61
ENDBRANCH  18  60
BRANCH  14  65
ATOM     65  C   UNK d   0     -34.878  20.735  -4.648  0.00  0.00     0.052 C 
BRANCH  65  66
ATOM     66  C   UNK d   0     -34.861  22.190  -4.341  0.00  0.00     0.115 C 
BRANCH  66  67
ATOM     67  C   UNK d   0     -36.089  22.867  -4.032  0.00  0.00     0.139 C 
ATOM     68  O   UNK d   0     -36.859  23.214  -5.002  0.00  0.00    -0.650 OA
BRANCH  67  69
ATOM     69  O   UNK d   0     -36.579  23.213  -2.774  0.00  0.00    -0.776 OA
ATOM     70  H   UNK d   0     -35.868  23.414  -2.056  0.00  0.00     0.167 HD
ENDBRANCH  67  69
ENDBRANCH  66  67
ENDBRANCH  65  66
ENDBRANCH  14  65
ENDBRANCH   6   7
ENDBRANCH   5   6
ENDBRANCH   2   5
TORSDOF 28
ENDMDL
MODEL 10
REMARK VINA RESULT:      -6.6      2.272      7.823
REMARK  28 active torsions:
REMARK  status: ('A' for Active; 'I' for Inactive)
REMARK    1  A    between atoms: C_2  and  O_3 
REMARK    2  A    between atoms: C_2  and  C_4 
REMARK    3  A    between atoms: C_4  and  C_5 
REMARK    4  A    between atoms: C_5  and  C_6 
REMARK    5  A    between atoms: C_7  and  C_8 
REMARK    6  A    between atoms: C_8  and  C_9 
REMARK    7  A    between atoms: C_9  and  O_11 
REMARK    8  A    between atoms: C_28  and  C_29 
REMARK    9  A    between atoms: C_29  and  C_30 
REMARK   10  A    between atoms: C_30  and  O_32 
REMARK   11  A    between atoms: C_33  and  C_34 
REMARK   12  A    between atoms: C_34  and  C_35 
REMARK   13  A    between atoms: C_35  and  C_36 
REMARK   14  A    between atoms: C_36  and  O_38 
REMARK   15  A    between atoms: C_39  and  C_40 
REMARK   16  A    between atoms: C_40  and  C_41 
REMARK   17  A    between atoms: C_41  and  C_42 
REMARK   18  A    between atoms: C_42  and  O_44 
REMARK   19  A    between atoms: C_45  and  C_46 
REMARK   20  A    between atoms: C_46  and  C_47 
REMARK   21  A    between atoms: C_47  and  O_49 
REMARK   22  A    between atoms: C_50  and  C_51 
REMARK   23  A    between atoms: C_51  and  C_52 
REMARK   24  A    between atoms: C_52  and  O_54 
REMARK   25  A    between atoms: C_55  and  C_56 
REMARK   26  A    between atoms: C_56  and  C_57 
REMARK   27  A    between atoms: C_57  and  C_58 
REMARK   28  A    between atoms: C_58  and  O_60 
ROOT
ATOM      1  O   UNK d   0     -42.395  18.393   7.370  0.00  0.00    -0.650 OA
ATOM      2  C   UNK d   0     -41.528  18.844   6.589  0.00  0.00     0.139 C 
ENDROOT
BRANCH   2   3
ATOM      3  O   UNK d   0     -41.577  20.166   6.218  0.00  0.00    -0.776 OA
ATOM      4  H   UNK d   0     -42.239  20.492   5.511  0.00  0.00     0.167 HD
ENDBRANCH   2   3
BRANCH   2   5
ATOM      5  C   UNK d   0     -40.454  17.951   6.067  0.00  0.00     0.115 C 
BRANCH   5   6
ATOM      6  C   UNK d   0     -41.054  16.853   5.232  0.00  0.00     0.052 C 
BRANCH   6   7
ATOM      7  C   UNK d   0     -41.030  17.167   3.755  0.00  0.00    -0.020 A 
ATOM      8  C   UNK d   0     -42.051  17.261   2.942  0.00  0.00    -0.011 A 
ATOM      9  C   UNK d   0     -41.538  17.571   1.618  0.00  0.00     0.067 A 
ATOM     10  C   UNK d   0     -42.089  17.814   0.350  0.00  0.00     0.062 C 
ATOM     11  N   UNK d   0     -40.194  17.641   1.715  0.00  0.00    -0.248 NA
ATOM     12  C   UNK d   0     -41.447  18.374  -0.760  0.00  0.00     0.041 A 
ATOM     13  N   UNK d   0     -40.219  18.166  -1.272  0.00  0.00    -0.355 N 
ATOM     14  C   UNK d   0     -42.106  19.377  -1.493  0.00  0.00    -0.022 A 
ATOM     15  C   UNK d   0     -40.080  19.016  -2.307  0.00  0.00     0.042 A 
ATOM     16  H   UNK d   0     -39.473  17.419  -0.921  0.00  0.00     0.166 HD
ATOM     17  C   UNK d   0     -38.997  19.213  -3.187  0.00  0.00     0.062 C 
ATOM     18  C   UNK d   0     -41.243  19.792  -2.476  0.00  0.00    -0.013 A 
ATOM     19  C   UNK d   0     -37.660  19.315  -2.901  0.00  0.00     0.067 A 
ATOM     20  N   UNK d   0     -37.281  18.994  -1.661  0.00  0.00    -0.248 NA
ATOM     21  C   UNK d   0     -36.464  19.716  -3.623  0.00  0.00    -0.011 A 
ATOM     22  C   UNK d   0     -35.925  19.158  -1.520  0.00  0.00     0.066 A 
ATOM     23  C   UNK d   0     -35.389  18.822  -0.286  0.00  0.00     0.062 C 
ATOM     24  C   UNK d   0     -35.453  19.626  -2.808  0.00  0.00    -0.020 A 
ATOM     25  C   UNK d   0     -36.049  18.249   0.812  0.00  0.00     0.041 A 
ATOM     26  N   UNK d   0     -37.263  18.466   1.330  0.00  0.00    -0.355 N 
ATOM     27  C   UNK d   0     -35.387  17.239   1.545  0.00  0.00    -0.022 A 
ATOM     28  C   UNK d   0     -37.401  17.626   2.368  0.00  0.00     0.042 A 
ATOM     29  H   UNK d   0     -38.008  19.225   0.983  0.00  0.00     0.166 HD
ATOM     30  C   UNK d   0     -38.468  17.425   3.258  0.00  0.00     0.062 C 
ATOM     31  C   UNK d   0     -36.236  16.839   2.531  0.00  0.00    -0.013 A 
ATOM     32  C   UNK d   0     -39.825  17.409   2.976  0.00  0.00     0.066 A 
BRANCH   8  33
ATOM     33  C   UNK d   0     -43.474  17.084   3.284  0.00  0.00     0.151 C 
BRANCH  33  34
ATOM     34  C   UNK d   0     -43.954  18.076   4.263  0.00  0.00     0.143 C 
ATOM     35  O   UNK d   0     -43.822  19.291   4.055  0.00  0.00    -0.650 OA
BRANCH  34  36
ATOM     36  O   UNK d   0     -44.554  17.644   5.424  0.00  0.00    -0.776 OA
ATOM     37  H   UNK d   0     -45.557  17.415   5.453  0.00  0.00     0.167 HD
ENDBRANCH  34  36
ENDBRANCH  33  34
ENDBRANCH   8  33
BRANCH  31  38
ATOM     38  C   UNK d   0     -35.965  15.766   3.559  0.00  0.00     0.151 C 
BRANCH  38  39
ATOM     39  C   UNK d   0     -34.635  15.851   4.123  0.00  0.00     0.143 C 
ATOM     40  O   UNK d   0     -34.277  16.799   4.844  0.00  0.00    -0.650 OA
BRANCH  39  41
ATOM     41  O   UNK d   0     -33.711  14.841   3.857  0.00  0.00    -0.776 OA
ATOM     42  H   UNK d   0     -33.887  13.929   4.289  0.00  0.00     0.167 HD
ENDBRANCH  39  41
ENDBRANCH  38  39
ENDBRANCH  31  38
BRANCH  27  43
ATOM     43  C   UNK d   0     -34.010  16.658   1.348  0.00  0.00     0.052 C 
BRANCH  43  44
ATOM     44  C   UNK d   0     -33.988  15.497   0.407  0.00  0.00     0.115 C 
BRANCH  44  45
ATOM     45  C   UNK d   0     -33.230  14.414   1.086  0.00  0.00     0.139 C 
ATOM     46  O   UNK d   0     -32.018  14.614   1.347  0.00  0.00    -0.650 OA
BRANCH  45  47
ATOM     47  O   UNK d   0     -33.802  13.212   1.442  0.00  0.00    -0.776 OA
ATOM     48  H   UNK d   0     -33.298  12.489   1.980  0.00  0.00     0.167 HD
ENDBRANCH  45  47
ENDBRANCH  44  45
ENDBRANCH  43  44
ENDBRANCH  27  43
BRANCH  24  49
ATOM     49  C   UNK d   0     -34.044  19.902  -3.139  0.00  0.00     0.052 C 
BRANCH  49  50
ATOM     50  C   UNK d   0     -33.518  21.030  -2.289  0.00  0.00     0.115 C 
BRANCH  50  51
ATOM     51  C   UNK d   0     -34.137  22.337  -2.461  0.00  0.00     0.139 C 
ATOM     52  O   UNK d   0     -33.859  23.096  -3.419  0.00  0.00    -0.650 OA
BRANCH  51  53
ATOM     53  O   UNK d   0     -35.071  22.781  -1.537  0.00  0.00    -0.776 OA
ATOM     54  H   UNK d   0     -34.970  23.710  -1.168  0.00  0.00     0.167 HD
ENDBRANCH  51  53
ENDBRANCH  50  51
ENDBRANCH  49  50
ENDBRANCH  24  49
BRANCH  21  55
ATOM     55  C   UNK d   0     -36.457  20.144  -5.053  0.00  0.00     0.151 C 
BRANCH  55  56
ATOM     56  C   UNK d   0     -36.990  21.504  -5.225  0.00  0.00     0.143 C 
ATOM     57  O   UNK d   0     -38.199  21.735  -5.425  0.00  0.00    -0.650 OA
BRANCH  56  58
ATOM     58  O   UNK d   0     -36.091  22.567  -5.159  0.00  0.00    -0.776 OA
ATOM     59  H   UNK d   0     -35.357  22.473  -4.433  0.00  0.00     0.167 HD
ENDBRANCH  56  58
ENDBRANCH  55  56
ENDBRANCH  21  55
BRANCH  18  60
ATOM     60  C   UNK d   0     -41.542  20.866  -3.493  0.00  0.00     0.151 C 
BRANCH  60  61
ATOM     61  C   UNK d   0     -40.908  22.092  -2.983  0.00  0.00     0.143 C 
ATOM     62  O   UNK d   0     -40.787  22.430  -1.805  0.00  0.00    -0.650 OA
BRANCH  61  63
ATOM     63  O   UNK d   0     -40.390  22.959  -3.975  0.00  0.00    -0.776 OA
ATOM     64  H   UNK d   0     -40.742  22.940  -4.915  0.00  0.00     0.167 HD
ENDBRANCH  61  63
ENDBRANCH  60  61
ENDBRANCH  18  60
BRANCH  14  65
ATOM     65  C   UNK d   0     -43.512  19.897  -1.399  0.00  0.00     0.052 C 
BRANCH  65  66
ATOM     66  C   UNK d   0     -44.512  18.988  -2.020  0.00  0.00     0.115 C 
BRANCH  66  67
ATOM     67  C   UNK d   0     -45.407  18.236  -1.186  0.00  0.00     0.139 C 
ATOM     68  O   UNK d   0     -46.300  17.502  -1.749  0.00  0.00    -0.650 OA
BRANCH  67  69
ATOM     69  O   UNK d   0     -45.440  18.193   0.208  0.00  0.00    -0.776 OA
ATOM     70  H   UNK d   0     -45.987  17.423   0.619  0.00  0.00     0.167 HD
ENDBRANCH  67  69
ENDBRANCH  66  67
ENDBRANCH  65  66
ENDBRANCH  14  65
ENDBRANCH   6   7
ENDBRANCH   5   6
ENDBRANCH   2   5
TORSDOF 28
ENDMDL
MODEL 11
REMARK VINA RESULT:      -6.6      2.020      8.374
REMARK  28 active torsions:
REMARK  status: ('A' for Active; 'I' for Inactive)
REMARK    1  A    between atoms: C_2  and  O_3 
REMARK    2  A    between atoms: C_2  and  C_4 
REMARK    3  A    between atoms: C_4  and  C_5 
REMARK    4  A    between atoms: C_5  and  C_6 
REMARK    5  A    between atoms: C_7  and  C_8 
REMARK    6  A    between atoms: C_8  and  C_9 
REMARK    7  A    between atoms: C_9  and  O_11 
REMARK    8  A    between atoms: C_28  and  C_29 
REMARK    9  A    between atoms: C_29  and  C_30 
REMARK   10  A    between atoms: C_30  and  O_32 
REMARK   11  A    between atoms: C_33  and  C_34 
REMARK   12  A    between atoms: C_34  and  C_35 
REMARK   13  A    between atoms: C_35  and  C_36 
REMARK   14  A    between atoms: C_36  and  O_38 
REMARK   15  A    between atoms: C_39  and  C_40 
REMARK   16  A    between atoms: C_40  and  C_41 
REMARK   17  A    between atoms: C_41  and  C_42 
REMARK   18  A    between atoms: C_42  and  O_44 
REMARK   19  A    between atoms: C_45  and  C_46 
REMARK   20  A    between atoms: C_46  and  C_47 
REMARK   21  A    between atoms: C_47  and  O_49 
REMARK   22  A    between atoms: C_50  and  C_51 
REMARK   23  A    between atoms: C_51  and  C_52 
REMARK   24  A    between atoms: C_52  and  O_54 
REMARK   25  A    between atoms: C_55  and  C_56 
REMARK   26  A    between atoms: C_56  and  C_57 
REMARK   27  A    between atoms: C_57  and  C_58 
REMARK   28  A    between atoms: C_58  and  O_60 
ROOT
ATOM      1  O   UNK d   0     -34.295  14.517   1.788  0.00  0.00    -0.650 OA
ATOM      2  C   UNK d   0     -33.832  15.340   0.968  0.00  0.00     0.139 C 
ENDROOT
BRANCH   2   3
ATOM      3  O   UNK d   0     -32.476  15.381   0.748  0.00  0.00    -0.776 OA
ATOM      4  H   UNK d   0     -31.832  15.684   1.482  0.00  0.00     0.167 HD
ENDBRANCH   2   3
BRANCH   2   5
ATOM      5  C   UNK d   0     -34.745  16.265   0.239  0.00  0.00     0.115 C 
BRANCH   5   6
ATOM      6  C   UNK d   0     -35.064  17.459   1.097  0.00  0.00     0.052 C 
BRANCH   6   7
ATOM      7  C   UNK d   0     -36.025  18.414   0.429  0.00  0.00    -0.020 A 
ATOM      8  C   UNK d   0     -35.739  19.386  -0.399  0.00  0.00    -0.011 A 
ATOM      9  C   UNK d   0     -36.985  20.035  -0.771  0.00  0.00     0.067 A 
ATOM     10  C   UNK d   0     -37.363  21.093  -1.613  0.00  0.00     0.062 C 
ATOM     11  N   UNK d   0     -37.979  19.397  -0.118  0.00  0.00    -0.248 NA
ATOM     12  C   UNK d   0     -38.653  21.398  -2.061  0.00  0.00     0.041 A 
ATOM     13  N   UNK d   0     -39.835  21.415  -1.416  0.00  0.00    -0.355 N 
ATOM     14  C   UNK d   0     -38.847  21.700  -3.422  0.00  0.00    -0.022 A 
ATOM     15  C   UNK d   0     -40.775  21.712  -2.334  0.00  0.00     0.042 A 
ATOM     16  H   UNK d   0     -40.000  21.239  -0.331  0.00  0.00     0.166 HD
ATOM     17  C   UNK d   0     -42.170  21.857  -2.199  0.00  0.00     0.062 C 
ATOM     18  C   UNK d   0     -40.193  21.897  -3.603  0.00  0.00    -0.013 A 
ATOM     19  C   UNK d   0     -43.058  21.062  -1.521  0.00  0.00     0.067 A 
ATOM     20  N   UNK d   0     -42.542  20.133  -0.711  0.00  0.00    -0.248 NA
ATOM     21  C   UNK d   0     -44.504  20.937  -1.448  0.00  0.00    -0.011 A 
ATOM     22  C   UNK d   0     -43.546  19.410  -0.116  0.00  0.00     0.066 A 
ATOM     23  C   UNK d   0     -43.150  18.431   0.784  0.00  0.00     0.062 C 
ATOM     24  C   UNK d   0     -44.783  19.966  -0.628  0.00  0.00    -0.020 A 
ATOM     25  C   UNK d   0     -41.850  18.148   1.231  0.00  0.00     0.041 A 
ATOM     26  N   UNK d   0     -40.677  18.117   0.587  0.00  0.00    -0.355 N 
ATOM     27  C   UNK d   0     -41.656  17.850   2.597  0.00  0.00    -0.022 A 
ATOM     28  C   UNK d   0     -39.740  17.813   1.498  0.00  0.00     0.042 A 
ATOM     29  H   UNK d   0     -40.515  18.283  -0.506  0.00  0.00     0.166 HD
ATOM     30  C   UNK d   0     -38.350  17.656   1.376  0.00  0.00     0.062 C 
ATOM     31  C   UNK d   0     -40.323  17.637   2.775  0.00  0.00    -0.013 A 
ATOM     32  C   UNK d   0     -37.468  18.412   0.620  0.00  0.00     0.066 A 
BRANCH   8  33
ATOM     33  C   UNK d   0     -34.399  19.774  -0.878  0.00  0.00     0.151 C 
BRANCH  33  34
ATOM     34  C   UNK d   0     -33.644  20.560   0.114  0.00  0.00     0.143 C 
ATOM     35  O   UNK d   0     -34.121  21.594   0.604  0.00  0.00    -0.650 OA
BRANCH  34  36
ATOM     36  O   UNK d   0     -32.392  20.139   0.499  0.00  0.00    -0.776 OA
ATOM     37  H   UNK d   0     -32.131  20.078   1.492  0.00  0.00     0.167 HD
ENDBRANCH  34  36
ENDBRANCH  33  34
ENDBRANCH   8  33
BRANCH  31  38
ATOM     38  C   UNK d   0     -39.641  17.300   4.081  0.00  0.00     0.151 C 
BRANCH  38  39
ATOM     39  C   UNK d   0     -39.123  18.467   4.762  0.00  0.00     0.143 C 
ATOM     40  O   UNK d   0     -38.073  19.032   4.409  0.00  0.00    -0.650 OA
BRANCH  39  41
ATOM     41  O   UNK d   0     -39.816  18.989   5.853  0.00  0.00    -0.776 OA
ATOM     42  H   UNK d   0     -40.832  18.849   5.865  0.00  0.00     0.167 HD
ENDBRANCH  39  41
ENDBRANCH  38  39
ENDBRANCH  31  38
BRANCH  27  43
ATOM     43  C   UNK d   0     -42.668  17.760   3.712  0.00  0.00     0.052 C 
BRANCH  43  44
ATOM     44  C   UNK d   0     -42.909  19.065   4.399  0.00  0.00     0.115 C 
BRANCH  44  45
ATOM     45  C   UNK d   0     -43.314  18.743   5.791  0.00  0.00     0.139 C 
ATOM     46  O   UNK d   0     -42.750  19.359   6.729  0.00  0.00    -0.650 OA
BRANCH  45  47
ATOM     47  O   UNK d   0     -44.281  17.808   6.091  0.00  0.00    -0.776 OA
ATOM     48  H   UNK d   0     -45.273  17.923   5.827  0.00  0.00     0.167 HD
ENDBRANCH  45  47
ENDBRANCH  44  45
ENDBRANCH  43  44
ENDBRANCH  27  43
BRANCH  24  49
ATOM     49  C   UNK d   0     -46.131  19.523  -0.232  0.00  0.00     0.052 C 
BRANCH  49  50
ATOM     50  C   UNK d   0     -46.340  18.078  -0.606  0.00  0.00     0.115 C 
BRANCH  50  51
ATOM     51  C   UNK d   0     -46.634  17.789  -2.004  0.00  0.00     0.139 C 
ATOM     52  O   UNK d   0     -47.804  17.676  -2.439  0.00  0.00    -0.650 OA
BRANCH  51  53
ATOM     53  O   UNK d   0     -45.593  17.627  -2.905  0.00  0.00    -0.776 OA
ATOM     54  H   UNK d   0     -44.821  17.041  -2.638  0.00  0.00     0.167 HD
ENDBRANCH  51  53
ENDBRANCH  50  51
ENDBRANCH  49  50
ENDBRANCH  24  49
BRANCH  21  55
ATOM     55  C   UNK d   0     -45.456  21.804  -2.203  0.00  0.00     0.151 C 
BRANCH  55  56
ATOM     56  C   UNK d   0     -46.087  21.087  -3.322  0.00  0.00     0.143 C 
ATOM     57  O   UNK d   0     -47.319  21.086  -3.514  0.00  0.00    -0.650 OA
BRANCH  56  58
ATOM     58  O   UNK d   0     -45.256  20.386  -4.194  0.00  0.00    -0.776 OA
ATOM     59  H   UNK d   0     -45.054  20.869  -5.088  0.00  0.00     0.167 HD
ENDBRANCH  56  58
ENDBRANCH  55  56
ENDBRANCH  21  55
BRANCH  18  60
ATOM     60  C   UNK d   0     -40.847  22.236  -4.920  0.00  0.00     0.151 C 
BRANCH  60  61
ATOM     61  C   UNK d   0     -41.335  20.962  -5.469  0.00  0.00     0.143 C 
ATOM     62  O   UNK d   0     -40.657  20.053  -5.948  0.00  0.00    -0.650 OA
BRANCH  61  63
ATOM     63  O   UNK d   0     -42.739  20.787  -5.429  0.00  0.00    -0.776 OA
ATOM     64  H   UNK d   0     -43.234  20.764  -4.555  0.00  0.00     0.167 HD
ENDBRANCH  61  63
ENDBRANCH  60  61
ENDBRANCH  18  60
BRANCH  14  65
ATOM     65  C   UNK d   0     -37.855  21.911  -4.530  0.00  0.00     0.052 C 
BRANCH  65  66
ATOM     66  C   UNK d   0     -37.508  20.655  -5.247  0.00  0.00     0.115 C 
BRANCH  66  67
ATOM     67  C   UNK d   0     -36.501  19.784  -4.710  0.00  0.00     0.139 C 
ATOM     68  O   UNK d   0     -35.346  20.278  -4.435  0.00  0.00    -0.650 OA
BRANCH  67  69
ATOM     69  O   UNK d   0     -36.609  18.421  -4.436  0.00  0.00    -0.776 OA
ATOM     70  H   UNK d   0     -35.911  18.039  -3.781  0.00  0.00     0.167 HD
ENDBRANCH  67  69
ENDBRANCH  66  67
ENDBRANCH  65  66
ENDBRANCH  14  65
ENDBRANCH   6   7
ENDBRANCH   5   6
ENDBRANCH   2   5
TORSDOF 28
ENDMDL
MODEL 12
REMARK VINA RESULT:      -6.5      1.962      7.871
REMARK  28 active torsions:
REMARK  status: ('A' for Active; 'I' for Inactive)
REMARK    1  A    between atoms: C_2  and  O_3 
REMARK    2  A    between atoms: C_2  and  C_4 
REMARK    3  A    between atoms: C_4  and  C_5 
REMARK    4  A    between atoms: C_5  and  C_6 
REMARK    5  A    between atoms: C_7  and  C_8 
REMARK    6  A    between atoms: C_8  and  C_9 
REMARK    7  A    between atoms: C_9  and  O_11 
REMARK    8  A    between atoms: C_28  and  C_29 
REMARK    9  A    between atoms: C_29  and  C_30 
REMARK   10  A    between atoms: C_30  and  O_32 
REMARK   11  A    between atoms: C_33  and  C_34 
REMARK   12  A    between atoms: C_34  and  C_35 
REMARK   13  A    between atoms: C_35  and  C_36 
REMARK   14  A    between atoms: C_36  and  O_38 
REMARK   15  A    between atoms: C_39  and  C_40 
REMARK   16  A    between atoms: C_40  and  C_41 
REMARK   17  A    between atoms: C_41  and  C_42 
REMARK   18  A    between atoms: C_42  and  O_44 
REMARK   19  A    between atoms: C_45  and  C_46 
REMARK   20  A    between atoms: C_46  and  C_47 
REMARK   21  A    between atoms: C_47  and  O_49 
REMARK   22  A    between atoms: C_50  and  C_51 
REMARK   23  A    between atoms: C_51  and  C_52 
REMARK   24  A    between atoms: C_52  and  O_54 
REMARK   25  A    between atoms: C_55  and  C_56 
REMARK   26  A    between atoms: C_56  and  C_57 
REMARK   27  A    between atoms: C_57  and  C_58 
REMARK   28  A    between atoms: C_58  and  O_60 
ROOT
ATOM      1  O   UNK d   0     -44.415  19.625   6.927  0.00  0.00    -0.650 OA
ATOM      2  C   UNK d   0     -44.294  18.949   5.881  0.00  0.00     0.139 C 
ENDROOT
BRANCH   2   3
ATOM      3  O   UNK d   0     -43.715  17.704   5.946  0.00  0.00    -0.776 OA
ATOM      4  H   UNK d   0     -42.795  17.572   6.372  0.00  0.00     0.167 HD
ENDBRANCH   2   3
BRANCH   2   5
ATOM      5  C   UNK d   0     -44.775  19.492   4.579  0.00  0.00     0.115 C 
BRANCH   5   6
ATOM      6  C   UNK d   0     -45.149  18.366   3.654  0.00  0.00     0.052 C 
BRANCH   6   7
ATOM      7  C   UNK d   0     -44.463  18.463   2.313  0.00  0.00    -0.020 A 
ATOM      8  C   UNK d   0     -45.022  18.627   1.141  0.00  0.00    -0.011 A 
ATOM      9  C   UNK d   0     -43.965  18.653   0.144  0.00  0.00     0.067 A 
ATOM     10  C   UNK d   0     -43.890  18.815  -1.249  0.00  0.00     0.062 C 
ATOM     11  N   UNK d   0     -42.795  18.492   0.796  0.00  0.00    -0.248 NA
ATOM     12  C   UNK d   0     -42.749  19.091  -2.009  0.00  0.00     0.041 A 
ATOM     13  N   UNK d   0     -41.498  18.595  -1.944  0.00  0.00    -0.355 N 
ATOM     14  C   UNK d   0     -42.817  20.086  -3.002  0.00  0.00    -0.022 A 
ATOM     15  C   UNK d   0     -40.770  19.255  -2.864  0.00  0.00     0.042 A 
ATOM     16  H   UNK d   0     -41.143  17.782  -1.274  0.00  0.00     0.166 HD
ATOM     17  C   UNK d   0     -39.410  19.131  -3.213  0.00  0.00     0.062 C 
ATOM     18  C   UNK d   0     -41.562  20.198  -3.547  0.00  0.00    -0.013 A 
ATOM     19  C   UNK d   0     -38.315  19.027  -2.394  0.00  0.00     0.067 A 
ATOM     20  N   UNK d   0     -38.549  18.817  -1.096  0.00  0.00    -0.248 NA
ATOM     21  C   UNK d   0     -36.873  19.102  -2.562  0.00  0.00    -0.011 A 
ATOM     22  C   UNK d   0     -37.365  18.751  -0.403  0.00  0.00     0.066 A 
ATOM     23  C   UNK d   0     -37.460  18.497   0.957  0.00  0.00     0.062 C 
ATOM     24  C   UNK d   0     -36.323  18.944  -1.393  0.00  0.00    -0.020 A 
ATOM     25  C   UNK d   0     -38.615  18.209   1.700  0.00  0.00     0.041 A 
ATOM     26  N   UNK d   0     -39.854  18.713   1.645  0.00  0.00    -0.355 N 
ATOM     27  C   UNK d   0     -38.547  17.208   2.693  0.00  0.00    -0.022 A 
ATOM     28  C   UNK d   0     -40.581  18.062   2.568  0.00  0.00     0.042 A 
ATOM     29  H   UNK d   0     -40.207  19.538   0.979  0.00  0.00     0.166 HD
ATOM     30  C   UNK d   0     -41.931  18.183   2.932  0.00  0.00     0.062 C 
ATOM     31  C   UNK d   0     -39.786  17.108   3.247  0.00  0.00    -0.013 A 
ATOM     32  C   UNK d   0     -43.026  18.373   2.105  0.00  0.00     0.066 A 
BRANCH   8  33
ATOM     33  C   UNK d   0     -46.463  18.759   0.858  0.00  0.00     0.151 C 
BRANCH  33  34
ATOM     34  C   UNK d   0     -46.930  20.156   0.911  0.00  0.00     0.143 C 
ATOM     35  O   UNK d   0     -47.037  20.831  -0.123  0.00  0.00    -0.650 OA
BRANCH  34  36
ATOM     36  O   UNK d   0     -47.249  20.716   2.127  0.00  0.00    -0.776 OA
ATOM     37  H   UNK d   0     -48.192  21.081   2.316  0.00  0.00     0.167 HD
ENDBRANCH  34  36
ENDBRANCH  33  34
ENDBRANCH   8  33
BRANCH  31  38
ATOM     38  C   UNK d   0     -40.198  16.155   4.345  0.00  0.00     0.151 C 
BRANCH  38  39
ATOM     39  C   UNK d   0     -40.634  14.871   3.840  0.00  0.00     0.143 C 
ATOM     40  O   UNK d   0     -39.970  13.832   4.001  0.00  0.00    -0.650 OA
BRANCH  39  41
ATOM     41  O   UNK d   0     -41.841  14.780   3.146  0.00  0.00    -0.776 OA
ATOM     42  H   UNK d   0     -42.698  14.797   3.708  0.00  0.00     0.167 HD
ENDBRANCH  39  41
ENDBRANCH  38  39
ENDBRANCH  31  38
BRANCH  27  43
ATOM     43  C   UNK d   0     -37.373  16.365   3.125  0.00  0.00     0.052 C 
BRANCH  43  44
ATOM     44  C   UNK d   0     -36.338  17.136   3.878  0.00  0.00     0.115 C 
BRANCH  44  45
ATOM     45  C   UNK d   0     -35.114  16.293   3.901  0.00  0.00     0.139 C 
ATOM     46  O   UNK d   0     -34.220  16.570   4.739  0.00  0.00    -0.650 OA
BRANCH  45  47
ATOM     47  O   UNK d   0     -34.927  15.224   3.051  0.00  0.00    -0.776 OA
ATOM     48  H   UNK d   0     -34.482  14.341   3.350  0.00  0.00     0.167 HD
ENDBRANCH  45  47
ENDBRANCH  44  45
ENDBRANCH  43  44
ENDBRANCH  27  43
BRANCH  24  49
ATOM     49  C   UNK d   0     -34.878  18.912  -1.110  0.00  0.00     0.052 C 
BRANCH  49  50
ATOM     50  C   UNK d   0     -34.350  17.506  -1.234  0.00  0.00     0.115 C 
BRANCH  50  51
ATOM     51  C   UNK d   0     -34.303  16.704  -0.018  0.00  0.00     0.139 C 
ATOM     52  O   UNK d   0     -34.972  15.654   0.125  0.00  0.00    -0.650 OA
BRANCH  51  53
ATOM     53  O   UNK d   0     -33.496  17.103   1.036  0.00  0.00    -0.776 OA
ATOM     54  H   UNK d   0     -32.611  16.642   1.157  0.00  0.00     0.167 HD
ENDBRANCH  51  53
ENDBRANCH  50  51
ENDBRANCH  49  50
ENDBRANCH  24  49
BRANCH  21  55
ATOM     55  C   UNK d   0     -36.196  19.320  -3.875  0.00  0.00     0.151 C 
BRANCH  55  56
ATOM     56  C   UNK d   0     -35.833  20.730  -4.080  0.00  0.00     0.143 C 
ATOM     57  O   UNK d   0     -34.652  21.113  -4.197  0.00  0.00    -0.650 OA
BRANCH  56  58
ATOM     58  O   UNK d   0     -36.866  21.664  -4.146  0.00  0.00    -0.776 OA
ATOM     59  H   UNK d   0     -36.569  22.651  -4.038  0.00  0.00     0.167 HD
ENDBRANCH  56  58
ENDBRANCH  55  56
ENDBRANCH  21  55
BRANCH  18  60
ATOM     60  C   UNK d   0     -41.180  21.158  -4.647  0.00  0.00     0.151 C 
BRANCH  60  61
ATOM     61  C   UNK d   0     -40.414  22.232  -3.997  0.00  0.00     0.143 C 
ATOM     62  O   UNK d   0     -40.558  22.657  -2.850  0.00  0.00    -0.650 OA
BRANCH  61  63
ATOM     63  O   UNK d   0     -39.408  22.824  -4.798  0.00  0.00    -0.776 OA
ATOM     64  H   UNK d   0     -39.413  22.720  -5.797  0.00  0.00     0.167 HD
ENDBRANCH  61  63
ENDBRANCH  60  61
ENDBRANCH  18  60
BRANCH  14  65
ATOM     65  C   UNK d   0     -43.988  20.860  -3.536  0.00  0.00     0.052 C 
BRANCH  65  66
ATOM     66  C   UNK d   0     -44.020  22.269  -3.060  0.00  0.00     0.115 C 
BRANCH  66  67
ATOM     67  C   UNK d   0     -44.741  22.600  -1.863  0.00  0.00     0.139 C 
ATOM     68  O   UNK d   0     -45.798  23.324  -1.964  0.00  0.00    -0.650 OA
BRANCH  67  69
ATOM     69  O   UNK d   0     -44.437  22.227  -0.554  0.00  0.00    -0.776 OA
ATOM     70  H   UNK d   0     -45.170  21.701  -0.057  0.00  0.00     0.167 HD
ENDBRANCH  67  69
ENDBRANCH  66  67
ENDBRANCH  65  66
ENDBRANCH  14  65
ENDBRANCH   6   7
ENDBRANCH   5   6
ENDBRANCH   2   5
TORSDOF 28
ENDMDL
MODEL 13
REMARK VINA RESULT:      -6.4      1.733      7.471
REMARK  28 active torsions:
REMARK  status: ('A' for Active; 'I' for Inactive)
REMARK    1  A    between atoms: C_2  and  O_3 
REMARK    2  A    between atoms: C_2  and  C_4 
REMARK    3  A    between atoms: C_4  and  C_5 
REMARK    4  A    between atoms: C_5  and  C_6 
REMARK    5  A    between atoms: C_7  and  C_8 
REMARK    6  A    between atoms: C_8  and  C_9 
REMARK    7  A    between atoms: C_9  and  O_11 
REMARK    8  A    between atoms: C_28  and  C_29 
REMARK    9  A    between atoms: C_29  and  C_30 
REMARK   10  A    between atoms: C_30  and  O_32 
REMARK   11  A    between atoms: C_33  and  C_34 
REMARK   12  A    between atoms: C_34  and  C_35 
REMARK   13  A    between atoms: C_35  and  C_36 
REMARK   14  A    between atoms: C_36  and  O_38 
REMARK   15  A    between atoms: C_39  and  C_40 
REMARK   16  A    between atoms: C_40  and  C_41 
REMARK   17  A    between atoms: C_41  and  C_42 
REMARK   18  A    between atoms: C_42  and  O_44 
REMARK   19  A    between atoms: C_45  and  C_46 
REMARK   20  A    between atoms: C_46  and  C_47 
REMARK   21  A    between atoms: C_47  and  O_49 
REMARK   22  A    between atoms: C_50  and  C_51 
REMARK   23  A    between atoms: C_51  and  C_52 
REMARK   24  A    between atoms: C_52  and  O_54 
REMARK   25  A    between atoms: C_55  and  C_56 
REMARK   26  A    between atoms: C_56  and  C_57 
REMARK   27  A    between atoms: C_57  and  C_58 
REMARK   28  A    between atoms: C_58  and  O_60 
ROOT
ATOM      1  O   UNK d   0     -41.174  19.277   6.833  0.00  0.00    -0.650 OA
ATOM      2  C   UNK d   0     -41.022  18.243   6.145  0.00  0.00     0.139 C 
ENDROOT
BRANCH   2   3
ATOM      3  O   UNK d   0     -41.836  17.159   6.369  0.00  0.00    -0.776 OA
ATOM      4  H   UNK d   0     -42.809  17.157   6.056  0.00  0.00     0.167 HD
ENDBRANCH   2   3
BRANCH   2   5
ATOM      5  C   UNK d   0     -39.965  18.192   5.095  0.00  0.00     0.115 C 
BRANCH   5   6
ATOM      6  C   UNK d   0     -40.174  16.994   4.209  0.00  0.00     0.052 C 
BRANCH   6   7
ATOM      7  C   UNK d   0     -40.576  17.374   2.804  0.00  0.00    -0.020 A 
ATOM      8  C   UNK d   0     -41.737  17.189   2.228  0.00  0.00    -0.011 A 
ATOM      9  C   UNK d   0     -41.649  17.707   0.873  0.00  0.00     0.067 A 
ATOM     10  C   UNK d   0     -42.519  17.831  -0.222  0.00  0.00     0.062 C 
ATOM     11  N   UNK d   0     -40.398  18.184   0.707  0.00  0.00    -0.248 NA
ATOM     12  C   UNK d   0     -42.335  18.617  -1.364  0.00  0.00     0.041 A 
ATOM     13  N   UNK d   0     -41.249  18.824  -2.133  0.00  0.00    -0.355 N 
ATOM     14  C   UNK d   0     -43.406  19.402  -1.829  0.00  0.00    -0.022 A 
ATOM     15  C   UNK d   0     -41.601  19.726  -3.069  0.00  0.00     0.042 A 
ATOM     16  H   UNK d   0     -40.259  18.327  -2.028  0.00  0.00     0.166 HD
ATOM     17  C   UNK d   0     -40.851  20.291  -4.119  0.00  0.00     0.062 C 
ATOM     18  C   UNK d   0     -42.946  20.112  -2.910  0.00  0.00    -0.013 A 
ATOM     19  C   UNK d   0     -39.572  20.786  -4.097  0.00  0.00     0.067 A 
ATOM     20  N   UNK d   0     -38.846  20.537  -3.004  0.00  0.00    -0.248 NA
ATOM     21  C   UNK d   0     -38.740  21.573  -4.992  0.00  0.00    -0.011 A 
ATOM     22  C   UNK d   0     -37.601  21.104  -3.119  0.00  0.00     0.066 A 
ATOM     23  C   UNK d   0     -36.726  20.889  -2.065  0.00  0.00     0.062 C 
ATOM     24  C   UNK d   0     -37.590  21.759  -4.413  0.00  0.00    -0.020 A 
ATOM     25  C   UNK d   0     -36.925  20.086  -0.932  0.00  0.00     0.041 A 
ATOM     26  N   UNK d   0     -38.000  19.892  -0.159  0.00  0.00    -0.355 N 
ATOM     27  C   UNK d   0     -35.851  19.294  -0.468  0.00  0.00    -0.022 A 
ATOM     28  C   UNK d   0     -37.649  18.999   0.781  0.00  0.00     0.042 A 
ATOM     29  H   UNK d   0     -38.991  20.399  -0.259  0.00  0.00     0.166 HD
ATOM     30  C   UNK d   0     -38.382  18.435   1.837  0.00  0.00     0.062 C 
ATOM     31  C   UNK d   0     -36.301  18.603   0.614  0.00  0.00    -0.013 A 
ATOM     32  C   UNK d   0     -39.702  18.014   1.832  0.00  0.00     0.066 A 
BRANCH   8  33
ATOM     33  C   UNK d   0     -42.931  16.564   2.826  0.00  0.00     0.151 C 
BRANCH  33  34
ATOM     34  C   UNK d   0     -43.917  17.552   3.298  0.00  0.00     0.143 C 
ATOM     35  O   UNK d   0     -43.968  17.880   4.492  0.00  0.00    -0.650 OA
BRANCH  34  36
ATOM     36  O   UNK d   0     -44.792  18.116   2.399  0.00  0.00    -0.776 OA
ATOM     37  H   UNK d   0     -44.947  17.699   1.470  0.00  0.00     0.167 HD
ENDBRANCH  34  36
ENDBRANCH  33  34
ENDBRANCH   8  33
BRANCH  31  38
ATOM     38  C   UNK d   0     -35.505  17.616   1.435  0.00  0.00     0.151 C 
BRANCH  38  39
ATOM     39  C   UNK d   0     -34.520  18.255   2.282  0.00  0.00     0.143 C 
ATOM     40  O   UNK d   0     -34.449  19.490   2.406  0.00  0.00    -0.650 OA
BRANCH  39  41
ATOM     41  O   UNK d   0     -33.611  17.469   2.991  0.00  0.00    -0.776 OA
ATOM     42  H   UNK d   0     -33.689  16.454   2.873  0.00  0.00     0.167 HD
ENDBRANCH  39  41
ENDBRANCH  38  39
ENDBRANCH  31  38
BRANCH  27  43
ATOM     43  C   UNK d   0     -34.446  19.177  -1.004  0.00  0.00     0.052 C 
BRANCH  43  44
ATOM     44  C   UNK d   0     -34.227  17.948  -1.825  0.00  0.00     0.115 C 
BRANCH  44  45
ATOM     45  C   UNK d   0     -34.347  18.360  -3.248  0.00  0.00     0.139 C 
ATOM     46  O   UNK d   0     -35.480  18.307  -3.786  0.00  0.00    -0.650 OA
BRANCH  45  47
ATOM     47  O   UNK d   0     -33.273  18.800  -3.991  0.00  0.00    -0.776 OA
ATOM     48  H   UNK d   0     -33.192  19.769  -4.340  0.00  0.00     0.167 HD
ENDBRANCH  45  47
ENDBRANCH  44  45
ENDBRANCH  43  44
ENDBRANCH  27  43
BRANCH  24  49
ATOM     49  C   UNK d   0     -36.435  22.472  -4.984  0.00  0.00     0.052 C 
BRANCH  49  50
ATOM     50  C   UNK d   0     -35.162  21.713  -4.711  0.00  0.00     0.115 C 
BRANCH  50  51
ATOM     51  C   UNK d   0     -34.126  22.402  -3.953  0.00  0.00     0.139 C 
ATOM     52  O   UNK d   0     -33.994  23.649  -3.968  0.00  0.00    -0.650 OA
BRANCH  51  53
ATOM     53  O   UNK d   0     -33.239  21.669  -3.179  0.00  0.00    -0.776 OA
ATOM     54  H   UNK d   0     -33.473  20.717  -2.961  0.00  0.00     0.167 HD
ENDBRANCH  51  53
ENDBRANCH  50  51
ENDBRANCH  49  50
ENDBRANCH  24  49
BRANCH  21  55
ATOM     55  C   UNK d   0     -39.181  22.053  -6.335  0.00  0.00     0.151 C 
BRANCH  55  56
ATOM     56  C   UNK d   0     -40.065  23.225  -6.240  0.00  0.00     0.143 C 
ATOM     57  O   UNK d   0     -39.638  24.375  -6.017  0.00  0.00    -0.650 OA
BRANCH  56  58
ATOM     58  O   UNK d   0     -41.433  23.022  -6.409  0.00  0.00    -0.776 OA
ATOM     59  H   UNK d   0     -41.963  22.870  -5.531  0.00  0.00     0.167 HD
ENDBRANCH  56  58
ENDBRANCH  55  56
ENDBRANCH  21  55
BRANCH  18  60
ATOM     60  C   UNK d   0     -43.765  21.091  -3.715  0.00  0.00     0.151 C 
BRANCH  60  61
ATOM     61  C   UNK d   0     -43.556  22.404  -3.087  0.00  0.00     0.143 C 
ATOM     62  O   UNK d   0     -44.104  22.838  -2.073  0.00  0.00    -0.650 OA
BRANCH  61  63
ATOM     63  O   UNK d   0     -42.619  23.241  -3.738  0.00  0.00    -0.776 OA
ATOM     64  H   UNK d   0     -41.711  22.898  -3.999  0.00  0.00     0.167 HD
ENDBRANCH  61  63
ENDBRANCH  60  61
ENDBRANCH  18  60
BRANCH  14  65
ATOM     65  C   UNK d   0     -44.843  19.458  -1.395  0.00  0.00     0.052 C 
BRANCH  65  66
ATOM     66  C   UNK d   0     -45.621  18.257  -1.803  0.00  0.00     0.115 C 
BRANCH  66  67
ATOM     67  C   UNK d   0     -46.745  17.835  -1.015  0.00  0.00     0.139 C 
ATOM     68  O   UNK d   0     -46.798  18.193   0.219  0.00  0.00    -0.650 OA
BRANCH  67  69
ATOM     69  O   UNK d   0     -47.830  17.060  -1.423  0.00  0.00    -0.776 OA
ATOM     70  H   UNK d   0     -48.743  17.537  -1.434  0.00  0.00     0.167 HD
ENDBRANCH  67  69
ENDBRANCH  66  67
ENDBRANCH  65  66
ENDBRANCH  14  65
ENDBRANCH   6   7
ENDBRANCH   5   6
ENDBRANCH   2   5
TORSDOF 28
ENDMDL
MODEL 14
REMARK VINA RESULT:      -6.4      1.825      7.316
REMARK  28 active torsions:
REMARK  status: ('A' for Active; 'I' for Inactive)
REMARK    1  A    between atoms: C_2  and  O_3 
REMARK    2  A    between atoms: C_2  and  C_4 
REMARK    3  A    between atoms: C_4  and  C_5 
REMARK    4  A    between atoms: C_5  and  C_6 
REMARK    5  A    between atoms: C_7  and  C_8 
REMARK    6  A    between atoms: C_8  and  C_9 
REMARK    7  A    between atoms: C_9  and  O_11 
REMARK    8  A    between atoms: C_28  and  C_29 
REMARK    9  A    between atoms: C_29  and  C_30 
REMARK   10  A    between atoms: C_30  and  O_32 
REMARK   11  A    between atoms: C_33  and  C_34 
REMARK   12  A    between atoms: C_34  and  C_35 
REMARK   13  A    between atoms: C_35  and  C_36 
REMARK   14  A    between atoms: C_36  and  O_38 
REMARK   15  A    between atoms: C_39  and  C_40 
REMARK   16  A    between atoms: C_40  and  C_41 
REMARK   17  A    between atoms: C_41  and  C_42 
REMARK   18  A    between atoms: C_42  and  O_44 
REMARK   19  A    between atoms: C_45  and  C_46 
REMARK   20  A    between atoms: C_46  and  C_47 
REMARK   21  A    between atoms: C_47  and  O_49 
REMARK   22  A    between atoms: C_50  and  C_51 
REMARK   23  A    between atoms: C_51  and  C_52 
REMARK   24  A    between atoms: C_52  and  O_54 
REMARK   25  A    between atoms: C_55  and  C_56 
REMARK   26  A    between atoms: C_56  and  C_57 
REMARK   27  A    between atoms: C_57  and  C_58 
REMARK   28  A    between atoms: C_58  and  O_60 
ROOT
ATOM      1  O   UNK d   0     -48.345  19.532  -3.741  0.00  0.00    -0.650 OA
ATOM      2  C   UNK d   0     -47.468  18.640  -3.708  0.00  0.00     0.139 C 
ENDROOT
BRANCH   2   3
ATOM      3  O   UNK d   0     -47.315  17.806  -4.789  0.00  0.00    -0.776 OA
ATOM      4  H   UNK d   0     -46.432  17.765  -5.302  0.00  0.00     0.167 HD
ENDBRANCH   2   3
BRANCH   2   5
ATOM      5  C   UNK d   0     -46.602  18.486  -2.505  0.00  0.00     0.115 C 
BRANCH   5   6
ATOM      6  C   UNK d   0     -45.944  19.797  -2.170  0.00  0.00     0.052 C 
BRANCH   6   7
ATOM      7  C   UNK d   0     -44.858  19.654  -1.130  0.00  0.00    -0.020 A 
ATOM      8  C   UNK d   0     -44.989  19.696   0.171  0.00  0.00    -0.011 A 
ATOM      9  C   UNK d   0     -43.671  19.520   0.757  0.00  0.00     0.067 A 
ATOM     10  C   UNK d   0     -43.141  19.447   2.055  0.00  0.00     0.062 C 
ATOM     11  N   UNK d   0     -42.795  19.383  -0.261  0.00  0.00    -0.248 NA
ATOM     12  C   UNK d   0     -41.871  18.991   2.427  0.00  0.00     0.041 A 
ATOM     13  N   UNK d   0     -40.658  19.206   1.884  0.00  0.00    -0.355 N 
ATOM     14  C   UNK d   0     -41.758  18.108   3.516  0.00  0.00    -0.022 A 
ATOM     15  C   UNK d   0     -39.778  18.475   2.595  0.00  0.00     0.042 A 
ATOM     16  H   UNK d   0     -40.425  19.876   1.027  0.00  0.00     0.166 HD
ATOM     17  C   UNK d   0     -38.383  18.336   2.455  0.00  0.00     0.062 C 
ATOM     18  C   UNK d   0     -40.431  17.773   3.626  0.00  0.00    -0.013 A 
ATOM     19  C   UNK d   0     -37.645  18.147   1.314  0.00  0.00     0.067 A 
ATOM     20  N   UNK d   0     -38.280  18.308   0.150  0.00  0.00    -0.248 NA
ATOM     21  C   UNK d   0     -36.273  17.782   1.007  0.00  0.00    -0.011 A 
ATOM     22  C   UNK d   0     -37.422  18.072  -0.896  0.00  0.00     0.066 A 
ATOM     23  C   UNK d   0     -37.944  18.242  -2.170  0.00  0.00     0.062 C 
ATOM     24  C   UNK d   0     -36.150  17.736  -0.289  0.00  0.00    -0.020 A 
ATOM     25  C   UNK d   0     -39.218  18.713  -2.523  0.00  0.00     0.041 A 
ATOM     26  N   UNK d   0     -40.426  18.487  -1.993  0.00  0.00    -0.355 N 
ATOM     27  C   UNK d   0     -39.330  19.603  -3.613  0.00  0.00    -0.022 A 
ATOM     28  C   UNK d   0     -41.306  19.208  -2.705  0.00  0.00     0.042 A 
ATOM     29  H   UNK d   0     -40.660  17.805  -1.138  0.00  0.00     0.166 HD
ATOM     30  C   UNK d   0     -42.697  19.349  -2.583  0.00  0.00     0.062 C 
ATOM     31  C   UNK d   0     -40.648  19.922  -3.735  0.00  0.00    -0.013 A 
ATOM     32  C   UNK d   0     -43.447  19.454  -1.423  0.00  0.00     0.066 A 
BRANCH   8  33
ATOM     33  C   UNK d   0     -46.239  19.892   0.929  0.00  0.00     0.151 C 
BRANCH  33  34
ATOM     34  C   UNK d   0     -46.774  18.635   1.481  0.00  0.00     0.143 C 
ATOM     35  O   UNK d   0     -47.564  17.938   0.828  0.00  0.00    -0.650 OA
BRANCH  34  36
ATOM     36  O   UNK d   0     -46.391  18.233   2.740  0.00  0.00    -0.776 OA
ATOM     37  H   UNK d   0     -47.022  18.331   3.547  0.00  0.00     0.167 HD
ENDBRANCH  34  36
ENDBRANCH  33  34
ENDBRANCH   8  33
BRANCH  31  38
ATOM     38  C   UNK d   0     -41.247  20.859  -4.758  0.00  0.00     0.151 C 
BRANCH  38  39
ATOM     39  C   UNK d   0     -41.687  22.112  -4.182  0.00  0.00     0.143 C 
ATOM     40  O   UNK d   0     -42.740  22.672  -4.534  0.00  0.00    -0.650 OA
BRANCH  39  41
ATOM     41  O   UNK d   0     -40.913  22.723  -3.197  0.00  0.00    -0.776 OA
ATOM     42  H   UNK d   0     -41.233  23.636  -2.859  0.00  0.00     0.167 HD
ENDBRANCH  39  41
ENDBRANCH  38  39
ENDBRANCH  31  38
BRANCH  27  43
ATOM     43  C   UNK d   0     -38.256  20.146  -4.522  0.00  0.00     0.052 C 
BRANCH  43  44
ATOM     44  C   UNK d   0     -37.825  21.532  -4.165  0.00  0.00     0.115 C 
BRANCH  44  45
ATOM     45  C   UNK d   0     -36.569  21.397  -3.382  0.00  0.00     0.139 C 
ATOM     46  O   UNK d   0     -35.506  21.158  -4.006  0.00  0.00    -0.650 OA
BRANCH  45  47
ATOM     47  O   UNK d   0     -36.526  21.530  -2.011  0.00  0.00    -0.776 OA
ATOM     48  H   UNK d   0     -35.706  21.911  -1.511  0.00  0.00     0.167 HD
ENDBRANCH  45  47
ENDBRANCH  44  45
ENDBRANCH  43  44
ENDBRANCH  27  43
BRANCH  24  49
ATOM     49  C   UNK d   0     -34.914  17.442  -1.034  0.00  0.00     0.052 C 
BRANCH  49  50
ATOM     50  C   UNK d   0     -34.411  18.682  -1.726  0.00  0.00     0.115 C 
BRANCH  50  51
ATOM     51  C   UNK d   0     -33.731  19.674  -0.904  0.00  0.00     0.139 C 
ATOM     52  O   UNK d   0     -33.817  20.906  -1.121  0.00  0.00    -0.650 OA
BRANCH  51  53
ATOM     53  O   UNK d   0     -32.952  19.261   0.166  0.00  0.00    -0.776 OA
ATOM     54  H   UNK d   0     -32.398  18.429   0.057  0.00  0.00     0.167 HD
ENDBRANCH  51  53
ENDBRANCH  50  51
ENDBRANCH  49  50
ENDBRANCH  24  49
BRANCH  21  55
ATOM     55  C   UNK d   0     -35.226  17.521   2.039  0.00  0.00     0.151 C 
BRANCH  55  56
ATOM     56  C   UNK d   0     -35.187  16.106   2.439  0.00  0.00     0.143 C 
ATOM     57  O   UNK d   0     -34.502  15.254   1.839  0.00  0.00    -0.650 OA
BRANCH  56  58
ATOM     58  O   UNK d   0     -35.953  15.720   3.537  0.00  0.00    -0.776 OA
ATOM     59  H   UNK d   0     -35.798  16.278   4.395  0.00  0.00     0.167 HD
ENDBRANCH  56  58
ENDBRANCH  55  56
ENDBRANCH  21  55
BRANCH  18  60
ATOM     60  C   UNK d   0     -39.859  16.836   4.661  0.00  0.00     0.151 C 
BRANCH  60  61
ATOM     61  C   UNK d   0     -39.873  15.499   4.048  0.00  0.00     0.143 C 
ATOM     62  O   UNK d   0     -40.792  14.986   3.408  0.00  0.00    -0.650 OA
BRANCH  61  63
ATOM     63  O   UNK d   0     -38.691  14.742   4.226  0.00  0.00    -0.776 OA
ATOM     64  H   UNK d   0     -37.970  14.734   3.526  0.00  0.00     0.167 HD
ENDBRANCH  61  63
ENDBRANCH  60  61
ENDBRANCH  18  60
BRANCH  14  65
ATOM     65  C   UNK d   0     -42.782  17.638   4.509  0.00  0.00     0.052 C 
BRANCH  65  66
ATOM     66  C   UNK d   0     -42.951  18.572   5.655  0.00  0.00     0.115 C 
BRANCH  66  67
ATOM     67  C   UNK d   0     -44.267  19.001   6.035  0.00  0.00     0.139 C 
ATOM     68  O   UNK d   0     -45.051  19.456   5.124  0.00  0.00    -0.650 OA
BRANCH  67  69
ATOM     69  O   UNK d   0     -44.832  18.992   7.310  0.00  0.00    -0.776 OA
ATOM     70  H   UNK d   0     -45.082  18.065   7.683  0.00  0.00     0.167 HD
ENDBRANCH  67  69
ENDBRANCH  66  67
ENDBRANCH  65  66
ENDBRANCH  14  65
ENDBRANCH   6   7
ENDBRANCH   5   6
ENDBRANCH   2   5
TORSDOF 28
ENDMDL
MODEL 15
REMARK VINA RESULT:      -6.4      2.143      9.121
REMARK  28 active torsions:
REMARK  status: ('A' for Active; 'I' for Inactive)
REMARK    1  A    between atoms: C_2  and  O_3 
REMARK    2  A    between atoms: C_2  and  C_4 
REMARK    3  A    between atoms: C_4  and  C_5 
REMARK    4  A    between atoms: C_5  and  C_6 
REMARK    5  A    between atoms: C_7  and  C_8 
REMARK    6  A    between atoms: C_8  and  C_9 
REMARK    7  A    between atoms: C_9  and  O_11 
REMARK    8  A    between atoms: C_28  and  C_29 
REMARK    9  A    between atoms: C_29  and  C_30 
REMARK   10  A    between atoms: C_30  and  O_32 
REMARK   11  A    between atoms: C_33  and  C_34 
REMARK   12  A    between atoms: C_34  and  C_35 
REMARK   13  A    between atoms: C_35  and  C_36 
REMARK   14  A    between atoms: C_36  and  O_38 
REMARK   15  A    between atoms: C_39  and  C_40 
REMARK   16  A    between atoms: C_40  and  C_41 
REMARK   17  A    between atoms: C_41  and  C_42 
REMARK   18  A    between atoms: C_42  and  O_44 
REMARK   19  A    between atoms: C_45  and  C_46 
REMARK   20  A    between atoms: C_46  and  C_47 
REMARK   21  A    between atoms: C_47  and  O_49 
REMARK   22  A    between atoms: C_50  and  C_51 
REMARK   23  A    between atoms: C_51  and  C_52 
REMARK   24  A    between atoms: C_52  and  O_54 
REMARK   25  A    between atoms: C_55  and  C_56 
REMARK   26  A    between atoms: C_56  and  C_57 
REMARK   27  A    between atoms: C_57  and  C_58 
REMARK   28  A    between atoms: C_58  and  O_60 
ROOT
ATOM      1  O   UNK d   0     -42.121  24.175  -3.553  0.00  0.00    -0.650 OA
ATOM      2  C   UNK d   0     -42.419  23.305  -4.400  0.00  0.00     0.139 C 
ENDROOT
BRANCH   2   3
ATOM      3  O   UNK d   0     -43.673  23.314  -4.962  0.00  0.00    -0.776 OA
ATOM      4  H   UNK d   0     -43.831  22.953  -5.905  0.00  0.00     0.167 HD
ENDBRANCH   2   3
BRANCH   2   5
ATOM      5  C   UNK d   0     -41.421  22.270  -4.794  0.00  0.00     0.115 C 
BRANCH   5   6
ATOM      6  C   UNK d   0     -41.886  20.909  -4.352  0.00  0.00     0.052 C 
BRANCH   6   7
ATOM      7  C   UNK d   0     -41.410  20.553  -2.964  0.00  0.00    -0.020 A 
ATOM      8  C   UNK d   0     -42.043  20.731  -1.833  0.00  0.00    -0.011 A 
ATOM      9  C   UNK d   0     -41.188  20.244  -0.763  0.00  0.00     0.067 A 
ATOM     10  C   UNK d   0     -41.279  20.130   0.633  0.00  0.00     0.062 C 
ATOM     11  N   UNK d   0     -40.051  19.793  -1.333  0.00  0.00    -0.248 NA
ATOM     12  C   UNK d   0     -40.458  19.373   1.476  0.00  0.00     0.041 A 
ATOM     13  N   UNK d   0     -39.122  19.202   1.493  0.00  0.00    -0.355 N 
ATOM     14  C   UNK d   0     -41.054  18.579   2.473  0.00  0.00    -0.022 A 
ATOM     15  C   UNK d   0     -38.856  18.315   2.470  0.00  0.00     0.042 A 
ATOM     16  H   UNK d   0     -38.381  19.713   0.840  0.00  0.00     0.166 HD
ATOM     17  C   UNK d   0     -37.628  17.785   2.914  0.00  0.00     0.062 C 
ATOM     18  C   UNK d   0     -40.042  17.901   3.107  0.00  0.00    -0.013 A 
ATOM     19  C   UNK d   0     -36.575  17.312   2.173  0.00  0.00     0.067 A 
ATOM     20  N   UNK d   0     -36.605  17.550   0.859  0.00  0.00    -0.248 NA
ATOM     21  C   UNK d   0     -35.361  16.560   2.444  0.00  0.00    -0.011 A 
ATOM     22  C   UNK d   0     -35.499  17.007   0.252  0.00  0.00     0.066 A 
ATOM     23  C   UNK d   0     -35.383  17.214  -1.115  0.00  0.00     0.062 C 
ATOM     24  C   UNK d   0     -34.738  16.381   1.315  0.00  0.00    -0.020 A 
ATOM     25  C   UNK d   0     -36.212  17.988  -1.942  0.00  0.00     0.041 A 
ATOM     26  N   UNK d   0     -37.540  18.147  -1.969  0.00  0.00    -0.355 N 
ATOM     27  C   UNK d   0     -35.612  18.788  -2.939  0.00  0.00    -0.022 A 
ATOM     28  C   UNK d   0     -37.809  19.024  -2.948  0.00  0.00     0.042 A 
ATOM     29  H   UNK d   0     -38.285  17.624  -1.319  0.00  0.00     0.166 HD
ATOM     30  C   UNK d   0     -39.027  19.552  -3.406  0.00  0.00     0.062 C 
ATOM     31  C   UNK d   0     -36.616  19.447  -3.581  0.00  0.00    -0.013 A 
ATOM     32  C   UNK d   0     -40.122  19.950  -2.656  0.00  0.00     0.066 A 
BRANCH   8  33
ATOM     33  C   UNK d   0     -43.382  21.322  -1.652  0.00  0.00     0.151 C 
BRANCH  33  34
ATOM     34  C   UNK d   0     -44.405  20.688  -2.502  0.00  0.00     0.143 C 
ATOM     35  O   UNK d   0     -45.171  21.374  -3.195  0.00  0.00    -0.650 OA
BRANCH  34  36
ATOM     36  O   UNK d   0     -44.511  19.317  -2.524  0.00  0.00    -0.776 OA
ATOM     37  H   UNK d   0     -44.832  18.793  -1.699  0.00  0.00     0.167 HD
ENDBRANCH  34  36
ENDBRANCH  33  34
ENDBRANCH   8  33
BRANCH  31  38
ATOM     38  C   UNK d   0     -36.453  20.430  -4.717  0.00  0.00     0.151 C 
BRANCH  38  39
ATOM     39  C   UNK d   0     -36.839  21.777  -4.354  0.00  0.00     0.143 C 
ATOM     40  O   UNK d   0     -36.418  22.335  -3.325  0.00  0.00    -0.650 OA
BRANCH  39  41
ATOM     41  O   UNK d   0     -37.713  22.486  -5.177  0.00  0.00    -0.776 OA
ATOM     42  H   UNK d   0     -38.431  21.942  -5.665  0.00  0.00     0.167 HD
ENDBRANCH  39  41
ENDBRANCH  38  39
ENDBRANCH  31  38
BRANCH  27  43
ATOM     43  C   UNK d   0     -34.155  18.941  -3.297  0.00  0.00     0.052 C 
BRANCH  43  44
ATOM     44  C   UNK d   0     -33.635  20.324  -3.076  0.00  0.00     0.115 C 
BRANCH  44  45
ATOM     45  C   UNK d   0     -33.787  20.607  -1.625  0.00  0.00     0.139 C 
ATOM     46  O   UNK d   0     -33.202  19.852  -0.810  0.00  0.00    -0.650 OA
BRANCH  45  47
ATOM     47  O   UNK d   0     -34.534  21.661  -1.143  0.00  0.00    -0.776 OA
ATOM     48  H   UNK d   0     -35.547  21.757  -1.320  0.00  0.00     0.167 HD
ENDBRANCH  45  47
ENDBRANCH  44  45
ENDBRANCH  43  44
ENDBRANCH  27  43
BRANCH  24  49
ATOM     49  C   UNK d   0     -33.444  15.701   1.135  0.00  0.00     0.052 C 
BRANCH  49  50
ATOM     50  C   UNK d   0     -33.651  14.218   0.964  0.00  0.00     0.115 C 
BRANCH  50  51
ATOM     51  C   UNK d   0     -33.153  13.350   2.023  0.00  0.00     0.139 C 
ATOM     52  O   UNK d   0     -33.904  12.833   2.883  0.00  0.00    -0.650 OA
BRANCH  51  53
ATOM     53  O   UNK d   0     -31.797  13.074   2.102  0.00  0.00    -0.776 OA
ATOM     54  H   UNK d   0     -31.154  13.723   1.683  0.00  0.00     0.167 HD
ENDBRANCH  51  53
ENDBRANCH  50  51
ENDBRANCH  49  50
ENDBRANCH  24  49
BRANCH  21  55
ATOM     55  C   UNK d   0     -34.949  16.103   3.804  0.00  0.00     0.151 C 
BRANCH  55  56
ATOM     56  C   UNK d   0     -33.536  16.403   4.082  0.00  0.00     0.143 C 
ATOM     57  O   UNK d   0     -33.089  17.567   4.124  0.00  0.00    -0.650 OA
BRANCH  56  58
ATOM     58  O   UNK d   0     -32.675  15.330   4.305  0.00  0.00    -0.776 OA
ATOM     59  H   UNK d   0     -31.718  15.593   4.600  0.00  0.00     0.167 HD
ENDBRANCH  56  58
ENDBRANCH  55  56
ENDBRANCH  21  55
BRANCH  18  60
ATOM     60  C   UNK d   0     -40.234  16.927   4.243  0.00  0.00     0.151 C 
BRANCH  60  61
ATOM     61  C   UNK d   0     -40.580  17.740   5.419  0.00  0.00     0.143 C 
ATOM     62  O   UNK d   0     -39.992  18.743   5.826  0.00  0.00    -0.650 OA
BRANCH  61  63
ATOM     63  O   UNK d   0     -41.715  17.302   6.142  0.00  0.00    -0.776 OA
ATOM     64  H   UNK d   0     -41.874  17.600   7.088  0.00  0.00     0.167 HD
ENDBRANCH  61  63
ENDBRANCH  60  61
ENDBRANCH  18  60
BRANCH  14  65
ATOM     65  C   UNK d   0     -42.481  18.489   2.932  0.00  0.00     0.052 C 
BRANCH  65  66
ATOM     66  C   UNK d   0     -43.337  17.687   2.017  0.00  0.00     0.115 C 
BRANCH  66  67
ATOM     67  C   UNK d   0     -44.160  18.351   1.046  0.00  0.00     0.139 C 
ATOM     68  O   UNK d   0     -44.078  17.983  -0.183  0.00  0.00    -0.650 OA
BRANCH  67  69
ATOM     69  O   UNK d   0     -45.072  19.384   1.264  0.00  0.00    -0.776 OA
ATOM     70  H   UNK d   0     -44.669  20.279   1.577  0.00  0.00     0.167 HD
ENDBRANCH  67  69
ENDBRANCH  66  67
ENDBRANCH  65  66
ENDBRANCH  14  65
ENDBRANCH   6   7
ENDBRANCH   5   6
ENDBRANCH   2   5
TORSDOF 28
ENDMDL
MODEL 16
REMARK VINA RESULT:      -6.4      1.536      7.702
REMARK  28 active torsions:
REMARK  status: ('A' for Active; 'I' for Inactive)
REMARK    1  A    between atoms: C_2  and  O_3 
REMARK    2  A    between atoms: C_2  and  C_4 
REMARK    3  A    between atoms: C_4  and  C_5 
REMARK    4  A    between atoms: C_5  and  C_6 
REMARK    5  A    between atoms: C_7  and  C_8 
REMARK    6  A    between atoms: C_8  and  C_9 
REMARK    7  A    between atoms: C_9  and  O_11 
REMARK    8  A    between atoms: C_28  and  C_29 
REMARK    9  A    between atoms: C_29  and  C_30 
REMARK   10  A    between atoms: C_30  and  O_32 
REMARK   11  A    between atoms: C_33  and  C_34 
REMARK   12  A    between atoms: C_34  and  C_35 
REMARK   13  A    between atoms: C_35  and  C_36 
REMARK   14  A    between atoms: C_36  and  O_38 
REMARK   15  A    between atoms: C_39  and  C_40 
REMARK   16  A    between atoms: C_40  and  C_41 
REMARK   17  A    between atoms: C_41  and  C_42 
REMARK   18  A    between atoms: C_42  and  O_44 
REMARK   19  A    between atoms: C_45  and  C_46 
REMARK   20  A    between atoms: C_46  and  C_47 
REMARK   21  A    between atoms: C_47  and  O_49 
REMARK   22  A    between atoms: C_50  and  C_51 
REMARK   23  A    between atoms: C_51  and  C_52 
REMARK   24  A    between atoms: C_52  and  O_54 
REMARK   25  A    between atoms: C_55  and  C_56 
REMARK   26  A    between atoms: C_56  and  C_57 
REMARK   27  A    between atoms: C_57  and  C_58 
REMARK   28  A    between atoms: C_58  and  O_60 
ROOT
ATOM      1  O   UNK d   0     -33.574  19.715  -3.170  0.00  0.00    -0.650 OA
ATOM      2  C   UNK d   0     -34.133  18.692  -2.717  0.00  0.00     0.139 C 
ENDROOT
BRANCH   2   3
ATOM      3  O   UNK d   0     -34.850  17.884  -3.566  0.00  0.00    -0.776 OA
ATOM      4  H   UNK d   0     -35.459  18.282  -4.285  0.00  0.00     0.167 HD
ENDBRANCH   2   3
BRANCH   2   5
ATOM      5  C   UNK d   0     -34.020  18.357  -1.269  0.00  0.00     0.115 C 
BRANCH   5   6
ATOM      6  C   UNK d   0     -34.645  19.443  -0.436  0.00  0.00     0.052 C 
BRANCH   6   7
ATOM      7  C   UNK d   0     -36.050  19.106   0.001  0.00  0.00    -0.020 A 
ATOM      8  C   UNK d   0     -36.418  18.460   1.078  0.00  0.00    -0.011 A 
ATOM      9  C   UNK d   0     -37.868  18.368   1.068  0.00  0.00     0.067 A 
ATOM     10  C   UNK d   0     -38.855  17.838   1.914  0.00  0.00     0.062 C 
ATOM     11  N   UNK d   0     -38.301  18.979  -0.055  0.00  0.00    -0.248 NA
ATOM     12  C   UNK d   0     -40.231  18.091   1.873  0.00  0.00     0.041 A 
ATOM     13  N   UNK d   0     -41.086  18.176   0.837  0.00  0.00    -0.355 N 
ATOM     14  C   UNK d   0     -40.907  18.368   3.075  0.00  0.00    -0.022 A 
ATOM     15  C   UNK d   0     -42.287  18.507   1.350  0.00  0.00     0.042 A 
ATOM     16  H   UNK d   0     -40.851  17.986  -0.234  0.00  0.00     0.166 HD
ATOM     17  C   UNK d   0     -43.525  18.722   0.711  0.00  0.00     0.062 C 
ATOM     18  C   UNK d   0     -42.213  18.637   2.750  0.00  0.00    -0.013 A 
ATOM     19  C   UNK d   0     -43.795  19.433  -0.429  0.00  0.00     0.067 A 
ATOM     20  N   UNK d   0     -42.748  19.821  -1.162  0.00  0.00    -0.248 NA
ATOM     21  C   UNK d   0     -44.990  19.925  -1.095  0.00  0.00    -0.011 A 
ATOM     22  C   UNK d   0     -43.172  20.532  -2.258  0.00  0.00     0.066 A 
ATOM     23  C   UNK d   0     -42.184  20.966  -3.131  0.00  0.00     0.062 C 
ATOM     24  C   UNK d   0     -44.618  20.571  -2.163  0.00  0.00    -0.020 A 
ATOM     25  C   UNK d   0     -40.809  20.691  -3.079  0.00  0.00     0.041 A 
ATOM     26  N   UNK d   0     -39.955  20.621  -2.051  0.00  0.00    -0.355 N 
ATOM     27  C   UNK d   0     -40.132  20.408  -4.286  0.00  0.00    -0.022 A 
ATOM     28  C   UNK d   0     -38.756  20.299  -2.560  0.00  0.00     0.042 A 
ATOM     29  H   UNK d   0     -40.191  20.822  -0.977  0.00  0.00     0.166 HD
ATOM     30  C   UNK d   0     -37.515  20.092  -1.939  0.00  0.00     0.062 C 
ATOM     31  C   UNK d   0     -38.832  20.158  -3.966  0.00  0.00    -0.013 A 
ATOM     32  C   UNK d   0     -37.256  19.444  -0.741  0.00  0.00     0.066 A 
BRANCH   8  33
ATOM     33  C   UNK d   0     -35.537  17.911   2.125  0.00  0.00     0.151 C 
BRANCH  33  34
ATOM     34  C   UNK d   0     -35.446  16.440   2.081  0.00  0.00     0.143 C 
ATOM     35  O   UNK d   0     -35.062  15.856   1.058  0.00  0.00    -0.650 OA
BRANCH  34  36
ATOM     36  O   UNK d   0     -35.796  15.709   3.192  0.00  0.00    -0.776 OA
ATOM     37  H   UNK d   0     -36.051  14.715   3.119  0.00  0.00     0.167 HD
ENDBRANCH  34  36
ENDBRANCH  33  34
ENDBRANCH   8  33
BRANCH  31  38
ATOM     38  C   UNK d   0     -37.731  19.795  -4.934  0.00  0.00     0.151 C 
BRANCH  38  39
ATOM     39  C   UNK d   0     -36.769  20.862  -5.117  0.00  0.00     0.143 C 
ATOM     40  O   UNK d   0     -37.111  22.050  -5.251  0.00  0.00    -0.650 OA
BRANCH  39  41
ATOM     41  O   UNK d   0     -35.408  20.561  -5.145  0.00  0.00    -0.776 OA
ATOM     42  H   UNK d   0     -34.809  21.183  -5.697  0.00  0.00     0.167 HD
ENDBRANCH  39  41
ENDBRANCH  38  39
ENDBRANCH  31  38
BRANCH  27  43
ATOM     43  C   UNK d   0     -40.663  20.370  -5.697  0.00  0.00     0.052 C 
BRANCH  43  44
ATOM     44  C   UNK d   0     -40.972  21.724  -6.248  0.00  0.00     0.115 C 
BRANCH  44  45
ATOM     45  C   UNK d   0     -40.188  21.862  -7.502  0.00  0.00     0.139 C 
ATOM     46  O   UNK d   0     -40.749  21.567  -8.587  0.00  0.00    -0.650 OA
BRANCH  45  47
ATOM     47  O   UNK d   0     -38.882  22.301  -7.522  0.00  0.00    -0.776 OA
ATOM     48  H   UNK d   0     -38.445  22.796  -6.728  0.00  0.00     0.167 HD
ENDBRANCH  45  47
ENDBRANCH  44  45
ENDBRANCH  43  44
ENDBRANCH  27  43
BRANCH  24  49
ATOM     49  C   UNK d   0     -45.509  21.200  -3.152  0.00  0.00     0.052 C 
BRANCH  49  50
ATOM     50  C   UNK d   0     -45.828  20.232  -4.262  0.00  0.00     0.115 C 
BRANCH  50  51
ATOM     51  C   UNK d   0     -47.234  19.935  -4.502  0.00  0.00     0.139 C 
ATOM     52  O   UNK d   0     -48.123  20.133  -3.641  0.00  0.00    -0.650 OA
BRANCH  51  53
ATOM     53  O   UNK d   0     -47.625  19.408  -5.723  0.00  0.00    -0.776 OA
ATOM     54  H   UNK d   0     -48.572  19.087  -5.820  0.00  0.00     0.167 HD
ENDBRANCH  51  53
ENDBRANCH  50  51
ENDBRANCH  49  50
ENDBRANCH  24  49
BRANCH  21  55
ATOM     55  C   UNK d   0     -46.378  19.694  -0.598  0.00  0.00     0.151 C 
BRANCH  55  56
ATOM     56  C   UNK d   0     -46.813  18.304  -0.802  0.00  0.00     0.143 C 
ATOM     57  O   UNK d   0     -46.299  17.554  -1.655  0.00  0.00    -0.650 OA
BRANCH  56  58
ATOM     58  O   UNK d   0     -47.844  17.822   0.002  0.00  0.00    -0.776 OA
ATOM     59  H   UNK d   0     -48.752  17.698  -0.481  0.00  0.00     0.167 HD
ENDBRANCH  56  58
ENDBRANCH  55  56
ENDBRANCH  21  55
BRANCH  18  60
ATOM     60  C   UNK d   0     -43.295  18.994   3.740  0.00  0.00     0.151 C 
BRANCH  60  61
ATOM     61  C   UNK d   0     -43.901  17.720   4.153  0.00  0.00     0.143 C 
ATOM     62  O   UNK d   0     -44.123  16.738   3.443  0.00  0.00    -0.650 OA
BRANCH  61  63
ATOM     63  O   UNK d   0     -44.258  17.638   5.521  0.00  0.00    -0.776 OA
ATOM     64  H   UNK d   0     -44.901  18.294   5.929  0.00  0.00     0.167 HD
ENDBRANCH  61  63
ENDBRANCH  60  61
ENDBRANCH  18  60
BRANCH  14  65
ATOM     65  C   UNK d   0     -40.440  18.301   4.501  0.00  0.00     0.052 C 
BRANCH  65  66
ATOM     66  C   UNK d   0     -40.666  16.971   5.126  0.00  0.00     0.115 C 
BRANCH  66  67
ATOM     67  C   UNK d   0     -40.562  15.782   4.327  0.00  0.00     0.139 C 
ATOM     68  O   UNK d   0     -39.414  15.213   4.220  0.00  0.00    -0.650 OA
BRANCH  67  69
ATOM     69  O   UNK d   0     -41.578  15.136   3.623  0.00  0.00    -0.776 OA
ATOM     70  H   UNK d   0     -42.244  15.751   3.134  0.00  0.00     0.167 HD
ENDBRANCH  67  69
ENDBRANCH  66  67
ENDBRANCH  65  66
ENDBRANCH  14  65
ENDBRANCH   6   7
ENDBRANCH   5   6
ENDBRANCH   2   5
TORSDOF 28
ENDMDL
MODEL 17
REMARK VINA RESULT:      -6.4      7.428     12.489
REMARK  28 active torsions:
REMARK  status: ('A' for Active; 'I' for Inactive)
REMARK    1  A    between atoms: C_2  and  O_3 
REMARK    2  A    between atoms: C_2  and  C_4 
REMARK    3  A    between atoms: C_4  and  C_5 
REMARK    4  A    between atoms: C_5  and  C_6 
REMARK    5  A    between atoms: C_7  and  C_8 
REMARK    6  A    between atoms: C_8  and  C_9 
REMARK    7  A    between atoms: C_9  and  O_11 
REMARK    8  A    between atoms: C_28  and  C_29 
REMARK    9  A    between atoms: C_29  and  C_30 
REMARK   10  A    between atoms: C_30  and  O_32 
REMARK   11  A    between atoms: C_33  and  C_34 
REMARK   12  A    between atoms: C_34  and  C_35 
REMARK   13  A    between atoms: C_35  and  C_36 
REMARK   14  A    between atoms: C_36  and  O_38 
REMARK   15  A    between atoms: C_39  and  C_40 
REMARK   16  A    between atoms: C_40  and  C_41 
REMARK   17  A    between atoms: C_41  and  C_42 
REMARK   18  A    between atoms: C_42  and  O_44 
REMARK   19  A    between atoms: C_45  and  C_46 
REMARK   20  A    between atoms: C_46  and  C_47 
REMARK   21  A    between atoms: C_47  and  O_49 
REMARK   22  A    between atoms: C_50  and  C_51 
REMARK   23  A    between atoms: C_51  and  C_52 
REMARK   24  A    between atoms: C_52  and  O_54 
REMARK   25  A    between atoms: C_55  and  C_56 
REMARK   26  A    between atoms: C_56  and  C_57 
REMARK   27  A    between atoms: C_57  and  C_58 
REMARK   28  A    between atoms: C_58  and  O_60 
ROOT
ATOM      1  O   UNK d   0     -54.639  14.495   1.626  0.00  0.00    -0.650 OA
ATOM      2  C   UNK d   0     -54.383  14.022   2.756  0.00  0.00     0.139 C 
ENDROOT
BRANCH   2   3
ATOM      3  O   UNK d   0     -53.697  12.835   2.849  0.00  0.00    -0.776 OA
ATOM      4  H   UNK d   0     -54.061  12.057   3.403  0.00  0.00     0.167 HD
ENDBRANCH   2   3
BRANCH   2   5
ATOM      5  C   UNK d   0     -54.819  14.743   3.985  0.00  0.00     0.115 C 
BRANCH   5   6
ATOM      6  C   UNK d   0     -53.874  14.451   5.119  0.00  0.00     0.052 C 
BRANCH   6   7
ATOM      7  C   UNK d   0     -53.074  15.663   5.535  0.00  0.00    -0.020 A 
ATOM      8  C   UNK d   0     -53.212  16.375   6.624  0.00  0.00    -0.011 A 
ATOM      9  C   UNK d   0     -52.228  17.444   6.584  0.00  0.00     0.067 A 
ATOM     10  C   UNK d   0     -51.848  18.502   7.424  0.00  0.00     0.062 C 
ATOM     11  N   UNK d   0     -51.537  17.310   5.433  0.00  0.00    -0.248 NA
ATOM     12  C   UNK d   0     -50.682  19.270   7.345  0.00  0.00     0.041 A 
ATOM     13  N   UNK d   0     -50.044  19.808   6.288  0.00  0.00    -0.355 N 
ATOM     14  C   UNK d   0     -49.955  19.528   8.522  0.00  0.00    -0.022 A 
ATOM     15  C   UNK d   0     -48.929  20.393   6.762  0.00  0.00     0.042 A 
ATOM     16  H   UNK d   0     -50.387  19.791   5.230  0.00  0.00     0.166 HD
ATOM     17  C   UNK d   0     -47.911  21.099   6.090  0.00  0.00     0.062 C 
ATOM     18  C   UNK d   0     -48.838  20.238   8.159  0.00  0.00    -0.013 A 
ATOM     19  C   UNK d   0     -47.268  20.780   4.921  0.00  0.00     0.067 A 
ATOM     20  N   UNK d   0     -47.785  19.782   4.200  0.00  0.00    -0.248 NA
ATOM     21  C   UNK d   0     -46.091  21.255   4.213  0.00  0.00    -0.011 A 
ATOM     22  C   UNK d   0     -47.030  19.569   3.072  0.00  0.00     0.066 A 
ATOM     23  C   UNK d   0     -47.478  18.580   2.208  0.00  0.00     0.062 C 
ATOM     24  C   UNK d   0     -45.955  20.540   3.134  0.00  0.00    -0.020 A 
ATOM     25  C   UNK d   0     -48.660  17.829   2.300  0.00  0.00     0.041 A 
ATOM     26  N   UNK d   0     -49.285  17.282   3.349  0.00  0.00    -0.355 N 
ATOM     27  C   UNK d   0     -49.391  17.575   1.118  0.00  0.00    -0.022 A 
ATOM     28  C   UNK d   0     -50.394  16.690   2.877  0.00  0.00     0.042 A 
ATOM     29  H   UNK d   0     -48.935  17.290   4.410  0.00  0.00     0.166 HD
ATOM     30  C   UNK d   0     -51.410  15.977   3.533  0.00  0.00     0.062 C 
ATOM     31  C   UNK d   0     -50.490  16.855   1.475  0.00  0.00    -0.013 A 
ATOM     32  C   UNK d   0     -51.998  16.257   4.756  0.00  0.00     0.066 A 
BRANCH   8  33
ATOM     33  C   UNK d   0     -54.188  16.155   7.707  0.00  0.00     0.151 C 
BRANCH  33  34
ATOM     34  C   UNK d   0     -53.549  15.985   9.025  0.00  0.00     0.143 C 
ATOM     35  O   UNK d   0     -53.928  16.641  10.005  0.00  0.00    -0.650 OA
BRANCH  34  36
ATOM     36  O   UNK d   0     -52.517  15.086   9.164  0.00  0.00    -0.776 OA
ATOM     37  H   UNK d   0     -51.623  15.218   8.670  0.00  0.00     0.167 HD
ENDBRANCH  34  36
ENDBRANCH  33  34
ENDBRANCH   8  33
BRANCH  31  38
ATOM     38  C   UNK d   0     -51.574  16.364   0.544  0.00  0.00     0.151 C 
BRANCH  38  39
ATOM     39  C   UNK d   0     -51.325  15.027   0.048  0.00  0.00     0.143 C 
ATOM     40  O   UNK d   0     -50.829  14.815  -1.073  0.00  0.00    -0.650 OA
BRANCH  39  41
ATOM     41  O   UNK d   0     -51.648  13.929   0.844  0.00  0.00    -0.776 OA
ATOM     42  H   UNK d   0     -50.881  13.294   1.088  0.00  0.00     0.167 HD
ENDBRANCH  39  41
ENDBRANCH  38  39
ENDBRANCH  31  38
BRANCH  27  43
ATOM     43  C   UNK d   0     -49.087  17.980  -0.302  0.00  0.00     0.052 C 
BRANCH  43  44
ATOM     44  C   UNK d   0     -48.057  17.117  -0.956  0.00  0.00     0.115 C 
BRANCH  44  45
ATOM     45  C   UNK d   0     -48.491  16.932  -2.365  0.00  0.00     0.139 C 
ATOM     46  O   UNK d   0     -47.606  16.750  -3.237  0.00  0.00    -0.650 OA
BRANCH  45  47
ATOM     47  O   UNK d   0     -49.815  16.946  -2.747  0.00  0.00    -0.776 OA
ATOM     48  H   UNK d   0     -50.582  17.194  -2.102  0.00  0.00     0.167 HD
ENDBRANCH  45  47
ENDBRANCH  44  45
ENDBRANCH  43  44
ENDBRANCH  27  43
BRANCH  24  49
ATOM     49  C   UNK d   0     -44.914  20.708   2.105  0.00  0.00     0.052 C 
BRANCH  49  50
ATOM     50  C   UNK d   0     -44.125  19.435   1.944  0.00  0.00     0.115 C 
BRANCH  50  51
ATOM     51  C   UNK d   0     -43.552  18.850   3.149  0.00  0.00     0.139 C 
ATOM     52  O   UNK d   0     -43.899  17.729   3.588  0.00  0.00    -0.650 OA
BRANCH  51  53
ATOM     53  O   UNK d   0     -42.583  19.547   3.856  0.00  0.00    -0.776 OA
ATOM     54  H   UNK d   0     -42.201  19.123   4.683  0.00  0.00     0.167 HD
ENDBRANCH  51  53
ENDBRANCH  50  51
ENDBRANCH  49  50
ENDBRANCH  24  49
BRANCH  21  55
ATOM     55  C   UNK d   0     -45.228  22.377   4.686  0.00  0.00     0.151 C 
BRANCH  55  56
ATOM     56  C   UNK d   0     -44.249  21.934   5.691  0.00  0.00     0.143 C 
ATOM     57  O   UNK d   0     -43.412  22.703   6.203  0.00  0.00    -0.650 OA
BRANCH  56  58
ATOM     58  O   UNK d   0     -44.273  20.594   6.074  0.00  0.00    -0.776 OA
ATOM     59  H   UNK d   0     -43.807  20.390   6.976  0.00  0.00     0.167 HD
ENDBRANCH  56  58
ENDBRANCH  55  56
ENDBRANCH  21  55
BRANCH  18  60
ATOM     60  C   UNK d   0     -47.772  20.719   9.112  0.00  0.00     0.151 C 
BRANCH  60  61
ATOM     61  C   UNK d   0     -46.704  19.709   9.066  0.00  0.00     0.143 C 
ATOM     62  O   UNK d   0     -45.690  19.732   8.367  0.00  0.00    -0.650 OA
BRANCH  61  63
ATOM     63  O   UNK d   0     -46.884  18.601   9.929  0.00  0.00    -0.776 OA
ATOM     64  H   UNK d   0     -46.438  17.720   9.742  0.00  0.00     0.167 HD
ENDBRANCH  61  63
ENDBRANCH  60  61
ENDBRANCH  18  60
BRANCH  14  65
ATOM     65  C   UNK d   0     -50.283  19.242   9.960  0.00  0.00     0.052 C 
BRANCH  65  66
ATOM     66  C   UNK d   0     -50.049  17.822  10.339  0.00  0.00     0.115 C 
BRANCH  66  67
ATOM     67  C   UNK d   0     -50.551  17.328  11.590  0.00  0.00     0.139 C 
ATOM     68  O   UNK d   0     -50.102  17.845  12.678  0.00  0.00    -0.650 OA
BRANCH  67  69
ATOM     69  O   UNK d   0     -51.495  16.322  11.793  0.00  0.00    -0.776 OA
ATOM     70  H   UNK d   0     -51.146  15.356  11.707  0.00  0.00     0.167 HD
ENDBRANCH  67  69
ENDBRANCH  66  67
ENDBRANCH  65  66
ENDBRANCH  14  65
ENDBRANCH   6   7
ENDBRANCH   5   6
ENDBRANCH   2   5
TORSDOF 28
ENDMDL
MODEL 18
REMARK VINA RESULT:      -6.3      1.919      9.677
REMARK  28 active torsions:
REMARK  status: ('A' for Active; 'I' for Inactive)
REMARK    1  A    between atoms: C_2  and  O_3 
REMARK    2  A    between atoms: C_2  and  C_4 
REMARK    3  A    between atoms: C_4  and  C_5 
REMARK    4  A    between atoms: C_5  and  C_6 
REMARK    5  A    between atoms: C_7  and  C_8 
REMARK    6  A    between atoms: C_8  and  C_9 
REMARK    7  A    between atoms: C_9  and  O_11 
REMARK    8  A    between atoms: C_28  and  C_29 
REMARK    9  A    between atoms: C_29  and  C_30 
REMARK   10  A    between atoms: C_30  and  O_32 
REMARK   11  A    between atoms: C_33  and  C_34 
REMARK   12  A    between atoms: C_34  and  C_35 
REMARK   13  A    between atoms: C_35  and  C_36 
REMARK   14  A    between atoms: C_36  and  O_38 
REMARK   15  A    between atoms: C_39  and  C_40 
REMARK   16  A    between atoms: C_40  and  C_41 
REMARK   17  A    between atoms: C_41  and  C_42 
REMARK   18  A    between atoms: C_42  and  O_44 
REMARK   19  A    between atoms: C_45  and  C_46 
REMARK   20  A    between atoms: C_46  and  C_47 
REMARK   21  A    between atoms: C_47  and  O_49 
REMARK   22  A    between atoms: C_50  and  C_51 
REMARK   23  A    between atoms: C_51  and  C_52 
REMARK   24  A    between atoms: C_52  and  O_54 
REMARK   25  A    between atoms: C_55  and  C_56 
REMARK   26  A    between atoms: C_56  and  C_57 
REMARK   27  A    between atoms: C_57  and  C_58 
REMARK   28  A    between atoms: C_58  and  O_60 
ROOT
ATOM      1  O   UNK d   0     -34.343  18.708   1.191  0.00  0.00    -0.650 OA
ATOM      2  C   UNK d   0     -33.975  18.272   0.077  0.00  0.00     0.139 C 
ENDROOT
BRANCH   2   3
ATOM      3  O   UNK d   0     -33.737  16.927  -0.074  0.00  0.00    -0.776 OA
ATOM      4  H   UNK d   0     -32.822  16.526   0.138  0.00  0.00     0.167 HD
ENDBRANCH   2   3
BRANCH   2   5
ATOM      5  C   UNK d   0     -33.796  19.206  -1.071  0.00  0.00     0.115 C 
BRANCH   5   6
ATOM      6  C   UNK d   0     -34.419  18.626  -2.311  0.00  0.00     0.052 C 
BRANCH   6   7
ATOM      7  C   UNK d   0     -35.713  19.308  -2.685  0.00  0.00    -0.020 A 
ATOM      8  C   UNK d   0     -35.902  20.206  -3.618  0.00  0.00    -0.011 A 
ATOM      9  C   UNK d   0     -37.307  20.576  -3.602  0.00  0.00     0.067 A 
ATOM     10  C   UNK d   0     -38.135  21.440  -4.336  0.00  0.00     0.062 C 
ATOM     11  N   UNK d   0     -37.899  19.859  -2.624  0.00  0.00    -0.248 NA
ATOM     12  C   UNK d   0     -39.534  21.458  -4.357  0.00  0.00     0.041 A 
ATOM     13  N   UNK d   0     -40.437  21.346  -3.365  0.00  0.00    -0.355 N 
ATOM     14  C   UNK d   0     -40.195  21.552  -5.596  0.00  0.00    -0.022 A 
ATOM     15  C   UNK d   0     -41.653  21.359  -3.942  0.00  0.00     0.042 A 
ATOM     16  H   UNK d   0     -40.219  21.279  -2.276  0.00  0.00     0.166 HD
ATOM     17  C   UNK d   0     -42.937  21.273  -3.368  0.00  0.00     0.062 C 
ATOM     18  C   UNK d   0     -41.542  21.486  -5.340  0.00  0.00    -0.013 A 
ATOM     19  C   UNK d   0     -43.390  20.424  -2.391  0.00  0.00     0.067 A 
ATOM     20  N   UNK d   0     -42.471  19.707  -1.739  0.00  0.00    -0.248 NA
ATOM     21  C   UNK d   0     -44.686  20.058  -1.843  0.00  0.00    -0.011 A 
ATOM     22  C   UNK d   0     -43.072  18.897  -0.807  0.00  0.00     0.066 A 
ATOM     23  C   UNK d   0     -42.226  18.120  -0.028  0.00  0.00     0.062 C 
ATOM     24  C   UNK d   0     -44.493  19.160  -0.920  0.00  0.00    -0.020 A 
ATOM     25  C   UNK d   0     -40.823  18.127  -0.014  0.00  0.00     0.041 A 
ATOM     26  N   UNK d   0     -39.925  18.223  -1.002  0.00  0.00    -0.355 N 
ATOM     27  C   UNK d   0     -40.161  18.037   1.230  0.00  0.00    -0.022 A 
ATOM     28  C   UNK d   0     -38.711  18.202  -0.429  0.00  0.00     0.042 A 
ATOM     29  H   UNK d   0     -40.145  18.279  -2.096  0.00  0.00     0.166 HD
ATOM     30  C   UNK d   0     -37.426  18.277  -0.988  0.00  0.00     0.062 C 
ATOM     31  C   UNK d   0     -38.824  18.084   0.976  0.00  0.00    -0.013 A 
ATOM     32  C   UNK d   0     -36.994  19.077  -2.034  0.00  0.00     0.066 A 
BRANCH   8  33
ATOM     33  C   UNK d   0     -34.885  20.761  -4.530  0.00  0.00     0.151 C 
BRANCH  33  34
ATOM     34  C   UNK d   0     -34.252  21.984  -4.003  0.00  0.00     0.143 C 
ATOM     35  O   UNK d   0     -33.198  21.926  -3.353  0.00  0.00    -0.650 OA
BRANCH  34  36
ATOM     36  O   UNK d   0     -34.843  23.204  -4.236  0.00  0.00    -0.776 OA
ATOM     37  H   UNK d   0     -34.278  24.053  -4.375  0.00  0.00     0.167 HD
ENDBRANCH  34  36
ENDBRANCH  33  34
ENDBRANCH   8  33
BRANCH  31  38
ATOM     38  C   UNK d   0     -37.719  18.034   2.006  0.00  0.00     0.151 C 
BRANCH  38  39
ATOM     39  C   UNK d   0     -37.433  19.329   2.586  0.00  0.00     0.143 C 
ATOM     40  O   UNK d   0     -37.724  19.610   3.762  0.00  0.00    -0.650 OA
BRANCH  39  41
ATOM     41  O   UNK d   0     -36.809  20.306   1.810  0.00  0.00    -0.776 OA
ATOM     42  H   UNK d   0     -36.248  19.977   1.018  0.00  0.00     0.167 HD
ENDBRANCH  39  41
ENDBRANCH  38  39
ENDBRANCH  31  38
BRANCH  27  43
ATOM     43  C   UNK d   0     -40.739  17.908   2.617  0.00  0.00     0.052 C 
BRANCH  43  44
ATOM     44  C   UNK d   0     -40.807  16.496   3.101  0.00  0.00     0.115 C 
BRANCH  44  45
ATOM     45  C   UNK d   0     -42.242  16.111   3.086  0.00  0.00     0.139 C 
ATOM     46  O   UNK d   0     -42.604  15.207   2.293  0.00  0.00    -0.650 OA
BRANCH  45  47
ATOM     47  O   UNK d   0     -43.181  16.698   3.906  0.00  0.00    -0.776 OA
ATOM     48  H   UNK d   0     -43.230  16.517   4.922  0.00  0.00     0.167 HD
ENDBRANCH  45  47
ENDBRANCH  44  45
ENDBRANCH  43  44
ENDBRANCH  27  43
BRANCH  24  49
ATOM     49  C   UNK d   0     -45.533  18.541  -0.081  0.00  0.00     0.052 C 
BRANCH  49  50
ATOM     50  C   UNK d   0     -45.775  19.372   1.153  0.00  0.00     0.115 C 
BRANCH  50  51
ATOM     51  C   UNK d   0     -45.180  18.903   2.398  0.00  0.00     0.139 C 
ATOM     52  O   UNK d   0     -45.750  18.079   3.151  0.00  0.00    -0.650 OA
BRANCH  51  53
ATOM     53  O   UNK d   0     -43.936  19.377   2.784  0.00  0.00    -0.776 OA
ATOM     54  H   UNK d   0     -43.669  20.302   2.497  0.00  0.00     0.167 HD
ENDBRANCH  51  53
ENDBRANCH  50  51
ENDBRANCH  49  50
ENDBRANCH  24  49
BRANCH  21  55
ATOM     55  C   UNK d   0     -45.981  20.645  -2.297  0.00  0.00     0.151 C 
BRANCH  55  56
ATOM     56  C   UNK d   0     -46.487  19.992  -3.514  0.00  0.00     0.143 C 
ATOM     57  O   UNK d   0     -47.299  19.047  -3.485  0.00  0.00    -0.650 OA
BRANCH  56  58
ATOM     58  O   UNK d   0     -46.027  20.463  -4.743  0.00  0.00    -0.776 OA
ATOM     59  H   UNK d   0     -45.386  19.821  -5.244  0.00  0.00     0.167 HD
ENDBRANCH  56  58
ENDBRANCH  55  56
ENDBRANCH  21  55
BRANCH  18  60
ATOM     60  C   UNK d   0     -42.624  21.541  -6.389  0.00  0.00     0.151 C 
BRANCH  60  61
ATOM     61  C   UNK d   0     -43.224  22.880  -6.281  0.00  0.00     0.143 C 
ATOM     62  O   UNK d   0     -42.644  23.963  -6.371  0.00  0.00    -0.650 OA
BRANCH  61  63
ATOM     63  O   UNK d   0     -44.620  22.898  -6.048  0.00  0.00    -0.776 OA
ATOM     64  H   UNK d   0     -45.007  22.554  -5.187  0.00  0.00     0.167 HD
ENDBRANCH  61  63
ENDBRANCH  60  61
ENDBRANCH  18  60
BRANCH  14  65
ATOM     65  C   UNK d   0     -39.658  21.796  -6.978  0.00  0.00     0.052 C 
BRANCH  65  66
ATOM     66  C   UNK d   0     -39.674  20.577  -7.831  0.00  0.00     0.115 C 
BRANCH  66  67
ATOM     67  C   UNK d   0     -40.048  20.681  -9.213  0.00  0.00     0.139 C 
ATOM     68  O   UNK d   0     -41.267  20.973  -9.498  0.00  0.00    -0.650 OA
BRANCH  67  69
ATOM     69  O   UNK d   0     -39.237  20.500 -10.333  0.00  0.00    -0.776 OA
ATOM     70  H   UNK d   0     -39.143  21.316 -10.954  0.00  0.00     0.167 HD
ENDBRANCH  67  69
ENDBRANCH  66  67
ENDBRANCH  65  66
ENDBRANCH  14  65
ENDBRANCH   6   7
ENDBRANCH   5   6
ENDBRANCH   2   5
TORSDOF 28
ENDMDL
MODEL 19
REMARK VINA RESULT:      -6.3      2.502      8.670
REMARK  28 active torsions:
REMARK  status: ('A' for Active; 'I' for Inactive)
REMARK    1  A    between atoms: C_2  and  O_3 
REMARK    2  A    between atoms: C_2  and  C_4 
REMARK    3  A    between atoms: C_4  and  C_5 
REMARK    4  A    between atoms: C_5  and  C_6 
REMARK    5  A    between atoms: C_7  and  C_8 
REMARK    6  A    between atoms: C_8  and  C_9 
REMARK    7  A    between atoms: C_9  and  O_11 
REMARK    8  A    between atoms: C_28  and  C_29 
REMARK    9  A    between atoms: C_29  and  C_30 
REMARK   10  A    between atoms: C_30  and  O_32 
REMARK   11  A    between atoms: C_33  and  C_34 
REMARK   12  A    between atoms: C_34  and  C_35 
REMARK   13  A    between atoms: C_35  and  C_36 
REMARK   14  A    between atoms: C_36  and  O_38 
REMARK   15  A    between atoms: C_39  and  C_40 
REMARK   16  A    between atoms: C_40  and  C_41 
REMARK   17  A    between atoms: C_41  and  C_42 
REMARK   18  A    between atoms: C_42  and  O_44 
REMARK   19  A    between atoms: C_45  and  C_46 
REMARK   20  A    between atoms: C_46  and  C_47 
REMARK   21  A    between atoms: C_47  and  O_49 
REMARK   22  A    between atoms: C_50  and  C_51 
REMARK   23  A    between atoms: C_51  and  C_52 
REMARK   24  A    between atoms: C_52  and  O_54 
REMARK   25  A    between atoms: C_55  and  C_56 
REMARK   26  A    between atoms: C_56  and  C_57 
REMARK   27  A    between atoms: C_57  and  C_58 
REMARK   28  A    between atoms: C_58  and  O_60 
ROOT
ATOM      1  O   UNK d   0     -43.773  25.191  -3.939  0.00  0.00    -0.650 OA
ATOM      2  C   UNK d   0     -44.386  24.740  -4.932  0.00  0.00     0.139 C 
ENDROOT
BRANCH   2   3
ATOM      3  O   UNK d   0     -45.758  24.666  -4.900  0.00  0.00    -0.776 OA
ATOM      4  H   UNK d   0     -46.332  25.511  -4.912  0.00  0.00     0.167 HD
ENDBRANCH   2   3
BRANCH   2   5
ATOM      5  C   UNK d   0     -43.631  24.289  -6.135  0.00  0.00     0.115 C 
BRANCH   5   6
ATOM      6  C   UNK d   0     -43.938  22.845  -6.427  0.00  0.00     0.052 C 
BRANCH   6   7
ATOM      7  C   UNK d   0     -43.154  21.896  -5.554  0.00  0.00    -0.020 A 
ATOM      8  C   UNK d   0     -41.926  21.479  -5.730  0.00  0.00    -0.011 A 
ATOM      9  C   UNK d   0     -41.604  20.571  -4.641  0.00  0.00     0.067 A 
ATOM     10  C   UNK d   0     -40.485  19.825  -4.242  0.00  0.00     0.062 C 
ATOM     11  N   UNK d   0     -42.696  20.489  -3.851  0.00  0.00    -0.248 NA
ATOM     12  C   UNK d   0     -40.269  19.219  -3.000  0.00  0.00     0.041 A 
ATOM     13  N   UNK d   0     -41.093  18.511  -2.204  0.00  0.00    -0.355 N 
ATOM     14  C   UNK d   0     -39.016  19.370  -2.377  0.00  0.00    -0.022 A 
ATOM     15  C   UNK d   0     -40.398  18.217  -1.088  0.00  0.00     0.042 A 
ATOM     16  H   UNK d   0     -42.138  18.209  -2.434  0.00  0.00     0.166 HD
ATOM     17  C   UNK d   0     -40.779  17.498   0.062  0.00  0.00     0.062 C 
ATOM     18  C   UNK d   0     -39.092  18.739  -1.160  0.00  0.00    -0.013 A 
ATOM     19  C   UNK d   0     -41.941  17.582   0.786  0.00  0.00     0.067 A 
ATOM     20  N   UNK d   0     -42.940  18.284   0.246  0.00  0.00    -0.248 NA
ATOM     21  C   UNK d   0     -42.407  17.095   2.074  0.00  0.00    -0.011 A 
ATOM     22  C   UNK d   0     -44.026  18.293   1.088  0.00  0.00     0.066 A 
ATOM     23  C   UNK d   0     -45.154  18.958   0.632  0.00  0.00     0.062 C 
ATOM     24  C   UNK d   0     -43.626  17.517   2.246  0.00  0.00    -0.020 A 
ATOM     25  C   UNK d   0     -45.355  19.549  -0.625  0.00  0.00     0.041 A 
ATOM     26  N   UNK d   0     -44.541  20.265  -1.410  0.00  0.00    -0.355 N 
ATOM     27  C   UNK d   0     -46.611  19.393  -1.251  0.00  0.00    -0.022 A 
ATOM     28  C   UNK d   0     -45.234  20.567  -2.519  0.00  0.00     0.042 A 
ATOM     29  H   UNK d   0     -43.494  20.577  -1.173  0.00  0.00     0.166 HD
ATOM     30  C   UNK d   0     -44.871  21.289  -3.667  0.00  0.00     0.062 C 
ATOM     31  C   UNK d   0     -46.543  20.033  -2.450  0.00  0.00    -0.013 A 
ATOM     32  C   UNK d   0     -43.663  21.263  -4.346  0.00  0.00     0.066 A 
BRANCH   8  33
ATOM     33  C   UNK d   0     -41.016  21.845  -6.830  0.00  0.00     0.151 C 
BRANCH  33  34
ATOM     34  C   UNK d   0     -40.874  20.775  -7.834  0.00  0.00     0.143 C 
ATOM     35  O   UNK d   0     -39.794  20.188  -7.989  0.00  0.00    -0.650 OA
BRANCH  34  36
ATOM     36  O   UNK d   0     -41.957  20.426  -8.607  0.00  0.00    -0.776 OA
ATOM     37  H   UNK d   0     -41.835  20.045  -9.556  0.00  0.00     0.167 HD
ENDBRANCH  34  36
ENDBRANCH  33  34
ENDBRANCH   8  33
BRANCH  31  38
ATOM     38  C   UNK d   0     -47.648  20.123  -3.477  0.00  0.00     0.151 C 
BRANCH  38  39
ATOM     39  C   UNK d   0     -47.432  19.252  -4.612  0.00  0.00     0.143 C 
ATOM     40  O   UNK d   0     -47.473  19.664  -5.785  0.00  0.00    -0.650 OA
BRANCH  39  41
ATOM     41  O   UNK d   0     -47.166  17.899  -4.399  0.00  0.00    -0.776 OA
ATOM     42  H   UNK d   0     -47.968  17.262  -4.427  0.00  0.00     0.167 HD
ENDBRANCH  39  41
ENDBRANCH  38  39
ENDBRANCH  31  38
BRANCH  27  43
ATOM     43  C   UNK d   0     -47.844  18.675  -0.761  0.00  0.00     0.052 C 
BRANCH  43  44
ATOM     44  C   UNK d   0     -47.866  17.225  -1.121  0.00  0.00     0.115 C 
BRANCH  44  45
ATOM     45  C   UNK d   0     -49.249  16.921  -1.571  0.00  0.00     0.139 C 
ATOM     46  O   UNK d   0     -49.571  17.233  -2.744  0.00  0.00    -0.650 OA
BRANCH  45  47
ATOM     47  O   UNK d   0     -50.181  16.309  -0.761  0.00  0.00    -0.776 OA
ATOM     48  H   UNK d   0     -51.061  15.908  -1.124  0.00  0.00     0.167 HD
ENDBRANCH  45  47
ENDBRANCH  44  45
ENDBRANCH  43  44
ENDBRANCH  27  43
BRANCH  24  49
ATOM     49  C   UNK d   0     -44.493  17.223   3.400  0.00  0.00     0.052 C 
BRANCH  49  50
ATOM     50  C   UNK d   0     -44.765  18.480   4.186  0.00  0.00     0.115 C 
BRANCH  50  51
ATOM     51  C   UNK d   0     -43.843  18.801   5.266  0.00  0.00     0.139 C 
ATOM     52  O   UNK d   0     -43.232  19.895   5.332  0.00  0.00    -0.650 OA
BRANCH  51  53
ATOM     53  O   UNK d   0     -43.614  17.875   6.272  0.00  0.00    -0.776 OA
ATOM     54  H   UNK d   0     -44.404  17.530   6.789  0.00  0.00     0.167 HD
ENDBRANCH  51  53
ENDBRANCH  50  51
ENDBRANCH  49  50
ENDBRANCH  24  49
BRANCH  21  55
ATOM     55  C   UNK d   0     -41.587  16.254   2.995  0.00  0.00     0.151 C 
BRANCH  55  56
ATOM     56  C   UNK d   0     -40.960  17.052   4.059  0.00  0.00     0.143 C 
ATOM     57  O   UNK d   0     -40.285  18.074   3.827  0.00  0.00    -0.650 OA
BRANCH  56  58
ATOM     58  O   UNK d   0     -41.140  16.634   5.377  0.00  0.00    -0.776 OA
ATOM     59  H   UNK d   0     -41.974  16.041   5.536  0.00  0.00     0.167 HD
ENDBRANCH  56  58
ENDBRANCH  55  56
ENDBRANCH  21  55
BRANCH  18  60
ATOM     60  C   UNK d   0     -37.970  18.663  -0.155  0.00  0.00     0.151 C 
BRANCH  60  61
ATOM     61  C   UNK d   0     -38.291  19.652   0.885  0.00  0.00     0.143 C 
ATOM     62  O   UNK d   0     -38.580  20.838   0.717  0.00  0.00    -0.650 OA
BRANCH  61  63
ATOM     63  O   UNK d   0     -38.258  19.163   2.213  0.00  0.00    -0.776 OA
ATOM     64  H   UNK d   0     -37.679  19.596   2.910  0.00  0.00     0.167 HD
ENDBRANCH  61  63
ENDBRANCH  60  61
ENDBRANCH  18  60
BRANCH  14  65
ATOM     65  C   UNK d   0     -37.737  19.975  -2.882  0.00  0.00     0.052 C 
BRANCH  65  66
ATOM     66  C   UNK d   0     -36.981  19.066  -3.785  0.00  0.00     0.115 C 
BRANCH  66  67
ATOM     67  C   UNK d   0     -35.561  18.927  -3.629  0.00  0.00     0.139 C 
ATOM     68  O   UNK d   0     -34.837  19.990  -3.624  0.00  0.00    -0.650 OA
BRANCH  67  69
ATOM     69  O   UNK d   0     -34.831  17.749  -3.476  0.00  0.00    -0.776 OA
ATOM     70  H   UNK d   0     -34.902  17.293  -2.555  0.00  0.00     0.167 HD
ENDBRANCH  67  69
ENDBRANCH  66  67
ENDBRANCH  65  66
ENDBRANCH  14  65
ENDBRANCH   6   7
ENDBRANCH   5   6
ENDBRANCH   2   5
TORSDOF 28
ENDMDL
MODEL 20
REMARK VINA RESULT:      -6.3      2.006      8.808
REMARK  28 active torsions:
REMARK  status: ('A' for Active; 'I' for Inactive)
REMARK    1  A    between atoms: C_2  and  O_3 
REMARK    2  A    between atoms: C_2  and  C_4 
REMARK    3  A    between atoms: C_4  and  C_5 
REMARK    4  A    between atoms: C_5  and  C_6 
REMARK    5  A    between atoms: C_7  and  C_8 
REMARK    6  A    between atoms: C_8  and  C_9 
REMARK    7  A    between atoms: C_9  and  O_11 
REMARK    8  A    between atoms: C_28  and  C_29 
REMARK    9  A    between atoms: C_29  and  C_30 
REMARK   10  A    between atoms: C_30  and  O_32 
REMARK   11  A    between atoms: C_33  and  C_34 
REMARK   12  A    between atoms: C_34  and  C_35 
REMARK   13  A    between atoms: C_35  and  C_36 
REMARK   14  A    between atoms: C_36  and  O_38 
REMARK   15  A    between atoms: C_39  and  C_40 
REMARK   16  A    between atoms: C_40  and  C_41 
REMARK   17  A    between atoms: C_41  and  C_42 
REMARK   18  A    between atoms: C_42  and  O_44 
REMARK   19  A    between atoms: C_45  and  C_46 
REMARK   20  A    between atoms: C_46  and  C_47 
REMARK   21  A    between atoms: C_47  and  O_49 
REMARK   22  A    between atoms: C_50  and  C_51 
REMARK   23  A    between atoms: C_51  and  C_52 
REMARK   24  A    between atoms: C_52  and  O_54 
REMARK   25  A    between atoms: C_55  and  C_56 
REMARK   26  A    between atoms: C_56  and  C_57 
REMARK   27  A    between atoms: C_57  and  C_58 
REMARK   28  A    between atoms: C_58  and  O_60 
ROOT
ATOM      1  O   UNK d   0     -34.015  19.198   2.364  0.00  0.00    -0.650 OA
ATOM      2  C   UNK d   0     -34.562  18.491   1.490  0.00  0.00     0.139 C 
ENDROOT
BRANCH   2   3
ATOM      3  O   UNK d   0     -33.800  17.967   0.473  0.00  0.00    -0.776 OA
ATOM      4  H   UNK d   0     -32.780  17.943   0.537  0.00  0.00     0.167 HD
ENDBRANCH   2   3
BRANCH   2   5
ATOM      5  C   UNK d   0     -36.027  18.222   1.553  0.00  0.00     0.115 C 
BRANCH   5   6
ATOM      6  C   UNK d   0     -36.490  17.577   0.275  0.00  0.00     0.052 C 
BRANCH   6   7
ATOM      7  C   UNK d   0     -37.482  18.430  -0.480  0.00  0.00    -0.020 A 
ATOM      8  C   UNK d   0     -37.228  19.323  -1.402  0.00  0.00    -0.011 A 
ATOM      9  C   UNK d   0     -38.495  19.892  -1.831  0.00  0.00     0.067 A 
ATOM     10  C   UNK d   0     -38.908  20.848  -2.771  0.00  0.00     0.062 C 
ATOM     11  N   UNK d   0     -39.467  19.291  -1.113  0.00  0.00    -0.248 NA
ATOM     12  C   UNK d   0     -40.207  21.067  -3.242  0.00  0.00     0.041 A 
ATOM     13  N   UNK d   0     -41.389  21.110  -2.597  0.00  0.00    -0.355 N 
ATOM     14  C   UNK d   0     -40.413  21.225  -4.625  0.00  0.00    -0.022 A 
ATOM     15  C   UNK d   0     -42.338  21.284  -3.535  0.00  0.00     0.042 A 
ATOM     16  H   UNK d   0     -41.546  21.038  -1.498  0.00  0.00     0.166 HD
ATOM     17  C   UNK d   0     -43.737  21.398  -3.409  0.00  0.00     0.062 C 
ATOM     18  C   UNK d   0     -41.765  21.361  -4.819  0.00  0.00    -0.013 A 
ATOM     19  C   UNK d   0     -44.598  20.647  -2.650  0.00  0.00     0.067 A 
ATOM     20  N   UNK d   0     -44.052  19.820  -1.755  0.00  0.00    -0.248 NA
ATOM     21  C   UNK d   0     -46.040  20.484  -2.559  0.00  0.00    -0.011 A 
ATOM     22  C   UNK d   0     -45.032  19.128  -1.086  0.00  0.00     0.066 A 
ATOM     23  C   UNK d   0     -44.603  18.257  -0.095  0.00  0.00     0.062 C 
ATOM     24  C   UNK d   0     -46.287  19.591  -1.645  0.00  0.00    -0.020 A 
ATOM     25  C   UNK d   0     -43.294  18.061   0.372  0.00  0.00     0.041 A 
ATOM     26  N   UNK d   0     -42.122  18.003  -0.271  0.00  0.00    -0.355 N 
ATOM     27  C   UNK d   0     -43.089  17.906   1.760  0.00  0.00    -0.022 A 
ATOM     28  C   UNK d   0     -41.174  17.821   0.661  0.00  0.00     0.042 A 
ATOM     29  H   UNK d   0     -41.966  18.065  -1.377  0.00  0.00     0.166 HD
ATOM     30  C   UNK d   0     -39.780  17.697   0.549  0.00  0.00     0.062 C 
ATOM     31  C   UNK d   0     -41.750  17.754   1.952  0.00  0.00    -0.013 A 
ATOM     32  C   UNK d   0     -38.924  18.401  -0.282  0.00  0.00     0.066 A 
BRANCH   8  33
ATOM     33  C   UNK d   0     -35.902  19.704  -1.923  0.00  0.00     0.151 C 
BRANCH  33  34
ATOM     34  C   UNK d   0     -35.312  18.669  -2.792  0.00  0.00     0.143 C 
ATOM     35  O   UNK d   0     -34.279  18.072  -2.458  0.00  0.00    -0.650 OA
BRANCH  34  36
ATOM     36  O   UNK d   0     -35.918  18.366  -3.989  0.00  0.00    -0.776 OA
ATOM     37  H   UNK d   0     -35.427  17.826  -4.715  0.00  0.00     0.167 HD
ENDBRANCH  34  36
ENDBRANCH  33  34
ENDBRANCH   8  33
BRANCH  31  38
ATOM     38  C   UNK d   0     -41.055  17.570   3.281  0.00  0.00     0.151 C 
BRANCH  38  39
ATOM     39  C   UNK d   0     -40.873  16.178   3.632  0.00  0.00     0.143 C 
ATOM     40  O   UNK d   0     -39.879  15.774   4.260  0.00  0.00    -0.650 OA
BRANCH  39  41
ATOM     41  O   UNK d   0     -41.840  15.244   3.259  0.00  0.00    -0.776 OA
ATOM     42  H   UNK d   0     -41.597  14.609   2.492  0.00  0.00     0.167 HD
ENDBRANCH  39  41
ENDBRANCH  38  39
ENDBRANCH  31  38
BRANCH  27  43
ATOM     43  C   UNK d   0     -44.096  17.896   2.883  0.00  0.00     0.052 C 
BRANCH  43  44
ATOM     44  C   UNK d   0     -44.127  19.171   3.660  0.00  0.00     0.115 C 
BRANCH  44  45
ATOM     45  C   UNK d   0     -44.267  18.793   5.091  0.00  0.00     0.139 C 
ATOM     46  O   UNK d   0     -44.218  19.706   5.952  0.00  0.00    -0.650 OA
BRANCH  45  47
ATOM     47  O   UNK d   0     -44.453  17.492   5.505  0.00  0.00    -0.776 OA
ATOM     48  H   UNK d   0     -44.230  17.171   6.461  0.00  0.00     0.167 HD
ENDBRANCH  45  47
ENDBRANCH  44  45
ENDBRANCH  43  44
ENDBRANCH  27  43
BRANCH  24  49
ATOM     49  C   UNK d   0     -47.619  19.147  -1.201  0.00  0.00     0.052 C 
BRANCH  49  50
ATOM     50  C   UNK d   0     -47.825  17.692  -1.533  0.00  0.00     0.115 C 
BRANCH  50  51
ATOM     51  C   UNK d   0     -47.876  17.332  -2.943  0.00  0.00     0.139 C 
ATOM     52  O   UNK d   0     -48.944  17.317  -3.600  0.00  0.00    -0.650 OA
BRANCH  51  53
ATOM     53  O   UNK d   0     -46.708  16.987  -3.606  0.00  0.00    -0.776 OA
ATOM     54  H   UNK d   0     -45.899  16.758  -3.056  0.00  0.00     0.167 HD
ENDBRANCH  51  53
ENDBRANCH  50  51
ENDBRANCH  49  50
ENDBRANCH  24  49
BRANCH  21  55
ATOM     55  C   UNK d   0     -47.020  21.241  -3.392  0.00  0.00     0.151 C 
BRANCH  55  56
ATOM     56  C   UNK d   0     -47.278  20.579  -4.680  0.00  0.00     0.143 C 
ATOM     57  O   UNK d   0     -46.420  20.498  -5.581  0.00  0.00    -0.650 OA
BRANCH  56  58
ATOM     58  O   UNK d   0     -48.540  20.023  -4.883  0.00  0.00    -0.776 OA
ATOM     59  H   UNK d   0     -49.251  20.286  -4.178  0.00  0.00     0.167 HD
ENDBRANCH  56  58
ENDBRANCH  55  56
ENDBRANCH  21  55
BRANCH  18  60
ATOM     60  C   UNK d   0     -42.431  21.546  -6.160  0.00  0.00     0.151 C 
BRANCH  60  61
ATOM     61  C   UNK d   0     -42.295  22.975  -6.484  0.00  0.00     0.143 C 
ATOM     62  O   UNK d   0     -42.663  23.929  -5.799  0.00  0.00    -0.650 OA
BRANCH  61  63
ATOM     63  O   UNK d   0     -41.669  23.254  -7.722  0.00  0.00    -0.776 OA
ATOM     64  H   UNK d   0     -41.260  22.521  -8.274  0.00  0.00     0.167 HD
ENDBRANCH  61  63
ENDBRANCH  60  61
ENDBRANCH  18  60
BRANCH  14  65
ATOM     65  C   UNK d   0     -39.430  21.356  -5.754  0.00  0.00     0.052 C 
BRANCH  65  66
ATOM     66  C   UNK d   0     -39.324  20.123  -6.579  0.00  0.00     0.115 C 
BRANCH  66  67
ATOM     67  C   UNK d   0     -39.811  20.126  -7.929  0.00  0.00     0.139 C 
ATOM     68  O   UNK d   0     -40.319  19.043  -8.401  0.00  0.00    -0.650 OA
BRANCH  67  69
ATOM     69  O   UNK d   0     -39.808  21.187  -8.835  0.00  0.00    -0.776 OA
ATOM     70  H   UNK d   0     -40.619  21.821  -8.785  0.00  0.00     0.167 HD
ENDBRANCH  67  69
ENDBRANCH  66  67
ENDBRANCH  65  66
ENDBRANCH  14  65
ENDBRANCH   6   7
ENDBRANCH   5   6
ENDBRANCH   2   5
TORSDOF 28
ENDMDL
