MODEL 1
REMARK VINA RESULT:      -9.7      0.000      0.000
REMARK  16 active torsions:
REMARK  status: ('A' for Active; 'I' for Inactive)
REMARK    1  A    between atoms: C_6  and  C_7 
REMARK    2  A    between atoms: C_7  and  C_8 
REMARK    3  A    between atoms: C_8  and  C_9 
REMARK    4  A    between atoms: C_9  and  O_11 
REMARK    5  A    between atoms: C_16  and  C_17 
REMARK    6  A    between atoms: C_17  and  C_18 
REMARK    7  A    between atoms: C_18  and  C_19 
REMARK    8  A    between atoms: C_19  and  O_21 
REMARK    9  A    between atoms: C_28  and  C_29 
REMARK   10  A    between atoms: C_29  and  C_30 
REMARK   11  A    between atoms: C_30  and  C_31 
REMARK   12  A    between atoms: C_31  and  O_33 
REMARK   13  A    between atoms: C_42  and  C_43 
REMARK   14  A    between atoms: C_43  and  C_44 
REMARK   15  A    between atoms: C_44  and  C_45 
REMARK   16  A    between atoms: C_45  and  O_47 
ROOT
HETATM    1  C   UNK     0     -21.583  -6.257 -22.615  0.00  0.00     0.051 C 
HETATM    2  C   UNK     0     -21.901  -6.671 -24.037  0.00  0.00    -0.031 A 
HETATM    3  C   UNK     0     -21.381  -6.193 -25.230  0.00  0.00     0.021 A 
HETATM    4  N   UNK     0     -21.982  -6.834 -26.261  0.00  0.00    -0.361 N 
HETATM    5  C   UNK     0     -22.866  -7.716 -25.751  0.00  0.00     0.022 A 
HETATM    6  C   UNK     0     -22.843  -7.638 -24.363  0.00  0.00    -0.027 A 
HETATM    7  C   UNK     0     -23.713  -8.729 -26.455  0.00  0.00     0.115 C 
HETATM    8  C   UNK     0     -23.050  -9.513 -27.574  0.00  0.00     0.021 A 
HETATM    9  N   UNK     0     -21.781  -9.945 -27.654  0.00  0.00    -0.361 N 
HETATM   10  C   UNK     0     -21.609 -10.516 -28.865  0.00  0.00     0.022 A 
HETATM   11  C   UNK     0     -22.801 -10.459 -29.581  0.00  0.00    -0.027 A 
HETATM   12  C   UNK     0     -23.713  -9.829 -28.773  0.00  0.00    -0.031 A 
HETATM   13  C   UNK     0     -25.155  -9.549 -29.135  0.00  0.00     0.051 C 
HETATM   14  C   UNK     0     -20.305 -11.087 -29.415  0.00  0.00     0.115 C 
HETATM   15  C   UNK     0     -19.185 -10.066 -29.530  0.00  0.00     0.021 A 
HETATM   16  N   UNK     0     -18.649  -9.320 -28.545  0.00  0.00    -0.361 N 
HETATM   17  C   UNK     0     -17.739  -8.495 -29.066  0.00  0.00     0.022 A 
HETATM   18  C   UNK     0     -17.671  -8.720 -30.456  0.00  0.00    -0.027 A 
HETATM   19  C   UNK     0     -18.580  -9.707 -30.733  0.00  0.00    -0.031 A 
HETATM   20  C   UNK     0     -18.805 -10.283 -32.119  0.00  0.00     0.051 C 
HETATM   21  C   UNK     0     -16.913  -7.415 -28.404  0.00  0.00     0.115 C 
HETATM   22  C   UNK     0     -17.545  -6.657 -27.260  0.00  0.00     0.022 A 
HETATM   23  N   UNK     0     -18.806  -6.218 -27.151  0.00  0.00    -0.361 N 
HETATM   24  C   UNK     0     -18.976  -5.724 -25.909  0.00  0.00     0.021 A 
HETATM   25  C   UNK     0     -17.793  -5.837 -25.204  0.00  0.00    -0.031 A 
HETATM   26  C   UNK     0     -17.478  -5.387 -23.792  0.00  0.00     0.051 C 
HETATM   27  C   UNK     0     -16.862  -6.431 -26.048  0.00  0.00    -0.027 A 
HETATM   28  C   UNK     0     -20.258  -5.197 -25.286  0.00  0.00     0.115 C 
HETATM   29  H   UNK     0     -21.805  -6.630 -27.343  0.00  0.00     0.165 HD
HETATM   30  H   UNK     0     -21.019  -9.892 -26.839  0.00  0.00     0.165 HD
HETATM   31  H   UNK     0     -18.884  -9.410 -27.453  0.00  0.00     0.165 HD
HETATM   32  H   UNK     0     -19.576  -6.215 -27.966  0.00  0.00     0.165 HD
ENDROOT
BRANCH   6  33
HETATM   33  C   UNK     0     -23.640  -8.401 -23.335  0.00  0.00     0.051 C 
BRANCH  33  34
HETATM   34  C   UNK     0     -25.068  -8.583 -23.793  0.00  0.00     0.114 C 
BRANCH  34  35
HETATM   35  C   UNK     0     -25.939  -8.483 -22.587  0.00  0.00     0.139 C 
HETATM   36  O   UNK     0     -26.089  -9.481 -21.824  0.00  0.00    -0.650 OA
BRANCH  35  37
HETATM   37  O   UNK     0     -26.614  -7.317 -22.245  0.00  0.00    -0.776 OA
HETATM   38  H   UNK     0     -27.544  -7.331 -21.860  0.00  0.00     0.167 HD
ENDBRANCH  35  37
ENDBRANCH  34  35
ENDBRANCH  33  34
ENDBRANCH   6  33
BRANCH  27  39
HETATM   39  C   UNK     0     -15.443  -6.653 -25.660  0.00  0.00     0.051 C 
BRANCH  39  40
HETATM   40  C   UNK     0     -14.550  -5.495 -25.601  0.00  0.00     0.114 C 
BRANCH  40  41
HETATM   41  C   UNK     0     -13.687  -5.245 -24.468  0.00  0.00     0.139 C 
HETATM   42  O   UNK     0     -13.288  -4.117 -24.149  0.00  0.00    -0.650 OA
BRANCH  41  43
HETATM   43  O   UNK     0     -13.262  -6.343 -23.668  0.00  0.00    -0.776 OA
HETATM   44  H   UNK     0     -12.841  -7.104 -24.188  0.00  0.00     0.167 HD
ENDBRANCH  41  43
ENDBRANCH  40  41
ENDBRANCH  39  40
ENDBRANCH  27  39
BRANCH  11  45
HETATM   45  C   UNK     0     -23.094 -10.972 -30.965  0.00  0.00     0.051 C 
BRANCH  45  46
HETATM   46  C   UNK     0     -22.450 -10.189 -32.050  0.00  0.00     0.114 C 
BRANCH  46  47
HETATM   47  C   UNK     0     -23.266  -8.957 -32.251  0.00  0.00     0.139 C 
HETATM   48  O   UNK     0     -24.471  -9.082 -32.511  0.00  0.00    -0.650 OA
BRANCH  47  49
HETATM   49  O   UNK     0     -22.697  -7.713 -32.153  0.00  0.00    -0.776 OA
HETATM   50  H   UNK     0     -23.259  -6.854 -32.165  0.00  0.00     0.167 HD
ENDBRANCH  47  49
ENDBRANCH  46  47
ENDBRANCH  45  46
ENDBRANCH  11  45
BRANCH  18  51
HETATM   51  C   UNK     0     -16.773  -8.047 -31.461  0.00  0.00     0.051 C 
BRANCH  51  52
HETATM   52  C   UNK     0     -17.539  -6.836 -31.973  0.00  0.00     0.114 C 
BRANCH  52  53
HETATM   53  C   UNK     0     -17.838  -6.945 -33.414  0.00  0.00     0.139 C 
HETATM   54  O   UNK     0     -17.237  -7.777 -34.113  0.00  0.00    -0.650 OA
BRANCH  53  55
HETATM   55  O   UNK     0     -18.782  -6.120 -33.977  0.00  0.00    -0.776 OA
HETATM   56  H   UNK     0     -19.438  -6.376 -34.677  0.00  0.00     0.167 HD
ENDBRANCH  53  55
ENDBRANCH  52  53
ENDBRANCH  51  52
ENDBRANCH  18  51
TORSDOF 16
ENDMDL
MODEL 2
REMARK VINA RESULT:      -9.6     29.703     33.579
REMARK  16 active torsions:
REMARK  status: ('A' for Active; 'I' for Inactive)
REMARK    1  A    between atoms: C_6  and  C_7 
REMARK    2  A    between atoms: C_7  and  C_8 
REMARK    3  A    between atoms: C_8  and  C_9 
REMARK    4  A    between atoms: C_9  and  O_11 
REMARK    5  A    between atoms: C_16  and  C_17 
REMARK    6  A    between atoms: C_17  and  C_18 
REMARK    7  A    between atoms: C_18  and  C_19 
REMARK    8  A    between atoms: C_19  and  O_21 
REMARK    9  A    between atoms: C_28  and  C_29 
REMARK   10  A    between atoms: C_29  and  C_30 
REMARK   11  A    between atoms: C_30  and  C_31 
REMARK   12  A    between atoms: C_31  and  O_33 
REMARK   13  A    between atoms: C_42  and  C_43 
REMARK   14  A    between atoms: C_43  and  C_44 
REMARK   15  A    between atoms: C_44  and  C_45 
REMARK   16  A    between atoms: C_45  and  O_47 
ROOT
HETATM    1  C   UNK     0      -1.696 -18.429  -2.391  0.00  0.00     0.051 C 
HETATM    2  C   UNK     0      -2.269 -19.724  -2.931  0.00  0.00    -0.031 A 
HETATM    3  C   UNK     0      -2.379 -20.961  -2.315  0.00  0.00     0.021 A 
HETATM    4  N   UNK     0      -2.927 -21.841  -3.186  0.00  0.00    -0.361 N 
HETATM    5  C   UNK     0      -3.177 -21.189  -4.341  0.00  0.00     0.022 A 
HETATM    6  C   UNK     0      -2.775 -19.864  -4.216  0.00  0.00    -0.027 A 
HETATM    7  C   UNK     0      -3.859 -21.677  -5.581  0.00  0.00     0.115 C 
HETATM    8  C   UNK     0      -5.105 -22.523  -5.386  0.00  0.00     0.021 A 
HETATM    9  N   UNK     0      -6.051 -22.412  -4.441  0.00  0.00    -0.361 N 
HETATM   10  C   UNK     0      -6.922 -23.433  -4.597  0.00  0.00     0.022 A 
HETATM   11  C   UNK     0      -6.530 -24.216  -5.679  0.00  0.00    -0.027 A 
HETATM   12  C   UNK     0      -5.386 -23.649  -6.180  0.00  0.00    -0.031 A 
HETATM   13  C   UNK     0      -4.605 -24.162  -7.369  0.00  0.00     0.051 C 
HETATM   14  C   UNK     0      -8.122 -23.739  -3.706  0.00  0.00     0.115 C 
HETATM   15  C   UNK     0      -7.755 -24.027  -2.259  0.00  0.00     0.021 A 
HETATM   16  N   UNK     0      -7.100 -23.223  -1.401  0.00  0.00    -0.361 N 
HETATM   17  C   UNK     0      -6.913 -23.869  -0.249  0.00  0.00     0.022 A 
HETATM   18  C   UNK     0      -7.483 -25.153  -0.357  0.00  0.00    -0.027 A 
HETATM   19  C   UNK     0      -8.009 -25.239  -1.620  0.00  0.00    -0.031 A 
HETATM   20  C   UNK     0      -8.753 -26.454  -2.143  0.00  0.00     0.051 C 
HETATM   21  C   UNK     0      -6.175 -23.439   0.999  0.00  0.00     0.115 C 
HETATM   22  C   UNK     0      -4.959 -22.560   0.822  0.00  0.00     0.022 A 
HETATM   23  N   UNK     0      -4.003 -22.645  -0.112  0.00  0.00    -0.361 N 
HETATM   24  C   UNK     0      -3.192 -21.575   0.015  0.00  0.00     0.021 A 
HETATM   25  C   UNK     0      -3.630 -20.788   1.062  0.00  0.00    -0.031 A 
HETATM   26  C   UNK     0      -3.028 -19.513   1.613  0.00  0.00     0.051 C 
HETATM   27  C   UNK     0      -4.760 -21.398   1.595  0.00  0.00    -0.027 A 
HETATM   28  C   UNK     0      -2.022 -21.186  -0.873  0.00  0.00     0.115 C 
HETATM   29  H   UNK     0      -3.098 -22.925  -2.993  0.00  0.00     0.165 HD
HETATM   30  H   UNK     0      -6.136 -21.587  -3.693  0.00  0.00     0.165 HD
HETATM   31  H   UNK     0      -6.804 -22.159  -1.596  0.00  0.00     0.165 HD
HETATM   32  H   UNK     0      -3.866 -23.484  -0.842  0.00  0.00     0.165 HD
ENDROOT
BRANCH   6  33
HETATM   33  C   UNK     0      -2.832 -18.735  -5.214  0.00  0.00     0.051 C 
BRANCH  33  34
HETATM   34  C   UNK     0      -1.705 -18.847  -6.213  0.00  0.00     0.114 C 
BRANCH  34  35
HETATM   35  C   UNK     0      -1.014 -17.526  -6.257  0.00  0.00     0.139 C 
HETATM   36  O   UNK     0      -1.128 -16.715  -5.292  0.00  0.00    -0.650 OA
BRANCH  35  37
HETATM   37  O   UNK     0      -0.228 -17.127  -7.331  0.00  0.00    -0.776 OA
HETATM   38  H   UNK     0      -0.237 -17.616  -8.211  0.00  0.00     0.167 HD
ENDBRANCH  35  37
ENDBRANCH  34  35
ENDBRANCH  33  34
ENDBRANCH   6  33
BRANCH  27  39
HETATM   39  C   UNK     0      -5.475 -20.876   2.791  0.00  0.00     0.051 C 
BRANCH  39  40
HETATM   40  C   UNK     0      -6.658 -20.041   2.583  0.00  0.00     0.114 C 
BRANCH  40  41
HETATM   41  C   UNK     0      -6.580 -18.599   2.517  0.00  0.00     0.139 C 
HETATM   42  O   UNK     0      -5.748 -17.930   3.144  0.00  0.00    -0.650 OA
BRANCH  41  43
HETATM   43  O   UNK     0      -7.503 -17.894   1.693  0.00  0.00    -0.776 OA
HETATM   44  H   UNK     0      -7.232 -17.832   0.719  0.00  0.00     0.167 HD
ENDBRANCH  41  43
ENDBRANCH  40  41
ENDBRANCH  39  40
ENDBRANCH  27  39
BRANCH  11  45
HETATM   45  C   UNK     0      -7.190 -25.449  -6.236  0.00  0.00     0.051 C 
BRANCH  45  46
HETATM   46  C   UNK     0      -8.336 -25.168  -7.138  0.00  0.00     0.114 C 
BRANCH  46  47
HETATM   47  C   UNK     0      -8.128 -25.968  -8.379  0.00  0.00     0.139 C 
HETATM   48  O   UNK     0      -7.352 -25.533  -9.241  0.00  0.00    -0.650 OA
BRANCH  47  49
HETATM   49  O   UNK     0      -8.781 -27.161  -8.564  0.00  0.00    -0.776 OA
HETATM   50  H   UNK     0      -8.644 -27.961  -7.935  0.00  0.00     0.167 HD
ENDBRANCH  47  49
ENDBRANCH  46  47
ENDBRANCH  45  46
ENDBRANCH  11  45
BRANCH  18  51
HETATM   51  C   UNK     0      -7.542 -26.232   0.694  0.00  0.00     0.051 C 
BRANCH  51  52
HETATM   52  C   UNK     0      -6.756 -27.411   0.139  0.00  0.00     0.114 C 
BRANCH  52  53
HETATM   53  C   UNK     0      -5.385 -27.461   0.682  0.00  0.00     0.139 C 
HETATM   54  O   UNK     0      -4.916 -26.478   1.278  0.00  0.00    -0.650 OA
BRANCH  53  55
HETATM   55  O   UNK     0      -4.632 -28.598   0.522  0.00  0.00    -0.776 OA
HETATM   56  H   UNK     0      -4.972 -29.531   0.535  0.00  0.00     0.167 HD
ENDBRANCH  53  55
ENDBRANCH  52  53
ENDBRANCH  51  52
ENDBRANCH  18  51
TORSDOF 16
ENDMDL
MODEL 3
REMARK VINA RESULT:      -9.5     29.802     33.057
REMARK  16 active torsions:
REMARK  status: ('A' for Active; 'I' for Inactive)
REMARK    1  A    between atoms: C_6  and  C_7 
REMARK    2  A    between atoms: C_7  and  C_8 
REMARK    3  A    between atoms: C_8  and  C_9 
REMARK    4  A    between atoms: C_9  and  O_11 
REMARK    5  A    between atoms: C_16  and  C_17 
REMARK    6  A    between atoms: C_17  and  C_18 
REMARK    7  A    between atoms: C_18  and  C_19 
REMARK    8  A    between atoms: C_19  and  O_21 
REMARK    9  A    between atoms: C_28  and  C_29 
REMARK   10  A    between atoms: C_29  and  C_30 
REMARK   11  A    between atoms: C_30  and  C_31 
REMARK   12  A    between atoms: C_31  and  O_33 
REMARK   13  A    between atoms: C_42  and  C_43 
REMARK   14  A    between atoms: C_43  and  C_44 
REMARK   15  A    between atoms: C_44  and  C_45 
REMARK   16  A    between atoms: C_45  and  O_47 
ROOT
HETATM    1  C   UNK     0      -5.934 -20.857   2.871  0.00  0.00     0.051 C 
HETATM    2  C   UNK     0      -5.342 -21.531   1.650  0.00  0.00    -0.031 A 
HETATM    3  C   UNK     0      -5.583 -22.798   1.141  0.00  0.00     0.021 A 
HETATM    4  N   UNK     0      -4.806 -22.990   0.049  0.00  0.00    -0.361 N 
HETATM    5  C   UNK     0      -4.081 -21.870  -0.154  0.00  0.00     0.022 A 
HETATM    6  C   UNK     0      -4.389 -20.939   0.831  0.00  0.00    -0.027 A 
HETATM    7  C   UNK     0      -3.145 -21.533  -1.272  0.00  0.00     0.115 C 
HETATM    8  C   UNK     0      -3.590 -21.914  -2.673  0.00  0.00     0.021 A 
HETATM    9  N   UNK     0      -4.829 -21.904  -3.189  0.00  0.00    -0.361 N 
HETATM   10  C   UNK     0      -4.767 -22.408  -4.439  0.00  0.00     0.022 A 
HETATM   11  C   UNK     0      -3.450 -22.745  -4.740  0.00  0.00    -0.027 A 
HETATM   12  C   UNK     0      -2.703 -22.435  -3.632  0.00  0.00    -0.031 A 
HETATM   13  C   UNK     0      -1.209 -22.627  -3.504  0.00  0.00     0.051 C 
HETATM   14  C   UNK     0      -5.948 -22.643  -5.376  0.00  0.00     0.115 C 
HETATM   15  C   UNK     0      -6.981 -23.618  -4.833  0.00  0.00     0.021 A 
HETATM   16  N   UNK     0      -7.681 -23.519  -3.687  0.00  0.00    -0.361 N 
HETATM   17  C   UNK     0      -8.432 -24.612  -3.537  0.00  0.00     0.022 A 
HETATM   18  C   UNK     0      -8.217 -25.460  -4.641  0.00  0.00    -0.027 A 
HETATM   19  C   UNK     0      -7.308 -24.825  -5.446  0.00  0.00    -0.031 A 
HETATM   20  C   UNK     0      -6.821 -25.381  -6.772  0.00  0.00     0.051 C 
HETATM   21  C   UNK     0      -9.336 -25.020  -2.396  0.00  0.00     0.115 C 
HETATM   22  C   UNK     0      -8.928 -24.609  -1.001  0.00  0.00     0.022 A 
HETATM   23  N   UNK     0      -7.702 -24.605  -0.462  0.00  0.00    -0.361 N 
HETATM   24  C   UNK     0      -7.775 -24.027   0.754  0.00  0.00     0.021 A 
HETATM   25  C   UNK     0      -9.083 -23.658   1.008  0.00  0.00    -0.031 A 
HETATM   26  C   UNK     0      -9.667 -23.015   2.248  0.00  0.00     0.051 C 
HETATM   27  C   UNK     0      -9.839 -24.021  -0.100  0.00  0.00    -0.027 A 
HETATM   28  C   UNK     0      -6.633 -23.713   1.704  0.00  0.00     0.115 C 
HETATM   29  H   UNK     0      -4.746 -23.929  -0.548  0.00  0.00     0.165 HD
HETATM   30  H   UNK     0      -5.742 -21.494  -2.691  0.00  0.00     0.165 HD
HETATM   31  H   UNK     0      -7.682 -22.638  -2.994  0.00  0.00     0.165 HD
HETATM   32  H   UNK     0      -6.780 -25.051  -0.917  0.00  0.00     0.165 HD
ENDROOT
BRANCH   6  33
HETATM   33  C   UNK     0      -3.853 -19.547   1.052  0.00  0.00     0.051 C 
BRANCH  33  34
HETATM   34  C   UNK     0      -4.738 -18.520   0.386  0.00  0.00     0.114 C 
BRANCH  34  35
HETATM   35  C   UNK     0      -4.447 -17.202   1.019  0.00  0.00     0.139 C 
HETATM   36  O   UNK     0      -3.783 -17.144   2.095  0.00  0.00    -0.650 OA
BRANCH  35  37
HETATM   37  O   UNK     0      -4.877 -15.998   0.475  0.00  0.00    -0.776 OA
HETATM   38  H   UNK     0      -5.298 -15.277   1.037  0.00  0.00     0.167 HD
ENDBRANCH  35  37
ENDBRANCH  34  35
ENDBRANCH  33  34
ENDBRANCH   6  33
BRANCH  27  39
HETATM   39  C   UNK     0     -11.316 -23.846  -0.166  0.00  0.00     0.051 C 
BRANCH  39  40
HETATM   40  C   UNK     0     -11.857 -22.853  -1.094  0.00  0.00     0.114 C 
BRANCH  40  41
HETATM   41  C   UNK     0     -12.097 -23.152  -2.488  0.00  0.00     0.139 C 
HETATM   42  O   UNK     0     -11.650 -22.470  -3.420  0.00  0.00    -0.650 OA
BRANCH  41  43
HETATM   43  O   UNK     0     -12.890 -24.285  -2.825  0.00  0.00    -0.776 OA
HETATM   44  H   UNK     0     -12.472 -24.898  -3.514  0.00  0.00     0.167 HD
ENDBRANCH  41  43
ENDBRANCH  40  41
ENDBRANCH  39  40
ENDBRANCH  27  39
BRANCH  11  45
HETATM   45  C   UNK     0      -2.895 -23.330  -6.011  0.00  0.00     0.051 C 
BRANCH  45  46
HETATM   46  C   UNK     0      -2.728 -22.345  -7.110  0.00  0.00     0.114 C 
BRANCH  46  47
HETATM   47  C   UNK     0      -3.470 -22.871  -8.291  0.00  0.00     0.139 C 
HETATM   48  O   UNK     0      -4.085 -23.940  -8.176  0.00  0.00    -0.650 OA
BRANCH  47  49
HETATM   49  O   UNK     0      -3.472 -22.188  -9.481  0.00  0.00    -0.776 OA
HETATM   50  H   UNK     0      -3.042 -22.573 -10.331  0.00  0.00     0.167 HD
ENDBRANCH  47  49
ENDBRANCH  46  47
ENDBRANCH  45  46
ENDBRANCH  11  45
BRANCH  18  51
HETATM   51  C   UNK     0      -8.861 -26.793  -4.925  0.00  0.00     0.051 C 
BRANCH  51  52
HETATM   52  C   UNK     0      -9.957 -26.528  -5.946  0.00  0.00     0.114 C 
BRANCH  52  53
HETATM   53  C   UNK     0     -11.173 -25.976  -5.316  0.00  0.00     0.139 C 
HETATM   54  O   UNK     0     -11.865 -26.688  -4.572  0.00  0.00    -0.650 OA
BRANCH  53  55
HETATM   55  O   UNK     0     -11.533 -24.673  -5.561  0.00  0.00    -0.776 OA
HETATM   56  H   UNK     0     -12.434 -24.280  -5.422  0.00  0.00     0.167 HD
ENDBRANCH  53  55
ENDBRANCH  52  53
ENDBRANCH  51  52
ENDBRANCH  18  51
TORSDOF 16
ENDMDL
MODEL 4
REMARK VINA RESULT:      -9.4     32.161     34.282
REMARK  16 active torsions:
REMARK  status: ('A' for Active; 'I' for Inactive)
REMARK    1  A    between atoms: C_6  and  C_7 
REMARK    2  A    between atoms: C_7  and  C_8 
REMARK    3  A    between atoms: C_8  and  C_9 
REMARK    4  A    between atoms: C_9  and  O_11 
REMARK    5  A    between atoms: C_16  and  C_17 
REMARK    6  A    between atoms: C_17  and  C_18 
REMARK    7  A    between atoms: C_18  and  C_19 
REMARK    8  A    between atoms: C_19  and  O_21 
REMARK    9  A    between atoms: C_28  and  C_29 
REMARK   10  A    between atoms: C_29  and  C_30 
REMARK   11  A    between atoms: C_30  and  C_31 
REMARK   12  A    between atoms: C_31  and  O_33 
REMARK   13  A    between atoms: C_42  and  C_43 
REMARK   14  A    between atoms: C_43  and  C_44 
REMARK   15  A    between atoms: C_44  and  C_45 
REMARK   16  A    between atoms: C_45  and  O_47 
ROOT
HETATM    1  C   UNK     0     -14.851 -19.186   2.481  0.00  0.00     0.051 C 
HETATM    2  C   UNK     0     -13.657 -19.843   1.819  0.00  0.00    -0.031 A 
HETATM    3  C   UNK     0     -12.517 -19.263   1.286  0.00  0.00     0.021 A 
HETATM    4  N   UNK     0     -11.729 -20.234   0.767  0.00  0.00    -0.361 N 
HETATM    5  C   UNK     0     -12.338 -21.421   0.965  0.00  0.00     0.022 A 
HETATM    6  C   UNK     0     -13.548 -21.213   1.618  0.00  0.00    -0.027 A 
HETATM    7  C   UNK     0     -11.849 -22.804   0.667  0.00  0.00     0.115 C 
HETATM    8  C   UNK     0     -10.398 -23.101   1.003  0.00  0.00     0.021 A 
HETATM    9  N   UNK     0      -9.668 -22.645   2.032  0.00  0.00    -0.361 N 
HETATM   10  C   UNK     0      -8.404 -23.095   1.882  0.00  0.00     0.022 A 
HETATM   11  C   UNK     0      -8.320 -23.869   0.728  0.00  0.00    -0.027 A 
HETATM   12  C   UNK     0      -9.572 -23.877   0.170  0.00  0.00    -0.031 A 
HETATM   13  C   UNK     0      -9.958 -24.601  -1.101  0.00  0.00     0.051 C 
HETATM   14  C   UNK     0      -7.218 -22.770   2.785  0.00  0.00     0.115 C 
HETATM   15  C   UNK     0      -6.882 -21.289   2.852  0.00  0.00     0.021 A 
HETATM   16  N   UNK     0      -7.684 -20.281   3.245  0.00  0.00    -0.361 N 
HETATM   17  C   UNK     0      -7.039 -19.123   3.091  0.00  0.00     0.022 A 
HETATM   18  C   UNK     0      -5.752 -19.388   2.583  0.00  0.00    -0.027 A 
HETATM   19  C   UNK     0      -5.666 -20.749   2.439  0.00  0.00    -0.031 A 
HETATM   20  C   UNK     0      -4.422 -21.468   1.949  0.00  0.00     0.051 C 
HETATM   21  C   UNK     0      -7.518 -17.707   3.317  0.00  0.00     0.115 C 
HETATM   22  C   UNK     0      -8.971 -17.407   3.029  0.00  0.00     0.022 A 
HETATM   23  N   UNK     0      -9.724 -17.850   2.014  0.00  0.00    -0.361 N 
HETATM   24  C   UNK     0     -10.995 -17.455   2.226  0.00  0.00     0.021 A 
HETATM   25  C   UNK     0     -11.061 -16.731   3.401  0.00  0.00    -0.031 A 
HETATM   26  C   UNK     0     -12.255 -16.050   4.036  0.00  0.00     0.051 C 
HETATM   27  C   UNK     0      -9.777 -16.687   3.933  0.00  0.00    -0.027 A 
HETATM   28  C   UNK     0     -12.224 -17.793   1.399  0.00  0.00     0.115 C 
HETATM   29  H   UNK     0     -10.766 -20.070   0.229  0.00  0.00     0.165 HD
HETATM   30  H   UNK     0     -10.053 -22.047   2.894  0.00  0.00     0.165 HD
HETATM   31  H   UNK     0      -8.709 -20.393   3.684  0.00  0.00     0.165 HD
HETATM   32  H   UNK     0      -9.356 -18.410   1.115  0.00  0.00     0.165 HD
ENDROOT
BRANCH   6  33
HETATM   33  C   UNK     0     -14.597 -22.203   2.058  0.00  0.00     0.051 C 
BRANCH  33  34
HETATM   34  C   UNK     0     -15.462 -22.619   0.892  0.00  0.00     0.114 C 
BRANCH  34  35
HETATM   35  C   UNK     0     -15.291 -24.089   0.711  0.00  0.00     0.139 C 
HETATM   36  O   UNK     0     -14.615 -24.537  -0.260  0.00  0.00    -0.650 OA
BRANCH  35  37
HETATM   37  O   UNK     0     -15.849 -25.021   1.578  0.00  0.00    -0.776 OA
HETATM   38  H   UNK     0     -15.835 -24.896   2.577  0.00  0.00     0.167 HD
ENDBRANCH  35  37
ENDBRANCH  34  35
ENDBRANCH  33  34
ENDBRANCH   6  33
BRANCH  27  39
HETATM   39  C   UNK     0      -9.437 -15.929   5.168  0.00  0.00     0.051 C 
BRANCH  39  40
HETATM   40  C   UNK     0      -8.784 -14.628   5.026  0.00  0.00     0.114 C 
BRANCH  40  41
HETATM   41  C   UNK     0      -7.352 -14.468   5.145  0.00  0.00     0.139 C 
HETATM   42  O   UNK     0      -6.595 -15.362   5.547  0.00  0.00    -0.650 OA
BRANCH  41  43
HETATM   43  O   UNK     0      -6.763 -13.223   4.784  0.00  0.00    -0.776 OA
HETATM   44  H   UNK     0      -7.419 -12.535   4.434  0.00  0.00     0.167 HD
ENDBRANCH  41  43
ENDBRANCH  40  41
ENDBRANCH  39  40
ENDBRANCH  27  39
BRANCH  11  45
HETATM   45  C   UNK     0      -7.123 -24.583   0.158  0.00  0.00     0.051 C 
BRANCH  45  46
HETATM   46  C   UNK     0      -6.666 -25.741   0.967  0.00  0.00     0.114 C 
BRANCH  46  47
HETATM   47  C   UNK     0      -6.917 -26.970   0.160  0.00  0.00     0.139 C 
HETATM   48  O   UNK     0      -5.947 -27.654  -0.194  0.00  0.00    -0.650 OA
BRANCH  47  49
HETATM   49  O   UNK     0      -8.193 -27.336  -0.185  0.00  0.00    -0.776 OA
HETATM   50  H   UNK     0      -9.018 -26.831   0.162  0.00  0.00     0.167 HD
ENDBRANCH  47  49
ENDBRANCH  46  47
ENDBRANCH  45  46
ENDBRANCH  11  45
BRANCH  18  51
HETATM   51  C   UNK     0      -4.657 -18.401   2.272  0.00  0.00     0.051 C 
BRANCH  51  52
HETATM   52  C   UNK     0      -4.622 -18.267   0.757  0.00  0.00     0.114 C 
BRANCH  52  53
HETATM   53  C   UNK     0      -5.406 -17.107   0.291  0.00  0.00     0.139 C 
HETATM   54  O   UNK     0      -6.545 -17.273  -0.175  0.00  0.00    -0.650 OA
BRANCH  53  55
HETATM   55  O   UNK     0      -4.868 -15.845   0.372  0.00  0.00    -0.776 OA
HETATM   56  H   UNK     0      -4.001 -15.555  -0.013  0.00  0.00     0.167 HD
ENDBRANCH  53  55
ENDBRANCH  52  53
ENDBRANCH  51  52
ENDBRANCH  18  51
TORSDOF 16
ENDMDL
MODEL 5
REMARK VINA RESULT:      -9.1     31.795     34.296
REMARK  16 active torsions:
REMARK  status: ('A' for Active; 'I' for Inactive)
REMARK    1  A    between atoms: C_6  and  C_7 
REMARK    2  A    between atoms: C_7  and  C_8 
REMARK    3  A    between atoms: C_8  and  C_9 
REMARK    4  A    between atoms: C_9  and  O_11 
REMARK    5  A    between atoms: C_16  and  C_17 
REMARK    6  A    between atoms: C_17  and  C_18 
REMARK    7  A    between atoms: C_18  and  C_19 
REMARK    8  A    between atoms: C_19  and  O_21 
REMARK    9  A    between atoms: C_28  and  C_29 
REMARK   10  A    between atoms: C_29  and  C_30 
REMARK   11  A    between atoms: C_30  and  C_31 
REMARK   12  A    between atoms: C_31  and  O_33 
REMARK   13  A    between atoms: C_42  and  C_43 
REMARK   14  A    between atoms: C_43  and  C_44 
REMARK   15  A    between atoms: C_44  and  C_45 
REMARK   16  A    between atoms: C_45  and  O_47 
ROOT
HETATM    1  C   UNK     0      -7.039 -24.447   0.101  0.00  0.00     0.051 C 
HETATM    2  C   UNK     0      -8.239 -23.813   0.775  0.00  0.00    -0.031 A 
HETATM    3  C   UNK     0      -8.311 -23.120   1.972  0.00  0.00     0.021 A 
HETATM    4  N   UNK     0      -9.597 -22.760   2.197  0.00  0.00    -0.361 N 
HETATM    5  C   UNK     0     -10.345 -23.201   1.165  0.00  0.00     0.022 A 
HETATM    6  C   UNK     0      -9.527 -23.867   0.258  0.00  0.00    -0.027 A 
HETATM    7  C   UNK     0     -11.799 -22.987   0.882  0.00  0.00     0.115 C 
HETATM    8  C   UNK     0     -12.343 -21.590   1.129  0.00  0.00     0.021 A 
HETATM    9  N   UNK     0     -11.733 -20.410   0.941  0.00  0.00    -0.361 N 
HETATM   10  C   UNK     0     -12.558 -19.436   1.380  0.00  0.00     0.022 A 
HETATM   11  C   UNK     0     -13.736 -20.005   1.856  0.00  0.00    -0.027 A 
HETATM   12  C   UNK     0     -13.607 -21.361   1.701  0.00  0.00    -0.031 A 
HETATM   13  C   UNK     0     -14.651 -22.388   2.080  0.00  0.00     0.051 C 
HETATM   14  C   UNK     0     -12.250 -17.942   1.418  0.00  0.00     0.115 C 
HETATM   15  C   UNK     0     -11.057 -17.582   2.288  0.00  0.00     0.021 A 
HETATM   16  N   UNK     0      -9.790 -18.020   2.168  0.00  0.00    -0.361 N 
HETATM   17  C   UNK     0      -9.058 -17.525   3.169  0.00  0.00     0.022 A 
HETATM   18  C   UNK     0      -9.886 -16.719   3.975  0.00  0.00    -0.027 A 
HETATM   19  C   UNK     0     -11.135 -16.761   3.412  0.00  0.00    -0.031 A 
HETATM   20  C   UNK     0     -12.329 -15.994   3.949  0.00  0.00     0.051 C 
HETATM   21  C   UNK     0      -7.609 -17.769   3.526  0.00  0.00     0.115 C 
HETATM   22  C   UNK     0      -7.043 -19.141   3.245  0.00  0.00     0.022 A 
HETATM   23  N   UNK     0      -7.629 -20.333   3.419  0.00  0.00    -0.361 N 
HETATM   24  C   UNK     0      -6.821 -21.282   2.903  0.00  0.00     0.021 A 
HETATM   25  C   UNK     0      -5.683 -20.687   2.394  0.00  0.00    -0.031 A 
HETATM   26  C   UNK     0      -4.474 -21.337   1.753  0.00  0.00     0.051 C 
HETATM   27  C   UNK     0      -5.801 -19.318   2.601  0.00  0.00    -0.027 A 
HETATM   28  C   UNK     0      -7.095 -22.771   2.783  0.00  0.00     0.115 C 
HETATM   29  H   UNK     0      -9.974 -22.231   3.103  0.00  0.00     0.165 HD
HETATM   30  H   UNK     0     -10.740 -20.257   0.451  0.00  0.00     0.165 HD
HETATM   31  H   UNK     0      -9.392 -18.653   1.333  0.00  0.00     0.165 HD
HETATM   32  H   UNK     0      -8.600 -20.520   3.948  0.00  0.00     0.165 HD
ENDROOT
BRANCH   6  33
HETATM   33  C   UNK     0      -9.873 -24.544  -1.044  0.00  0.00     0.051 C 
BRANCH  33  34
HETATM   34  C   UNK     0     -10.063 -26.029  -0.841  0.00  0.00     0.114 C 
BRANCH  34  35
HETATM   35  C   UNK     0      -9.529 -26.717  -2.052  0.00  0.00     0.139 C 
HETATM   36  O   UNK     0      -8.343 -26.500  -2.437  0.00  0.00    -0.650 OA
BRANCH  35  37
HETATM   37  O   UNK     0     -10.285 -27.611  -2.800  0.00  0.00    -0.776 OA
HETATM   38  H   UNK     0     -10.085 -27.800  -3.769  0.00  0.00     0.167 HD
ENDBRANCH  35  37
ENDBRANCH  34  35
ENDBRANCH  33  34
ENDBRANCH   6  33
BRANCH  27  39
HETATM   39  C   UNK     0      -4.730 -18.348   2.245  0.00  0.00     0.051 C 
BRANCH  39  40
HETATM   40  C   UNK     0      -4.589 -17.952   0.844  0.00  0.00     0.114 C 
BRANCH  40  41
HETATM   41  C   UNK     0      -5.348 -16.863   0.272  0.00  0.00     0.139 C 
HETATM   42  O   UNK     0      -5.090 -15.669   0.475  0.00  0.00    -0.650 OA
BRANCH  41  43
HETATM   43  O   UNK     0      -6.455 -17.161  -0.573  0.00  0.00    -0.776 OA
HETATM   44  H   UNK     0      -6.553 -16.542  -1.369  0.00  0.00     0.167 HD
ENDBRANCH  41  43
ENDBRANCH  40  41
ENDBRANCH  39  40
ENDBRANCH  27  39
BRANCH  11  45
HETATM   45  C   UNK     0     -14.945 -19.320   2.434  0.00  0.00     0.051 C 
BRANCH  45  46
HETATM   46  C   UNK     0     -16.017 -19.044   1.443  0.00  0.00     0.114 C 
BRANCH  46  47
HETATM   47  C   UNK     0     -17.306 -19.473   2.056  0.00  0.00     0.139 C 
HETATM   48  O   UNK     0     -18.003 -20.300   1.452  0.00  0.00    -0.650 OA
BRANCH  47  49
HETATM   49  O   UNK     0     -17.715 -18.963   3.263  0.00  0.00    -0.776 OA
HETATM   50  H   UNK     0     -17.869 -19.561   4.083  0.00  0.00     0.167 HD
ENDBRANCH  47  49
ENDBRANCH  46  47
ENDBRANCH  45  46
ENDBRANCH  11  45
BRANCH  18  51
HETATM   51  C   UNK     0      -9.502 -15.933   5.202  0.00  0.00     0.051 C 
BRANCH  51  52
HETATM   52  C   UNK     0      -8.894 -14.631   4.702  0.00  0.00     0.114 C 
BRANCH  52  53
HETATM   53  C   UNK     0      -7.474 -14.505   5.084  0.00  0.00     0.139 C 
HETATM   54  O   UNK     0      -6.938 -15.383   5.779  0.00  0.00    -0.650 OA
BRANCH  53  55
HETATM   55  O   UNK     0      -6.753 -13.412   4.670  0.00  0.00    -0.776 OA
HETATM   56  H   UNK     0      -5.879 -13.116   5.036  0.00  0.00     0.167 HD
ENDBRANCH  53  55
ENDBRANCH  52  53
ENDBRANCH  51  52
ENDBRANCH  18  51
TORSDOF 16
ENDMDL
MODEL 6
REMARK VINA RESULT:      -9.0      2.706      8.796
REMARK  16 active torsions:
REMARK  status: ('A' for Active; 'I' for Inactive)
REMARK    1  A    between atoms: C_6  and  C_7 
REMARK    2  A    between atoms: C_7  and  C_8 
REMARK    3  A    between atoms: C_8  and  C_9 
REMARK    4  A    between atoms: C_9  and  O_11 
REMARK    5  A    between atoms: C_16  and  C_17 
REMARK    6  A    between atoms: C_17  and  C_18 
REMARK    7  A    between atoms: C_18  and  C_19 
REMARK    8  A    between atoms: C_19  and  O_21 
REMARK    9  A    between atoms: C_28  and  C_29 
REMARK   10  A    between atoms: C_29  and  C_30 
REMARK   11  A    between atoms: C_30  and  C_31 
REMARK   12  A    between atoms: C_31  and  O_33 
REMARK   13  A    between atoms: C_42  and  C_43 
REMARK   14  A    between atoms: C_43  and  C_44 
REMARK   15  A    between atoms: C_44  and  C_45 
REMARK   16  A    between atoms: C_45  and  O_47 
ROOT
HETATM    1  C   UNK     0     -17.115  -6.708 -30.609  0.00  0.00     0.051 C 
HETATM    2  C   UNK     0     -18.089  -6.284 -29.529  0.00  0.00    -0.031 A 
HETATM    3  C   UNK     0     -19.446  -6.017 -29.622  0.00  0.00     0.021 A 
HETATM    4  N   UNK     0     -19.906  -5.639 -28.406  0.00  0.00    -0.361 N 
HETATM    5  C   UNK     0     -18.875  -5.668 -27.538  0.00  0.00     0.022 A 
HETATM    6  C   UNK     0     -17.722  -6.064 -28.207  0.00  0.00    -0.027 A 
HETATM    7  C   UNK     0     -18.868  -5.431 -26.060  0.00  0.00     0.115 C 
HETATM    8  C   UNK     0     -20.005  -6.048 -25.265  0.00  0.00     0.021 A 
HETATM    9  N   UNK     0     -20.626  -7.220 -25.466  0.00  0.00    -0.361 N 
HETATM   10  C   UNK     0     -21.636  -7.318 -24.576  0.00  0.00     0.022 A 
HETATM   11  C   UNK     0     -21.660  -6.182 -23.773  0.00  0.00    -0.027 A 
HETATM   12  C   UNK     0     -20.635  -5.377 -24.201  0.00  0.00    -0.031 A 
HETATM   13  C   UNK     0     -20.276  -4.031 -23.613  0.00  0.00     0.051 C 
HETATM   14  C   UNK     0     -22.647  -8.457 -24.482  0.00  0.00     0.115 C 
HETATM   15  C   UNK     0     -23.486  -8.641 -25.737  0.00  0.00     0.021 A 
HETATM   16  N   UNK     0     -23.052  -8.893 -26.986  0.00  0.00    -0.361 N 
HETATM   17  C   UNK     0     -24.096  -8.915 -27.817  0.00  0.00     0.022 A 
HETATM   18  C   UNK     0     -25.268  -8.674 -27.072  0.00  0.00    -0.027 A 
HETATM   19  C   UNK     0     -24.873  -8.505 -25.771  0.00  0.00    -0.031 A 
HETATM   20  C   UNK     0     -25.833  -8.258 -24.622  0.00  0.00     0.051 C 
HETATM   21  C   UNK     0     -24.140  -9.084 -29.319  0.00  0.00     0.115 C 
HETATM   22  C   UNK     0     -22.992  -8.513 -30.118  0.00  0.00     0.022 A 
HETATM   23  N   UNK     0     -22.352  -7.351 -29.938  0.00  0.00    -0.361 N 
HETATM   24  C   UNK     0     -21.302  -7.310 -30.783  0.00  0.00     0.021 A 
HETATM   25  C   UNK     0     -21.272  -8.469 -31.533  0.00  0.00    -0.031 A 
HETATM   26  C   UNK     0     -20.312  -8.867 -32.636  0.00  0.00     0.051 C 
HETATM   27  C   UNK     0     -22.344  -9.255 -31.126  0.00  0.00    -0.027 A 
HETATM   28  C   UNK     0     -20.232  -6.237 -30.884  0.00  0.00     0.115 C 
HETATM   29  H   UNK     0     -20.949  -5.317 -28.179  0.00  0.00     0.165 HD
HETATM   30  H   UNK     0     -20.322  -8.004 -26.203  0.00  0.00     0.165 HD
HETATM   31  H   UNK     0     -21.992  -9.109 -27.280  0.00  0.00     0.165 HD
HETATM   32  H   UNK     0     -22.661  -6.528 -29.241  0.00  0.00     0.165 HD
ENDROOT
BRANCH   6  33
HETATM   33  C   UNK     0     -16.316  -6.246 -27.694  0.00  0.00     0.051 C 
BRANCH  33  34
HETATM   34  C   UNK     0     -16.004  -7.710 -27.493  0.00  0.00     0.114 C 
BRANCH  34  35
HETATM   35  C   UNK     0     -16.556  -8.105 -26.165  0.00  0.00     0.139 C 
HETATM   36  O   UNK     0     -15.933  -7.812 -25.103  0.00  0.00    -0.650 OA
BRANCH  35  37
HETATM   37  O   UNK     0     -17.754  -8.796 -26.028  0.00  0.00    -0.776 OA
HETATM   38  H   UNK     0     -17.981  -9.592 -26.603  0.00  0.00     0.167 HD
ENDBRANCH  35  37
ENDBRANCH  34  35
ENDBRANCH  33  34
ENDBRANCH   6  33
BRANCH  27  39
HETATM   39  C   UNK     0     -22.681 -10.558 -31.761  0.00  0.00     0.051 C 
BRANCH  39  40
HETATM   40  C   UNK     0     -22.700 -11.756 -30.921  0.00  0.00     0.114 C 
BRANCH  40  41
HETATM   41  C   UNK     0     -21.834 -11.905 -29.773  0.00  0.00     0.139 C 
HETATM   42  O   UNK     0     -20.611 -12.082 -29.858  0.00  0.00    -0.650 OA
BRANCH  41  43
HETATM   43  O   UNK     0     -22.401 -11.849 -28.468  0.00  0.00    -0.776 OA
HETATM   44  H   UNK     0     -23.179 -12.480 -28.322  0.00  0.00     0.167 HD
ENDBRANCH  41  43
ENDBRANCH  40  41
ENDBRANCH  39  40
ENDBRANCH  27  39
BRANCH  11  45
HETATM   45  C   UNK     0     -22.597  -5.847 -22.644  0.00  0.00     0.051 C 
BRANCH  45  46
HETATM   46  C   UNK     0     -22.254  -6.505 -21.357  0.00  0.00     0.114 C 
BRANCH  46  47
HETATM   47  C   UNK     0     -23.325  -7.503 -21.073  0.00  0.00     0.139 C 
HETATM   48  O   UNK     0     -24.467  -7.285 -21.501  0.00  0.00    -0.650 OA
BRANCH  47  49
HETATM   49  O   UNK     0     -23.053  -8.639 -20.352  0.00  0.00    -0.776 OA
HETATM   50  H   UNK     0     -23.798  -9.225 -19.957  0.00  0.00     0.167 HD
ENDBRANCH  47  49
ENDBRANCH  46  47
ENDBRANCH  45  46
ENDBRANCH  11  45
BRANCH  18  51
HETATM   51  C   UNK     0     -26.689  -8.628 -27.571  0.00  0.00     0.051 C 
BRANCH  51  52
HETATM   52  C   UNK     0     -26.840  -7.306 -28.309  0.00  0.00     0.114 C 
BRANCH  52  53
HETATM   53  C   UNK     0     -27.652  -6.339 -27.546  0.00  0.00     0.139 C 
HETATM   54  O   UNK     0     -28.043  -6.622 -26.402  0.00  0.00    -0.650 OA
BRANCH  53  55
HETATM   55  O   UNK     0     -27.974  -5.128 -28.109  0.00  0.00    -0.776 OA
HETATM   56  H   UNK     0     -28.876  -4.713 -28.124  0.00  0.00     0.167 HD
ENDBRANCH  53  55
ENDBRANCH  52  53
ENDBRANCH  51  52
ENDBRANCH  18  51
TORSDOF 16
ENDMDL
MODEL 7
REMARK VINA RESULT:      -9.0     31.426     34.300
REMARK  16 active torsions:
REMARK  status: ('A' for Active; 'I' for Inactive)
REMARK    1  A    between atoms: C_6  and  C_7 
REMARK    2  A    between atoms: C_7  and  C_8 
REMARK    3  A    between atoms: C_8  and  C_9 
REMARK    4  A    between atoms: C_9  and  O_11 
REMARK    5  A    between atoms: C_16  and  C_17 
REMARK    6  A    between atoms: C_17  and  C_18 
REMARK    7  A    between atoms: C_18  and  C_19 
REMARK    8  A    between atoms: C_19  and  O_21 
REMARK    9  A    between atoms: C_28  and  C_29 
REMARK   10  A    between atoms: C_29  and  C_30 
REMARK   11  A    between atoms: C_30  and  C_31 
REMARK   12  A    between atoms: C_31  and  O_33 
REMARK   13  A    between atoms: C_42  and  C_43 
REMARK   14  A    between atoms: C_43  and  C_44 
REMARK   15  A    between atoms: C_44  and  C_45 
REMARK   16  A    between atoms: C_45  and  O_47 
ROOT
HETATM    1  C   UNK     0     -14.797 -18.644   3.022  0.00  0.00     0.051 C 
HETATM    2  C   UNK     0     -13.779 -19.326   2.131  0.00  0.00    -0.031 A 
HETATM    3  C   UNK     0     -12.536 -18.879   1.713  0.00  0.00     0.021 A 
HETATM    4  N   UNK     0     -11.984 -19.808   0.897  0.00  0.00    -0.361 N 
HETATM    5  C   UNK     0     -12.845 -20.841   0.793  0.00  0.00     0.022 A 
HETATM    6  C   UNK     0     -13.980 -20.572   1.550  0.00  0.00    -0.027 A 
HETATM    7  C   UNK     0     -12.677 -22.153   0.091  0.00  0.00     0.115 C 
HETATM    8  C   UNK     0     -11.330 -22.839   0.242  0.00  0.00     0.021 A 
HETATM    9  N   UNK     0     -10.520 -22.864   1.312  0.00  0.00    -0.361 N 
HETATM   10  C   UNK     0      -9.388 -23.514   0.965  0.00  0.00     0.022 A 
HETATM   11  C   UNK     0      -9.476 -23.926  -0.361  0.00  0.00    -0.027 A 
HETATM   12  C   UNK     0     -10.697 -23.505  -0.823  0.00  0.00    -0.031 A 
HETATM   13  C   UNK     0     -11.231 -23.735  -2.219  0.00  0.00     0.051 C 
HETATM   14  C   UNK     0      -8.163 -23.724   1.849  0.00  0.00     0.115 C 
HETATM   15  C   UNK     0      -7.504 -22.433   2.305  0.00  0.00     0.021 A 
HETATM   16  N   UNK     0      -8.060 -21.431   3.012  0.00  0.00    -0.361 N 
HETATM   17  C   UNK     0      -7.172 -20.444   3.148  0.00  0.00     0.022 A 
HETATM   18  C   UNK     0      -5.976 -20.825   2.509  0.00  0.00    -0.027 A 
HETATM   19  C   UNK     0      -6.196 -22.073   1.986  0.00  0.00    -0.031 A 
HETATM   20  C   UNK     0      -5.144 -22.873   1.240  0.00  0.00     0.051 C 
HETATM   21  C   UNK     0      -7.323 -19.083   3.789  0.00  0.00     0.115 C 
HETATM   22  C   UNK     0      -8.670 -18.408   3.684  0.00  0.00     0.022 A 
HETATM   23  N   UNK     0      -9.500 -18.370   2.634  0.00  0.00    -0.361 N 
HETATM   24  C   UNK     0     -10.651 -17.787   3.025  0.00  0.00     0.021 A 
HETATM   25  C   UNK     0     -10.557 -17.432   4.357  0.00  0.00    -0.031 A 
HETATM   26  C   UNK     0     -11.570 -16.719   5.228  0.00  0.00     0.051 C 
HETATM   27  C   UNK     0      -9.297 -17.819   4.801  0.00  0.00    -0.027 A 
HETATM   28  C   UNK     0     -11.922 -17.602   2.213  0.00  0.00     0.115 C 
HETATM   29  H   UNK     0     -11.008 -19.709   0.368  0.00  0.00     0.165 HD
HETATM   30  H   UNK     0     -10.764 -22.469   2.328  0.00  0.00     0.165 HD
HETATM   31  H   UNK     0      -9.086 -21.439   3.464  0.00  0.00     0.165 HD
HETATM   32  H   UNK     0      -9.265 -18.715   1.594  0.00  0.00     0.165 HD
ENDROOT
BRANCH   6  33
HETATM   33  C   UNK     0     -15.225 -21.396   1.760  0.00  0.00     0.051 C 
BRANCH  33  34
HETATM   34  C   UNK     0     -16.146 -21.286   0.568  0.00  0.00     0.114 C 
BRANCH  34  35
HETATM   35  C   UNK     0     -17.240 -20.341   0.936  0.00  0.00     0.139 C 
HETATM   36  O   UNK     0     -17.208 -19.142   0.532  0.00  0.00    -0.650 OA
BRANCH  35  37
HETATM   37  O   UNK     0     -18.324 -20.719   1.718  0.00  0.00    -0.776 OA
HETATM   38  H   UNK     0     -18.231 -20.920   2.700  0.00  0.00     0.167 HD
ENDBRANCH  35  37
ENDBRANCH  34  35
ENDBRANCH  33  34
ENDBRANCH   6  33
BRANCH  27  39
HETATM   39  C   UNK     0      -8.800 -17.537   6.175  0.00  0.00     0.051 C 
BRANCH  39  40
HETATM   40  C   UNK     0      -8.397 -16.169   6.500  0.00  0.00     0.114 C 
BRANCH  40  41
HETATM   41  C   UNK     0      -7.877 -15.261   5.502  0.00  0.00     0.139 C 
HETATM   42  O   UNK     0      -6.888 -15.511   4.800  0.00  0.00    -0.650 OA
BRANCH  41  43
HETATM   43  O   UNK     0      -8.525 -14.008   5.303  0.00  0.00    -0.776 OA
HETATM   44  H   UNK     0      -9.006 -13.922   4.416  0.00  0.00     0.167 HD
ENDBRANCH  41  43
ENDBRANCH  40  41
ENDBRANCH  39  40
ENDBRANCH  27  39
BRANCH  11  45
HETATM   45  C   UNK     0      -8.468 -24.688  -1.180  0.00  0.00     0.051 C 
BRANCH  45  46
HETATM   46  C   UNK     0      -8.494 -26.156  -0.958  0.00  0.00     0.114 C 
BRANCH  46  47
HETATM   47  C   UNK     0      -9.049 -26.780  -2.194  0.00  0.00     0.139 C 
HETATM   48  O   UNK     0      -8.391 -26.706  -3.241  0.00  0.00    -0.650 OA
BRANCH  47  49
HETATM   49  O   UNK     0     -10.262 -27.420  -2.173  0.00  0.00    -0.776 OA
HETATM   50  H   UNK     0     -10.572 -28.025  -2.943  0.00  0.00     0.167 HD
ENDBRANCH  47  49
ENDBRANCH  46  47
ENDBRANCH  45  46
ENDBRANCH  11  45
BRANCH  18  51
HETATM   51  C   UNK     0      -4.686 -20.051   2.419  0.00  0.00     0.051 C 
BRANCH  51  52
HETATM   52  C   UNK     0      -3.824 -20.524   3.580  0.00  0.00     0.114 C 
BRANCH  52  53
HETATM   53  C   UNK     0      -2.388 -20.512   3.238  0.00  0.00     0.139 C 
HETATM   54  O   UNK     0      -2.031 -20.590   2.052  0.00  0.00    -0.650 OA
BRANCH  53  55
HETATM   55  O   UNK     0      -1.452 -20.418   4.239  0.00  0.00    -0.776 OA
HETATM   56  H   UNK     0      -0.467 -20.453   4.122  0.00  0.00     0.167 HD
ENDBRANCH  53  55
ENDBRANCH  52  53
ENDBRANCH  51  52
ENDBRANCH  18  51
TORSDOF 16
ENDMDL
MODEL 8
REMARK VINA RESULT:      -8.9     31.416     34.264
REMARK  16 active torsions:
REMARK  status: ('A' for Active; 'I' for Inactive)
REMARK    1  A    between atoms: C_6  and  C_7 
REMARK    2  A    between atoms: C_7  and  C_8 
REMARK    3  A    between atoms: C_8  and  C_9 
REMARK    4  A    between atoms: C_9  and  O_11 
REMARK    5  A    between atoms: C_16  and  C_17 
REMARK    6  A    between atoms: C_17  and  C_18 
REMARK    7  A    between atoms: C_18  and  C_19 
REMARK    8  A    between atoms: C_19  and  O_21 
REMARK    9  A    between atoms: C_28  and  C_29 
REMARK   10  A    between atoms: C_29  and  C_30 
REMARK   11  A    between atoms: C_30  and  C_31 
REMARK   12  A    between atoms: C_31  and  O_33 
REMARK   13  A    between atoms: C_42  and  C_43 
REMARK   14  A    between atoms: C_43  and  C_44 
REMARK   15  A    between atoms: C_44  and  C_45 
REMARK   16  A    between atoms: C_45  and  O_47 
ROOT
HETATM    1  C   UNK     0     -14.995 -18.500   2.936  0.00  0.00     0.051 C 
HETATM    2  C   UNK     0     -13.933 -19.193   2.107  0.00  0.00    -0.031 A 
HETATM    3  C   UNK     0     -12.671 -18.749   1.745  0.00  0.00     0.021 A 
HETATM    4  N   UNK     0     -12.078 -19.689   0.971  0.00  0.00    -0.361 N 
HETATM    5  C   UNK     0     -12.931 -20.726   0.840  0.00  0.00     0.022 A 
HETATM    6  C   UNK     0     -14.102 -20.448   1.536  0.00  0.00    -0.027 A 
HETATM    7  C   UNK     0     -12.726 -22.048   0.168  0.00  0.00     0.115 C 
HETATM    8  C   UNK     0     -11.388 -22.728   0.396  0.00  0.00     0.021 A 
HETATM    9  N   UNK     0     -10.632 -22.736   1.505  0.00  0.00    -0.361 N 
HETATM   10  C   UNK     0      -9.484 -23.388   1.225  0.00  0.00     0.022 A 
HETATM   11  C   UNK     0      -9.504 -23.820  -0.098  0.00  0.00    -0.027 A 
HETATM   12  C   UNK     0     -10.701 -23.408  -0.626  0.00  0.00    -0.031 A 
HETATM   13  C   UNK     0     -11.165 -23.661  -2.043  0.00  0.00     0.051 C 
HETATM   14  C   UNK     0      -8.303 -23.582   2.173  0.00  0.00     0.115 C 
HETATM   15  C   UNK     0      -7.670 -22.283   2.642  0.00  0.00     0.021 A 
HETATM   16  N   UNK     0      -8.262 -21.272   3.304  0.00  0.00    -0.361 N 
HETATM   17  C   UNK     0      -7.383 -20.281   3.470  0.00  0.00     0.022 A 
HETATM   18  C   UNK     0      -6.156 -20.669   2.897  0.00  0.00    -0.027 A 
HETATM   19  C   UNK     0      -6.348 -21.925   2.382  0.00  0.00    -0.031 A 
HETATM   20  C   UNK     0      -5.259 -22.734   1.702  0.00  0.00     0.051 C 
HETATM   21  C   UNK     0      -7.568 -18.911   4.081  0.00  0.00     0.115 C 
HETATM   22  C   UNK     0      -8.909 -18.240   3.900  0.00  0.00     0.022 A 
HETATM   23  N   UNK     0      -9.686 -18.220   2.809  0.00  0.00    -0.361 N 
HETATM   24  C   UNK     0     -10.856 -17.634   3.133  0.00  0.00     0.021 A 
HETATM   25  C   UNK     0     -10.828 -17.259   4.462  0.00  0.00    -0.031 A 
HETATM   26  C   UNK     0     -11.885 -16.535   5.270  0.00  0.00     0.051 C 
HETATM   27  C   UNK     0      -9.592 -17.636   4.974  0.00  0.00    -0.027 A 
HETATM   28  C   UNK     0     -12.084 -17.463   2.256  0.00  0.00     0.115 C 
HETATM   29  H   UNK     0     -11.076 -19.596   0.491  0.00  0.00     0.165 HD
HETATM   30  H   UNK     0     -10.927 -22.325   2.502  0.00  0.00     0.165 HD
HETATM   31  H   UNK     0      -9.309 -21.276   3.705  0.00  0.00     0.165 HD
HETATM   32  H   UNK     0      -9.398 -18.580   1.787  0.00  0.00     0.165 HD
ENDROOT
BRANCH   6  33
HETATM   33  C   UNK     0     -15.355 -21.271   1.695  0.00  0.00     0.051 C 
BRANCH  33  34
HETATM   34  C   UNK     0     -16.250 -21.122   0.488  0.00  0.00     0.114 C 
BRANCH  34  35
HETATM   35  C   UNK     0     -17.391 -20.248   0.884  0.00  0.00     0.139 C 
HETATM   36  O   UNK     0     -17.444 -19.049   0.482  0.00  0.00    -0.650 OA
BRANCH  35  37
HETATM   37  O   UNK     0     -18.431 -20.692   1.691  0.00  0.00    -0.776 OA
HETATM   38  H   UNK     0     -18.266 -21.122   2.587  0.00  0.00     0.167 HD
ENDBRANCH  35  37
ENDBRANCH  34  35
ENDBRANCH  33  34
ENDBRANCH   6  33
BRANCH  27  39
HETATM   39  C   UNK     0      -9.165 -17.332   6.367  0.00  0.00     0.051 C 
BRANCH  39  40
HETATM   40  C   UNK     0      -8.432 -16.090   6.613  0.00  0.00     0.114 C 
BRANCH  40  41
HETATM   41  C   UNK     0      -7.925 -15.269   5.537  0.00  0.00     0.139 C 
HETATM   42  O   UNK     0      -6.903 -15.543   4.892  0.00  0.00    -0.650 OA
BRANCH  41  43
HETATM   43  O   UNK     0      -8.623 -14.079   5.187  0.00  0.00    -0.776 OA
HETATM   44  H   UNK     0      -8.421 -13.284   5.782  0.00  0.00     0.167 HD
ENDBRANCH  41  43
ENDBRANCH  40  41
ENDBRANCH  39  40
ENDBRANCH  27  39
BRANCH  11  45
HETATM   45  C   UNK     0      -8.456 -24.592  -0.853  0.00  0.00     0.051 C 
BRANCH  45  46
HETATM   46  C   UNK     0      -8.600 -26.067  -0.754  0.00  0.00     0.114 C 
BRANCH  46  47
HETATM   47  C   UNK     0      -7.309 -26.603  -0.235  0.00  0.00     0.139 C 
HETATM   48  O   UNK     0      -6.723 -25.974   0.657  0.00  0.00    -0.650 OA
BRANCH  47  49
HETATM   49  O   UNK     0      -6.780 -27.766  -0.734  0.00  0.00    -0.776 OA
HETATM   50  H   UNK     0      -6.013 -28.262  -0.265  0.00  0.00     0.167 HD
ENDBRANCH  47  49
ENDBRANCH  46  47
ENDBRANCH  45  46
ENDBRANCH  11  45
BRANCH  18  51
HETATM   51  C   UNK     0      -4.865 -19.893   2.860  0.00  0.00     0.051 C 
BRANCH  51  52
HETATM   52  C   UNK     0      -4.947 -18.985   1.642  0.00  0.00     0.114 C 
BRANCH  52  53
HETATM   53  C   UNK     0      -4.656 -17.580   1.983  0.00  0.00     0.139 C 
HETATM   54  O   UNK     0      -3.481 -17.182   2.029  0.00  0.00    -0.650 OA
BRANCH  53  55
HETATM   55  O   UNK     0      -5.691 -16.717   2.253  0.00  0.00    -0.776 OA
HETATM   56  H   UNK     0      -6.245 -16.709   3.077  0.00  0.00     0.167 HD
ENDBRANCH  53  55
ENDBRANCH  52  53
ENDBRANCH  51  52
ENDBRANCH  18  51
TORSDOF 16
ENDMDL
MODEL 9
REMARK VINA RESULT:      -8.9     32.633     35.439
REMARK  16 active torsions:
REMARK  status: ('A' for Active; 'I' for Inactive)
REMARK    1  A    between atoms: C_6  and  C_7 
REMARK    2  A    between atoms: C_7  and  C_8 
REMARK    3  A    between atoms: C_8  and  C_9 
REMARK    4  A    between atoms: C_9  and  O_11 
REMARK    5  A    between atoms: C_16  and  C_17 
REMARK    6  A    between atoms: C_17  and  C_18 
REMARK    7  A    between atoms: C_18  and  C_19 
REMARK    8  A    between atoms: C_19  and  O_21 
REMARK    9  A    between atoms: C_28  and  C_29 
REMARK   10  A    between atoms: C_29  and  C_30 
REMARK   11  A    between atoms: C_30  and  C_31 
REMARK   12  A    between atoms: C_31  and  O_33 
REMARK   13  A    between atoms: C_42  and  C_43 
REMARK   14  A    between atoms: C_43  and  C_44 
REMARK   15  A    between atoms: C_44  and  C_45 
REMARK   16  A    between atoms: C_45  and  O_47 
ROOT
HETATM    1  C   UNK     0      -5.792 -24.181   0.445  0.00  0.00     0.051 C 
HETATM    2  C   UNK     0      -6.892 -23.610   1.317  0.00  0.00    -0.031 A 
HETATM    3  C   UNK     0      -6.795 -22.789   2.430  0.00  0.00     0.021 A 
HETATM    4  N   UNK     0      -8.038 -22.552   2.912  0.00  0.00    -0.361 N 
HETATM    5  C   UNK     0      -8.925 -23.196   2.126  0.00  0.00     0.022 A 
HETATM    6  C   UNK     0      -8.241 -23.870   1.120  0.00  0.00    -0.027 A 
HETATM    7  C   UNK     0     -10.421 -23.183   2.169  0.00  0.00     0.115 C 
HETATM    8  C   UNK     0     -11.084 -21.838   2.406  0.00  0.00     0.021 A 
HETATM    9  N   UNK     0     -10.698 -20.628   1.973  0.00  0.00    -0.361 N 
HETATM   10  C   UNK     0     -11.534 -19.708   2.500  0.00  0.00     0.022 A 
HETATM   11  C   UNK     0     -12.490 -20.344   3.287  0.00  0.00    -0.027 A 
HETATM   12  C   UNK     0     -12.213 -21.686   3.231  0.00  0.00    -0.031 A 
HETATM   13  C   UNK     0     -12.998 -22.770   3.934  0.00  0.00     0.051 C 
HETATM   14  C   UNK     0     -11.433 -18.195   2.328  0.00  0.00     0.115 C 
HETATM   15  C   UNK     0     -10.140 -17.599   2.862  0.00  0.00     0.021 A 
HETATM   16  N   UNK     0      -8.882 -17.903   2.492  0.00  0.00    -0.361 N 
HETATM   17  C   UNK     0      -8.024 -17.212   3.247  0.00  0.00     0.022 A 
HETATM   18  C   UNK     0      -8.759 -16.412   4.145  0.00  0.00    -0.027 A 
HETATM   19  C   UNK     0     -10.083 -16.663   3.892  0.00  0.00    -0.031 A 
HETATM   20  C   UNK     0     -11.225 -15.976   4.619  0.00  0.00     0.051 C 
HETATM   21  C   UNK     0      -6.513 -17.245   3.280  0.00  0.00     0.115 C 
HETATM   22  C   UNK     0      -5.839 -18.568   3.003  0.00  0.00     0.022 A 
HETATM   23  N   UNK     0      -6.203 -19.789   3.417  0.00  0.00    -0.361 N 
HETATM   24  C   UNK     0      -5.405 -20.695   2.818  0.00  0.00     0.021 A 
HETATM   25  C   UNK     0      -4.498 -20.042   2.006  0.00  0.00    -0.031 A 
HETATM   26  C   UNK     0      -3.380 -20.623   1.165  0.00  0.00     0.051 C 
HETATM   27  C   UNK     0      -4.756 -18.680   2.108  0.00  0.00    -0.027 A 
HETATM   28  C   UNK     0      -5.492 -22.209   2.902  0.00  0.00     0.115 C 
HETATM   29  H   UNK     0      -8.278 -21.963   3.828  0.00  0.00     0.165 HD
HETATM   30  H   UNK     0      -9.866 -20.424   1.255  0.00  0.00     0.165 HD
HETATM   31  H   UNK     0      -8.592 -18.583   1.650  0.00  0.00     0.165 HD
HETATM   32  H   UNK     0      -7.001 -20.019   4.171  0.00  0.00     0.165 HD
ENDROOT
BRANCH   6  33
HETATM   33  C   UNK     0      -8.766 -24.734   0.001  0.00  0.00     0.051 C 
BRANCH  33  34
HETATM   34  C   UNK     0      -8.955 -26.158   0.468  0.00  0.00     0.114 C 
BRANCH  34  35
HETATM   35  C   UNK     0      -9.945 -26.800  -0.444  0.00  0.00     0.139 C 
HETATM   36  O   UNK     0     -10.266 -26.239  -1.532  0.00  0.00    -0.650 OA
BRANCH  35  37
HETATM   37  O   UNK     0     -10.551 -28.017  -0.156  0.00  0.00    -0.776 OA
HETATM   38  H   UNK     0     -11.243 -28.111   0.570  0.00  0.00     0.167 HD
ENDBRANCH  35  37
ENDBRANCH  34  35
ENDBRANCH  33  34
ENDBRANCH   6  33
BRANCH  27  39
HETATM   39  C   UNK     0      -3.930 -17.646   1.426  0.00  0.00     0.051 C 
BRANCH  39  40
HETATM   40  C   UNK     0      -4.229 -17.330   0.029  0.00  0.00     0.114 C 
BRANCH  40  41
HETATM   41  C   UNK     0      -5.417 -16.604  -0.360  0.00  0.00     0.139 C 
HETATM   42  O   UNK     0      -6.514 -17.143  -0.556  0.00  0.00    -0.650 OA
BRANCH  41  43
HETATM   43  O   UNK     0      -5.339 -15.192  -0.531  0.00  0.00    -0.776 OA
HETATM   44  H   UNK     0      -5.763 -14.656   0.216  0.00  0.00     0.167 HD
ENDBRANCH  41  43
ENDBRANCH  40  41
ENDBRANCH  39  40
ENDBRANCH  27  39
BRANCH  11  45
HETATM   45  C   UNK     0     -13.627 -19.735   4.063  0.00  0.00     0.051 C 
BRANCH  45  46
HETATM   46  C   UNK     0     -13.254 -19.282   5.428  0.00  0.00     0.114 C 
BRANCH  46  47
HETATM   47  C   UNK     0     -14.254 -18.255   5.840  0.00  0.00     0.139 C 
HETATM   48  O   UNK     0     -15.371 -18.267   5.304  0.00  0.00    -0.650 OA
BRANCH  47  49
HETATM   49  O   UNK     0     -13.945 -17.316   6.791  0.00  0.00    -0.776 OA
HETATM   50  H   UNK     0     -14.551 -16.508   6.976  0.00  0.00     0.167 HD
ENDBRANCH  47  49
ENDBRANCH  46  47
ENDBRANCH  45  46
ENDBRANCH  11  45
BRANCH  18  51
HETATM   51  C   UNK     0      -8.229 -15.446   5.172  0.00  0.00     0.051 C 
BRANCH  51  52
HETATM   52  C   UNK     0      -8.015 -16.252   6.444  0.00  0.00     0.114 C 
BRANCH  52  53
HETATM   53  C   UNK     0      -8.605 -15.587   7.622  0.00  0.00     0.139 C 
HETATM   54  O   UNK     0      -9.838 -15.559   7.767  0.00  0.00    -0.650 OA
BRANCH  53  55
HETATM   55  O   UNK     0      -7.784 -14.999   8.553  0.00  0.00    -0.776 OA
HETATM   56  H   UNK     0      -7.072 -15.454   9.074  0.00  0.00     0.167 HD
ENDBRANCH  53  55
ENDBRANCH  52  53
ENDBRANCH  51  52
ENDBRANCH  18  51
TORSDOF 16
ENDMDL
MODEL 10
REMARK VINA RESULT:      -8.8     30.952     34.007
REMARK  16 active torsions:
REMARK  status: ('A' for Active; 'I' for Inactive)
REMARK    1  A    between atoms: C_6  and  C_7 
REMARK    2  A    between atoms: C_7  and  C_8 
REMARK    3  A    between atoms: C_8  and  C_9 
REMARK    4  A    between atoms: C_9  and  O_11 
REMARK    5  A    between atoms: C_16  and  C_17 
REMARK    6  A    between atoms: C_17  and  C_18 
REMARK    7  A    between atoms: C_18  and  C_19 
REMARK    8  A    between atoms: C_19  and  O_21 
REMARK    9  A    between atoms: C_28  and  C_29 
REMARK   10  A    between atoms: C_29  and  C_30 
REMARK   11  A    between atoms: C_30  and  C_31 
REMARK   12  A    between atoms: C_31  and  O_33 
REMARK   13  A    between atoms: C_42  and  C_43 
REMARK   14  A    between atoms: C_43  and  C_44 
REMARK   15  A    between atoms: C_44  and  C_45 
REMARK   16  A    between atoms: C_45  and  O_47 
ROOT
HETATM    1  C   UNK     0      -7.231 -24.509  -0.077  0.00  0.00     0.051 C 
HETATM    2  C   UNK     0      -8.405 -23.854   0.622  0.00  0.00    -0.031 A 
HETATM    3  C   UNK     0      -8.443 -23.179   1.832  0.00  0.00     0.021 A 
HETATM    4  N   UNK     0      -9.716 -22.788   2.079  0.00  0.00    -0.361 N 
HETATM    5  C   UNK     0     -10.488 -23.193   1.050  0.00  0.00     0.022 A 
HETATM    6  C   UNK     0      -9.700 -23.865   0.121  0.00  0.00    -0.027 A 
HETATM    7  C   UNK     0     -11.940 -22.935   0.790  0.00  0.00     0.115 C 
HETATM    8  C   UNK     0     -12.442 -21.529   1.066  0.00  0.00     0.021 A 
HETATM    9  N   UNK     0     -11.803 -20.362   0.889  0.00  0.00    -0.361 N 
HETATM   10  C   UNK     0     -12.597 -19.375   1.355  0.00  0.00     0.022 A 
HETATM   11  C   UNK     0     -13.783 -19.919   1.837  0.00  0.00    -0.027 A 
HETATM   12  C   UNK     0     -13.693 -21.276   1.658  0.00  0.00    -0.031 A 
HETATM   13  C   UNK     0     -14.759 -22.280   2.034  0.00  0.00     0.051 C 
HETATM   14  C   UNK     0     -12.248 -17.890   1.413  0.00  0.00     0.115 C 
HETATM   15  C   UNK     0     -11.035 -17.576   2.273  0.00  0.00     0.021 A 
HETATM   16  N   UNK     0      -9.782 -18.045   2.130  0.00  0.00    -0.361 N 
HETATM   17  C   UNK     0      -9.024 -17.587   3.129  0.00  0.00     0.022 A 
HETATM   18  C   UNK     0      -9.820 -16.772   3.958  0.00  0.00    -0.027 A 
HETATM   19  C   UNK     0     -11.077 -16.772   3.411  0.00  0.00    -0.031 A 
HETATM   20  C   UNK     0     -12.243 -15.983   3.976  0.00  0.00     0.051 C 
HETATM   21  C   UNK     0      -7.578 -17.876   3.463  0.00  0.00     0.115 C 
HETATM   22  C   UNK     0      -7.053 -19.257   3.152  0.00  0.00     0.022 A 
HETATM   23  N   UNK     0      -7.668 -20.436   3.315  0.00  0.00    -0.361 N 
HETATM   24  C   UNK     0      -6.893 -21.397   2.773  0.00  0.00     0.021 A 
HETATM   25  C   UNK     0      -5.746 -20.825   2.258  0.00  0.00    -0.031 A 
HETATM   26  C   UNK     0      -4.563 -21.495   1.591  0.00  0.00     0.051 C 
HETATM   27  C   UNK     0      -5.825 -19.456   2.489  0.00  0.00    -0.027 A 
HETATM   28  C   UNK     0      -7.208 -22.876   2.633  0.00  0.00     0.115 C 
HETATM   29  H   UNK     0     -10.067 -22.265   2.998  0.00  0.00     0.165 HD
HETATM   30  H   UNK     0     -10.813 -20.228   0.389  0.00  0.00     0.165 HD
HETATM   31  H   UNK     0      -9.411 -18.675   1.279  0.00  0.00     0.165 HD
HETATM   32  H   UNK     0      -8.637 -20.606   3.853  0.00  0.00     0.165 HD
ENDROOT
BRANCH   6  33
HETATM   33  C   UNK     0     -10.081 -24.511  -1.187  0.00  0.00     0.051 C 
BRANCH  33  34
HETATM   34  C   UNK     0     -10.067 -23.499  -2.307  0.00  0.00     0.114 C 
BRANCH  34  35
HETATM   35  C   UNK     0     -11.453 -23.416  -2.851  0.00  0.00     0.139 C 
HETATM   36  O   UNK     0     -11.986 -22.289  -3.067  0.00  0.00    -0.650 OA
BRANCH  35  37
HETATM   37  O   UNK     0     -12.211 -24.543  -3.145  0.00  0.00    -0.776 OA
HETATM   38  H   UNK     0     -11.822 -25.471  -3.116  0.00  0.00     0.167 HD
ENDBRANCH  35  37
ENDBRANCH  34  35
ENDBRANCH  33  34
ENDBRANCH   6  33
BRANCH  27  39
HETATM   39  C   UNK     0      -4.732 -18.510   2.135  0.00  0.00     0.051 C 
BRANCH  39  40
HETATM   40  C   UNK     0      -4.623 -18.063   0.747  0.00  0.00     0.114 C 
BRANCH  40  41
HETATM   41  C   UNK     0      -5.461 -17.017   0.205  0.00  0.00     0.139 C 
HETATM   42  O   UNK     0      -6.495 -17.235  -0.440  0.00  0.00    -0.650 OA
BRANCH  41  43
HETATM   43  O   UNK     0      -5.092 -15.658   0.415  0.00  0.00    -0.776 OA
HETATM   44  H   UNK     0      -5.499 -15.237   1.242  0.00  0.00     0.167 HD
ENDBRANCH  41  43
ENDBRANCH  40  41
ENDBRANCH  39  40
ENDBRANCH  27  39
BRANCH  11  45
HETATM   45  C   UNK     0     -14.967 -19.212   2.442  0.00  0.00     0.051 C 
BRANCH  45  46
HETATM   46  C   UNK     0     -16.057 -18.920   1.476  0.00  0.00     0.114 C 
BRANCH  46  47
HETATM   47  C   UNK     0     -17.329 -19.399   2.089  0.00  0.00     0.139 C 
HETATM   48  O   UNK     0     -18.003 -20.238   1.475  0.00  0.00    -0.650 OA
BRANCH  47  49
HETATM   49  O   UNK     0     -17.747 -18.921   3.305  0.00  0.00    -0.776 OA
HETATM   50  H   UNK     0     -17.776 -19.514   4.143  0.00  0.00     0.167 HD
ENDBRANCH  47  49
ENDBRANCH  46  47
ENDBRANCH  45  46
ENDBRANCH  11  45
BRANCH  18  51
HETATM   51  C   UNK     0      -9.400 -16.018   5.193  0.00  0.00     0.051 C 
BRANCH  51  52
HETATM   52  C   UNK     0      -8.855 -14.682   4.711  0.00  0.00     0.114 C 
BRANCH  52  53
HETATM   53  C   UNK     0      -7.438 -14.501   5.080  0.00  0.00     0.139 C 
HETATM   54  O   UNK     0      -6.845 -15.383   5.721  0.00  0.00    -0.650 OA
BRANCH  53  55
HETATM   55  O   UNK     0      -6.781 -13.351   4.713  0.00  0.00    -0.776 OA
HETATM   56  H   UNK     0      -5.995 -13.295   4.110  0.00  0.00     0.167 HD
ENDBRANCH  53  55
ENDBRANCH  52  53
ENDBRANCH  51  52
ENDBRANCH  18  51
TORSDOF 16
ENDMDL
MODEL 11
REMARK VINA RESULT:      -8.7     31.503     34.260
REMARK  16 active torsions:
REMARK  status: ('A' for Active; 'I' for Inactive)
REMARK    1  A    between atoms: C_6  and  C_7 
REMARK    2  A    between atoms: C_7  and  C_8 
REMARK    3  A    between atoms: C_8  and  C_9 
REMARK    4  A    between atoms: C_9  and  O_11 
REMARK    5  A    between atoms: C_16  and  C_17 
REMARK    6  A    between atoms: C_17  and  C_18 
REMARK    7  A    between atoms: C_18  and  C_19 
REMARK    8  A    between atoms: C_19  and  O_21 
REMARK    9  A    between atoms: C_28  and  C_29 
REMARK   10  A    between atoms: C_29  and  C_30 
REMARK   11  A    between atoms: C_30  and  C_31 
REMARK   12  A    between atoms: C_31  and  O_33 
REMARK   13  A    between atoms: C_42  and  C_43 
REMARK   14  A    between atoms: C_43  and  C_44 
REMARK   15  A    between atoms: C_44  and  C_45 
REMARK   16  A    between atoms: C_45  and  O_47 
ROOT
HETATM    1  C   UNK     0      -6.831 -23.963   0.776  0.00  0.00     0.051 C 
HETATM    2  C   UNK     0      -8.170 -23.462   1.280  0.00  0.00    -0.031 A 
HETATM    3  C   UNK     0      -8.451 -22.642   2.361  0.00  0.00     0.021 A 
HETATM    4  N   UNK     0      -9.793 -22.481   2.455  0.00  0.00    -0.361 N 
HETATM    5  C   UNK     0     -10.371 -23.173   1.452  0.00  0.00     0.022 A 
HETATM    6  C   UNK     0      -9.385 -23.802   0.700  0.00  0.00    -0.027 A 
HETATM    7  C   UNK     0     -11.812 -23.249   1.055  0.00  0.00     0.115 C 
HETATM    8  C   UNK     0     -12.593 -21.946   1.070  0.00  0.00     0.021 A 
HETATM    9  N   UNK     0     -12.167 -20.713   0.753  0.00  0.00    -0.361 N 
HETATM   10  C   UNK     0     -13.172 -19.847   1.000  0.00  0.00     0.022 A 
HETATM   11  C   UNK     0     -14.279 -20.541   1.480  0.00  0.00    -0.027 A 
HETATM   12  C   UNK     0     -13.920 -21.865   1.526  0.00  0.00    -0.031 A 
HETATM   13  C   UNK     0     -14.813 -22.997   1.982  0.00  0.00     0.051 C 
HETATM   14  C   UNK     0     -13.113 -18.330   0.844  0.00  0.00     0.115 C 
HETATM   15  C   UNK     0     -12.070 -17.661   1.725  0.00  0.00     0.021 A 
HETATM   16  N   UNK     0     -10.743 -17.888   1.745  0.00  0.00    -0.361 N 
HETATM   17  C   UNK     0     -10.186 -17.150   2.708  0.00  0.00     0.022 A 
HETATM   18  C   UNK     0     -11.197 -16.400   3.340  0.00  0.00    -0.027 A 
HETATM   19  C   UNK     0     -12.372 -16.727   2.715  0.00  0.00    -0.031 A 
HETATM   20  C   UNK     0     -13.715 -16.113   3.065  0.00  0.00     0.051 C 
HETATM   21  C   UNK     0      -8.752 -17.095   3.182  0.00  0.00     0.115 C 
HETATM   22  C   UNK     0      -7.950 -18.374   3.132  0.00  0.00     0.022 A 
HETATM   23  N   UNK     0      -8.349 -19.616   3.438  0.00  0.00    -0.361 N 
HETATM   24  C   UNK     0      -7.360 -20.471   3.111  0.00  0.00     0.021 A 
HETATM   25  C   UNK     0      -6.294 -19.762   2.592  0.00  0.00    -0.031 A 
HETATM   26  C   UNK     0      -4.947 -20.273   2.123  0.00  0.00     0.051 C 
HETATM   27  C   UNK     0      -6.648 -18.418   2.595  0.00  0.00    -0.027 A 
HETATM   28  C   UNK     0      -7.379 -21.988   3.187  0.00  0.00     0.115 C 
HETATM   29  H   UNK     0     -10.323 -21.911   3.253  0.00  0.00     0.165 HD
HETATM   30  H   UNK     0     -11.175 -20.457   0.307  0.00  0.00     0.165 HD
HETATM   31  H   UNK     0     -10.180 -18.546   1.033  0.00  0.00     0.165 HD
HETATM   32  H   UNK     0      -9.318 -19.896   3.928  0.00  0.00     0.165 HD
ENDROOT
BRANCH   6  33
HETATM   33  C   UNK     0      -9.508 -24.690  -0.512  0.00  0.00     0.051 C 
BRANCH  33  34
HETATM   34  C   UNK     0      -9.569 -26.144  -0.106  0.00  0.00     0.114 C 
BRANCH  34  35
HETATM   35  C   UNK     0      -8.338 -26.805  -0.626  0.00  0.00     0.139 C 
HETATM   36  O   UNK     0      -7.484 -27.283   0.177  0.00  0.00    -0.650 OA
BRANCH  35  37
HETATM   37  O   UNK     0      -8.072 -26.931  -1.983  0.00  0.00    -0.776 OA
HETATM   38  H   UNK     0      -8.188 -27.804  -2.472  0.00  0.00     0.167 HD
ENDBRANCH  35  37
ENDBRANCH  34  35
ENDBRANCH  33  34
ENDBRANCH   6  33
BRANCH  27  39
HETATM   39  C   UNK     0      -5.720 -17.334   2.172  0.00  0.00     0.051 C 
BRANCH  39  40
HETATM   40  C   UNK     0      -5.806 -16.846   0.795  0.00  0.00     0.114 C 
BRANCH  40  41
HETATM   41  C   UNK     0      -4.766 -16.039   0.198  0.00  0.00     0.139 C 
HETATM   42  O   UNK     0      -3.570 -16.359   0.193  0.00  0.00    -0.650 OA
BRANCH  41  43
HETATM   43  O   UNK     0      -5.118 -14.807  -0.422  0.00  0.00    -0.776 OA
HETATM   44  H   UNK     0      -6.114 -14.622  -0.451  0.00  0.00     0.167 HD
ENDBRANCH  41  43
ENDBRANCH  40  41
ENDBRANCH  39  40
ENDBRANCH  27  39
BRANCH  11  45
HETATM   45  C   UNK     0     -15.626 -20.005   1.881  0.00  0.00     0.051 C 
BRANCH  45  46
HETATM   46  C   UNK     0     -16.716 -20.325   0.924  0.00  0.00     0.114 C 
BRANCH  46  47
HETATM   47  C   UNK     0     -18.008 -20.082   1.628  0.00  0.00     0.139 C 
HETATM   48  O   UNK     0     -18.019 -19.306   2.594  0.00  0.00    -0.650 OA
BRANCH  47  49
HETATM   49  O   UNK     0     -19.159 -20.704   1.218  0.00  0.00    -0.776 OA
HETATM   50  H   UNK     0     -20.088 -20.384   1.517  0.00  0.00     0.167 HD
ENDBRANCH  47  49
ENDBRANCH  46  47
ENDBRANCH  45  46
ENDBRANCH  11  45
BRANCH  18  51
HETATM   51  C   UNK     0     -11.048 -15.408   4.465  0.00  0.00     0.051 C 
BRANCH  51  52
HETATM   52  C   UNK     0     -11.497 -16.127   5.729  0.00  0.00     0.114 C 
BRANCH  52  53
HETATM   53  C   UNK     0     -10.361 -16.739   6.445  0.00  0.00     0.139 C 
HETATM   54  O   UNK     0      -9.647 -16.044   7.186  0.00  0.00    -0.650 OA
BRANCH  53  55
HETATM   55  O   UNK     0     -10.098 -18.077   6.284  0.00  0.00    -0.776 OA
HETATM   56  H   UNK     0     -10.765 -18.782   6.075  0.00  0.00     0.167 HD
ENDBRANCH  53  55
ENDBRANCH  52  53
ENDBRANCH  51  52
ENDBRANCH  18  51
TORSDOF 16
ENDMDL
MODEL 12
REMARK VINA RESULT:      -8.7     29.741     33.552
REMARK  16 active torsions:
REMARK  status: ('A' for Active; 'I' for Inactive)
REMARK    1  A    between atoms: C_6  and  C_7 
REMARK    2  A    between atoms: C_7  and  C_8 
REMARK    3  A    between atoms: C_8  and  C_9 
REMARK    4  A    between atoms: C_9  and  O_11 
REMARK    5  A    between atoms: C_16  and  C_17 
REMARK    6  A    between atoms: C_17  and  C_18 
REMARK    7  A    between atoms: C_18  and  C_19 
REMARK    8  A    between atoms: C_19  and  O_21 
REMARK    9  A    between atoms: C_28  and  C_29 
REMARK   10  A    between atoms: C_29  and  C_30 
REMARK   11  A    between atoms: C_30  and  C_31 
REMARK   12  A    between atoms: C_31  and  O_33 
REMARK   13  A    between atoms: C_42  and  C_43 
REMARK   14  A    between atoms: C_43  and  C_44 
REMARK   15  A    between atoms: C_44  and  C_45 
REMARK   16  A    between atoms: C_45  and  O_47 
ROOT
HETATM    1  C   UNK     0      -1.707 -18.634  -1.445  0.00  0.00     0.051 C 
HETATM    2  C   UNK     0      -2.190 -19.863  -2.188  0.00  0.00    -0.031 A 
HETATM    3  C   UNK     0      -2.422 -21.144  -1.711  0.00  0.00     0.021 A 
HETATM    4  N   UNK     0      -2.817 -21.932  -2.739  0.00  0.00    -0.361 N 
HETATM    5  C   UNK     0      -2.851 -21.180  -3.858  0.00  0.00     0.022 A 
HETATM    6  C   UNK     0      -2.462 -19.880  -3.549  0.00  0.00    -0.027 A 
HETATM    7  C   UNK     0      -3.308 -21.543  -5.236  0.00  0.00     0.115 C 
HETATM    8  C   UNK     0      -4.579 -22.369  -5.337  0.00  0.00     0.021 A 
HETATM    9  N   UNK     0      -5.676 -22.313  -4.567  0.00  0.00    -0.361 N 
HETATM   10  C   UNK     0      -6.517 -23.292  -4.963  0.00  0.00     0.022 A 
HETATM   11  C   UNK     0      -5.949 -23.993  -6.023  0.00  0.00    -0.027 A 
HETATM   12  C   UNK     0      -4.728 -23.416  -6.264  0.00  0.00    -0.031 A 
HETATM   13  C   UNK     0      -3.754 -23.848  -7.338  0.00  0.00     0.051 C 
HETATM   14  C   UNK     0      -7.859 -23.640  -4.325  0.00  0.00     0.115 C 
HETATM   15  C   UNK     0      -7.758 -24.059  -2.867  0.00  0.00     0.021 A 
HETATM   16  N   UNK     0      -7.255 -23.347  -1.841  0.00  0.00    -0.361 N 
HETATM   17  C   UNK     0      -7.283 -24.093  -0.735  0.00  0.00     0.022 A 
HETATM   18  C   UNK     0      -7.840 -25.348  -1.053  0.00  0.00    -0.027 A 
HETATM   19  C   UNK     0      -8.134 -25.313  -2.391  0.00  0.00    -0.031 A 
HETATM   20  C   UNK     0      -8.789 -26.459  -3.142  0.00  0.00     0.051 C 
HETATM   21  C   UNK     0      -6.773 -23.789   0.656  0.00  0.00     0.115 C 
HETATM   22  C   UNK     0      -5.535 -22.931   0.772  0.00  0.00     0.022 A 
HETATM   23  N   UNK     0      -4.429 -22.963   0.017  0.00  0.00    -0.361 N 
HETATM   24  C   UNK     0      -3.641 -21.930   0.377  0.00  0.00     0.021 A 
HETATM   25  C   UNK     0      -4.249 -21.222   1.396  0.00  0.00    -0.031 A 
HETATM   26  C   UNK     0      -3.739 -20.014   2.154  0.00  0.00     0.051 C 
HETATM   27  C   UNK     0      -5.463 -21.844   1.667  0.00  0.00    -0.027 A 
HETATM   28  C   UNK     0      -2.329 -21.498  -0.254  0.00  0.00     0.115 C 
HETATM   29  H   UNK     0      -3.031 -23.024  -2.674  0.00  0.00     0.165 HD
HETATM   30  H   UNK     0      -5.883 -21.551  -3.776  0.00  0.00     0.165 HD
HETATM   31  H   UNK     0      -6.917 -22.279  -1.888  0.00  0.00     0.165 HD
HETATM   32  H   UNK     0      -4.175 -23.741  -0.749  0.00  0.00     0.165 HD
ENDROOT
BRANCH   6  33
HETATM   33  C   UNK     0      -2.328 -18.671  -4.439  0.00  0.00     0.051 C 
BRANCH  33  34
HETATM   34  C   UNK     0      -0.874 -18.358  -4.702  0.00  0.00     0.114 C 
BRANCH  34  35
HETATM   35  C   UNK     0      -0.776 -17.823  -6.090  0.00  0.00     0.139 C 
HETATM   36  O   UNK     0       0.314 -17.903  -6.728  0.00  0.00    -0.650 OA
BRANCH  35  37
HETATM   37  O   UNK     0      -1.849 -17.227  -6.741  0.00  0.00    -0.776 OA
HETATM   38  H   UNK     0      -2.135 -16.281  -6.544  0.00  0.00     0.167 HD
ENDBRANCH  35  37
ENDBRANCH  34  35
ENDBRANCH  33  34
ENDBRANCH   6  33
BRANCH  27  39
HETATM   39  C   UNK     0      -6.372 -21.406   2.760  0.00  0.00     0.051 C 
BRANCH  39  40
HETATM   40  C   UNK     0      -7.799 -21.705   2.638  0.00  0.00     0.114 C 
BRANCH  40  41
HETATM   41  C   UNK     0      -8.770 -21.231   3.598  0.00  0.00     0.139 C 
HETATM   42  O   UNK     0      -8.747 -20.095   4.090  0.00  0.00    -0.650 OA
BRANCH  41  43
HETATM   43  O   UNK     0      -9.817 -22.104   4.010  0.00  0.00    -0.776 OA
HETATM   44  H   UNK     0     -10.269 -21.836   4.876  0.00  0.00     0.167 HD
ENDBRANCH  41  43
ENDBRANCH  40  41
ENDBRANCH  39  40
ENDBRANCH  27  39
BRANCH  11  45
HETATM   45  C   UNK     0      -6.514 -25.156  -6.793  0.00  0.00     0.051 C 
BRANCH  45  46
HETATM   46  C   UNK     0      -7.584 -24.785  -7.753  0.00  0.00     0.114 C 
BRANCH  46  47
HETATM   47  C   UNK     0      -8.704 -25.751  -7.561  0.00  0.00     0.139 C 
HETATM   48  O   UNK     0      -9.802 -25.317  -7.186  0.00  0.00    -0.650 OA
BRANCH  47  49
HETATM   49  O   UNK     0      -8.523 -27.091  -7.792  0.00  0.00    -0.776 OA
HETATM   50  H   UNK     0      -7.589 -27.515  -7.839  0.00  0.00     0.167 HD
ENDBRANCH  47  49
ENDBRANCH  46  47
ENDBRANCH  45  46
ENDBRANCH  11  45
BRANCH  18  51
HETATM   51  C   UNK     0      -8.097 -26.509  -0.128  0.00  0.00     0.051 C 
BRANCH  51  52
HETATM   52  C   UNK     0      -9.320 -26.135   0.696  0.00  0.00     0.114 C 
BRANCH  52  53
HETATM   53  C   UNK     0     -10.576 -26.472  -0.002  0.00  0.00     0.139 C 
HETATM   54  O   UNK     0     -10.909 -27.660  -0.144  0.00  0.00    -0.650 OA
BRANCH  53  55
HETATM   55  O   UNK     0     -11.372 -25.466  -0.494  0.00  0.00    -0.776 OA
HETATM   56  H   UNK     0     -12.364 -25.463  -0.513  0.00  0.00     0.167 HD
ENDBRANCH  53  55
ENDBRANCH  52  53
ENDBRANCH  51  52
ENDBRANCH  18  51
TORSDOF 16
ENDMDL
MODEL 13
REMARK VINA RESULT:      -8.7     31.558     34.554
REMARK  16 active torsions:
REMARK  status: ('A' for Active; 'I' for Inactive)
REMARK    1  A    between atoms: C_6  and  C_7 
REMARK    2  A    between atoms: C_7  and  C_8 
REMARK    3  A    between atoms: C_8  and  C_9 
REMARK    4  A    between atoms: C_9  and  O_11 
REMARK    5  A    between atoms: C_16  and  C_17 
REMARK    6  A    between atoms: C_17  and  C_18 
REMARK    7  A    between atoms: C_18  and  C_19 
REMARK    8  A    between atoms: C_19  and  O_21 
REMARK    9  A    between atoms: C_28  and  C_29 
REMARK   10  A    between atoms: C_29  and  C_30 
REMARK   11  A    between atoms: C_30  and  C_31 
REMARK   12  A    between atoms: C_31  and  O_33 
REMARK   13  A    between atoms: C_42  and  C_43 
REMARK   14  A    between atoms: C_43  and  C_44 
REMARK   15  A    between atoms: C_44  and  C_45 
REMARK   16  A    between atoms: C_45  and  O_47 
ROOT
HETATM    1  C   UNK     0      -6.666 -24.005  -0.191  0.00  0.00     0.051 C 
HETATM    2  C   UNK     0      -8.078 -23.841   0.333  0.00  0.00    -0.031 A 
HETATM    3  C   UNK     0      -8.510 -23.493   1.603  0.00  0.00     0.021 A 
HETATM    4  N   UNK     0      -9.864 -23.498   1.625  0.00  0.00    -0.361 N 
HETATM    5  C   UNK     0     -10.304 -23.833   0.394  0.00  0.00     0.022 A 
HETATM    6  C   UNK     0      -9.213 -24.058  -0.438  0.00  0.00    -0.027 A 
HETATM    7  C   UNK     0     -11.704 -23.891  -0.134  0.00  0.00     0.115 C 
HETATM    8  C   UNK     0     -12.630 -22.756   0.266  0.00  0.00     0.021 A 
HETATM    9  N   UNK     0     -12.336 -21.459   0.443  0.00  0.00    -0.361 N 
HETATM   10  C   UNK     0     -13.447 -20.833   0.886  0.00  0.00     0.022 A 
HETATM   11  C   UNK     0     -14.488 -21.751   0.988  0.00  0.00    -0.027 A 
HETATM   12  C   UNK     0     -13.981 -22.964   0.599  0.00  0.00    -0.031 A 
HETATM   13  C   UNK     0     -14.758 -24.260   0.546  0.00  0.00     0.051 C 
HETATM   14  C   UNK     0     -13.557 -19.363   1.279  0.00  0.00     0.115 C 
HETATM   15  C   UNK     0     -12.647 -18.964   2.430  0.00  0.00     0.021 A 
HETATM   16  N   UNK     0     -11.306 -19.062   2.489  0.00  0.00    -0.361 N 
HETATM   17  C   UNK     0     -10.890 -18.672   3.696  0.00  0.00     0.022 A 
HETATM   18  C   UNK     0     -12.014 -18.293   4.457  0.00  0.00    -0.027 A 
HETATM   19  C   UNK     0     -13.108 -18.479   3.652  0.00  0.00    -0.031 A 
HETATM   20  C   UNK     0     -14.530 -18.155   4.073  0.00  0.00     0.051 C 
HETATM   21  C   UNK     0      -9.499 -18.662   4.289  0.00  0.00     0.115 C 
HETATM   22  C   UNK     0      -8.553 -19.760   3.866  0.00  0.00     0.022 A 
HETATM   23  N   UNK     0      -8.819 -21.059   3.678  0.00  0.00    -0.361 N 
HETATM   24  C   UNK     0      -7.721 -21.647   3.163  0.00  0.00     0.021 A 
HETATM   25  C   UNK     0      -6.719 -20.706   3.025  0.00  0.00    -0.031 A 
HETATM   26  C   UNK     0      -5.299 -20.890   2.532  0.00  0.00     0.051 C 
HETATM   27  C   UNK     0      -7.227 -19.490   3.469  0.00  0.00    -0.027 A 
HETATM   28  C   UNK     0      -7.567 -23.085   2.699  0.00  0.00     0.115 C 
HETATM   29  H   UNK     0     -10.499 -23.303   2.520  0.00  0.00     0.165 HD
HETATM   30  H   UNK     0     -11.358 -20.972   0.208  0.00  0.00     0.165 HD
HETATM   31  H   UNK     0     -10.633 -19.367   1.646  0.00  0.00     0.165 HD
HETATM   32  H   UNK     0      -9.773 -21.583   3.948  0.00  0.00     0.165 HD
ENDROOT
BRANCH   6  33
HETATM   33  C   UNK     0      -9.167 -24.460  -1.891  0.00  0.00     0.051 C 
BRANCH  33  34
HETATM   34  C   UNK     0      -8.685 -25.884  -2.037  0.00  0.00     0.114 C 
BRANCH  34  35
HETATM   35  C   UNK     0      -9.889 -26.765  -2.027  0.00  0.00     0.139 C 
HETATM   36  O   UNK     0     -10.602 -26.879  -3.066  0.00  0.00    -0.650 OA
BRANCH  35  37
HETATM   37  O   UNK     0     -10.278 -27.490  -0.908  0.00  0.00    -0.776 OA
HETATM   38  H   UNK     0      -9.875 -28.386  -0.684  0.00  0.00     0.167 HD
ENDBRANCH  35  37
ENDBRANCH  34  35
ENDBRANCH  33  34
ENDBRANCH   6  33
BRANCH  27  39
HETATM   39  C   UNK     0      -6.412 -18.247   3.539  0.00  0.00     0.051 C 
BRANCH  39  40
HETATM   40  C   UNK     0      -6.644 -17.207   2.537  0.00  0.00     0.114 C 
BRANCH  40  41
HETATM   41  C   UNK     0      -5.793 -17.048   1.379  0.00  0.00     0.139 C 
HETATM   42  O   UNK     0      -6.201 -17.139   0.213  0.00  0.00    -0.650 OA
BRANCH  41  43
HETATM   43  O   UNK     0      -4.409 -16.773   1.571  0.00  0.00    -0.776 OA
HETATM   44  H   UNK     0      -4.135 -16.662   2.540  0.00  0.00     0.167 HD
ENDBRANCH  41  43
ENDBRANCH  40  41
ENDBRANCH  39  40
ENDBRANCH  27  39
BRANCH  11  45
HETATM   45  C   UNK     0     -15.908 -21.518   1.428  0.00  0.00     0.051 C 
BRANCH  45  46
HETATM   46  C   UNK     0     -16.696 -20.662   0.505  0.00  0.00     0.114 C 
BRANCH  46  47
HETATM   47  C   UNK     0     -17.928 -20.243   1.234  0.00  0.00     0.139 C 
HETATM   48  O   UNK     0     -17.803 -19.638   2.308  0.00  0.00    -0.650 OA
BRANCH  47  49
HETATM   49  O   UNK     0     -19.172 -20.522   0.729  0.00  0.00    -0.776 OA
HETATM   50  H   UNK     0     -20.028 -20.134   1.142  0.00  0.00     0.167 HD
ENDBRANCH  47  49
ENDBRANCH  46  47
ENDBRANCH  45  46
ENDBRANCH  11  45
BRANCH  18  51
HETATM   51  C   UNK     0     -12.042 -17.762   5.867  0.00  0.00     0.051 C 
BRANCH  51  52
HETATM   52  C   UNK     0     -12.380 -18.945   6.761  0.00  0.00     0.114 C 
BRANCH  52  53
HETATM   53  C   UNK     0     -13.195 -18.541   7.923  0.00  0.00     0.139 C 
HETATM   54  O   UNK     0     -14.139 -17.749   7.774  0.00  0.00    -0.650 OA
BRANCH  53  55
HETATM   55  O   UNK     0     -12.901 -19.043   9.167  0.00  0.00    -0.776 OA
HETATM   56  H   UNK     0     -13.366 -19.795   9.619  0.00  0.00     0.167 HD
ENDBRANCH  53  55
ENDBRANCH  52  53
ENDBRANCH  51  52
ENDBRANCH  18  51
TORSDOF 16
ENDMDL
MODEL 14
REMARK VINA RESULT:      -8.6     30.976     34.656
REMARK  16 active torsions:
REMARK  status: ('A' for Active; 'I' for Inactive)
REMARK    1  A    between atoms: C_6  and  C_7 
REMARK    2  A    between atoms: C_7  and  C_8 
REMARK    3  A    between atoms: C_8  and  C_9 
REMARK    4  A    between atoms: C_9  and  O_11 
REMARK    5  A    between atoms: C_16  and  C_17 
REMARK    6  A    between atoms: C_17  and  C_18 
REMARK    7  A    between atoms: C_18  and  C_19 
REMARK    8  A    between atoms: C_19  and  O_21 
REMARK    9  A    between atoms: C_28  and  C_29 
REMARK   10  A    between atoms: C_29  and  C_30 
REMARK   11  A    between atoms: C_30  and  C_31 
REMARK   12  A    between atoms: C_31  and  O_33 
REMARK   13  A    between atoms: C_42  and  C_43 
REMARK   14  A    between atoms: C_43  and  C_44 
REMARK   15  A    between atoms: C_44  and  C_45 
REMARK   16  A    between atoms: C_45  and  O_47 
ROOT
HETATM    1  C   UNK     0      -8.068 -24.872  -1.419  0.00  0.00     0.051 C 
HETATM    2  C   UNK     0      -9.133 -24.271  -0.524  0.00  0.00    -0.031 A 
HETATM    3  C   UNK     0      -9.076 -23.962   0.826  0.00  0.00     0.021 A 
HETATM    4  N   UNK     0     -10.276 -23.470   1.217  0.00  0.00    -0.361 N 
HETATM    5  C   UNK     0     -11.093 -23.450   0.143  0.00  0.00     0.022 A 
HETATM    6  C   UNK     0     -10.411 -23.947  -0.962  0.00  0.00    -0.027 A 
HETATM    7  C   UNK     0     -12.485 -22.915   0.017  0.00  0.00     0.115 C 
HETATM    8  C   UNK     0     -12.768 -21.584   0.690  0.00  0.00     0.021 A 
HETATM    9  N   UNK     0     -11.955 -20.524   0.821  0.00  0.00    -0.361 N 
HETATM   10  C   UNK     0     -12.591 -19.598   1.570  0.00  0.00     0.022 A 
HETATM   11  C   UNK     0     -13.851 -20.071   1.924  0.00  0.00    -0.027 A 
HETATM   12  C   UNK     0     -13.969 -21.322   1.373  0.00  0.00    -0.031 A 
HETATM   13  C   UNK     0     -15.180 -22.219   1.493  0.00  0.00     0.051 C 
HETATM   14  C   UNK     0     -12.018 -18.259   2.025  0.00  0.00     0.115 C 
HETATM   15  C   UNK     0     -10.778 -18.383   2.896  0.00  0.00     0.021 A 
HETATM   16  N   UNK     0      -9.611 -18.976   2.583  0.00  0.00    -0.361 N 
HETATM   17  C   UNK     0      -8.800 -18.935   3.642  0.00  0.00     0.022 A 
HETATM   18  C   UNK     0      -9.467 -18.274   4.693  0.00  0.00    -0.027 A 
HETATM   19  C   UNK     0     -10.705 -17.933   4.212  0.00  0.00    -0.031 A 
HETATM   20  C   UNK     0     -11.740 -17.167   5.015  0.00  0.00     0.051 C 
HETATM   21  C   UNK     0      -7.418 -19.519   3.832  0.00  0.00     0.115 C 
HETATM   22  C   UNK     0      -7.109 -20.821   3.132  0.00  0.00     0.022 A 
HETATM   23  N   UNK     0      -7.900 -21.892   2.983  0.00  0.00    -0.361 N 
HETATM   24  C   UNK     0      -7.278 -22.768   2.169  0.00  0.00     0.021 A 
HETATM   25  C   UNK     0      -6.052 -22.254   1.792  0.00  0.00    -0.031 A 
HETATM   26  C   UNK     0      -4.981 -22.881   0.924  0.00  0.00     0.051 C 
HETATM   27  C   UNK     0      -5.921 -21.008   2.396  0.00  0.00    -0.027 A 
HETATM   28  C   UNK     0      -7.816 -24.084   1.635  0.00  0.00     0.115 C 
HETATM   29  H   UNK     0     -10.549 -23.178   2.257  0.00  0.00     0.165 HD
HETATM   30  H   UNK     0     -10.952 -20.405   0.343  0.00  0.00     0.165 HD
HETATM   31  H   UNK     0      -9.335 -19.391   1.578  0.00  0.00     0.165 HD
HETATM   32  H   UNK     0      -8.888 -22.058   3.487  0.00  0.00     0.165 HD
ENDROOT
BRANCH   6  33
HETATM   33  C   UNK     0     -10.875 -24.136  -2.384  0.00  0.00     0.051 C 
BRANCH  33  34
HETATM   34  C   UNK     0     -10.598 -22.901  -3.207  0.00  0.00     0.114 C 
BRANCH  34  35
HETATM   35  C   UNK     0      -9.866 -23.336  -4.432  0.00  0.00     0.139 C 
HETATM   36  O   UNK     0      -9.573 -24.555  -4.599  0.00  0.00    -0.650 OA
BRANCH  35  37
HETATM   37  O   UNK     0      -9.481 -22.448  -5.429  0.00  0.00    -0.776 OA
HETATM   38  H   UNK     0      -8.519 -22.186  -5.570  0.00  0.00     0.167 HD
ENDBRANCH  35  37
ENDBRANCH  34  35
ENDBRANCH  33  34
ENDBRANCH   6  33
BRANCH  27  39
HETATM   39  C   UNK     0      -4.693 -20.176   2.280  0.00  0.00     0.051 C 
BRANCH  39  40
HETATM   40  C   UNK     0      -3.646 -20.339   3.289  0.00  0.00     0.114 C 
BRANCH  40  41
HETATM   41  C   UNK     0      -2.257 -20.524   2.935  0.00  0.00     0.139 C 
HETATM   42  O   UNK     0      -1.882 -20.933   1.828  0.00  0.00    -0.650 OA
BRANCH  41  43
HETATM   43  O   UNK     0      -1.253 -20.225   3.899  0.00  0.00    -0.776 OA
HETATM   44  H   UNK     0      -1.590 -20.169   4.852  0.00  0.00     0.167 HD
ENDBRANCH  41  43
ENDBRANCH  40  41
ENDBRANCH  39  40
ENDBRANCH  27  39
BRANCH  11  45
HETATM   45  C   UNK     0     -14.916 -19.392   2.743  0.00  0.00     0.051 C 
BRANCH  45  46
HETATM   46  C   UNK     0     -15.938 -18.679   1.936  0.00  0.00     0.114 C 
BRANCH  46  47
HETATM   47  C   UNK     0     -17.273 -19.188   2.363  0.00  0.00     0.139 C 
HETATM   48  O   UNK     0     -17.864 -19.990   1.627  0.00  0.00    -0.650 OA
BRANCH  47  49
HETATM   49  O   UNK     0     -17.836 -18.777   3.545  0.00  0.00    -0.776 OA
HETATM   50  H   UNK     0     -17.428 -19.017   4.456  0.00  0.00     0.167 HD
ENDBRANCH  47  49
ENDBRANCH  46  47
ENDBRANCH  45  46
ENDBRANCH  11  45
BRANCH  18  51
HETATM   51  C   UNK     0      -8.946 -17.967   6.073  0.00  0.00     0.051 C 
BRANCH  51  52
HETATM   52  C   UNK     0      -8.268 -16.608   5.979  0.00  0.00     0.114 C 
BRANCH  52  53
HETATM   53  C   UNK     0      -8.477 -15.805   7.199  0.00  0.00     0.139 C 
HETATM   54  O   UNK     0      -9.624 -15.632   7.641  0.00  0.00    -0.650 OA
BRANCH  53  55
HETATM   55  O   UNK     0      -7.396 -15.247   7.839  0.00  0.00    -0.776 OA
HETATM   56  H   UNK     0      -6.662 -15.744   8.286  0.00  0.00     0.167 HD
ENDBRANCH  53  55
ENDBRANCH  52  53
ENDBRANCH  51  52
ENDBRANCH  18  51
TORSDOF 16
ENDMDL
MODEL 15
REMARK VINA RESULT:      -8.4     30.963     34.202
REMARK  16 active torsions:
REMARK  status: ('A' for Active; 'I' for Inactive)
REMARK    1  A    between atoms: C_6  and  C_7 
REMARK    2  A    between atoms: C_7  and  C_8 
REMARK    3  A    between atoms: C_8  and  C_9 
REMARK    4  A    between atoms: C_9  and  O_11 
REMARK    5  A    between atoms: C_16  and  C_17 
REMARK    6  A    between atoms: C_17  and  C_18 
REMARK    7  A    between atoms: C_18  and  C_19 
REMARK    8  A    between atoms: C_19  and  O_21 
REMARK    9  A    between atoms: C_28  and  C_29 
REMARK   10  A    between atoms: C_29  and  C_30 
REMARK   11  A    between atoms: C_30  and  C_31 
REMARK   12  A    between atoms: C_31  and  O_33 
REMARK   13  A    between atoms: C_42  and  C_43 
REMARK   14  A    between atoms: C_43  and  C_44 
REMARK   15  A    between atoms: C_44  and  C_45 
REMARK   16  A    between atoms: C_45  and  O_47 
ROOT
HETATM    1  C   UNK     0      -6.763 -23.643   1.787  0.00  0.00     0.051 C 
HETATM    2  C   UNK     0      -8.255 -23.384   1.837  0.00  0.00    -0.031 A 
HETATM    3  C   UNK     0      -8.996 -22.684   2.777  0.00  0.00     0.021 A 
HETATM    4  N   UNK     0     -10.305 -22.736   2.434  0.00  0.00    -0.361 N 
HETATM    5  C   UNK     0     -10.414 -23.445   1.292  0.00  0.00     0.022 A 
HETATM    6  C   UNK     0      -9.151 -23.868   0.892  0.00  0.00    -0.027 A 
HETATM    7  C   UNK     0     -11.622 -23.715   0.450  0.00  0.00     0.115 C 
HETATM    8  C   UNK     0     -12.569 -22.550   0.224  0.00  0.00     0.021 A 
HETATM    9  N   UNK     0     -12.274 -21.250   0.073  0.00  0.00    -0.361 N 
HETATM   10  C   UNK     0     -13.433 -20.564  -0.010  0.00  0.00     0.022 A 
HETATM   11  C   UNK     0     -14.505 -21.447   0.081  0.00  0.00    -0.027 A 
HETATM   12  C   UNK     0     -13.967 -22.701   0.228  0.00  0.00    -0.031 A 
HETATM   13  C   UNK     0     -14.760 -23.982   0.361  0.00  0.00     0.051 C 
HETATM   14  C   UNK     0     -13.578 -19.049  -0.124  0.00  0.00     0.115 C 
HETATM   15  C   UNK     0     -12.993 -18.284   1.053  0.00  0.00     0.021 A 
HETATM   16  N   UNK     0     -11.723 -18.307   1.497  0.00  0.00    -0.361 N 
HETATM   17  C   UNK     0     -11.629 -17.554   2.595  0.00  0.00     0.022 A 
HETATM   18  C   UNK     0     -12.897 -17.006   2.874  0.00  0.00    -0.027 A 
HETATM   19  C   UNK     0     -13.742 -17.470   1.900  0.00  0.00    -0.031 A 
HETATM   20  C   UNK     0     -15.208 -17.091   1.804  0.00  0.00     0.051 C 
HETATM   21  C   UNK     0     -10.448 -17.309   3.508  0.00  0.00     0.115 C 
HETATM   22  C   UNK     0      -9.474 -18.446   3.707  0.00  0.00     0.022 A 
HETATM   23  N   UNK     0      -9.739 -19.750   3.856  0.00  0.00    -0.361 N 
HETATM   24  C   UNK     0      -8.570 -20.423   3.858  0.00  0.00     0.021 A 
HETATM   25  C   UNK     0      -7.527 -19.529   3.718  0.00  0.00    -0.031 A 
HETATM   26  C   UNK     0      -6.036 -19.798   3.704  0.00  0.00     0.051 C 
HETATM   27  C   UNK     0      -8.080 -18.257   3.619  0.00  0.00    -0.027 A 
HETATM   28  C   UNK     0      -8.363 -21.927   3.910  0.00  0.00     0.115 C 
HETATM   29  H   UNK     0     -11.147 -22.304   3.023  0.00  0.00     0.165 HD
HETATM   30  H   UNK     0     -11.248 -20.819  -0.026  0.00  0.00     0.165 HD
HETATM   31  H   UNK     0     -10.863 -18.826   0.999  0.00  0.00     0.165 HD
HETATM   32  H   UNK     0     -10.753 -20.205   4.005  0.00  0.00     0.165 HD
ENDROOT
BRANCH   6  33
HETATM   33  C   UNK     0      -8.735 -24.689  -0.303  0.00  0.00     0.051 C 
BRANCH  33  34
HETATM   34  C   UNK     0      -8.710 -26.159   0.041  0.00  0.00     0.114 C 
BRANCH  34  35
HETATM   35  C   UNK     0      -9.840 -26.807  -0.686  0.00  0.00     0.139 C 
HETATM   36  O   UNK     0     -10.265 -26.314  -1.771  0.00  0.00    -0.650 OA
BRANCH  35  37
HETATM   37  O   UNK     0     -10.467 -27.958  -0.223  0.00  0.00    -0.776 OA
HETATM   38  H   UNK     0     -10.167 -28.430   0.615  0.00  0.00     0.167 HD
ENDBRANCH  35  37
ENDBRANCH  34  35
ENDBRANCH  33  34
ENDBRANCH   6  33
BRANCH  27  39
HETATM   39  C   UNK     0      -7.257 -17.020   3.527  0.00  0.00     0.051 C 
BRANCH  39  40
HETATM   40  C   UNK     0      -7.041 -16.238   4.744  0.00  0.00     0.114 C 
BRANCH  40  41
HETATM   41  C   UNK     0      -7.678 -14.958   4.961  0.00  0.00     0.139 C 
HETATM   42  O   UNK     0      -8.890 -14.826   5.177  0.00  0.00    -0.650 OA
BRANCH  41  43
HETATM   43  O   UNK     0      -6.884 -13.777   4.926  0.00  0.00    -0.776 OA
HETATM   44  H   UNK     0      -7.148 -13.075   5.606  0.00  0.00     0.167 HD
ENDBRANCH  41  43
ENDBRANCH  40  41
ENDBRANCH  39  40
ENDBRANCH  27  39
BRANCH  11  45
HETATM   45  C   UNK     0     -15.979 -21.148   0.031  0.00  0.00     0.051 C 
BRANCH  45  46
HETATM   46  C   UNK     0     -16.559 -20.740   1.336  0.00  0.00     0.114 C 
BRANCH  46  47
HETATM   47  C   UNK     0     -17.967 -20.320   1.081  0.00  0.00     0.139 C 
HETATM   48  O   UNK     0     -18.628 -19.861   2.023  0.00  0.00    -0.650 OA
BRANCH  47  49
HETATM   49  O   UNK     0     -18.521 -20.440  -0.168  0.00  0.00    -0.776 OA
HETATM   50  H   UNK     0     -19.400 -19.974  -0.422  0.00  0.00     0.167 HD
ENDBRANCH  47  49
ENDBRANCH  46  47
ENDBRANCH  45  46
ENDBRANCH  11  45
BRANCH  18  51
HETATM   51  C   UNK     0     -13.277 -16.075   3.996  0.00  0.00     0.051 C 
BRANCH  51  52
HETATM   52  C   UNK     0     -13.547 -16.955   5.207  0.00  0.00     0.114 C 
BRANCH  52  53
HETATM   53  C   UNK     0     -12.841 -16.469   6.408  0.00  0.00     0.139 C 
HETATM   54  O   UNK     0     -13.263 -16.761   7.538  0.00  0.00    -0.650 OA
BRANCH  53  55
HETATM   55  O   UNK     0     -11.717 -15.691   6.267  0.00  0.00    -0.776 OA
HETATM   56  H   UNK     0     -11.285 -15.439   5.410  0.00  0.00     0.167 HD
ENDBRANCH  53  55
ENDBRANCH  52  53
ENDBRANCH  51  52
ENDBRANCH  18  51
TORSDOF 16
ENDMDL
MODEL 16
REMARK VINA RESULT:      -8.3     28.672     33.142
REMARK  16 active torsions:
REMARK  status: ('A' for Active; 'I' for Inactive)
REMARK    1  A    between atoms: C_6  and  C_7 
REMARK    2  A    between atoms: C_7  and  C_8 
REMARK    3  A    between atoms: C_8  and  C_9 
REMARK    4  A    between atoms: C_9  and  O_11 
REMARK    5  A    between atoms: C_16  and  C_17 
REMARK    6  A    between atoms: C_17  and  C_18 
REMARK    7  A    between atoms: C_18  and  C_19 
REMARK    8  A    between atoms: C_19  and  O_21 
REMARK    9  A    between atoms: C_28  and  C_29 
REMARK   10  A    between atoms: C_29  and  C_30 
REMARK   11  A    between atoms: C_30  and  C_31 
REMARK   12  A    between atoms: C_31  and  O_33 
REMARK   13  A    between atoms: C_42  and  C_43 
REMARK   14  A    between atoms: C_43  and  C_44 
REMARK   15  A    between atoms: C_44  and  C_45 
REMARK   16  A    between atoms: C_45  and  O_47 
ROOT
HETATM    1  C   UNK     0       7.428  -2.377 -25.102  0.00  0.00     0.051 C 
HETATM    2  C   UNK     0       8.350  -2.718 -23.950  0.00  0.00    -0.031 A 
HETATM    3  C   UNK     0       8.492  -3.912 -23.261  0.00  0.00     0.021 A 
HETATM    4  N   UNK     0       9.415  -3.750 -22.283  0.00  0.00    -0.361 N 
HETATM    5  C   UNK     0       9.870  -2.481 -22.339  0.00  0.00     0.022 A 
HETATM    6  C   UNK     0       9.223  -1.807 -23.369  0.00  0.00    -0.027 A 
HETATM    7  C   UNK     0      10.956  -1.823 -21.547  0.00  0.00     0.115 C 
HETATM    8  C   UNK     0      12.221  -2.633 -21.320  0.00  0.00     0.021 A 
HETATM    9  N   UNK     0      12.818  -3.501 -22.151  0.00  0.00    -0.361 N 
HETATM   10  C   UNK     0      13.862  -4.056 -21.499  0.00  0.00     0.022 A 
HETATM   11  C   UNK     0      13.944  -3.524 -20.215  0.00  0.00    -0.027 A 
HETATM   12  C   UNK     0      12.913  -2.627 -20.096  0.00  0.00    -0.031 A 
HETATM   13  C   UNK     0      12.612  -1.800 -18.866  0.00  0.00     0.051 C 
HETATM   14  C   UNK     0      14.786  -5.143 -22.037  0.00  0.00     0.115 C 
HETATM   15  C   UNK     0      14.074  -6.440 -22.386  0.00  0.00     0.021 A 
HETATM   16  N   UNK     0      13.067  -6.614 -23.263  0.00  0.00    -0.361 N 
HETATM   17  C   UNK     0      12.672  -7.889 -23.229  0.00  0.00     0.022 A 
HETATM   18  C   UNK     0      13.465  -8.580 -22.292  0.00  0.00    -0.027 A 
HETATM   19  C   UNK     0      14.340  -7.662 -21.772  0.00  0.00    -0.031 A 
HETATM   20  C   UNK     0      15.406  -7.999 -20.745  0.00  0.00     0.051 C 
HETATM   21  C   UNK     0      11.541  -8.576 -23.961  0.00  0.00     0.115 C 
HETATM   22  C   UNK     0      10.294  -7.768 -24.232  0.00  0.00     0.022 A 
HETATM   23  N   UNK     0       9.679  -6.894 -23.425  0.00  0.00    -0.361 N 
HETATM   24  C   UNK     0       8.691  -6.297 -24.121  0.00  0.00     0.021 A 
HETATM   25  C   UNK     0       8.662  -6.806 -25.405  0.00  0.00    -0.031 A 
HETATM   26  C   UNK     0       7.712  -6.480 -26.539  0.00  0.00     0.051 C 
HETATM   27  C   UNK     0       9.679  -7.750 -25.500  0.00  0.00    -0.027 A 
HETATM   28  C   UNK     0       7.779  -5.172 -23.662  0.00  0.00     0.115 C 
HETATM   29  H   UNK     0       9.710  -4.522 -21.535  0.00  0.00     0.165 HD
HETATM   30  H   UNK     0      12.536  -3.687 -23.216  0.00  0.00     0.165 HD
HETATM   31  H   UNK     0      12.658  -5.833 -23.955  0.00  0.00     0.165 HD
HETATM   32  H   UNK     0       9.909  -6.721 -22.341  0.00  0.00     0.165 HD
ENDROOT
BRANCH   6  33
HETATM   33  C   UNK     0       9.366  -0.380 -23.835  0.00  0.00     0.051 C 
BRANCH  33  34
HETATM   34  C   UNK     0       8.399   0.522 -23.105  0.00  0.00     0.114 C 
BRANCH  34  35
HETATM   35  C   UNK     0       7.448   1.067 -24.116  0.00  0.00     0.139 C 
HETATM   36  O   UNK     0       7.787   1.146 -25.332  0.00  0.00    -0.650 OA
BRANCH  35  37
HETATM   37  O   UNK     0       6.171   1.504 -23.783  0.00  0.00    -0.776 OA
HETATM   38  H   UNK     0       5.361   1.247 -24.324  0.00  0.00     0.167 HD
ENDBRANCH  35  37
ENDBRANCH  34  35
ENDBRANCH  33  34
ENDBRANCH   6  33
BRANCH  27  39
HETATM   39  C   UNK     0       9.914  -8.567 -26.721  0.00  0.00     0.051 C 
BRANCH  39  40
HETATM   40  C   UNK     0      10.852  -8.064 -27.724  0.00  0.00     0.114 C 
BRANCH  40  41
HETATM   41  C   UNK     0      10.534  -8.042 -29.134  0.00  0.00     0.139 C 
HETATM   42  O   UNK     0       9.458  -7.629 -29.586  0.00  0.00    -0.650 OA
BRANCH  41  43
HETATM   43  O   UNK     0      11.499  -8.517 -30.067  0.00  0.00    -0.776 OA
HETATM   44  H   UNK     0      12.456  -8.274 -29.841  0.00  0.00     0.167 HD
ENDBRANCH  41  43
ENDBRANCH  40  41
ENDBRANCH  39  40
ENDBRANCH  27  39
BRANCH  11  45
HETATM   45  C   UNK     0      14.942  -3.830 -19.131  0.00  0.00     0.051 C 
BRANCH  45  46
HETATM   46  C   UNK     0      14.511  -4.897 -18.193  0.00  0.00     0.114 C 
BRANCH  46  47
HETATM   47  C   UNK     0      15.706  -5.739 -17.902  0.00  0.00     0.139 C 
HETATM   48  O   UNK     0      16.789  -5.430 -18.420  0.00  0.00    -0.650 OA
BRANCH  47  49
HETATM   49  O   UNK     0      15.612  -6.834 -17.080  0.00  0.00    -0.776 OA
HETATM   50  H   UNK     0      16.028  -7.739 -17.328  0.00  0.00     0.167 HD
ENDBRANCH  47  49
ENDBRANCH  46  47
ENDBRANCH  45  46
ENDBRANCH  11  45
BRANCH  18  51
HETATM   51  C   UNK     0      13.407 -10.041 -21.927  0.00  0.00     0.051 C 
BRANCH  51  52
HETATM   52  C   UNK     0      13.845 -10.807 -23.167  0.00  0.00     0.114 C 
BRANCH  52  53
HETATM   53  C   UNK     0      12.989 -11.984 -23.416  0.00  0.00     0.139 C 
HETATM   54  O   UNK     0      13.287 -12.790 -24.312  0.00  0.00    -0.650 OA
BRANCH  53  55
HETATM   55  O   UNK     0      11.862 -12.178 -22.656  0.00  0.00    -0.776 OA
HETATM   56  H   UNK     0      11.840 -12.374 -21.683  0.00  0.00     0.167 HD
ENDBRANCH  53  55
ENDBRANCH  52  53
ENDBRANCH  51  52
ENDBRANCH  18  51
TORSDOF 16
ENDMDL
MODEL 17
REMARK VINA RESULT:      -8.3     31.048     34.804
REMARK  16 active torsions:
REMARK  status: ('A' for Active; 'I' for Inactive)
REMARK    1  A    between atoms: C_6  and  C_7 
REMARK    2  A    between atoms: C_7  and  C_8 
REMARK    3  A    between atoms: C_8  and  C_9 
REMARK    4  A    between atoms: C_9  and  O_11 
REMARK    5  A    between atoms: C_16  and  C_17 
REMARK    6  A    between atoms: C_17  and  C_18 
REMARK    7  A    between atoms: C_18  and  C_19 
REMARK    8  A    between atoms: C_19  and  O_21 
REMARK    9  A    between atoms: C_28  and  C_29 
REMARK   10  A    between atoms: C_29  and  C_30 
REMARK   11  A    between atoms: C_30  and  C_31 
REMARK   12  A    between atoms: C_31  and  O_33 
REMARK   13  A    between atoms: C_42  and  C_43 
REMARK   14  A    between atoms: C_43  and  C_44 
REMARK   15  A    between atoms: C_44  and  C_45 
REMARK   16  A    between atoms: C_45  and  O_47 
ROOT
HETATM    1  C   UNK     0      -9.472 -24.643  -0.452  0.00  0.00     0.051 C 
HETATM    2  C   UNK     0     -10.293 -23.651   0.347  0.00  0.00    -0.031 A 
HETATM    3  C   UNK     0     -10.059 -23.132   1.610  0.00  0.00     0.021 A 
HETATM    4  N   UNK     0     -11.076 -22.300   1.940  0.00  0.00    -0.361 N 
HETATM    5  C   UNK     0     -11.948 -22.271   0.911  0.00  0.00     0.022 A 
HETATM    6  C   UNK     0     -11.490 -23.108  -0.101  0.00  0.00    -0.027 A 
HETATM    7  C   UNK     0     -13.182 -21.444   0.732  0.00  0.00     0.115 C 
HETATM    8  C   UNK     0     -13.091 -19.986   1.147  0.00  0.00     0.021 A 
HETATM    9  N   UNK     0     -12.046 -19.151   1.045  0.00  0.00    -0.361 N 
HETATM   10  C   UNK     0     -12.387 -17.980   1.624  0.00  0.00     0.022 A 
HETATM   11  C   UNK     0     -13.690 -18.060   2.105  0.00  0.00    -0.027 A 
HETATM   12  C   UNK     0     -14.140 -19.321   1.807  0.00  0.00    -0.031 A 
HETATM   13  C   UNK     0     -15.514 -19.860   2.137  0.00  0.00     0.051 C 
HETATM   14  C   UNK     0     -11.483 -16.762   1.795  0.00  0.00     0.115 C 
HETATM   15  C   UNK     0     -10.241 -17.029   2.631  0.00  0.00     0.021 A 
HETATM   16  N   UNK     0      -9.274 -17.936   2.398  0.00  0.00    -0.361 N 
HETATM   17  C   UNK     0      -8.394 -17.906   3.402  0.00  0.00     0.022 A 
HETATM   18  C   UNK     0      -8.804 -16.927   4.329  0.00  0.00    -0.027 A 
HETATM   19  C   UNK     0      -9.961 -16.384   3.834  0.00  0.00    -0.031 A 
HETATM   20  C   UNK     0     -10.722 -15.259   4.510  0.00  0.00     0.051 C 
HETATM   21  C   UNK     0      -7.177 -18.767   3.653  0.00  0.00     0.115 C 
HETATM   22  C   UNK     0      -7.237 -20.208   3.205  0.00  0.00     0.022 A 
HETATM   23  N   UNK     0      -8.265 -21.062   3.291  0.00  0.00    -0.361 N 
HETATM   24  C   UNK     0      -7.931 -22.194   2.639  0.00  0.00     0.021 A 
HETATM   25  C   UNK     0      -6.653 -22.070   2.130  0.00  0.00    -0.031 A 
HETATM   26  C   UNK     0      -5.830 -23.083   1.362  0.00  0.00     0.051 C 
HETATM   27  C   UNK     0      -6.187 -20.807   2.479  0.00  0.00    -0.027 A 
HETATM   28  C   UNK     0      -8.802 -23.412   2.385  0.00  0.00     0.115 C 
HETATM   29  H   UNK     0     -11.190 -21.770   2.914  0.00  0.00     0.165 HD
HETATM   30  H   UNK     0     -11.084 -19.367   0.520  0.00  0.00     0.165 HD
HETATM   31  H   UNK     0      -9.182 -18.577   1.483  0.00  0.00     0.165 HD
HETATM   32  H   UNK     0      -9.221 -20.890   3.850  0.00  0.00     0.165 HD
ENDROOT
BRANCH   6  33
HETATM   33  C   UNK     0     -12.097 -23.428  -1.444  0.00  0.00     0.051 C 
BRANCH  33  34
HETATM   34  C   UNK     0     -11.677 -22.409  -2.477  0.00  0.00     0.114 C 
BRANCH  34  35
HETATM   35  C   UNK     0     -10.819 -23.113  -3.474  0.00  0.00     0.139 C 
HETATM   36  O   UNK     0      -9.573 -22.893  -3.511  0.00  0.00    -0.650 OA
BRANCH  35  37
HETATM   37  O   UNK     0     -11.329 -24.024  -4.391  0.00  0.00    -0.776 OA
HETATM   38  H   UNK     0     -11.479 -23.784  -5.357  0.00  0.00     0.167 HD
ENDBRANCH  35  37
ENDBRANCH  34  35
ENDBRANCH  33  34
ENDBRANCH   6  33
BRANCH  27  39
HETATM   39  C   UNK     0      -4.812 -20.335   2.165  0.00  0.00     0.051 C 
BRANCH  39  40
HETATM   40  C   UNK     0      -3.786 -20.444   3.202  0.00  0.00     0.114 C 
BRANCH  40  41
HETATM   41  C   UNK     0      -2.382 -20.582   2.886  0.00  0.00     0.139 C 
HETATM   42  O   UNK     0      -1.957 -20.810   1.745  0.00  0.00    -0.650 OA
BRANCH  41  43
HETATM   43  O   UNK     0      -1.423 -20.452   3.930  0.00  0.00    -0.776 OA
HETATM   44  H   UNK     0      -0.477 -20.697   3.662  0.00  0.00     0.167 HD
ENDBRANCH  41  43
ENDBRANCH  40  41
ENDBRANCH  39  40
ENDBRANCH  27  39
BRANCH  11  45
HETATM   45  C   UNK     0     -14.499 -17.008   2.814  0.00  0.00     0.051 C 
BRANCH  45  46
HETATM   46  C   UNK     0     -14.140 -16.829   4.244  0.00  0.00     0.114 C 
BRANCH  46  47
HETATM   47  C   UNK     0     -14.983 -17.773   5.032  0.00  0.00     0.139 C 
HETATM   48  O   UNK     0     -16.214 -17.629   5.008  0.00  0.00    -0.650 OA
BRANCH  47  49
HETATM   49  O   UNK     0     -14.411 -18.777   5.771  0.00  0.00    -0.776 OA
HETATM   50  H   UNK     0     -14.864 -19.691   5.891  0.00  0.00     0.167 HD
ENDBRANCH  47  49
ENDBRANCH  46  47
ENDBRANCH  45  46
ENDBRANCH  11  45
BRANCH  18  51
HETATM   51  C   UNK     0      -8.118 -16.516   5.606  0.00  0.00     0.051 C 
BRANCH  51  52
HETATM   52  C   UNK     0      -8.834 -17.251   6.730  0.00  0.00     0.114 C 
BRANCH  52  53
HETATM   53  C   UNK     0      -8.708 -16.542   8.018  0.00  0.00     0.139 C 
HETATM   54  O   UNK     0      -8.624 -17.186   9.076  0.00  0.00    -0.650 OA
BRANCH  53  55
HETATM   55  O   UNK     0      -8.687 -15.169   8.038  0.00  0.00    -0.776 OA
HETATM   56  H   UNK     0      -7.903 -14.593   7.840  0.00  0.00     0.167 HD
ENDBRANCH  53  55
ENDBRANCH  52  53
ENDBRANCH  51  52
ENDBRANCH  18  51
TORSDOF 16
ENDMDL
MODEL 18
REMARK VINA RESULT:      -8.2     27.842     30.142
REMARK  16 active torsions:
REMARK  status: ('A' for Active; 'I' for Inactive)
REMARK    1  A    between atoms: C_6  and  C_7 
REMARK    2  A    between atoms: C_7  and  C_8 
REMARK    3  A    between atoms: C_8  and  C_9 
REMARK    4  A    between atoms: C_9  and  O_11 
REMARK    5  A    between atoms: C_16  and  C_17 
REMARK    6  A    between atoms: C_17  and  C_18 
REMARK    7  A    between atoms: C_18  and  C_19 
REMARK    8  A    between atoms: C_19  and  O_21 
REMARK    9  A    between atoms: C_28  and  C_29 
REMARK   10  A    between atoms: C_29  and  C_30 
REMARK   11  A    between atoms: C_30  and  C_31 
REMARK   12  A    between atoms: C_31  and  O_33 
REMARK   13  A    between atoms: C_42  and  C_43 
REMARK   14  A    between atoms: C_43  and  C_44 
REMARK   15  A    between atoms: C_44  and  C_45 
REMARK   16  A    between atoms: C_45  and  O_47 
ROOT
HETATM    1  C   UNK     0       9.077  -5.948 -25.207  0.00  0.00     0.051 C 
HETATM    2  C   UNK     0       8.724  -5.097 -26.410  0.00  0.00    -0.031 A 
HETATM    3  C   UNK     0       7.819  -4.053 -26.514  0.00  0.00     0.021 A 
HETATM    4  N   UNK     0       7.809  -3.604 -27.792  0.00  0.00    -0.361 N 
HETATM    5  C   UNK     0       8.693  -4.334 -28.502  0.00  0.00     0.022 A 
HETATM    6  C   UNK     0       9.281  -5.280 -27.669  0.00  0.00    -0.027 A 
HETATM    7  C   UNK     0       9.126  -4.182 -29.927  0.00  0.00     0.115 C 
HETATM    8  C   UNK     0       9.376  -2.766 -30.416  0.00  0.00     0.021 A 
HETATM    9  N   UNK     0       9.892  -1.727 -29.740  0.00  0.00    -0.361 N 
HETATM   10  C   UNK     0       9.844  -0.642 -30.541  0.00  0.00     0.022 A 
HETATM   11  C   UNK     0       9.291  -0.993 -31.769  0.00  0.00    -0.027 A 
HETATM   12  C   UNK     0       8.994  -2.330 -31.697  0.00  0.00    -0.031 A 
HETATM   13  C   UNK     0       8.378  -3.150 -32.808  0.00  0.00     0.051 C 
HETATM   14  C   UNK     0      10.267   0.776 -30.164  0.00  0.00     0.115 C 
HETATM   15  C   UNK     0       9.480   1.365 -29.005  0.00  0.00     0.021 A 
HETATM   16  N   UNK     0       9.368   0.876 -27.755  0.00  0.00    -0.361 N 
HETATM   17  C   UNK     0       8.532   1.647 -27.056  0.00  0.00     0.022 A 
HETATM   18  C   UNK     0       8.084   2.693 -27.887  0.00  0.00    -0.027 A 
HETATM   19  C   UNK     0       8.686   2.506 -29.105  0.00  0.00    -0.031 A 
HETATM   20  C   UNK     0       8.505   3.438 -30.288  0.00  0.00     0.051 C 
HETATM   21  C   UNK     0       8.019   1.491 -25.643  0.00  0.00     0.115 C 
HETATM   22  C   UNK     0       7.807   0.087 -25.128  0.00  0.00     0.022 A 
HETATM   23  N   UNK     0       7.300  -0.968 -25.779  0.00  0.00    -0.361 N 
HETATM   24  C   UNK     0       7.429  -2.054 -24.991  0.00  0.00     0.021 A 
HETATM   25  C   UNK     0       8.025  -1.688 -23.799  0.00  0.00    -0.031 A 
HETATM   26  C   UNK     0       8.341  -2.543 -22.590  0.00  0.00     0.051 C 
HETATM   27  C   UNK     0       8.276  -0.322 -23.863  0.00  0.00    -0.027 A 
HETATM   28  C   UNK     0       7.083  -3.494 -25.329  0.00  0.00     0.115 C 
HETATM   29  H   UNK     0       7.147  -2.800 -28.191  0.00  0.00     0.165 HD
HETATM   30  H   UNK     0      10.337  -1.768 -28.716  0.00  0.00     0.165 HD
HETATM   31  H   UNK     0       9.928  -0.003 -27.343  0.00  0.00     0.165 HD
HETATM   32  H   UNK     0       6.805  -0.947 -26.785  0.00  0.00     0.165 HD
ENDROOT
BRANCH   6  33
HETATM   33  C   UNK     0      10.318  -6.331 -27.975  0.00  0.00     0.051 C 
BRANCH  33  34
HETATM   34  C   UNK     0       9.730  -7.428 -28.830  0.00  0.00     0.114 C 
BRANCH  34  35
HETATM   35  C   UNK     0       8.952  -8.327 -27.930  0.00  0.00     0.139 C 
HETATM   36  O   UNK     0       7.687  -8.321 -27.962  0.00  0.00    -0.650 OA
BRANCH  35  37
HETATM   37  O   UNK     0       9.559  -9.199 -27.034  0.00  0.00    -0.776 OA
HETATM   38  H   UNK     0       9.025  -9.769 -26.398  0.00  0.00     0.167 HD
ENDBRANCH  35  37
ENDBRANCH  34  35
ENDBRANCH  33  34
ENDBRANCH   6  33
BRANCH  27  39
HETATM   39  C   UNK     0       8.851   0.450 -22.729  0.00  0.00     0.051 C 
BRANCH  39  40
HETATM   40  C   UNK     0      10.243   0.888 -22.822  0.00  0.00     0.114 C 
BRANCH  40  41
HETATM   41  C   UNK     0      11.147   0.375 -23.827  0.00  0.00     0.139 C 
HETATM   42  O   UNK     0      11.315   0.910 -24.931  0.00  0.00    -0.650 OA
BRANCH  41  43
HETATM   43  O   UNK     0      11.890  -0.807 -23.550  0.00  0.00    -0.776 OA
HETATM   44  H   UNK     0      11.779  -1.160 -22.607  0.00  0.00     0.167 HD
ENDBRANCH  41  43
ENDBRANCH  40  41
ENDBRANCH  39  40
ENDBRANCH  27  39
BRANCH  11  45
HETATM   45  C   UNK     0       9.046  -0.125 -32.974  0.00  0.00     0.051 C 
BRANCH  45  46
HETATM   46  C   UNK     0       7.701   0.505 -33.004  0.00  0.00     0.114 C 
BRANCH  46  47
HETATM   47  C   UNK     0       7.289   0.601 -34.433  0.00  0.00     0.139 C 
HETATM   48  O   UNK     0       7.732  -0.234 -35.234  0.00  0.00    -0.650 OA
BRANCH  47  49
HETATM   49  O   UNK     0       6.441   1.593 -34.855  0.00  0.00    -0.776 OA
HETATM   50  H   UNK     0       5.674   1.411 -35.514  0.00  0.00     0.167 HD
ENDBRANCH  47  49
ENDBRANCH  46  47
ENDBRANCH  45  46
ENDBRANCH  11  45
BRANCH  18  51
HETATM   51  C   UNK     0       7.151   3.822 -27.534  0.00  0.00     0.051 C 
BRANCH  51  52
HETATM   52  C   UNK     0       5.755   3.357 -27.921  0.00  0.00     0.114 C 
BRANCH  52  53
HETATM   53  C   UNK     0       4.824   3.402 -26.777  0.00  0.00     0.139 C 
HETATM   54  O   UNK     0       3.603   3.278 -26.963  0.00  0.00    -0.650 OA
BRANCH  53  55
HETATM   55  O   UNK     0       5.316   3.584 -25.507  0.00  0.00    -0.776 OA
HETATM   56  H   UNK     0       4.869   4.081 -24.773  0.00  0.00     0.167 HD
ENDBRANCH  53  55
ENDBRANCH  52  53
ENDBRANCH  51  52
ENDBRANCH  18  51
TORSDOF 16
ENDMDL
MODEL 19
REMARK VINA RESULT:      -8.0     30.889     33.931
REMARK  16 active torsions:
REMARK  status: ('A' for Active; 'I' for Inactive)
REMARK    1  A    between atoms: C_6  and  C_7 
REMARK    2  A    between atoms: C_7  and  C_8 
REMARK    3  A    between atoms: C_8  and  C_9 
REMARK    4  A    between atoms: C_9  and  O_11 
REMARK    5  A    between atoms: C_16  and  C_17 
REMARK    6  A    between atoms: C_17  and  C_18 
REMARK    7  A    between atoms: C_18  and  C_19 
REMARK    8  A    between atoms: C_19  and  O_21 
REMARK    9  A    between atoms: C_28  and  C_29 
REMARK   10  A    between atoms: C_29  and  C_30 
REMARK   11  A    between atoms: C_30  and  C_31 
REMARK   12  A    between atoms: C_31  and  O_33 
REMARK   13  A    between atoms: C_42  and  C_43 
REMARK   14  A    between atoms: C_43  and  C_44 
REMARK   15  A    between atoms: C_44  and  C_45 
REMARK   16  A    between atoms: C_45  and  O_47 
ROOT
HETATM    1  C   UNK     0     -15.850 -16.575   1.688  0.00  0.00     0.051 C 
HETATM    2  C   UNK     0     -14.804 -17.517   1.129  0.00  0.00    -0.031 A 
HETATM    3  C   UNK     0     -13.426 -17.374   1.082  0.00  0.00     0.021 A 
HETATM    4  N   UNK     0     -12.892 -18.453   0.463  0.00  0.00    -0.361 N 
HETATM    5  C   UNK     0     -13.898 -19.285   0.123  0.00  0.00     0.022 A 
HETATM    6  C   UNK     0     -15.108 -18.729   0.522  0.00  0.00    -0.027 A 
HETATM    7  C   UNK     0     -13.839 -20.648  -0.494  0.00  0.00     0.115 C 
HETATM    8  C   UNK     0     -12.776 -21.592   0.040  0.00  0.00     0.021 A 
HETATM    9  N   UNK     0     -12.322 -21.715   1.296  0.00  0.00    -0.361 N 
HETATM   10  C   UNK     0     -11.313 -22.613   1.292  0.00  0.00     0.022 A 
HETATM   11  C   UNK     0     -11.119 -23.088  -0.002  0.00  0.00    -0.027 A 
HETATM   12  C   UNK     0     -12.037 -22.449  -0.796  0.00  0.00    -0.031 A 
HETATM   13  C   UNK     0     -12.200 -22.656  -2.285  0.00  0.00     0.051 C 
HETATM   14  C   UNK     0     -10.461 -23.017   2.491  0.00  0.00     0.115 C 
HETATM   15  C   UNK     0      -9.683 -21.867   3.109  0.00  0.00     0.021 A 
HETATM   16  N   UNK     0     -10.175 -20.723   3.621  0.00  0.00    -0.361 N 
HETATM   17  C   UNK     0      -9.163 -19.940   4.001  0.00  0.00     0.022 A 
HETATM   18  C   UNK     0      -7.953 -20.610   3.732  0.00  0.00    -0.027 A 
HETATM   19  C   UNK     0      -8.292 -21.816   3.176  0.00  0.00    -0.031 A 
HETATM   20  C   UNK     0      -7.280 -22.871   2.766  0.00  0.00     0.051 C 
HETATM   21  C   UNK     0      -9.177 -18.537   4.564  0.00  0.00     0.115 C 
HETATM   22  C   UNK     0     -10.257 -17.600   4.075  0.00  0.00     0.022 A 
HETATM   23  N   UNK     0     -10.732 -17.460   2.830  0.00  0.00    -0.361 N 
HETATM   24  C   UNK     0     -11.786 -16.620   2.872  0.00  0.00     0.021 A 
HETATM   25  C   UNK     0     -11.988 -16.202   4.174  0.00  0.00    -0.031 A 
HETATM   26  C   UNK     0     -13.017 -15.231   4.714  0.00  0.00     0.051 C 
HETATM   27  C   UNK     0     -11.021 -16.816   4.962  0.00  0.00    -0.027 A 
HETATM   28  C   UNK     0     -12.706 -16.226   1.730  0.00  0.00     0.115 C 
HETATM   29  H   UNK     0     -11.810 -18.601   0.235  0.00  0.00     0.165 HD
HETATM   30  H   UNK     0     -12.744 -21.207   2.198  0.00  0.00     0.165 HD
HETATM   31  H   UNK     0     -11.261 -20.482   3.762  0.00  0.00     0.165 HD
HETATM   32  H   UNK     0     -10.300 -17.918   1.903  0.00  0.00     0.165 HD
ENDROOT
BRANCH   6  33
HETATM   33  C   UNK     0     -16.514 -19.254   0.371  0.00  0.00     0.051 C 
BRANCH  33  34
HETATM   34  C   UNK     0     -16.897 -20.106   1.558  0.00  0.00     0.114 C 
BRANCH  34  35
HETATM   35  C   UNK     0     -18.076 -19.463   2.206  0.00  0.00     0.139 C 
HETATM   36  O   UNK     0     -19.203 -19.472   1.631  0.00  0.00    -0.650 OA
BRANCH  35  37
HETATM   37  O   UNK     0     -18.002 -18.840   3.446  0.00  0.00    -0.776 OA
HETATM   38  H   UNK     0     -18.803 -18.401   3.872  0.00  0.00     0.167 HD
ENDBRANCH  35  37
ENDBRANCH  34  35
ENDBRANCH  33  34
ENDBRANCH   6  33
BRANCH  27  39
HETATM   39  C   UNK     0     -10.876 -16.552   6.419  0.00  0.00     0.051 C 
BRANCH  39  40
HETATM   40  C   UNK     0     -11.243 -17.612   7.357  0.00  0.00     0.114 C 
BRANCH  40  41
HETATM   41  C   UNK     0     -12.260 -18.593   7.051  0.00  0.00     0.139 C 
HETATM   42  O   UNK     0     -13.448 -18.470   7.380  0.00  0.00    -0.650 OA
BRANCH  41  43
HETATM   43  O   UNK     0     -11.895 -19.768   6.335  0.00  0.00    -0.776 OA
HETATM   44  H   UNK     0     -10.896 -19.922   6.265  0.00  0.00     0.167 HD
ENDBRANCH  41  43
ENDBRANCH  40  41
ENDBRANCH  39  40
ENDBRANCH  27  39
BRANCH  11  45
HETATM   45  C   UNK     0     -10.120 -24.101  -0.493  0.00  0.00     0.051 C 
BRANCH  45  46
HETATM   46  C   UNK     0     -10.639 -25.492  -0.537  0.00  0.00     0.114 C 
BRANCH  46  47
HETATM   47  C   UNK     0      -9.630 -26.361   0.134  0.00  0.00     0.139 C 
HETATM   48  O   UNK     0      -8.941 -25.876   1.042  0.00  0.00    -0.650 OA
BRANCH  47  49
HETATM   49  O   UNK     0      -9.465 -27.669  -0.247  0.00  0.00    -0.776 OA
HETATM   50  H   UNK     0     -10.225 -28.356  -0.176  0.00  0.00     0.167 HD
ENDBRANCH  47  49
ENDBRANCH  46  47
ENDBRANCH  45  46
ENDBRANCH  11  45
BRANCH  18  51
HETATM   51  C   UNK     0      -6.550 -20.136   4.011  0.00  0.00     0.051 C 
BRANCH  51  52
HETATM   52  C   UNK     0      -6.027 -19.559   2.704  0.00  0.00     0.114 C 
BRANCH  52  53
HETATM   53  C   UNK     0      -6.368 -18.130   2.559  0.00  0.00     0.139 C 
HETATM   54  O   UNK     0      -5.810 -17.283   3.275  0.00  0.00    -0.650 OA
BRANCH  53  55
HETATM   55  O   UNK     0      -7.305 -17.746   1.631  0.00  0.00    -0.776 OA
HETATM   56  H   UNK     0      -7.994 -17.041   1.754  0.00  0.00     0.167 HD
ENDBRANCH  53  55
ENDBRANCH  52  53
ENDBRANCH  51  52
ENDBRANCH  18  51
TORSDOF 16
ENDMDL
MODEL 20
REMARK VINA RESULT:      -8.0     30.733     34.206
REMARK  16 active torsions:
REMARK  status: ('A' for Active; 'I' for Inactive)
REMARK    1  A    between atoms: C_6  and  C_7 
REMARK    2  A    between atoms: C_7  and  C_8 
REMARK    3  A    between atoms: C_8  and  C_9 
REMARK    4  A    between atoms: C_9  and  O_11 
REMARK    5  A    between atoms: C_16  and  C_17 
REMARK    6  A    between atoms: C_17  and  C_18 
REMARK    7  A    between atoms: C_18  and  C_19 
REMARK    8  A    between atoms: C_19  and  O_21 
REMARK    9  A    between atoms: C_28  and  C_29 
REMARK   10  A    between atoms: C_29  and  C_30 
REMARK   11  A    between atoms: C_30  and  C_31 
REMARK   12  A    between atoms: C_31  and  O_33 
REMARK   13  A    between atoms: C_42  and  C_43 
REMARK   14  A    between atoms: C_43  and  C_44 
REMARK   15  A    between atoms: C_44  and  C_45 
REMARK   16  A    between atoms: C_45  and  O_47 
ROOT
HETATM    1  C   UNK     0      -9.012 -24.141  -1.122  0.00  0.00     0.051 C 
HETATM    2  C   UNK     0     -10.228 -23.482  -0.504  0.00  0.00    -0.031 A 
HETATM    3  C   UNK     0     -10.538 -23.283   0.833  0.00  0.00     0.021 A 
HETATM    4  N   UNK     0     -11.746 -22.679   0.921  0.00  0.00    -0.361 N 
HETATM    5  C   UNK     0     -12.210 -22.480  -0.331  0.00  0.00     0.022 A 
HETATM    6  C   UNK     0     -11.286 -22.973  -1.246  0.00  0.00    -0.027 A 
HETATM    7  C   UNK     0     -13.447 -21.771  -0.786  0.00  0.00     0.115 C 
HETATM    8  C   UNK     0     -13.785 -20.469  -0.083  0.00  0.00     0.021 A 
HETATM    9  N   UNK     0     -12.948 -19.528   0.382  0.00  0.00    -0.361 N 
HETATM   10  C   UNK     0     -13.682 -18.590   1.016  0.00  0.00     0.022 A 
HETATM   11  C   UNK     0     -15.030 -18.930   0.950  0.00  0.00    -0.027 A 
HETATM   12  C   UNK     0     -15.102 -20.113   0.259  0.00  0.00    -0.031 A 
HETATM   13  C   UNK     0     -16.376 -20.862  -0.062  0.00  0.00     0.051 C 
HETATM   14  C   UNK     0     -13.142 -17.367   1.752  0.00  0.00     0.115 C 
HETATM   15  C   UNK     0     -12.226 -17.706   2.918  0.00  0.00     0.021 A 
HETATM   16  N   UNK     0     -11.081 -18.412   2.884  0.00  0.00    -0.361 N 
HETATM   17  C   UNK     0     -10.613 -18.548   4.127  0.00  0.00     0.022 A 
HETATM   18  C   UNK     0     -11.491 -17.890   5.012  0.00  0.00    -0.027 A 
HETATM   19  C   UNK     0     -12.496 -17.365   4.242  0.00  0.00    -0.031 A 
HETATM   20  C   UNK     0     -13.642 -16.540   4.798  0.00  0.00     0.051 C 
HETATM   21  C   UNK     0      -9.409 -19.308   4.635  0.00  0.00     0.115 C 
HETATM   22  C   UNK     0      -9.035 -20.583   3.916  0.00  0.00     0.022 A 
HETATM   23  N   UNK     0      -9.847 -21.536   3.439  0.00  0.00    -0.361 N 
HETATM   24  C   UNK     0      -9.102 -22.419   2.745  0.00  0.00     0.021 A 
HETATM   25  C   UNK     0      -7.776 -22.032   2.785  0.00  0.00    -0.031 A 
HETATM   26  C   UNK     0      -6.564 -22.719   2.191  0.00  0.00     0.051 C 
HETATM   27  C   UNK     0      -7.708 -20.859   3.529  0.00  0.00    -0.027 A 
HETATM   28  C   UNK     0      -9.585 -23.617   1.946  0.00  0.00     0.115 C 
HETATM   29  H   UNK     0     -12.281 -22.432   1.867  0.00  0.00     0.165 HD
HETATM   30  H   UNK     0     -11.842 -19.498   0.221  0.00  0.00     0.165 HD
HETATM   31  H   UNK     0     -10.566 -18.782   1.960  0.00  0.00     0.165 HD
HETATM   32  H   UNK     0     -10.950 -21.617   3.625  0.00  0.00     0.165 HD
ENDROOT
BRANCH   6  33
HETATM   33  C   UNK     0     -11.333 -23.000  -2.753  0.00  0.00     0.051 C 
BRANCH  33  34
HETATM   34  C   UNK     0     -12.124 -24.190  -3.243  0.00  0.00     0.114 C 
BRANCH  34  35
HETATM   35  C   UNK     0     -11.193 -25.053  -4.026  0.00  0.00     0.139 C 
HETATM   36  O   UNK     0     -10.130 -24.568  -4.509  0.00  0.00    -0.650 OA
BRANCH  35  37
HETATM   37  O   UNK     0     -11.438 -26.401  -4.257  0.00  0.00    -0.776 OA
HETATM   38  H   UNK     0     -12.102 -26.713  -4.947  0.00  0.00     0.167 HD
ENDBRANCH  35  37
ENDBRANCH  34  35
ENDBRANCH  33  34
ENDBRANCH   6  33
BRANCH  27  39
HETATM   39  C   UNK     0      -6.426 -20.177   3.851  0.00  0.00     0.051 C 
BRANCH  39  40
HETATM   40  C   UNK     0      -5.943 -19.140   2.939  0.00  0.00     0.114 C 
BRANCH  40  41
HETATM   41  C   UNK     0      -6.667 -17.907   2.722  0.00  0.00     0.139 C 
HETATM   42  O   UNK     0      -7.520 -17.763   1.836  0.00  0.00    -0.650 OA
BRANCH  41  43
HETATM   43  O   UNK     0      -6.397 -16.790   3.562  0.00  0.00    -0.776 OA
HETATM   44  H   UNK     0      -6.773 -16.870   4.499  0.00  0.00     0.167 HD
ENDBRANCH  41  43
ENDBRANCH  40  41
ENDBRANCH  39  40
ENDBRANCH  27  39
BRANCH  11  45
HETATM   45  C   UNK     0     -16.217 -18.189   1.503  0.00  0.00     0.051 C 
BRANCH  45  46
HETATM   46  C   UNK     0     -16.680 -18.685   2.824  0.00  0.00     0.114 C 
BRANCH  46  47
HETATM   47  C   UNK     0     -18.171 -18.686   2.797  0.00  0.00     0.139 C 
HETATM   48  O   UNK     0     -18.772 -17.712   3.274  0.00  0.00    -0.650 OA
BRANCH  47  49
HETATM   49  O   UNK     0     -18.864 -19.741   2.260  0.00  0.00    -0.776 OA
HETATM   50  H   UNK     0     -19.540 -19.617   1.496  0.00  0.00     0.167 HD
ENDBRANCH  47  49
ENDBRANCH  46  47
ENDBRANCH  45  46
ENDBRANCH  11  45
BRANCH  18  51
HETATM   51  C   UNK     0     -11.367 -17.751   6.507  0.00  0.00     0.051 C 
BRANCH  51  52
HETATM   52  C   UNK     0     -12.063 -18.963   7.107  0.00  0.00     0.114 C 
BRANCH  52  53
HETATM   53  C   UNK     0     -12.750 -18.633   8.370  0.00  0.00     0.139 C 
HETATM   54  O   UNK     0     -13.970 -18.405   8.373  0.00  0.00    -0.650 OA
BRANCH  53  55
HETATM   55  O   UNK     0     -12.032 -18.576   9.540  0.00  0.00    -0.776 OA
HETATM   56  H   UNK     0     -11.677 -19.353  10.045  0.00  0.00     0.167 HD
ENDBRANCH  53  55
ENDBRANCH  52  53
ENDBRANCH  51  52
ENDBRANCH  18  51
TORSDOF 16
ENDMDL
