MODEL 1
REMARK VINA RESULT:      -9.7      0.000      0.000
REMARK  28 active torsions:
REMARK  status: ('A' for Active; 'I' for Inactive)
REMARK    1  A    between atoms: C_2  and  O_3 
REMARK    2  A    between atoms: C_2  and  C_4 
REMARK    3  A    between atoms: C_4  and  C_5 
REMARK    4  A    between atoms: C_5  and  C_6 
REMARK    5  A    between atoms: C_7  and  C_8 
REMARK    6  A    between atoms: C_8  and  C_9 
REMARK    7  A    between atoms: C_9  and  O_11 
REMARK    8  A    between atoms: C_28  and  C_29 
REMARK    9  A    between atoms: C_29  and  C_30 
REMARK   10  A    between atoms: C_30  and  O_32 
REMARK   11  A    between atoms: C_33  and  C_34 
REMARK   12  A    between atoms: C_34  and  C_35 
REMARK   13  A    between atoms: C_35  and  C_36 
REMARK   14  A    between atoms: C_36  and  O_38 
REMARK   15  A    between atoms: C_39  and  C_40 
REMARK   16  A    between atoms: C_40  and  C_41 
REMARK   17  A    between atoms: C_41  and  C_42 
REMARK   18  A    between atoms: C_42  and  O_44 
REMARK   19  A    between atoms: C_45  and  C_46 
REMARK   20  A    between atoms: C_46  and  C_47 
REMARK   21  A    between atoms: C_47  and  O_49 
REMARK   22  A    between atoms: C_50  and  C_51 
REMARK   23  A    between atoms: C_51  and  C_52 
REMARK   24  A    between atoms: C_52  and  O_54 
REMARK   25  A    between atoms: C_55  and  C_56 
REMARK   26  A    between atoms: C_56  and  C_57 
REMARK   27  A    between atoms: C_57  and  C_58 
REMARK   28  A    between atoms: C_58  and  O_60 
ROOT
ATOM      1  O   UNK d   0     -27.161  -5.200   1.842  0.00  0.00    -0.650 OA
ATOM      2  C   UNK d   0     -26.446  -4.175   1.909  0.00  0.00     0.139 C 
ENDROOT
BRANCH   2   3
ATOM      3  O   UNK d   0     -26.579  -3.198   0.952  0.00  0.00    -0.776 OA
ATOM      4  H   UNK d   0     -26.597  -3.433  -0.043  0.00  0.00     0.167 HD
ENDBRANCH   2   3
BRANCH   2   5
ATOM      5  C   UNK d   0     -25.461  -4.021   3.017  0.00  0.00     0.115 C 
BRANCH   5   6
ATOM      6  C   UNK d   0     -24.841  -5.351   3.347  0.00  0.00     0.052 C 
BRANCH   6   7
ATOM      7  C   UNK d   0     -23.332  -5.317   3.295  0.00  0.00    -0.020 A 
ATOM      8  C   UNK d   0     -22.499  -5.271   4.304  0.00  0.00    -0.011 A 
ATOM      9  C   UNK d   0     -21.150  -5.245   3.765  0.00  0.00     0.067 A 
ATOM     10  C   UNK d   0     -19.849  -5.217   4.293  0.00  0.00     0.062 C 
ATOM     11  N   UNK d   0     -21.254  -5.271   2.420  0.00  0.00    -0.248 NA
ATOM     12  C   UNK d   0     -18.654  -5.478   3.615  0.00  0.00     0.041 A 
ATOM     13  N   UNK d   0     -18.226  -5.099   2.395  0.00  0.00    -0.355 N 
ATOM     14  C   UNK d   0     -17.698  -6.316   4.217  0.00  0.00    -0.022 A 
ATOM     15  C   UNK d   0     -17.027  -5.682   2.205  0.00  0.00     0.042 A 
ATOM     16  H   UNK d   0     -18.752  -4.418   1.691  0.00  0.00     0.166 HD
ATOM     17  C   UNK d   0     -16.146  -5.621   1.108  0.00  0.00     0.062 C 
ATOM     18  C   UNK d   0     -16.663  -6.454   3.326  0.00  0.00    -0.013 A 
ATOM     19  C   UNK d   0     -16.427  -5.721  -0.231  0.00  0.00     0.067 A 
ATOM     20  N   UNK d   0     -17.715  -5.675  -0.584  0.00  0.00    -0.248 NA
ATOM     21  C   UNK d   0     -15.655  -5.890  -1.451  0.00  0.00    -0.011 A 
ATOM     22  C   UNK d   0     -17.841  -5.802  -1.945  0.00  0.00     0.066 A 
ATOM     23  C   UNK d   0     -19.129  -5.732  -2.454  0.00  0.00     0.062 C 
ATOM     24  C   UNK d   0     -16.489  -5.940  -2.450  0.00  0.00    -0.020 A 
ATOM     25  C   UNK d   0     -20.316  -5.457  -1.757  0.00  0.00     0.041 A 
ATOM     26  N   UNK d   0     -20.747  -5.845  -0.551  0.00  0.00    -0.355 N 
ATOM     27  C   UNK d   0     -21.272  -4.612  -2.360  0.00  0.00    -0.022 A 
ATOM     28  C   UNK d   0     -21.947  -5.272  -0.363  0.00  0.00     0.042 A 
ATOM     29  H   UNK d   0     -20.223  -6.539   0.151  0.00  0.00     0.166 HD
ATOM     30  C   UNK d   0     -22.838  -5.332   0.720  0.00  0.00     0.062 C 
ATOM     31  C   UNK d   0     -22.307  -4.489  -1.485  0.00  0.00    -0.013 A 
ATOM     32  C   UNK d   0     -22.541  -5.316   2.073  0.00  0.00     0.066 A 
BRANCH   8  33
ATOM     33  C   UNK d   0     -22.846  -5.245   5.737  0.00  0.00     0.151 C 
BRANCH  33  34
ATOM     34  C   UNK d   0     -23.100  -6.588   6.287  0.00  0.00     0.143 C 
ATOM     35  O   UNK d   0     -22.571  -7.592   5.787  0.00  0.00    -0.650 OA
BRANCH  34  36
ATOM     36  O   UNK d   0     -23.937  -6.728   7.370  0.00  0.00    -0.776 OA
ATOM     37  H   UNK d   0     -24.598  -5.984   7.633  0.00  0.00     0.167 HD
ENDBRANCH  34  36
ENDBRANCH  33  34
ENDBRANCH   8  33
BRANCH  31  38
ATOM     38  C   UNK d   0     -23.558  -3.667  -1.693  0.00  0.00     0.151 C 
BRANCH  38  39
ATOM     39  C   UNK d   0     -23.470  -2.350  -1.099  0.00  0.00     0.143 C 
ATOM     40  O   UNK d   0     -22.776  -1.443  -1.591  0.00  0.00    -0.650 OA
BRANCH  39  41
ATOM     41  O   UNK d   0     -24.184  -2.074   0.067  0.00  0.00    -0.776 OA
ATOM     42  H   UNK d   0     -24.311  -2.849   0.725  0.00  0.00     0.167 HD
ENDBRANCH  39  41
ENDBRANCH  38  39
ENDBRANCH  31  38
BRANCH  27  43
ATOM     43  C   UNK d   0     -21.239  -3.935  -3.708  0.00  0.00     0.052 C 
BRANCH  43  44
ATOM     44  C   UNK d   0     -21.645  -4.834  -4.831  0.00  0.00     0.115 C 
BRANCH  44  45
ATOM     45  C   UNK d   0     -20.806  -4.460  -5.999  0.00  0.00     0.139 C 
ATOM     46  O   UNK d   0     -19.566  -4.643  -5.920  0.00  0.00    -0.650 OA
BRANCH  45  47
ATOM     47  O   UNK d   0     -21.332  -3.930  -7.157  0.00  0.00    -0.776 OA
ATOM     48  H   UNK d   0     -22.274  -4.170  -7.506  0.00  0.00     0.167 HD
ENDBRANCH  45  47
ENDBRANCH  44  45
ENDBRANCH  43  44
ENDBRANCH  27  43
BRANCH  24  49
ATOM     49  C   UNK d   0     -16.131  -6.065  -3.873  0.00  0.00     0.052 C 
BRANCH  49  50
ATOM     50  C   UNK d   0     -15.613  -4.752  -4.402  0.00  0.00     0.115 C 
BRANCH  50  51
ATOM     51  C   UNK d   0     -14.393  -4.791  -5.197  0.00  0.00     0.139 C 
ATOM     52  O   UNK d   0     -13.250  -4.749  -4.685  0.00  0.00    -0.650 OA
BRANCH  51  53
ATOM     53  O   UNK d   0     -14.477  -4.874  -6.579  0.00  0.00    -0.776 OA
ATOM     54  H   UNK d   0     -15.241  -4.409  -7.037  0.00  0.00     0.167 HD
ENDBRANCH  51  53
ENDBRANCH  50  51
ENDBRANCH  49  50
ENDBRANCH  24  49
BRANCH  21  55
ATOM     55  C   UNK d   0     -14.166  -5.978  -1.491  0.00  0.00     0.151 C 
BRANCH  55  56
ATOM     56  C   UNK d   0     -13.609  -6.487  -0.229  0.00  0.00     0.143 C 
ATOM     57  O   UNK d   0     -13.803  -7.651   0.174  0.00  0.00    -0.650 OA
BRANCH  56  58
ATOM     58  O   UNK d   0     -12.835  -5.617   0.537  0.00  0.00    -0.776 OA
ATOM     59  H   UNK d   0     -12.833  -4.633   0.212  0.00  0.00     0.167 HD
ENDBRANCH  56  58
ENDBRANCH  55  56
ENDBRANCH  21  55
BRANCH  18  60
ATOM     60  C   UNK d   0     -15.423  -7.280   3.562  0.00  0.00     0.151 C 
BRANCH  60  61
ATOM     61  C   UNK d   0     -14.305  -6.325   3.612  0.00  0.00     0.143 C 
ATOM     62  O   UNK d   0     -14.319  -5.190   4.090  0.00  0.00    -0.650 OA
BRANCH  61  63
ATOM     63  O   UNK d   0     -13.094  -6.785   3.041  0.00  0.00    -0.776 OA
ATOM     64  H   UNK d   0     -12.659  -6.293   2.281  0.00  0.00     0.167 HD
ENDBRANCH  61  63
ENDBRANCH  60  61
ENDBRANCH  18  60
BRANCH  14  65
ATOM     65  C   UNK d   0     -17.645  -6.911   5.596  0.00  0.00     0.052 C 
BRANCH  65  66
ATOM     66  C   UNK d   0     -17.506  -5.887   6.666  0.00  0.00     0.115 C 
BRANCH  66  67
ATOM     67  C   UNK d   0     -16.304  -5.107   6.753  0.00  0.00     0.139 C 
ATOM     68  O   UNK d   0     -15.474  -5.362   7.701  0.00  0.00    -0.650 OA
BRANCH  67  69
ATOM     69  O   UNK d   0     -15.899  -4.068   5.915  0.00  0.00    -0.776 OA
ATOM     70  H   UNK d   0     -14.947  -4.149   5.529  0.00  0.00     0.167 HD
ENDBRANCH  67  69
ENDBRANCH  66  67
ENDBRANCH  65  66
ENDBRANCH  14  65
ENDBRANCH   6   7
ENDBRANCH   5   6
ENDBRANCH   2   5
TORSDOF 28
ENDMDL
MODEL 2
REMARK VINA RESULT:      -9.6      2.001      7.837
REMARK  28 active torsions:
REMARK  status: ('A' for Active; 'I' for Inactive)
REMARK    1  A    between atoms: C_2  and  O_3 
REMARK    2  A    between atoms: C_2  and  C_4 
REMARK    3  A    between atoms: C_4  and  C_5 
REMARK    4  A    between atoms: C_5  and  C_6 
REMARK    5  A    between atoms: C_7  and  C_8 
REMARK    6  A    between atoms: C_8  and  C_9 
REMARK    7  A    between atoms: C_9  and  O_11 
REMARK    8  A    between atoms: C_28  and  C_29 
REMARK    9  A    between atoms: C_29  and  C_30 
REMARK   10  A    between atoms: C_30  and  O_32 
REMARK   11  A    between atoms: C_33  and  C_34 
REMARK   12  A    between atoms: C_34  and  C_35 
REMARK   13  A    between atoms: C_35  and  C_36 
REMARK   14  A    between atoms: C_36  and  O_38 
REMARK   15  A    between atoms: C_39  and  C_40 
REMARK   16  A    between atoms: C_40  and  C_41 
REMARK   17  A    between atoms: C_41  and  C_42 
REMARK   18  A    between atoms: C_42  and  O_44 
REMARK   19  A    between atoms: C_45  and  C_46 
REMARK   20  A    between atoms: C_46  and  C_47 
REMARK   21  A    between atoms: C_47  and  O_49 
REMARK   22  A    between atoms: C_50  and  C_51 
REMARK   23  A    between atoms: C_51  and  C_52 
REMARK   24  A    between atoms: C_52  and  O_54 
REMARK   25  A    between atoms: C_55  and  C_56 
REMARK   26  A    between atoms: C_56  and  C_57 
REMARK   27  A    between atoms: C_57  and  C_58 
REMARK   28  A    between atoms: C_58  and  O_60 
ROOT
ATOM      1  O   UNK d   0     -26.527  -0.586   4.257  0.00  0.00    -0.650 OA
ATOM      2  C   UNK d   0     -26.249  -1.536   3.492  0.00  0.00     0.139 C 
ENDROOT
BRANCH   2   3
ATOM      3  O   UNK d   0     -26.559  -1.438   2.157  0.00  0.00    -0.776 OA
ATOM      4  H   UNK d   0     -26.259  -2.153   1.491  0.00  0.00     0.167 HD
ENDBRANCH   2   3
BRANCH   2   5
ATOM      5  C   UNK d   0     -25.589  -2.760   4.027  0.00  0.00     0.115 C 
BRANCH   5   6
ATOM      6  C   UNK d   0     -25.977  -3.959   3.206  0.00  0.00     0.052 C 
BRANCH   6   7
ATOM      7  C   UNK d   0     -24.835  -4.487   2.372  0.00  0.00    -0.020 A 
ATOM      8  C   UNK d   0     -24.800  -4.643   1.073  0.00  0.00    -0.011 A 
ATOM      9  C   UNK d   0     -23.498  -5.189   0.726  0.00  0.00     0.067 A 
ATOM     10  C   UNK d   0     -22.837  -5.554  -0.457  0.00  0.00     0.062 C 
ATOM     11  N   UNK d   0     -22.807  -5.339   1.875  0.00  0.00    -0.248 NA
ATOM     12  C   UNK d   0     -21.470  -5.803  -0.621  0.00  0.00     0.041 A 
ATOM     13  N   UNK d   0     -20.595  -6.484   0.144  0.00  0.00    -0.355 N 
ATOM     14  C   UNK d   0     -20.802  -5.237  -1.722  0.00  0.00    -0.022 A 
ATOM     15  C   UNK d   0     -19.388  -6.358  -0.439  0.00  0.00     0.042 A 
ATOM     16  H   UNK d   0     -20.830  -7.059   1.067  0.00  0.00     0.166 HD
ATOM     17  C   UNK d   0     -18.132  -6.871  -0.059  0.00  0.00     0.062 C 
ATOM     18  C   UNK d   0     -19.478  -5.582  -1.611  0.00  0.00    -0.013 A 
ATOM     19  C   UNK d   0     -17.550  -6.894   1.183  0.00  0.00     0.067 A 
ATOM     20  N   UNK d   0     -18.327  -6.575   2.221  0.00  0.00    -0.248 NA
ATOM     21  C   UNK d   0     -16.226  -7.176   1.711  0.00  0.00    -0.011 A 
ATOM     22  C   UNK d   0     -17.607  -6.627   3.389  0.00  0.00     0.066 A 
ATOM     23  C   UNK d   0     -18.305  -6.353   4.556  0.00  0.00     0.062 C 
ATOM     24  C   UNK d   0     -16.265  -7.014   3.002  0.00  0.00    -0.020 A 
ATOM     25  C   UNK d   0     -19.681  -6.117   4.701  0.00  0.00     0.041 A 
ATOM     26  N   UNK d   0     -20.547  -5.428   3.949  0.00  0.00    -0.355 N 
ATOM     27  C   UNK d   0     -20.352  -6.690   5.804  0.00  0.00    -0.022 A 
ATOM     28  C   UNK d   0     -21.750  -5.545   4.533  0.00  0.00     0.042 A 
ATOM     29  H   UNK d   0     -20.308  -4.842   3.028  0.00  0.00     0.166 HD
ATOM     30  C   UNK d   0     -23.006  -5.033   4.171  0.00  0.00     0.062 C 
ATOM     31  C   UNK d   0     -21.661  -6.334   5.705  0.00  0.00    -0.013 A 
ATOM     32  C   UNK d   0     -23.555  -4.934   2.902  0.00  0.00     0.066 A 
BRANCH   8  33
ATOM     33  C   UNK d   0     -25.877  -4.333   0.116  0.00  0.00     0.151 C 
BRANCH  33  34
ATOM     34  C   UNK d   0     -26.271  -5.499  -0.696  0.00  0.00     0.143 C 
ATOM     35  O   UNK d   0     -25.992  -5.558  -1.902  0.00  0.00    -0.650 OA
BRANCH  34  36
ATOM     36  O   UNK d   0     -26.960  -6.533  -0.105  0.00  0.00    -0.776 OA
ATOM     37  H   UNK d   0     -27.980  -6.490   0.025  0.00  0.00     0.167 HD
ENDBRANCH  34  36
ENDBRANCH  33  34
ENDBRANCH   8  33
BRANCH  31  38
ATOM     38  C   UNK d   0     -22.767  -6.728   6.657  0.00  0.00     0.151 C 
BRANCH  38  39
ATOM     39  C   UNK d   0     -23.460  -7.930   6.246  0.00  0.00     0.143 C 
ATOM     40  O   UNK d   0     -22.856  -8.951   5.872  0.00  0.00    -0.650 OA
BRANCH  39  41
ATOM     41  O   UNK d   0     -24.854  -7.960   6.266  0.00  0.00    -0.776 OA
ATOM     42  H   UNK d   0     -25.294  -8.423   7.067  0.00  0.00     0.167 HD
ENDBRANCH  39  41
ENDBRANCH  38  39
ENDBRANCH  31  38
BRANCH  27  43
ATOM     43  C   UNK d   0     -19.804  -7.541   6.922  0.00  0.00     0.052 C 
BRANCH  43  44
ATOM     44  C   UNK d   0     -19.286  -6.742   8.073  0.00  0.00     0.115 C 
BRANCH  44  45
ATOM     45  C   UNK d   0     -17.987  -7.350   8.462  0.00  0.00     0.139 C 
ATOM     46  O   UNK d   0     -17.584  -8.349   7.816  0.00  0.00    -0.650 OA
BRANCH  45  47
ATOM     47  O   UNK d   0     -17.211  -6.861   9.490  0.00  0.00    -0.776 OA
ATOM     48  H   UNK d   0     -17.203  -5.865   9.761  0.00  0.00     0.167 HD
ENDBRANCH  45  47
ENDBRANCH  44  45
ENDBRANCH  43  44
ENDBRANCH  27  43
BRANCH  24  49
ATOM     49  C   UNK d   0     -15.149  -7.233   3.939  0.00  0.00     0.052 C 
BRANCH  49  50
ATOM     50  C   UNK d   0     -14.712  -5.927   4.549  0.00  0.00     0.115 C 
BRANCH  50  51
ATOM     51  C   UNK d   0     -13.976  -5.006   3.692  0.00  0.00     0.139 C 
ATOM     52  O   UNK d   0     -12.725  -5.000   3.623  0.00  0.00    -0.650 OA
BRANCH  51  53
ATOM     53  O   UNK d   0     -14.669  -4.091   2.915  0.00  0.00    -0.776 OA
ATOM     54  H   UNK d   0     -15.217  -3.389   3.381  0.00  0.00     0.167 HD
ENDBRANCH  51  53
ENDBRANCH  50  51
ENDBRANCH  49  50
ENDBRANCH  24  49
BRANCH  21  55
ATOM     55  C   UNK d   0     -15.061  -7.582   0.871  0.00  0.00     0.151 C 
BRANCH  55  56
ATOM     56  C   UNK d   0     -14.503  -6.449   0.117  0.00  0.00     0.143 C 
ATOM     57  O   UNK d   0     -14.930  -6.108  -1.004  0.00  0.00    -0.650 OA
BRANCH  56  58
ATOM     58  O   UNK d   0     -13.452  -5.739   0.695  0.00  0.00    -0.776 OA
ATOM     59  H   UNK d   0     -12.548  -5.814   0.196  0.00  0.00     0.167 HD
ENDBRANCH  56  58
ENDBRANCH  55  56
ENDBRANCH  21  55
BRANCH  18  60
ATOM     60  C   UNK d   0     -18.395  -5.176  -2.580  0.00  0.00     0.151 C 
BRANCH  60  61
ATOM     61  C   UNK d   0     -17.946  -6.419  -3.227  0.00  0.00     0.143 C 
ATOM     62  O   UNK d   0     -18.633  -7.402  -3.503  0.00  0.00    -0.650 OA
BRANCH  61  63
ATOM     63  O   UNK d   0     -16.570  -6.462  -3.558  0.00  0.00    -0.776 OA
ATOM     64  H   UNK d   0     -16.242  -7.002  -4.339  0.00  0.00     0.167 HD
ENDBRANCH  61  63
ENDBRANCH  60  61
ENDBRANCH  18  60
BRANCH  14  65
ATOM     65  C   UNK d   0     -21.331  -4.485  -2.910  0.00  0.00     0.052 C 
BRANCH  65  66
ATOM     66  C   UNK d   0     -21.602  -5.363  -4.080  0.00  0.00     0.115 C 
BRANCH  66  67
ATOM     67  C   UNK d   0     -21.248  -4.921  -5.399  0.00  0.00     0.139 C 
ATOM     68  O   UNK d   0     -20.021  -4.614  -5.635  0.00  0.00    -0.650 OA
BRANCH  67  69
ATOM     69  O   UNK d   0     -22.087  -4.771  -6.503  0.00  0.00    -0.776 OA
ATOM     70  H   UNK d   0     -22.032  -3.863  -6.987  0.00  0.00     0.167 HD
ENDBRANCH  67  69
ENDBRANCH  66  67
ENDBRANCH  65  66
ENDBRANCH  14  65
ENDBRANCH   6   7
ENDBRANCH   5   6
ENDBRANCH   2   5
TORSDOF 28
ENDMDL
MODEL 3
REMARK VINA RESULT:      -9.5      3.671     10.024
REMARK  28 active torsions:
REMARK  status: ('A' for Active; 'I' for Inactive)
REMARK    1  A    between atoms: C_2  and  O_3 
REMARK    2  A    between atoms: C_2  and  C_4 
REMARK    3  A    between atoms: C_4  and  C_5 
REMARK    4  A    between atoms: C_5  and  C_6 
REMARK    5  A    between atoms: C_7  and  C_8 
REMARK    6  A    between atoms: C_8  and  C_9 
REMARK    7  A    between atoms: C_9  and  O_11 
REMARK    8  A    between atoms: C_28  and  C_29 
REMARK    9  A    between atoms: C_29  and  C_30 
REMARK   10  A    between atoms: C_30  and  O_32 
REMARK   11  A    between atoms: C_33  and  C_34 
REMARK   12  A    between atoms: C_34  and  C_35 
REMARK   13  A    between atoms: C_35  and  C_36 
REMARK   14  A    between atoms: C_36  and  O_38 
REMARK   15  A    between atoms: C_39  and  C_40 
REMARK   16  A    between atoms: C_40  and  C_41 
REMARK   17  A    between atoms: C_41  and  C_42 
REMARK   18  A    between atoms: C_42  and  O_44 
REMARK   19  A    between atoms: C_45  and  C_46 
REMARK   20  A    between atoms: C_46  and  C_47 
REMARK   21  A    between atoms: C_47  and  O_49 
REMARK   22  A    between atoms: C_50  and  C_51 
REMARK   23  A    between atoms: C_51  and  C_52 
REMARK   24  A    between atoms: C_52  and  O_54 
REMARK   25  A    between atoms: C_55  and  C_56 
REMARK   26  A    between atoms: C_56  and  C_57 
REMARK   27  A    between atoms: C_57  and  C_58 
REMARK   28  A    between atoms: C_58  and  O_60 
ROOT
ATOM      1  O   UNK d   0     -25.999  -3.819   0.014  0.00  0.00    -0.650 OA
ATOM      2  C   UNK d   0     -26.207  -4.871   0.658  0.00  0.00     0.139 C 
ENDROOT
BRANCH   2   3
ATOM      3  O   UNK d   0     -26.577  -6.011  -0.014  0.00  0.00    -0.776 OA
ATOM      4  H   UNK d   0     -26.915  -5.968  -0.978  0.00  0.00     0.167 HD
ENDBRANCH   2   3
BRANCH   2   5
ATOM      5  C   UNK d   0     -26.055  -4.883   2.141  0.00  0.00     0.115 C 
BRANCH   5   6
ATOM      6  C   UNK d   0     -25.021  -3.875   2.563  0.00  0.00     0.052 C 
BRANCH   6   7
ATOM      7  C   UNK d   0     -23.732  -4.520   3.015  0.00  0.00    -0.020 A 
ATOM      8  C   UNK d   0     -22.724  -4.896   2.271  0.00  0.00    -0.011 A 
ATOM      9  C   UNK d   0     -21.716  -5.471   3.145  0.00  0.00     0.067 A 
ATOM     10  C   UNK d   0     -20.434  -6.023   2.988  0.00  0.00     0.062 C 
ATOM     11  N   UNK d   0     -22.196  -5.411   4.405  0.00  0.00    -0.248 NA
ATOM     12  C   UNK d   0     -19.492  -6.275   3.990  0.00  0.00     0.041 A 
ATOM     13  N   UNK d   0     -19.627  -6.801   5.223  0.00  0.00    -0.355 N 
ATOM     14  C   UNK d   0     -18.154  -5.895   3.778  0.00  0.00    -0.022 A 
ATOM     15  C   UNK d   0     -18.411  -6.756   5.800  0.00  0.00     0.042 A 
ATOM     16  H   UNK d   0     -20.559  -7.213   5.668  0.00  0.00     0.166 HD
ATOM     17  C   UNK d   0     -17.992  -7.176   7.078  0.00  0.00     0.062 C 
ATOM     18  C   UNK d   0     -17.462  -6.194   4.925  0.00  0.00    -0.013 A 
ATOM     19  C   UNK d   0     -18.596  -6.976   8.293  0.00  0.00     0.067 A 
ATOM     20  N   UNK d   0     -19.842  -6.497   8.277  0.00  0.00    -0.248 NA
ATOM     21  C   UNK d   0     -18.220  -7.143   9.687  0.00  0.00    -0.011 A 
ATOM     22  C   UNK d   0     -20.308  -6.336   9.559  0.00  0.00     0.066 A 
ATOM     23  C   UNK d   0     -21.610  -5.878   9.689  0.00  0.00     0.062 C 
ATOM     24  C   UNK d   0     -19.224  -6.762  10.423  0.00  0.00    -0.020 A 
ATOM     25  C   UNK d   0     -22.546  -5.643   8.670  0.00  0.00     0.041 A 
ATOM     26  N   UNK d   0     -22.414  -5.107   7.450  0.00  0.00    -0.355 N 
ATOM     27  C   UNK d   0     -23.887  -6.030   8.882  0.00  0.00    -0.022 A 
ATOM     28  C   UNK d   0     -23.627  -5.142   6.876  0.00  0.00     0.042 A 
ATOM     29  H   UNK d   0     -21.479  -4.684   7.008  0.00  0.00     0.166 HD
ATOM     30  C   UNK d   0     -24.060  -4.720   5.609  0.00  0.00     0.062 C 
ATOM     31  C   UNK d   0     -24.578  -5.717   7.752  0.00  0.00    -0.013 A 
ATOM     32  C   UNK d   0     -23.405  -4.849   4.395  0.00  0.00     0.066 A 
BRANCH   8  33
ATOM     33  C   UNK d   0     -22.611  -4.772   0.806  0.00  0.00     0.151 C 
BRANCH  33  34
ATOM     34  C   UNK d   0     -22.600  -6.078   0.122  0.00  0.00     0.143 C 
ATOM     35  O   UNK d   0     -23.580  -6.834   0.178  0.00  0.00    -0.650 OA
BRANCH  34  36
ATOM     36  O   UNK d   0     -21.484  -6.460  -0.585  0.00  0.00    -0.776 OA
ATOM     37  H   UNK d   0     -21.541  -7.163  -1.335  0.00  0.00     0.167 HD
ENDBRANCH  34  36
ENDBRANCH  33  34
ENDBRANCH   8  33
BRANCH  31  38
ATOM     38  C   UNK d   0     -26.049  -5.959   7.511  0.00  0.00     0.151 C 
BRANCH  38  39
ATOM     39  C   UNK d   0     -26.899  -5.095   8.303  0.00  0.00     0.143 C 
ATOM     40  O   UNK d   0     -26.845  -3.856   8.224  0.00  0.00    -0.650 OA
BRANCH  39  41
ATOM     41  O   UNK d   0     -27.814  -5.660   9.191  0.00  0.00    -0.776 OA
ATOM     42  H   UNK d   0     -28.061  -6.642   9.037  0.00  0.00     0.167 HD
ENDBRANCH  39  41
ENDBRANCH  38  39
ENDBRANCH  31  38
BRANCH  27  43
ATOM     43  C   UNK d   0     -24.520  -6.668  10.093  0.00  0.00     0.052 C 
BRANCH  43  44
ATOM     44  C   UNK d   0     -24.233  -8.130  10.209  0.00  0.00     0.115 C 
BRANCH  44  45
ATOM     45  C   UNK d   0     -25.524  -8.834   9.996  0.00  0.00     0.139 C 
ATOM     46  O   UNK d   0     -26.587  -8.197  10.202  0.00  0.00    -0.650 OA
BRANCH  45  47
ATOM     47  O   UNK d   0     -25.601 -10.145   9.579  0.00  0.00    -0.776 OA
ATOM     48  H   UNK d   0     -26.313 -10.480   8.911  0.00  0.00     0.167 HD
ENDBRANCH  45  47
ENDBRANCH  44  45
ENDBRANCH  43  44
ENDBRANCH  27  43
BRANCH  24  49
ATOM     49  C   UNK d   0     -19.286  -6.800  11.894  0.00  0.00     0.052 C 
BRANCH  49  50
ATOM     50  C   UNK d   0     -20.100  -5.643  12.414  0.00  0.00     0.115 C 
BRANCH  50  51
ATOM     51  C   UNK d   0     -20.538  -5.710  13.802  0.00  0.00     0.139 C 
ATOM     52  O   UNK d   0     -19.737  -5.828  14.759  0.00  0.00    -0.650 OA
BRANCH  51  53
ATOM     53  O   UNK d   0     -21.891  -5.643  14.099  0.00  0.00    -0.776 OA
ATOM     54  H   UNK d   0     -22.424  -6.495  14.080  0.00  0.00     0.167 HD
ENDBRANCH  51  53
ENDBRANCH  50  51
ENDBRANCH  49  50
ENDBRANCH  24  49
BRANCH  21  55
ATOM     55  C   UNK d   0     -16.897  -7.668  10.138  0.00  0.00     0.151 C 
BRANCH  55  56
ATOM     56  C   UNK d   0     -16.892  -9.136  10.237  0.00  0.00     0.143 C 
ATOM     57  O   UNK d   0     -16.606  -9.876   9.276  0.00  0.00    -0.650 OA
BRANCH  56  58
ATOM     58  O   UNK d   0     -17.222  -9.704  11.466  0.00  0.00    -0.776 OA
ATOM     59  H   UNK d   0     -17.596  -9.040  12.168  0.00  0.00     0.167 HD
ENDBRANCH  56  58
ENDBRANCH  55  56
ENDBRANCH  21  55
BRANCH  18  60
ATOM     60  C   UNK d   0     -15.990  -5.943   5.137  0.00  0.00     0.151 C 
BRANCH  60  61
ATOM     61  C   UNK d   0     -15.895  -4.634   5.800  0.00  0.00     0.143 C 
ATOM     62  O   UNK d   0     -15.984  -3.526   5.270  0.00  0.00    -0.650 OA
BRANCH  61  63
ATOM     63  O   UNK d   0     -15.678  -4.680   7.198  0.00  0.00    -0.776 OA
ATOM     64  H   UNK d   0     -16.160  -5.346   7.775  0.00  0.00     0.167 HD
ENDBRANCH  61  63
ENDBRANCH  60  61
ENDBRANCH  18  60
BRANCH  14  65
ATOM     65  C   UNK d   0     -17.468  -5.366   2.550  0.00  0.00     0.052 C 
BRANCH  65  66
ATOM     66  C   UNK d   0     -17.203  -6.419   1.533  0.00  0.00     0.115 C 
BRANCH  66  67
ATOM     67  C   UNK d   0     -17.963  -6.440   0.316  0.00  0.00     0.139 C 
ATOM     68  O   UNK d   0     -17.938  -5.402  -0.442  0.00  0.00    -0.650 OA
BRANCH  67  69
ATOM     69  O   UNK d   0     -18.758  -7.476  -0.176  0.00  0.00    -0.776 OA
ATOM     70  H   UNK d   0     -19.693  -7.202  -0.510  0.00  0.00     0.167 HD
ENDBRANCH  67  69
ENDBRANCH  66  67
ENDBRANCH  65  66
ENDBRANCH  14  65
ENDBRANCH   6   7
ENDBRANCH   5   6
ENDBRANCH   2   5
TORSDOF 28
ENDMDL
MODEL 4
REMARK VINA RESULT:      -9.4      1.654      2.180
REMARK  28 active torsions:
REMARK  status: ('A' for Active; 'I' for Inactive)
REMARK    1  A    between atoms: C_2  and  O_3 
REMARK    2  A    between atoms: C_2  and  C_4 
REMARK    3  A    between atoms: C_4  and  C_5 
REMARK    4  A    between atoms: C_5  and  C_6 
REMARK    5  A    between atoms: C_7  and  C_8 
REMARK    6  A    between atoms: C_8  and  C_9 
REMARK    7  A    between atoms: C_9  and  O_11 
REMARK    8  A    between atoms: C_28  and  C_29 
REMARK    9  A    between atoms: C_29  and  C_30 
REMARK   10  A    between atoms: C_30  and  O_32 
REMARK   11  A    between atoms: C_33  and  C_34 
REMARK   12  A    between atoms: C_34  and  C_35 
REMARK   13  A    between atoms: C_35  and  C_36 
REMARK   14  A    between atoms: C_36  and  O_38 
REMARK   15  A    between atoms: C_39  and  C_40 
REMARK   16  A    between atoms: C_40  and  C_41 
REMARK   17  A    between atoms: C_41  and  C_42 
REMARK   18  A    between atoms: C_42  and  O_44 
REMARK   19  A    between atoms: C_45  and  C_46 
REMARK   20  A    between atoms: C_46  and  C_47 
REMARK   21  A    between atoms: C_47  and  O_49 
REMARK   22  A    between atoms: C_50  and  C_51 
REMARK   23  A    between atoms: C_51  and  C_52 
REMARK   24  A    between atoms: C_52  and  O_54 
REMARK   25  A    between atoms: C_55  and  C_56 
REMARK   26  A    between atoms: C_56  and  C_57 
REMARK   27  A    between atoms: C_57  and  C_58 
REMARK   28  A    between atoms: C_58  and  O_60 
ROOT
ATOM      1  O   UNK d   0     -26.948  -5.306   2.048  0.00  0.00    -0.650 OA
ATOM      2  C   UNK d   0     -26.469  -4.179   2.306  0.00  0.00     0.139 C 
ENDROOT
BRANCH   2   3
ATOM      3  O   UNK d   0     -26.670  -3.144   1.425  0.00  0.00    -0.776 OA
ATOM      4  H   UNK d   0     -27.428  -2.473   1.565  0.00  0.00     0.167 HD
ENDBRANCH   2   3
BRANCH   2   5
ATOM      5  C   UNK d   0     -25.687  -3.967   3.557  0.00  0.00     0.115 C 
BRANCH   5   6
ATOM      6  C   UNK d   0     -25.082  -5.266   4.016  0.00  0.00     0.052 C 
BRANCH   6   7
ATOM      7  C   UNK d   0     -23.576  -5.276   3.909  0.00  0.00    -0.020 A 
ATOM      8  C   UNK d   0     -22.706  -5.238   4.886  0.00  0.00    -0.011 A 
ATOM      9  C   UNK d   0     -21.377  -5.259   4.299  0.00  0.00     0.067 A 
ATOM     10  C   UNK d   0     -20.058  -5.259   4.778  0.00  0.00     0.062 C 
ATOM     11  N   UNK d   0     -21.531  -5.304   2.959  0.00  0.00    -0.248 NA
ATOM     12  C   UNK d   0     -18.896  -5.565   4.062  0.00  0.00     0.041 A 
ATOM     13  N   UNK d   0     -18.503  -5.219   2.821  0.00  0.00    -0.355 N 
ATOM     14  C   UNK d   0     -17.942  -6.420   4.643  0.00  0.00    -0.022 A 
ATOM     15  C   UNK d   0     -17.329  -5.839   2.598  0.00  0.00     0.042 A 
ATOM     16  H   UNK d   0     -19.035  -4.534   2.124  0.00  0.00     0.166 HD
ATOM     17  C   UNK d   0     -16.487  -5.821   1.468  0.00  0.00     0.062 C 
ATOM     18  C   UNK d   0     -16.945  -6.602   3.718  0.00  0.00    -0.013 A 
ATOM     19  C   UNK d   0     -16.820  -5.936   0.142  0.00  0.00     0.067 A 
ATOM     20  N   UNK d   0     -18.118  -5.858  -0.164  0.00  0.00    -0.248 NA
ATOM     21  C   UNK d   0     -16.099  -6.146  -1.102  0.00  0.00    -0.011 A 
ATOM     22  C   UNK d   0     -18.297  -6.004  -1.518  0.00  0.00     0.066 A 
ATOM     23  C   UNK d   0     -19.601  -5.906  -1.981  0.00  0.00     0.062 C 
ATOM     24  C   UNK d   0     -16.969  -6.189  -2.069  0.00  0.00    -0.020 A 
ATOM     25  C   UNK d   0     -20.753  -5.586  -1.246  0.00  0.00     0.041 A 
ATOM     26  N   UNK d   0     -21.151  -5.942  -0.019  0.00  0.00    -0.355 N 
ATOM     27  C   UNK d   0     -21.707  -4.724  -1.829  0.00  0.00    -0.022 A 
ATOM     28  C   UNK d   0     -22.326  -5.332   0.203  0.00  0.00     0.042 A 
ATOM     29  H   UNK d   0     -20.620  -6.638   0.676  0.00  0.00     0.166 HD
ATOM     30  C   UNK d   0     -23.178  -5.348   1.318  0.00  0.00     0.062 C 
ATOM     31  C   UNK d   0     -22.705  -4.557  -0.919  0.00  0.00    -0.013 A 
ATOM     32  C   UNK d   0     -22.831  -5.318   2.660  0.00  0.00     0.066 A 
BRANCH   8  33
ATOM     33  C   UNK d   0     -22.999  -5.178   6.330  0.00  0.00     0.151 C 
BRANCH  33  34
ATOM     34  C   UNK d   0     -23.417  -3.835   6.772  0.00  0.00     0.143 C 
ATOM     35  O   UNK d   0     -24.259  -3.694   7.670  0.00  0.00    -0.650 OA
BRANCH  34  36
ATOM     36  O   UNK d   0     -22.863  -2.725   6.176  0.00  0.00    -0.776 OA
ATOM     37  H   UNK d   0     -23.171  -2.408   5.247  0.00  0.00     0.167 HD
ENDBRANCH  34  36
ENDBRANCH  33  34
ENDBRANCH   8  33
BRANCH  31  38
ATOM     38  C   UNK d   0     -23.939  -3.704  -1.095  0.00  0.00     0.151 C 
BRANCH  38  39
ATOM     39  C   UNK d   0     -23.766  -2.356  -0.597  0.00  0.00     0.143 C 
ATOM     40  O   UNK d   0     -23.154  -1.483  -1.238  0.00  0.00    -0.650 OA
BRANCH  39  41
ATOM     41  O   UNK d   0     -24.300  -2.009   0.644  0.00  0.00    -0.776 OA
ATOM     42  H   UNK d   0     -24.843  -2.729   1.130  0.00  0.00     0.167 HD
ENDBRANCH  39  41
ENDBRANCH  38  39
ENDBRANCH  31  38
BRANCH  27  43
ATOM     43  C   UNK d   0     -21.705  -4.071  -3.189  0.00  0.00     0.052 C 
BRANCH  43  44
ATOM     44  C   UNK d   0     -21.931  -5.035  -4.308  0.00  0.00     0.115 C 
BRANCH  44  45
ATOM     45  C   UNK d   0     -21.121  -4.550  -5.456  0.00  0.00     0.139 C 
ATOM     46  O   UNK d   0     -19.870  -4.577  -5.350  0.00  0.00    -0.650 OA
BRANCH  45  47
ATOM     47  O   UNK d   0     -21.685  -4.083  -6.623  0.00  0.00    -0.776 OA
ATOM     48  H   UNK d   0     -22.652  -4.307  -6.907  0.00  0.00     0.167 HD
ENDBRANCH  45  47
ENDBRANCH  44  45
ENDBRANCH  43  44
ENDBRANCH  27  43
BRANCH  24  49
ATOM     49  C   UNK d   0     -16.668  -6.348  -3.502  0.00  0.00     0.052 C 
BRANCH  49  50
ATOM     50  C   UNK d   0     -16.462  -7.803  -3.837  0.00  0.00     0.115 C 
BRANCH  50  51
ATOM     51  C   UNK d   0     -17.376  -8.761  -3.230  0.00  0.00     0.139 C 
ATOM     52  O   UNK d   0     -17.085  -9.417  -2.202  0.00  0.00    -0.650 OA
BRANCH  51  53
ATOM     53  O   UNK d   0     -18.624  -8.973  -3.797  0.00  0.00    -0.776 OA
ATOM     54  H   UNK d   0     -19.400  -8.437  -3.452  0.00  0.00     0.167 HD
ENDBRANCH  51  53
ENDBRANCH  50  51
ENDBRANCH  49  50
ENDBRANCH  24  49
BRANCH  21  55
ATOM     55  C   UNK d   0     -14.615  -6.277  -1.195  0.00  0.00     0.151 C 
BRANCH  55  56
ATOM     56  C   UNK d   0     -14.041  -5.357  -2.188  0.00  0.00     0.143 C 
ATOM     57  O   UNK d   0     -13.461  -5.752  -3.219  0.00  0.00    -0.650 OA
BRANCH  56  58
ATOM     58  O   UNK d   0     -14.159  -3.989  -1.950  0.00  0.00    -0.776 OA
ATOM     59  H   UNK d   0     -13.817  -3.676  -1.024  0.00  0.00     0.167 HD
ENDBRANCH  56  58
ENDBRANCH  55  56
ENDBRANCH  21  55
BRANCH  18  60
ATOM     60  C   UNK d   0     -15.721  -7.459   3.923  0.00  0.00     0.151 C 
BRANCH  60  61
ATOM     61  C   UNK d   0     -14.685  -6.562   4.458  0.00  0.00     0.143 C 
ATOM     62  O   UNK d   0     -14.595  -6.136   5.610  0.00  0.00    -0.650 OA
BRANCH  61  63
ATOM     63  O   UNK d   0     -13.696  -6.160   3.528  0.00  0.00    -0.776 OA
ATOM     64  H   UNK d   0     -13.536  -6.682   2.684  0.00  0.00     0.167 HD
ENDBRANCH  61  63
ENDBRANCH  60  61
ENDBRANCH  18  60
BRANCH  14  65
ATOM     65  C   UNK d   0     -17.855  -6.993   6.029  0.00  0.00     0.052 C 
BRANCH  65  66
ATOM     66  C   UNK d   0     -19.138  -6.907   6.776  0.00  0.00     0.115 C 
BRANCH  66  67
ATOM     67  C   UNK d   0     -19.125  -6.870   8.212  0.00  0.00     0.139 C 
ATOM     68  O   UNK d   0     -18.261  -7.588   8.836  0.00  0.00    -0.650 OA
BRANCH  67  69
ATOM     69  O   UNK d   0     -19.957  -6.132   9.054  0.00  0.00    -0.776 OA
ATOM     70  H   UNK d   0     -20.183  -5.179   8.736  0.00  0.00     0.167 HD
ENDBRANCH  67  69
ENDBRANCH  66  67
ENDBRANCH  65  66
ENDBRANCH  14  65
ENDBRANCH   6   7
ENDBRANCH   5   6
ENDBRANCH   2   5
TORSDOF 28
ENDMDL
MODEL 5
REMARK VINA RESULT:      -9.3      4.188     10.454
REMARK  28 active torsions:
REMARK  status: ('A' for Active; 'I' for Inactive)
REMARK    1  A    between atoms: C_2  and  O_3 
REMARK    2  A    between atoms: C_2  and  C_4 
REMARK    3  A    between atoms: C_4  and  C_5 
REMARK    4  A    between atoms: C_5  and  C_6 
REMARK    5  A    between atoms: C_7  and  C_8 
REMARK    6  A    between atoms: C_8  and  C_9 
REMARK    7  A    between atoms: C_9  and  O_11 
REMARK    8  A    between atoms: C_28  and  C_29 
REMARK    9  A    between atoms: C_29  and  C_30 
REMARK   10  A    between atoms: C_30  and  O_32 
REMARK   11  A    between atoms: C_33  and  C_34 
REMARK   12  A    between atoms: C_34  and  C_35 
REMARK   13  A    between atoms: C_35  and  C_36 
REMARK   14  A    between atoms: C_36  and  O_38 
REMARK   15  A    between atoms: C_39  and  C_40 
REMARK   16  A    between atoms: C_40  and  C_41 
REMARK   17  A    between atoms: C_41  and  C_42 
REMARK   18  A    between atoms: C_42  and  O_44 
REMARK   19  A    between atoms: C_45  and  C_46 
REMARK   20  A    between atoms: C_46  and  C_47 
REMARK   21  A    between atoms: C_47  and  O_49 
REMARK   22  A    between atoms: C_50  and  C_51 
REMARK   23  A    between atoms: C_51  and  C_52 
REMARK   24  A    between atoms: C_52  and  O_54 
REMARK   25  A    between atoms: C_55  and  C_56 
REMARK   26  A    between atoms: C_56  and  C_57 
REMARK   27  A    between atoms: C_57  and  C_58 
REMARK   28  A    between atoms: C_58  and  O_60 
ROOT
ATOM      1  O   UNK d   0     -24.903  -7.676  -0.300  0.00  0.00    -0.650 OA
ATOM      2  C   UNK d   0     -25.846  -6.862  -0.186  0.00  0.00     0.139 C 
ENDROOT
BRANCH   2   3
ATOM      3  O   UNK d   0     -26.953  -7.212   0.549  0.00  0.00    -0.776 OA
ATOM      4  H   UNK d   0     -27.781  -6.614   0.573  0.00  0.00     0.167 HD
ENDBRANCH   2   3
BRANCH   2   5
ATOM      5  C   UNK d   0     -25.766  -5.527  -0.844  0.00  0.00     0.115 C 
BRANCH   5   6
ATOM      6  C   UNK d   0     -24.555  -4.781  -0.355  0.00  0.00     0.052 C 
BRANCH   6   7
ATOM      7  C   UNK d   0     -24.662  -4.387   1.099  0.00  0.00    -0.020 A 
ATOM      8  C   UNK d   0     -25.555  -3.605   1.650  0.00  0.00    -0.011 A 
ATOM      9  C   UNK d   0     -25.251  -3.513   3.068  0.00  0.00     0.067 A 
ATOM     10  C   UNK d   0     -25.813  -2.875   4.185  0.00  0.00     0.062 C 
ATOM     11  N   UNK d   0     -24.154  -4.267   3.292  0.00  0.00    -0.248 NA
ATOM     12  C   UNK d   0     -25.539  -3.130   5.533  0.00  0.00     0.041 A 
ATOM     13  N   UNK d   0     -24.375  -3.350   6.175  0.00  0.00    -0.355 N 
ATOM     14  C   UNK d   0     -26.611  -3.245   6.436  0.00  0.00    -0.022 A 
ATOM     15  C   UNK d   0     -24.683  -3.610   7.460  0.00  0.00     0.042 A 
ATOM     16  H   UNK d   0     -23.356  -3.304   5.733  0.00  0.00     0.166 HD
ATOM     17  C   UNK d   0     -23.850  -3.906   8.557  0.00  0.00     0.062 C 
ATOM     18  C   UNK d   0     -26.076  -3.554   7.662  0.00  0.00    -0.013 A 
ATOM     19  C   UNK d   0     -22.780  -4.762   8.621  0.00  0.00     0.067 A 
ATOM     20  N   UNK d   0     -22.321  -5.244   7.464  0.00  0.00    -0.248 NA
ATOM     21  C   UNK d   0     -21.963  -5.336   9.678  0.00  0.00    -0.011 A 
ATOM     22  C   UNK d   0     -21.265  -6.093   7.686  0.00  0.00     0.066 A 
ATOM     23  C   UNK d   0     -20.665  -6.639   6.561  0.00  0.00     0.062 C 
ATOM     24  C   UNK d   0     -21.081  -6.117   9.124  0.00  0.00    -0.020 A 
ATOM     25  C   UNK d   0     -20.947  -6.360   5.215  0.00  0.00     0.041 A 
ATOM     26  N   UNK d   0     -22.104  -6.156   4.574  0.00  0.00    -0.355 N 
ATOM     27  C   UNK d   0     -19.869  -6.240   4.311  0.00  0.00    -0.022 A 
ATOM     28  C   UNK d   0     -21.800  -5.905   3.291  0.00  0.00     0.042 A 
ATOM     29  H   UNK d   0     -23.128  -6.214   5.018  0.00  0.00     0.166 HD
ATOM     30  C   UNK d   0     -22.619  -5.619   2.188  0.00  0.00     0.062 C 
ATOM     31  C   UNK d   0     -20.400  -5.952   3.091  0.00  0.00    -0.013 A 
ATOM     32  C   UNK d   0     -23.751  -4.820   2.148  0.00  0.00     0.066 A 
BRANCH   8  33
ATOM     33  C   UNK d   0     -26.673  -2.923   0.973  0.00  0.00     0.151 C 
BRANCH  33  34
ATOM     34  C   UNK d   0     -26.265  -1.663   0.325  0.00  0.00     0.143 C 
ATOM     35  O   UNK d   0     -26.953  -1.157  -0.573  0.00  0.00    -0.650 OA
BRANCH  34  36
ATOM     36  O   UNK d   0     -25.104  -1.043   0.725  0.00  0.00    -0.776 OA
ATOM     37  H   UNK d   0     -25.093  -0.393   1.523  0.00  0.00     0.167 HD
ENDBRANCH  34  36
ENDBRANCH  33  34
ENDBRANCH   8  33
BRANCH  31  38
ATOM     38  C   UNK d   0     -19.626  -5.720   1.814  0.00  0.00     0.151 C 
BRANCH  38  39
ATOM     39  C   UNK d   0     -19.622  -6.876   0.943  0.00  0.00     0.143 C 
ATOM     40  O   UNK d   0     -20.190  -6.878  -0.163  0.00  0.00    -0.650 OA
BRANCH  39  41
ATOM     41  O   UNK d   0     -18.960  -8.036   1.345  0.00  0.00    -0.776 OA
ATOM     42  H   UNK d   0     -18.593  -8.639   0.602  0.00  0.00     0.167 HD
ENDBRANCH  39  41
ENDBRANCH  38  39
ENDBRANCH  31  38
BRANCH  27  43
ATOM     43  C   UNK d   0     -18.389  -6.389   4.559  0.00  0.00     0.052 C 
BRANCH  43  44
ATOM     44  C   UNK d   0     -17.683  -5.082   4.720  0.00  0.00     0.115 C 
BRANCH  44  45
ATOM     45  C   UNK d   0     -16.564  -5.318   5.669  0.00  0.00     0.139 C 
ATOM     46  O   UNK d   0     -16.486  -6.442   6.224  0.00  0.00    -0.650 OA
BRANCH  45  47
ATOM     47  O   UNK d   0     -15.615  -4.362   5.959  0.00  0.00    -0.776 OA
ATOM     48  H   UNK d   0     -15.356  -4.103   6.924  0.00  0.00     0.167 HD
ENDBRANCH  45  47
ENDBRANCH  44  45
ENDBRANCH  43  44
ENDBRANCH  27  43
BRANCH  24  49
ATOM     49  C   UNK d   0     -20.028  -6.871   9.825  0.00  0.00     0.052 C 
BRANCH  49  50
ATOM     50  C   UNK d   0     -18.740  -6.822   9.044  0.00  0.00     0.115 C 
BRANCH  50  51
ATOM     51  C   UNK d   0     -17.846  -7.967   9.162  0.00  0.00     0.139 C 
ATOM     52  O   UNK d   0     -17.404  -8.369  10.264  0.00  0.00    -0.650 OA
BRANCH  51  53
ATOM     53  O   UNK d   0     -17.455  -8.652   8.022  0.00  0.00    -0.776 OA
ATOM     54  H   UNK d   0     -16.564  -8.427   7.615  0.00  0.00     0.167 HD
ENDBRANCH  51  53
ENDBRANCH  50  51
ENDBRANCH  49  50
ENDBRANCH  24  49
BRANCH  21  55
ATOM     55  C   UNK d   0     -22.147  -5.040  11.129  0.00  0.00     0.151 C 
BRANCH  55  56
ATOM     56  C   UNK d   0     -23.244  -5.824  11.717  0.00  0.00     0.143 C 
ATOM     57  O   UNK d   0     -23.205  -7.066  11.824  0.00  0.00    -0.650 OA
BRANCH  56  58
ATOM     58  O   UNK d   0     -24.367  -5.132  12.169  0.00  0.00    -0.776 OA
ATOM     59  H   UNK d   0     -25.145  -5.072  11.488  0.00  0.00     0.167 HD
ENDBRANCH  56  58
ENDBRANCH  55  56
ENDBRANCH  21  55
BRANCH  18  60
ATOM     60  C   UNK d   0     -26.874  -3.777   8.923  0.00  0.00     0.151 C 
BRANCH  60  61
ATOM     61  C   UNK d   0     -27.081  -5.230   9.018  0.00  0.00     0.143 C 
ATOM     62  O   UNK d   0     -27.881  -5.910   8.375  0.00  0.00    -0.650 OA
BRANCH  61  63
ATOM     63  O   UNK d   0     -26.257  -5.895   9.958  0.00  0.00    -0.776 OA
ATOM     64  H   UNK d   0     -26.382  -6.872  10.157  0.00  0.00     0.167 HD
ENDBRANCH  61  63
ENDBRANCH  60  61
ENDBRANCH  18  60
BRANCH  14  65
ATOM     65  C   UNK d   0     -28.081  -2.992   6.251  0.00  0.00     0.052 C 
BRANCH  65  66
ATOM     66  C   UNK d   0     -28.456  -1.568   6.461  0.00  0.00     0.115 C 
BRANCH  66  67
ATOM     67  C   UNK d   0     -29.786  -1.239   6.890  0.00  0.00     0.139 C 
ATOM     68  O   UNK d   0     -30.281  -0.105   6.538  0.00  0.00    -0.650 OA
BRANCH  67  69
ATOM     69  O   UNK d   0     -30.648  -2.011   7.667  0.00  0.00    -0.776 OA
ATOM     70  H   UNK d   0     -30.272  -2.915   7.990  0.00  0.00     0.167 HD
ENDBRANCH  67  69
ENDBRANCH  66  67
ENDBRANCH  65  66
ENDBRANCH  14  65
ENDBRANCH   6   7
ENDBRANCH   5   6
ENDBRANCH   2   5
TORSDOF 28
ENDMDL
MODEL 6
REMARK VINA RESULT:      -9.2      2.009      7.658
REMARK  28 active torsions:
REMARK  status: ('A' for Active; 'I' for Inactive)
REMARK    1  A    between atoms: C_2  and  O_3 
REMARK    2  A    between atoms: C_2  and  C_4 
REMARK    3  A    between atoms: C_4  and  C_5 
REMARK    4  A    between atoms: C_5  and  C_6 
REMARK    5  A    between atoms: C_7  and  C_8 
REMARK    6  A    between atoms: C_8  and  C_9 
REMARK    7  A    between atoms: C_9  and  O_11 
REMARK    8  A    between atoms: C_28  and  C_29 
REMARK    9  A    between atoms: C_29  and  C_30 
REMARK   10  A    between atoms: C_30  and  O_32 
REMARK   11  A    between atoms: C_33  and  C_34 
REMARK   12  A    between atoms: C_34  and  C_35 
REMARK   13  A    between atoms: C_35  and  C_36 
REMARK   14  A    between atoms: C_36  and  O_38 
REMARK   15  A    between atoms: C_39  and  C_40 
REMARK   16  A    between atoms: C_40  and  C_41 
REMARK   17  A    between atoms: C_41  and  C_42 
REMARK   18  A    between atoms: C_42  and  O_44 
REMARK   19  A    between atoms: C_45  and  C_46 
REMARK   20  A    between atoms: C_46  and  C_47 
REMARK   21  A    between atoms: C_47  and  O_49 
REMARK   22  A    between atoms: C_50  and  C_51 
REMARK   23  A    between atoms: C_51  and  C_52 
REMARK   24  A    between atoms: C_52  and  O_54 
REMARK   25  A    between atoms: C_55  and  C_56 
REMARK   26  A    between atoms: C_56  and  C_57 
REMARK   27  A    between atoms: C_57  and  C_58 
REMARK   28  A    between atoms: C_58  and  O_60 
ROOT
ATOM      1  O   UNK d   0     -16.857  -8.848   9.471  0.00  0.00    -0.650 OA
ATOM      2  C   UNK d   0     -17.777  -8.190   8.938  0.00  0.00     0.139 C 
ENDROOT
BRANCH   2   3
ATOM      3  O   UNK d   0     -18.685  -7.535   9.734  0.00  0.00    -0.776 OA
ATOM      4  H   UNK d   0     -19.241  -8.040  10.426  0.00  0.00     0.167 HD
ENDBRANCH   2   3
BRANCH   2   5
ATOM      5  C   UNK d   0     -17.884  -8.120   7.453  0.00  0.00     0.115 C 
BRANCH   5   6
ATOM      6  C   UNK d   0     -18.305  -6.740   7.028  0.00  0.00     0.052 C 
BRANCH   6   7
ATOM      7  C   UNK d   0     -18.084  -6.492   5.555  0.00  0.00    -0.020 A 
ATOM      8  C   UNK d   0     -16.942  -6.393   4.925  0.00  0.00    -0.011 A 
ATOM      9  C   UNK d   0     -17.228  -6.144   3.522  0.00  0.00     0.067 A 
ATOM     10  C   UNK d   0     -16.474  -5.968   2.351  0.00  0.00     0.062 C 
ATOM     11  N   UNK d   0     -18.570  -6.101   3.388  0.00  0.00    -0.248 NA
ATOM     12  C   UNK d   0     -16.936  -6.015   1.031  0.00  0.00     0.041 A 
ATOM     13  N   UNK d   0     -18.044  -5.505   0.461  0.00  0.00    -0.355 N 
ATOM     14  C   UNK d   0     -16.203  -6.748   0.079  0.00  0.00    -0.022 A 
ATOM     15  C   UNK d   0     -18.037  -5.901  -0.826  0.00  0.00     0.042 A 
ATOM     16  H   UNK d   0     -18.806  -4.861   0.953  0.00  0.00     0.166 HD
ATOM     17  C   UNK d   0     -18.956  -5.649  -1.864  0.00  0.00     0.062 C 
ATOM     18  C   UNK d   0     -16.899  -6.683  -1.103  0.00  0.00    -0.013 A 
ATOM     19  C   UNK d   0     -20.326  -5.704  -1.836  0.00  0.00     0.067 A 
ATOM     20  N   UNK d   0     -20.902  -5.816  -0.636  0.00  0.00    -0.248 NA
ATOM     21  C   UNK d   0     -21.393  -5.685  -2.823  0.00  0.00    -0.011 A 
ATOM     22  C   UNK d   0     -22.268  -5.874  -0.767  0.00  0.00     0.066 A 
ATOM     23  C   UNK d   0     -22.997  -5.954   0.411  0.00  0.00     0.062 C 
ATOM     24  C   UNK d   0     -22.527  -5.790  -2.191  0.00  0.00    -0.020 A 
ATOM     25  C   UNK d   0     -22.515  -5.892   1.727  0.00  0.00     0.041 A 
ATOM     26  N   UNK d   0     -21.421  -6.411   2.297  0.00  0.00    -0.355 N 
ATOM     27  C   UNK d   0     -23.248  -5.153   2.680  0.00  0.00    -0.022 A 
ATOM     28  C   UNK d   0     -21.430  -6.025   3.583  0.00  0.00     0.042 A 
ATOM     29  H   UNK d   0     -20.662  -7.067   1.804  0.00  0.00     0.166 HD
ATOM     30  C   UNK d   0     -20.528  -6.276   4.628  0.00  0.00     0.062 C 
ATOM     31  C   UNK d   0     -22.569  -5.231   3.857  0.00  0.00    -0.013 A 
ATOM     32  C   UNK d   0     -19.143  -6.303   4.575  0.00  0.00     0.066 A 
BRANCH   8  33
ATOM     33  C   UNK d   0     -15.594  -6.505   5.513  0.00  0.00     0.151 C 
BRANCH  33  34
ATOM     34  C   UNK d   0     -14.763  -5.314   5.265  0.00  0.00     0.143 C 
ATOM     35  O   UNK d   0     -13.605  -5.423   4.837  0.00  0.00    -0.650 OA
BRANCH  34  36
ATOM     36  O   UNK d   0     -15.281  -4.064   5.516  0.00  0.00    -0.776 OA
ATOM     37  H   UNK d   0     -14.729  -3.213   5.346  0.00  0.00     0.167 HD
ENDBRANCH  34  36
ENDBRANCH  33  34
ENDBRANCH   8  33
BRANCH  31  38
ATOM     38  C   UNK d   0     -22.967  -4.581   5.162  0.00  0.00     0.151 C 
BRANCH  38  39
ATOM     39  C   UNK d   0     -23.964  -5.341   5.886  0.00  0.00     0.143 C 
ATOM     40  O   UNK d   0     -24.947  -4.804   6.427  0.00  0.00    -0.650 OA
BRANCH  39  41
ATOM     41  O   UNK d   0     -23.832  -6.725   5.987  0.00  0.00    -0.776 OA
ATOM     42  H   UNK d   0     -23.462  -7.215   5.167  0.00  0.00     0.167 HD
ENDBRANCH  39  41
ENDBRANCH  38  39
ENDBRANCH  31  38
BRANCH  27  43
ATOM     43  C   UNK d   0     -24.542  -4.395   2.517  0.00  0.00     0.052 C 
BRANCH  43  44
ATOM     44  C   UNK d   0     -25.752  -5.269   2.587  0.00  0.00     0.115 C 
BRANCH  44  45
ATOM     45  C   UNK d   0     -26.896  -4.451   2.108  0.00  0.00     0.139 C 
ATOM     46  O   UNK d   0     -26.754  -3.203   2.065  0.00  0.00    -0.650 OA
BRANCH  45  47
ATOM     47  O   UNK d   0     -28.094  -5.002   1.707  0.00  0.00    -0.776 OA
ATOM     48  H   UNK d   0     -28.216  -5.477   0.799  0.00  0.00     0.167 HD
ENDBRANCH  45  47
ENDBRANCH  44  45
ENDBRANCH  43  44
ENDBRANCH  27  43
BRANCH  24  49
ATOM     49  C   UNK d   0     -23.866  -5.774  -2.803  0.00  0.00     0.052 C 
BRANCH  49  50
ATOM     50  C   UNK d   0     -24.854  -6.495  -1.921  0.00  0.00     0.115 C 
BRANCH  50  51
ATOM     51  C   UNK d   0     -25.902  -5.694  -1.303  0.00  0.00     0.139 C 
ATOM     52  O   UNK d   0     -26.962  -6.194  -0.858  0.00  0.00    -0.650 OA
BRANCH  51  53
ATOM     53  O   UNK d   0     -25.742  -4.321  -1.195  0.00  0.00    -0.776 OA
ATOM     54  H   UNK d   0     -26.021  -3.747  -1.971  0.00  0.00     0.167 HD
ENDBRANCH  51  53
ENDBRANCH  50  51
ENDBRANCH  49  50
ENDBRANCH  24  49
BRANCH  21  55
ATOM     55  C   UNK d   0     -21.169  -5.561  -4.293  0.00  0.00     0.151 C 
BRANCH  55  56
ATOM     56  C   UNK d   0     -21.098  -4.157  -4.724  0.00  0.00     0.143 C 
ATOM     57  O   UNK d   0     -20.600  -3.808  -5.812  0.00  0.00    -0.650 OA
BRANCH  56  58
ATOM     58  O   UNK d   0     -21.616  -3.188  -3.866  0.00  0.00    -0.776 OA
ATOM     59  H   UNK d   0     -20.913  -2.703  -3.279  0.00  0.00     0.167 HD
ENDBRANCH  56  58
ENDBRANCH  55  56
ENDBRANCH  21  55
BRANCH  18  60
ATOM     60  C   UNK d   0     -16.475  -7.340  -2.392  0.00  0.00     0.151 C 
BRANCH  60  61
ATOM     61  C   UNK d   0     -17.429  -8.436  -2.620  0.00  0.00     0.143 C 
ATOM     62  O   UNK d   0     -18.119  -8.623  -3.623  0.00  0.00    -0.650 OA
BRANCH  61  63
ATOM     63  O   UNK d   0     -17.547  -9.362  -1.557  0.00  0.00    -0.776 OA
ATOM     64  H   UNK d   0     -16.801  -9.492  -0.896  0.00  0.00     0.167 HD
ENDBRANCH  61  63
ENDBRANCH  60  61
ENDBRANCH  18  60
BRANCH  14  65
ATOM     65  C   UNK d   0     -14.860  -7.414   0.176  0.00  0.00     0.052 C 
BRANCH  65  66
ATOM     66  C   UNK d   0     -14.878  -8.636   1.024  0.00  0.00     0.115 C 
BRANCH  66  67
ATOM     67  C   UNK d   0     -14.404  -8.570   2.378  0.00  0.00     0.139 C 
ATOM     68  O   UNK d   0     -14.827  -9.446   3.220  0.00  0.00    -0.650 OA
BRANCH  67  69
ATOM     69  O   UNK d   0     -13.513  -7.648   2.926  0.00  0.00    -0.776 OA
ATOM     70  H   UNK d   0     -13.387  -6.776   2.393  0.00  0.00     0.167 HD
ENDBRANCH  67  69
ENDBRANCH  66  67
ENDBRANCH  65  66
ENDBRANCH  14  65
ENDBRANCH   6   7
ENDBRANCH   5   6
ENDBRANCH   2   5
TORSDOF 28
ENDMDL
MODEL 7
REMARK VINA RESULT:      -9.2      2.172      7.905
REMARK  28 active torsions:
REMARK  status: ('A' for Active; 'I' for Inactive)
REMARK    1  A    between atoms: C_2  and  O_3 
REMARK    2  A    between atoms: C_2  and  C_4 
REMARK    3  A    between atoms: C_4  and  C_5 
REMARK    4  A    between atoms: C_5  and  C_6 
REMARK    5  A    between atoms: C_7  and  C_8 
REMARK    6  A    between atoms: C_8  and  C_9 
REMARK    7  A    between atoms: C_9  and  O_11 
REMARK    8  A    between atoms: C_28  and  C_29 
REMARK    9  A    between atoms: C_29  and  C_30 
REMARK   10  A    between atoms: C_30  and  O_32 
REMARK   11  A    between atoms: C_33  and  C_34 
REMARK   12  A    between atoms: C_34  and  C_35 
REMARK   13  A    between atoms: C_35  and  C_36 
REMARK   14  A    between atoms: C_36  and  O_38 
REMARK   15  A    between atoms: C_39  and  C_40 
REMARK   16  A    between atoms: C_40  and  C_41 
REMARK   17  A    between atoms: C_41  and  C_42 
REMARK   18  A    between atoms: C_42  and  O_44 
REMARK   19  A    between atoms: C_45  and  C_46 
REMARK   20  A    between atoms: C_46  and  C_47 
REMARK   21  A    between atoms: C_47  and  O_49 
REMARK   22  A    between atoms: C_50  and  C_51 
REMARK   23  A    between atoms: C_51  and  C_52 
REMARK   24  A    between atoms: C_52  and  O_54 
REMARK   25  A    between atoms: C_55  and  C_56 
REMARK   26  A    between atoms: C_56  and  C_57 
REMARK   27  A    between atoms: C_57  and  C_58 
REMARK   28  A    between atoms: C_58  and  O_60 
ROOT
ATOM      1  O   UNK d   0     -27.474  -4.127   6.506  0.00  0.00    -0.650 OA
ATOM      2  C   UNK d   0     -26.403  -4.642   6.896  0.00  0.00     0.139 C 
ENDROOT
BRANCH   2   3
ATOM      3  O   UNK d   0     -26.353  -5.239   8.133  0.00  0.00    -0.776 OA
ATOM      4  H   UNK d   0     -27.198  -5.604   8.577  0.00  0.00     0.167 HD
ENDBRANCH   2   3
BRANCH   2   5
ATOM      5  C   UNK d   0     -25.194  -4.606   6.024  0.00  0.00     0.115 C 
BRANCH   5   6
ATOM      6  C   UNK d   0     -25.572  -4.174   4.633  0.00  0.00     0.052 C 
BRANCH   6   7
ATOM      7  C   UNK d   0     -24.613  -4.686   3.585  0.00  0.00    -0.020 A 
ATOM      8  C   UNK d   0     -24.841  -4.853   2.308  0.00  0.00    -0.011 A 
ATOM      9  C   UNK d   0     -23.626  -5.374   1.703  0.00  0.00     0.067 A 
ATOM     10  C   UNK d   0     -23.213  -5.736   0.412  0.00  0.00     0.062 C 
ATOM     11  N   UNK d   0     -22.711  -5.499   2.687  0.00  0.00    -0.248 NA
ATOM     12  C   UNK d   0     -21.903  -5.958  -0.028  0.00  0.00     0.041 A 
ATOM     13  N   UNK d   0     -20.876  -6.614   0.545  0.00  0.00    -0.355 N 
ATOM     14  C   UNK d   0     -21.488  -5.388  -1.244  0.00  0.00    -0.022 A 
ATOM     15  C   UNK d   0     -19.817  -6.467  -0.274  0.00  0.00     0.042 A 
ATOM     16  H   UNK d   0     -20.904  -7.185   1.499  0.00  0.00     0.166 HD
ATOM     17  C   UNK d   0     -18.498  -6.950  -0.156  0.00  0.00     0.062 C 
ATOM     18  C   UNK d   0     -20.162  -5.704  -1.406  0.00  0.00    -0.013 A 
ATOM     19  C   UNK d   0     -17.674  -6.950   0.940  0.00  0.00     0.067 A 
ATOM     20  N   UNK d   0     -18.229  -6.638   2.114  0.00  0.00    -0.248 NA
ATOM     21  C   UNK d   0     -16.264  -7.200   1.187  0.00  0.00    -0.011 A 
ATOM     22  C   UNK d   0     -17.284  -6.665   3.110  0.00  0.00     0.066 A 
ATOM     23  C   UNK d   0     -17.734  -6.395   4.394  0.00  0.00     0.062 C 
ATOM     24  C   UNK d   0     -16.041  -7.027   2.458  0.00  0.00    -0.020 A 
ATOM     25  C   UNK d   0     -19.056  -6.187   4.816  0.00  0.00     0.041 A 
ATOM     26  N   UNK d   0     -20.073  -5.523   4.255  0.00  0.00    -0.355 N 
ATOM     27  C   UNK d   0     -19.474  -6.764   6.036  0.00  0.00    -0.022 A 
ATOM     28  C   UNK d   0     -21.128  -5.660   5.073  0.00  0.00     0.042 A 
ATOM     29  H   UNK d   0     -20.041  -4.940   3.301  0.00  0.00     0.166 HD
ATOM     30  C   UNK d   0     -22.443  -5.177   4.974  0.00  0.00     0.062 C 
ATOM     31  C   UNK d   0     -20.784  -6.436   6.205  0.00  0.00    -0.013 A 
ATOM     32  C   UNK d   0     -23.242  -5.101   3.844  0.00  0.00     0.066 A 
BRANCH   8  33
ATOM     33  C   UNK d   0     -26.098  -4.574   1.590  0.00  0.00     0.151 C 
BRANCH  33  34
ATOM     34  C   UNK d   0     -26.689  -5.781   0.984  0.00  0.00     0.143 C 
ATOM     35  O   UNK d   0     -26.916  -5.836  -0.233  0.00  0.00    -0.650 OA
BRANCH  34  36
ATOM     36  O   UNK d   0     -26.992  -6.859   1.783  0.00  0.00    -0.776 OA
ATOM     37  H   UNK d   0     -27.766  -6.821   2.460  0.00  0.00     0.167 HD
ENDBRANCH  34  36
ENDBRANCH  33  34
ENDBRANCH   8  33
BRANCH  31  38
ATOM     38  C   UNK d   0     -21.662  -6.844   7.365  0.00  0.00     0.151 C 
BRANCH  38  39
ATOM     39  C   UNK d   0     -21.641  -5.886   8.450  0.00  0.00     0.143 C 
ATOM     40  O   UNK d   0     -21.094  -6.127   9.541  0.00  0.00    -0.650 OA
BRANCH  39  41
ATOM     41  O   UNK d   0     -22.251  -4.643   8.280  0.00  0.00    -0.776 OA
ATOM     42  H   UNK d   0     -21.852  -4.027   7.565  0.00  0.00     0.167 HD
ENDBRANCH  39  41
ENDBRANCH  38  39
ENDBRANCH  31  38
BRANCH  27  43
ATOM     43  C   UNK d   0     -18.690  -7.593   7.022  0.00  0.00     0.052 C 
BRANCH  43  44
ATOM     44  C   UNK d   0     -17.767  -6.783   7.872  0.00  0.00     0.115 C 
BRANCH  44  45
ATOM     45  C   UNK d   0     -17.761  -7.418   9.216  0.00  0.00     0.139 C 
ATOM     46  O   UNK d   0     -17.022  -8.418   9.396  0.00  0.00    -0.650 OA
BRANCH  45  47
ATOM     47  O   UNK d   0     -18.525  -6.953  10.265  0.00  0.00    -0.776 OA
ATOM     48  H   UNK d   0     -18.124  -6.714  11.187  0.00  0.00     0.167 HD
ENDBRANCH  45  47
ENDBRANCH  44  45
ENDBRANCH  43  44
ENDBRANCH  27  43
BRANCH  24  49
ATOM     49  C   UNK d   0     -14.753  -7.215   3.147  0.00  0.00     0.052 C 
BRANCH  49  50
ATOM     50  C   UNK d   0     -14.121  -5.881   3.450  0.00  0.00     0.115 C 
BRANCH  50  51
ATOM     51  C   UNK d   0     -14.554  -5.199   4.662  0.00  0.00     0.139 C 
ATOM     52  O   UNK d   0     -15.244  -4.153   4.640  0.00  0.00    -0.650 OA
BRANCH  51  53
ATOM     53  O   UNK d   0     -14.199  -5.710   5.901  0.00  0.00    -0.776 OA
ATOM     54  H   UNK d   0     -13.878  -5.069   6.605  0.00  0.00     0.167 HD
ENDBRANCH  51  53
ENDBRANCH  50  51
ENDBRANCH  49  50
ENDBRANCH  24  49
BRANCH  21  55
ATOM     55  C   UNK d   0     -15.287  -7.589   0.127  0.00  0.00     0.151 C 
BRANCH  55  56
ATOM     56  C   UNK d   0     -14.764  -6.421  -0.597  0.00  0.00     0.143 C 
ATOM     57  O   UNK d   0     -15.295  -5.976  -1.634  0.00  0.00    -0.650 OA
BRANCH  56  58
ATOM     58  O   UNK d   0     -13.625  -5.798  -0.088  0.00  0.00    -0.776 OA
ATOM     59  H   UNK d   0     -12.984  -6.421   0.434  0.00  0.00     0.167 HD
ENDBRANCH  56  58
ENDBRANCH  55  56
ENDBRANCH  21  55
BRANCH  18  60
ATOM     60  C   UNK d   0     -19.309  -5.285  -2.578  0.00  0.00     0.151 C 
BRANCH  60  61
ATOM     61  C   UNK d   0     -18.734  -6.524  -3.123  0.00  0.00     0.143 C 
ATOM     62  O   UNK d   0     -19.304  -7.606  -3.267  0.00  0.00    -0.650 OA
BRANCH  61  63
ATOM     63  O   UNK d   0     -17.378  -6.436  -3.518  0.00  0.00    -0.776 OA
ATOM     64  H   UNK d   0     -17.031  -5.627  -4.004  0.00  0.00     0.167 HD
ENDBRANCH  61  63
ENDBRANCH  60  61
ENDBRANCH  18  60
BRANCH  14  65
ATOM     65  C   UNK d   0     -22.266  -4.658  -2.302  0.00  0.00     0.052 C 
BRANCH  65  66
ATOM     66  C   UNK d   0     -22.381  -3.199  -2.036  0.00  0.00     0.115 C 
BRANCH  66  67
ATOM     67  C   UNK d   0     -23.297  -2.728  -1.035  0.00  0.00     0.139 C 
ATOM     68  O   UNK d   0     -24.554  -2.934  -1.209  0.00  0.00    -0.650 OA
BRANCH  67  69
ATOM     69  O   UNK d   0     -22.995  -2.051   0.146  0.00  0.00    -0.776 OA
ATOM     70  H   UNK d   0     -22.669  -1.080   0.034  0.00  0.00     0.167 HD
ENDBRANCH  67  69
ENDBRANCH  66  67
ENDBRANCH  65  66
ENDBRANCH  14  65
ENDBRANCH   6   7
ENDBRANCH   5   6
ENDBRANCH   2   5
TORSDOF 28
ENDMDL
MODEL 8
REMARK VINA RESULT:      -9.2      5.146      8.908
REMARK  28 active torsions:
REMARK  status: ('A' for Active; 'I' for Inactive)
REMARK    1  A    between atoms: C_2  and  O_3 
REMARK    2  A    between atoms: C_2  and  C_4 
REMARK    3  A    between atoms: C_4  and  C_5 
REMARK    4  A    between atoms: C_5  and  C_6 
REMARK    5  A    between atoms: C_7  and  C_8 
REMARK    6  A    between atoms: C_8  and  C_9 
REMARK    7  A    between atoms: C_9  and  O_11 
REMARK    8  A    between atoms: C_28  and  C_29 
REMARK    9  A    between atoms: C_29  and  C_30 
REMARK   10  A    between atoms: C_30  and  O_32 
REMARK   11  A    between atoms: C_33  and  C_34 
REMARK   12  A    between atoms: C_34  and  C_35 
REMARK   13  A    between atoms: C_35  and  C_36 
REMARK   14  A    between atoms: C_36  and  O_38 
REMARK   15  A    between atoms: C_39  and  C_40 
REMARK   16  A    between atoms: C_40  and  C_41 
REMARK   17  A    between atoms: C_41  and  C_42 
REMARK   18  A    between atoms: C_42  and  O_44 
REMARK   19  A    between atoms: C_45  and  C_46 
REMARK   20  A    between atoms: C_46  and  C_47 
REMARK   21  A    between atoms: C_47  and  O_49 
REMARK   22  A    between atoms: C_50  and  C_51 
REMARK   23  A    between atoms: C_51  and  C_52 
REMARK   24  A    between atoms: C_52  and  O_54 
REMARK   25  A    between atoms: C_55  and  C_56 
REMARK   26  A    between atoms: C_56  and  C_57 
REMARK   27  A    between atoms: C_57  and  C_58 
REMARK   28  A    between atoms: C_58  and  O_60 
ROOT
ATOM      1  O   UNK d   0     -30.862   2.390   9.638  0.00  0.00    -0.650 OA
ATOM      2  C   UNK d   0     -30.932   1.192   9.284  0.00  0.00     0.139 C 
ENDROOT
BRANCH   2   3
ATOM      3  O   UNK d   0     -31.658   0.307  10.044  0.00  0.00    -0.776 OA
ATOM      4  H   UNK d   0     -31.339  -0.653  10.184  0.00  0.00     0.167 HD
ENDBRANCH   2   3
BRANCH   2   5
ATOM      5  C   UNK d   0     -30.233   0.734   8.050  0.00  0.00     0.115 C 
BRANCH   5   6
ATOM      6  C   UNK d   0     -30.450  -0.741   7.850  0.00  0.00     0.052 C 
BRANCH   6   7
ATOM      7  C   UNK d   0     -29.163  -1.529   7.888  0.00  0.00    -0.020 A 
ATOM      8  C   UNK d   0     -28.598  -2.084   8.930  0.00  0.00    -0.011 A 
ATOM      9  C   UNK d   0     -27.372  -2.724   8.482  0.00  0.00     0.067 A 
ATOM     10  C   UNK d   0     -26.351  -3.483   9.076  0.00  0.00     0.062 C 
ATOM     11  N   UNK d   0     -27.266  -2.504   7.155  0.00  0.00    -0.248 NA
ATOM     12  C   UNK d   0     -25.384  -4.257   8.425  0.00  0.00     0.041 A 
ATOM     13  N   UNK d   0     -24.639  -4.010   7.331  0.00  0.00    -0.355 N 
ATOM     14  C   UNK d   0     -25.118  -5.555   8.900  0.00  0.00    -0.022 A 
ATOM     15  C   UNK d   0     -23.914  -5.120   7.094  0.00  0.00     0.042 A 
ATOM     16  H   UNK d   0     -24.612  -3.063   6.749  0.00  0.00     0.166 HD
ATOM     17  C   UNK d   0     -22.976  -5.399   6.081  0.00  0.00     0.062 C 
ATOM     18  C   UNK d   0     -24.188  -6.110   8.057  0.00  0.00    -0.013 A 
ATOM     19  C   UNK d   0     -23.058  -5.144   4.736  0.00  0.00     0.067 A 
ATOM     20  N   UNK d   0     -24.056  -4.355   4.329  0.00  0.00    -0.248 NA
ATOM     21  C   UNK d   0     -22.314  -5.536   3.551  0.00  0.00    -0.011 A 
ATOM     22  C   UNK d   0     -24.019  -4.204   2.965  0.00  0.00     0.066 A 
ATOM     23  C   UNK d   0     -24.982  -3.373   2.410  0.00  0.00     0.062 C 
ATOM     24  C   UNK d   0     -22.883  -4.986   2.517  0.00  0.00    -0.020 A 
ATOM     25  C   UNK d   0     -25.937  -2.595   3.082  0.00  0.00     0.041 A 
ATOM     26  N   UNK d   0     -26.687  -2.846   4.161  0.00  0.00    -0.355 N 
ATOM     27  C   UNK d   0     -26.199  -1.291   2.608  0.00  0.00    -0.022 A 
ATOM     28  C   UNK d   0     -27.418  -1.744   4.394  0.00  0.00     0.042 A 
ATOM     29  H   UNK d   0     -26.721  -3.802   4.739  0.00  0.00     0.166 HD
ATOM     30  C   UNK d   0     -28.361  -1.456   5.392  0.00  0.00     0.062 C 
ATOM     31  C   UNK d   0     -27.135  -0.745   3.432  0.00  0.00    -0.013 A 
ATOM     32  C   UNK d   0     -28.313  -1.791   6.736  0.00  0.00     0.066 A 
BRANCH   8  33
ATOM     33  C   UNK d   0     -29.094  -2.071  10.318  0.00  0.00     0.151 C 
BRANCH  33  34
ATOM     34  C   UNK d   0     -30.222  -2.995  10.530  0.00  0.00     0.143 C 
ATOM     35  O   UNK d   0     -30.056  -4.222  10.489  0.00  0.00    -0.650 OA
BRANCH  34  36
ATOM     36  O   UNK d   0     -31.476  -2.485  10.775  0.00  0.00    -0.776 OA
ATOM     37  H   UNK d   0     -31.765  -1.571  10.398  0.00  0.00     0.167 HD
ENDBRANCH  34  36
ENDBRANCH  33  34
ENDBRANCH   8  33
BRANCH  31  38
ATOM     38  C   UNK d   0     -27.716   0.645   3.324  0.00  0.00     0.151 C 
BRANCH  38  39
ATOM     39  C   UNK d   0     -27.025   1.609   4.153  0.00  0.00     0.143 C 
ATOM     40  O   UNK d   0     -25.824   1.886   3.992  0.00  0.00    -0.650 OA
BRANCH  39  41
ATOM     41  O   UNK d   0     -27.720   2.259   5.173  0.00  0.00    -0.776 OA
ATOM     42  H   UNK d   0     -28.108   3.181   4.951  0.00  0.00     0.167 HD
ENDBRANCH  39  41
ENDBRANCH  38  39
ENDBRANCH  31  38
BRANCH  27  43
ATOM     43  C   UNK d   0     -25.608  -0.564   1.425  0.00  0.00     0.052 C 
BRANCH  43  44
ATOM     44  C   UNK d   0     -26.288  -0.885   0.134  0.00  0.00     0.115 C 
BRANCH  44  45
ATOM     45  C   UNK d   0     -25.427  -1.873  -0.565  0.00  0.00     0.139 C 
ATOM     46  O   UNK d   0     -24.262  -1.525  -0.881  0.00  0.00    -0.650 OA
BRANCH  45  47
ATOM     47  O   UNK d   0     -25.851  -3.148  -0.874  0.00  0.00    -0.776 OA
ATOM     48  H   UNK d   0     -26.802  -3.489  -0.659  0.00  0.00     0.167 HD
ENDBRANCH  45  47
ENDBRANCH  44  45
ENDBRANCH  43  44
ENDBRANCH  27  43
BRANCH  24  49
ATOM     49  C   UNK d   0     -22.431  -5.088   1.119  0.00  0.00     0.052 C 
BRANCH  49  50
ATOM     50  C   UNK d   0     -23.381  -5.946   0.323  0.00  0.00     0.115 C 
BRANCH  50  51
ATOM     51  C   UNK d   0     -23.441  -5.714  -1.114  0.00  0.00     0.139 C 
ATOM     52  O   UNK d   0     -23.571  -6.644  -1.945  0.00  0.00    -0.650 OA
BRANCH  51  53
ATOM     53  O   UNK d   0     -23.350  -4.420  -1.604  0.00  0.00    -0.776 OA
ATOM     54  H   UNK d   0     -23.898  -3.704  -1.161  0.00  0.00     0.167 HD
ENDBRANCH  51  53
ENDBRANCH  50  51
ENDBRANCH  49  50
ENDBRANCH  24  49
BRANCH  21  55
ATOM     55  C   UNK d   0     -21.108  -6.416   3.575  0.00  0.00     0.151 C 
BRANCH  55  56
ATOM     56  C   UNK d   0     -19.903  -5.688   4.001  0.00  0.00     0.143 C 
ATOM     57  O   UNK d   0     -19.004  -6.214   4.687  0.00  0.00    -0.650 OA
BRANCH  56  58
ATOM     58  O   UNK d   0     -19.778  -4.355   3.612  0.00  0.00    -0.776 OA
ATOM     59  H   UNK d   0     -18.961  -3.859   4.011  0.00  0.00     0.167 HD
ENDBRANCH  56  58
ENDBRANCH  55  56
ENDBRANCH  21  55
BRANCH  18  60
ATOM     60  C   UNK d   0     -23.622  -7.502   8.192  0.00  0.00     0.151 C 
BRANCH  60  61
ATOM     61  C   UNK d   0     -24.224  -8.290   7.106  0.00  0.00     0.143 C 
ATOM     62  O   UNK d   0     -25.365  -8.750   7.067  0.00  0.00    -0.650 OA
BRANCH  61  63
ATOM     63  O   UNK d   0     -23.379  -8.530   5.995  0.00  0.00    -0.776 OA
ATOM     64  H   UNK d   0     -23.730  -8.478   5.056  0.00  0.00     0.167 HD
ENDBRANCH  61  63
ENDBRANCH  60  61
ENDBRANCH  18  60
BRANCH  14  65
ATOM     65  C   UNK d   0     -25.599  -6.265  10.133  0.00  0.00     0.052 C 
BRANCH  65  66
ATOM     66  C   UNK d   0     -26.595  -7.330   9.840  0.00  0.00     0.115 C 
BRANCH  66  67
ATOM     67  C   UNK d   0     -26.438  -8.632  10.424  0.00  0.00     0.139 C 
ATOM     68  O   UNK d   0     -27.022  -8.878  11.543  0.00  0.00    -0.650 OA
BRANCH  67  69
ATOM     69  O   UNK d   0     -25.709  -9.710   9.922  0.00  0.00    -0.776 OA
ATOM     70  H   UNK d   0     -26.046 -10.103   9.032  0.00  0.00     0.167 HD
ENDBRANCH  67  69
ENDBRANCH  66  67
ENDBRANCH  65  66
ENDBRANCH  14  65
ENDBRANCH   6   7
ENDBRANCH   5   6
ENDBRANCH   2   5
TORSDOF 28
ENDMDL
MODEL 9
REMARK VINA RESULT:      -9.2      2.416      8.631
REMARK  28 active torsions:
REMARK  status: ('A' for Active; 'I' for Inactive)
REMARK    1  A    between atoms: C_2  and  O_3 
REMARK    2  A    between atoms: C_2  and  C_4 
REMARK    3  A    between atoms: C_4  and  C_5 
REMARK    4  A    between atoms: C_5  and  C_6 
REMARK    5  A    between atoms: C_7  and  C_8 
REMARK    6  A    between atoms: C_8  and  C_9 
REMARK    7  A    between atoms: C_9  and  O_11 
REMARK    8  A    between atoms: C_28  and  C_29 
REMARK    9  A    between atoms: C_29  and  C_30 
REMARK   10  A    between atoms: C_30  and  O_32 
REMARK   11  A    between atoms: C_33  and  C_34 
REMARK   12  A    between atoms: C_34  and  C_35 
REMARK   13  A    between atoms: C_35  and  C_36 
REMARK   14  A    between atoms: C_36  and  O_38 
REMARK   15  A    between atoms: C_39  and  C_40 
REMARK   16  A    between atoms: C_40  and  C_41 
REMARK   17  A    between atoms: C_41  and  C_42 
REMARK   18  A    between atoms: C_42  and  O_44 
REMARK   19  A    between atoms: C_45  and  C_46 
REMARK   20  A    between atoms: C_46  and  C_47 
REMARK   21  A    between atoms: C_47  and  O_49 
REMARK   22  A    between atoms: C_50  and  C_51 
REMARK   23  A    between atoms: C_51  and  C_52 
REMARK   24  A    between atoms: C_52  and  O_54 
REMARK   25  A    between atoms: C_55  and  C_56 
REMARK   26  A    between atoms: C_56  and  C_57 
REMARK   27  A    between atoms: C_57  and  C_58 
REMARK   28  A    between atoms: C_58  and  O_60 
ROOT
ATOM      1  O   UNK d   0     -21.937  -5.111  -5.824  0.00  0.00    -0.650 OA
ATOM      2  C   UNK d   0     -21.282  -4.264  -5.176  0.00  0.00     0.139 C 
ENDROOT
BRANCH   2   3
ATOM      3  O   UNK d   0     -20.845  -3.124  -5.806  0.00  0.00    -0.776 OA
ATOM      4  H   UNK d   0     -20.751  -2.243  -5.297  0.00  0.00     0.167 HD
ENDBRANCH   2   3
BRANCH   2   5
ATOM      5  C   UNK d   0     -20.981  -4.495  -3.735  0.00  0.00     0.115 C 
BRANCH   5   6
ATOM      6  C   UNK d   0     -20.405  -5.872  -3.540  0.00  0.00     0.052 C 
BRANCH   6   7
ATOM      7  C   UNK d   0     -20.065  -6.161  -2.098  0.00  0.00    -0.020 A 
ATOM      8  C   UNK d   0     -18.947  -6.647  -1.623  0.00  0.00    -0.011 A 
ATOM      9  C   UNK d   0     -19.088  -6.760  -0.181  0.00  0.00     0.067 A 
ATOM     10  C   UNK d   0     -18.276  -7.174   0.887  0.00  0.00     0.062 C 
ATOM     11  N   UNK d   0     -20.326  -6.327   0.136  0.00  0.00    -0.248 NA
ATOM     12  C   UNK d   0     -18.490  -6.950   2.251  0.00  0.00     0.041 A 
ATOM     13  N   UNK d   0     -19.607  -7.030   2.998  0.00  0.00    -0.355 N 
ATOM     14  C   UNK d   0     -17.416  -6.509   3.045  0.00  0.00    -0.022 A 
ATOM     15  C   UNK d   0     -19.272  -6.643   4.243  0.00  0.00     0.042 A 
ATOM     16  H   UNK d   0     -20.609  -7.371   2.656  0.00  0.00     0.166 HD
ATOM     17  C   UNK d   0     -20.055  -6.543   5.410  0.00  0.00     0.062 C 
ATOM     18  C   UNK d   0     -17.906  -6.309   4.311  0.00  0.00    -0.013 A 
ATOM     19  C   UNK d   0     -21.309  -6.010   5.564  0.00  0.00     0.067 A 
ATOM     20  N   UNK d   0     -21.983  -5.719   4.448  0.00  0.00    -0.248 NA
ATOM     21  C   UNK d   0     -22.156  -5.639   6.685  0.00  0.00    -0.011 A 
ATOM     22  C   UNK d   0     -23.209  -5.183   4.759  0.00  0.00     0.066 A 
ATOM     23  C   UNK d   0     -24.033  -4.868   3.688  0.00  0.00     0.062 C 
ATOM     24  C   UNK d   0     -23.265  -5.151   6.207  0.00  0.00    -0.020 A 
ATOM     25  C   UNK d   0     -23.804  -5.113   2.325  0.00  0.00     0.041 A 
ATOM     26  N   UNK d   0     -22.697  -5.019   1.580  0.00  0.00    -0.355 N 
ATOM     27  C   UNK d   0     -24.882  -5.560   1.530  0.00  0.00    -0.022 A 
ATOM     28  C   UNK d   0     -23.031  -5.396   0.335  0.00  0.00     0.042 A 
ATOM     29  H   UNK d   0     -21.693  -4.666   1.922  0.00  0.00     0.166 HD
ATOM     30  C   UNK d   0     -22.265  -5.492  -0.837  0.00  0.00     0.062 C 
ATOM     31  C   UNK d   0     -24.402  -5.742   0.270  0.00  0.00    -0.013 A 
ATOM     32  C   UNK d   0     -20.965  -5.952  -0.973  0.00  0.00     0.066 A 
BRANCH   8  33
ATOM     33  C   UNK d   0     -17.748  -7.024  -2.394  0.00  0.00     0.151 C 
BRANCH  33  34
ATOM     34  C   UNK d   0     -17.688  -8.467  -2.686  0.00  0.00     0.143 C 
ATOM     35  O   UNK d   0     -17.121  -9.250  -1.911  0.00  0.00    -0.650 OA
BRANCH  34  36
ATOM     36  O   UNK d   0     -18.268  -8.948  -3.837  0.00  0.00    -0.776 OA
ATOM     37  H   UNK d   0     -19.265  -9.203  -3.866  0.00  0.00     0.167 HD
ENDBRANCH  34  36
ENDBRANCH  33  34
ENDBRANCH   8  33
BRANCH  31  38
ATOM     38  C   UNK d   0     -25.191  -6.228  -0.924  0.00  0.00     0.151 C 
BRANCH  38  39
ATOM     39  C   UNK d   0     -25.766  -5.146  -1.695  0.00  0.00     0.143 C 
ATOM     40  O   UNK d   0     -25.512  -3.952  -1.458  0.00  0.00    -0.650 OA
BRANCH  39  41
ATOM     41  O   UNK d   0     -26.636  -5.439  -2.745  0.00  0.00    -0.776 OA
ATOM     42  H   UNK d   0     -26.380  -6.225  -3.351  0.00  0.00     0.167 HD
ENDBRANCH  39  41
ENDBRANCH  38  39
ENDBRANCH  31  38
BRANCH  27  43
ATOM     43  C   UNK d   0     -26.318  -5.812   1.916  0.00  0.00     0.052 C 
BRANCH  43  44
ATOM     44  C   UNK d   0     -27.256  -4.756   1.428  0.00  0.00     0.115 C 
BRANCH  44  45
ATOM     45  C   UNK d   0     -26.787  -3.471   2.010  0.00  0.00     0.139 C 
ATOM     46  O   UNK d   0     -26.918  -3.298   3.247  0.00  0.00    -0.650 OA
BRANCH  45  47
ATOM     47  O   UNK d   0     -26.213  -2.473   1.252  0.00  0.00    -0.776 OA
ATOM     48  H   UNK d   0     -25.910  -2.616   0.275  0.00  0.00     0.167 HD
ENDBRANCH  45  47
ENDBRANCH  44  45
ENDBRANCH  43  44
ENDBRANCH  27  43
BRANCH  24  49
ATOM     49  C   UNK d   0     -24.420  -4.687   6.994  0.00  0.00     0.052 C 
BRANCH  49  50
ATOM     50  C   UNK d   0     -25.592  -5.615   6.805  0.00  0.00     0.115 C 
BRANCH  50  51
ATOM     51  C   UNK d   0     -26.525  -5.744   7.916  0.00  0.00     0.139 C 
ATOM     52  O   UNK d   0     -27.700  -5.311   7.866  0.00  0.00    -0.650 OA
BRANCH  51  53
ATOM     53  O   UNK d   0     -26.116  -6.364   9.087  0.00  0.00    -0.776 OA
ATOM     54  H   UNK d   0     -25.131  -6.485   9.242  0.00  0.00     0.167 HD
ENDBRANCH  51  53
ENDBRANCH  50  51
ENDBRANCH  49  50
ENDBRANCH  24  49
BRANCH  21  55
ATOM     55  C   UNK d   0     -21.771  -5.814   8.117  0.00  0.00     0.151 C 
BRANCH  55  56
ATOM     56  C   UNK d   0     -22.834  -6.464   8.898  0.00  0.00     0.143 C 
ATOM     57  O   UNK d   0     -23.348  -7.551   8.566  0.00  0.00    -0.650 OA
BRANCH  56  58
ATOM     58  O   UNK d   0     -23.273  -5.824  10.056  0.00  0.00    -0.776 OA
ATOM     59  H   UNK d   0     -23.683  -6.450  10.772  0.00  0.00     0.167 HD
ENDBRANCH  56  58
ENDBRANCH  55  56
ENDBRANCH  21  55
BRANCH  18  60
ATOM     60  C   UNK d   0     -17.092  -5.825   5.486  0.00  0.00     0.151 C 
BRANCH  60  61
ATOM     61  C   UNK d   0     -16.893  -4.383   5.274  0.00  0.00     0.143 C 
ATOM     62  O   UNK d   0     -17.673  -3.598   4.735  0.00  0.00    -0.650 OA
BRANCH  61  63
ATOM     63  O   UNK d   0     -15.664  -3.868   5.750  0.00  0.00    -0.776 OA
ATOM     64  H   UNK d   0     -15.555  -3.591   6.709  0.00  0.00     0.167 HD
ENDBRANCH  61  63
ENDBRANCH  60  61
ENDBRANCH  18  60
BRANCH  14  65
ATOM     65  C   UNK d   0     -15.956  -6.358   2.724  0.00  0.00     0.052 C 
BRANCH  65  66
ATOM     66  C   UNK d   0     -15.294  -7.652   2.406  0.00  0.00     0.115 C 
BRANCH  66  67
ATOM     67  C   UNK d   0     -14.921  -8.541   3.469  0.00  0.00     0.139 C 
ATOM     68  O   UNK d   0     -14.637  -8.038   4.618  0.00  0.00    -0.650 OA
BRANCH  67  69
ATOM     69  O   UNK d   0     -14.820  -9.931   3.424  0.00  0.00    -0.776 OA
ATOM     70  H   UNK d   0     -15.158 -10.432   4.258  0.00  0.00     0.167 HD
ENDBRANCH  67  69
ENDBRANCH  66  67
ENDBRANCH  65  66
ENDBRANCH  14  65
ENDBRANCH   6   7
ENDBRANCH   5   6
ENDBRANCH   2   5
TORSDOF 28
ENDMDL
MODEL 10
REMARK VINA RESULT:      -9.1      3.221      9.002
REMARK  28 active torsions:
REMARK  status: ('A' for Active; 'I' for Inactive)
REMARK    1  A    between atoms: C_2  and  O_3 
REMARK    2  A    between atoms: C_2  and  C_4 
REMARK    3  A    between atoms: C_4  and  C_5 
REMARK    4  A    between atoms: C_5  and  C_6 
REMARK    5  A    between atoms: C_7  and  C_8 
REMARK    6  A    between atoms: C_8  and  C_9 
REMARK    7  A    between atoms: C_9  and  O_11 
REMARK    8  A    between atoms: C_28  and  C_29 
REMARK    9  A    between atoms: C_29  and  C_30 
REMARK   10  A    between atoms: C_30  and  O_32 
REMARK   11  A    between atoms: C_33  and  C_34 
REMARK   12  A    between atoms: C_34  and  C_35 
REMARK   13  A    between atoms: C_35  and  C_36 
REMARK   14  A    between atoms: C_36  and  O_38 
REMARK   15  A    between atoms: C_39  and  C_40 
REMARK   16  A    between atoms: C_40  and  C_41 
REMARK   17  A    between atoms: C_41  and  C_42 
REMARK   18  A    between atoms: C_42  and  O_44 
REMARK   19  A    between atoms: C_45  and  C_46 
REMARK   20  A    between atoms: C_46  and  C_47 
REMARK   21  A    between atoms: C_47  and  O_49 
REMARK   22  A    between atoms: C_50  and  C_51 
REMARK   23  A    between atoms: C_51  and  C_52 
REMARK   24  A    between atoms: C_52  and  O_54 
REMARK   25  A    between atoms: C_55  and  C_56 
REMARK   26  A    between atoms: C_56  and  C_57 
REMARK   27  A    between atoms: C_57  and  C_58 
REMARK   28  A    between atoms: C_58  and  O_60 
ROOT
ATOM      1  O   UNK d   0     -25.534  -4.523  10.073  0.00  0.00    -0.650 OA
ATOM      2  C   UNK d   0     -26.400  -4.538   9.170  0.00  0.00     0.139 C 
ENDROOT
BRANCH   2   3
ATOM      3  O   UNK d   0     -26.614  -5.696   8.462  0.00  0.00    -0.776 OA
ATOM      4  H   UNK d   0     -27.476  -5.839   7.932  0.00  0.00     0.167 HD
ENDBRANCH   2   3
BRANCH   2   5
ATOM      5  C   UNK d   0     -27.189  -3.310   8.870  0.00  0.00     0.115 C 
BRANCH   5   6
ATOM      6  C   UNK d   0     -26.355  -2.340   8.078  0.00  0.00     0.052 C 
BRANCH   6   7
ATOM      7  C   UNK d   0     -26.128  -2.793   6.656  0.00  0.00    -0.020 A 
ATOM      8  C   UNK d   0     -26.924  -2.631   5.630  0.00  0.00    -0.011 A 
ATOM      9  C   UNK d   0     -26.289  -3.240   4.473  0.00  0.00     0.067 A 
ATOM     10  C   UNK d   0     -26.594  -3.389   3.112  0.00  0.00     0.062 C 
ATOM     11  N   UNK d   0     -25.112  -3.755   4.888  0.00  0.00    -0.248 NA
ATOM     12  C   UNK d   0     -25.723  -3.767   2.084  0.00  0.00     0.041 A 
ATOM     13  N   UNK d   0     -24.775  -4.722   2.033  0.00  0.00    -0.355 N 
ATOM     14  C   UNK d   0     -25.736  -3.042   0.879  0.00  0.00    -0.022 A 
ATOM     15  C   UNK d   0     -24.181  -4.616   0.829  0.00  0.00     0.042 A 
ATOM     16  H   UNK d   0     -24.543  -5.469   2.824  0.00  0.00     0.166 HD
ATOM     17  C   UNK d   0     -23.133  -5.366   0.259  0.00  0.00     0.062 C 
ATOM     18  C   UNK d   0     -24.756  -3.573   0.078  0.00  0.00    -0.013 A 
ATOM     19  C   UNK d   0     -21.951  -5.767   0.827  0.00  0.00     0.067 A 
ATOM     20  N   UNK d   0     -21.832  -5.612   2.148  0.00  0.00    -0.248 NA
ATOM     21  C   UNK d   0     -20.703  -6.340   0.350  0.00  0.00    -0.011 A 
ATOM     22  C   UNK d   0     -20.597  -6.041   2.569  0.00  0.00     0.066 A 
ATOM     23  C   UNK d   0     -20.352  -5.972   3.933  0.00  0.00     0.062 C 
ATOM     24  C   UNK d   0     -19.913  -6.494   1.373  0.00  0.00    -0.020 A 
ATOM     25  C   UNK d   0     -21.245  -5.601   4.949  0.00  0.00     0.041 A 
ATOM     26  N   UNK d   0     -22.177  -4.642   5.006  0.00  0.00    -0.355 N 
ATOM     27  C   UNK d   0     -21.234  -6.332   6.157  0.00  0.00    -0.022 A 
ATOM     28  C   UNK d   0     -22.765  -4.740   6.209  0.00  0.00     0.042 A 
ATOM     29  H   UNK d   0     -22.401  -3.885   4.215  0.00  0.00     0.166 HD
ATOM     30  C   UNK d   0     -23.802  -3.995   6.793  0.00  0.00     0.062 C 
ATOM     31  C   UNK d   0     -22.193  -5.795   6.959  0.00  0.00    -0.013 A 
ATOM     32  C   UNK d   0     -24.956  -3.519   6.191  0.00  0.00     0.066 A 
BRANCH   8  33
ATOM     33  C   UNK d   0     -28.237  -1.959   5.626  0.00  0.00     0.151 C 
BRANCH  33  34
ATOM     34  C   UNK d   0     -28.155  -0.549   5.202  0.00  0.00     0.143 C 
ATOM     35  O   UNK d   0     -29.180   0.131   5.051  0.00  0.00    -0.650 OA
BRANCH  34  36
ATOM     36  O   UNK d   0     -26.922   0.016   4.971  0.00  0.00    -0.776 OA
ATOM     37  H   UNK d   0     -26.088  -0.288   5.492  0.00  0.00     0.167 HD
ENDBRANCH  34  36
ENDBRANCH  33  34
ENDBRANCH   8  33
BRANCH  31  38
ATOM     38  C   UNK d   0     -22.557  -6.261   8.350  0.00  0.00     0.151 C 
BRANCH  38  39
ATOM     39  C   UNK d   0     -21.922  -5.478   9.388  0.00  0.00     0.143 C 
ATOM     40  O   UNK d   0     -20.819  -5.786   9.874  0.00  0.00    -0.650 OA
BRANCH  39  41
ATOM     41  O   UNK d   0     -22.557  -4.334   9.871  0.00  0.00    -0.776 OA
ATOM     42  H   UNK d   0     -22.368  -3.457   9.375  0.00  0.00     0.167 HD
ENDBRANCH  39  41
ENDBRANCH  38  39
ENDBRANCH  31  38
BRANCH  27  43
ATOM     43  C   UNK d   0     -20.364  -7.494   6.566  0.00  0.00     0.052 C 
BRANCH  43  44
ATOM     44  C   UNK d   0     -18.902  -7.202   6.466  0.00  0.00     0.115 C 
BRANCH  44  45
ATOM     45  C   UNK d   0     -18.328  -7.444   7.815  0.00  0.00     0.139 C 
ATOM     46  O   UNK d   0     -17.718  -8.524   8.014  0.00  0.00    -0.650 OA
BRANCH  45  47
ATOM     47  O   UNK d   0     -18.432  -6.535   8.845  0.00  0.00    -0.776 OA
ATOM     48  H   UNK d   0     -19.328  -6.099   9.119  0.00  0.00     0.167 HD
ENDBRANCH  45  47
ENDBRANCH  44  45
ENDBRANCH  43  44
ENDBRANCH  27  43
BRANCH  24  49
ATOM     49  C   UNK d   0     -18.562  -7.079   1.347  0.00  0.00     0.052 C 
BRANCH  49  50
ATOM     50  C   UNK d   0     -17.543  -6.030   0.980  0.00  0.00     0.115 C 
BRANCH  50  51
ATOM     51  C   UNK d   0     -16.928  -5.290   2.073  0.00  0.00     0.139 C 
ATOM     52  O   UNK d   0     -15.815  -5.600   2.558  0.00  0.00    -0.650 OA
BRANCH  51  53
ATOM     53  O   UNK d   0     -17.585  -4.195   2.616  0.00  0.00    -0.776 OA
ATOM     54  H   UNK d   0     -17.091  -3.321   2.664  0.00  0.00     0.167 HD
ENDBRANCH  51  53
ENDBRANCH  50  51
ENDBRANCH  49  50
ENDBRANCH  24  49
BRANCH  21  55
ATOM     55  C   UNK d   0     -20.432  -6.678  -1.079  0.00  0.00     0.151 C 
BRANCH  55  56
ATOM     56  C   UNK d   0     -20.481  -5.490  -1.945  0.00  0.00     0.143 C 
ATOM     57  O   UNK d   0     -19.699  -4.528  -1.817  0.00  0.00    -0.650 OA
BRANCH  56  58
ATOM     58  O   UNK d   0     -21.451  -5.456  -2.947  0.00  0.00    -0.776 OA
ATOM     59  H   UNK d   0     -21.202  -5.969  -3.812  0.00  0.00     0.167 HD
ENDBRANCH  56  58
ENDBRANCH  55  56
ENDBRANCH  21  55
BRANCH  18  60
ATOM     60  C   UNK d   0     -24.417  -3.089  -1.310  0.00  0.00     0.151 C 
BRANCH  60  61
ATOM     61  C   UNK d   0     -23.183  -2.300  -1.172  0.00  0.00     0.143 C 
ATOM     62  O   UNK d   0     -22.959  -1.411  -0.350  0.00  0.00    -0.650 OA
BRANCH  61  63
ATOM     63  O   UNK d   0     -22.159  -2.617  -2.096  0.00  0.00    -0.776 OA
ATOM     64  H   UNK d   0     -22.345  -2.660  -3.082  0.00  0.00     0.167 HD
ENDBRANCH  61  63
ENDBRANCH  60  61
ENDBRANCH  18  60
BRANCH  14  65
ATOM     65  C   UNK d   0     -26.659  -1.961   0.395  0.00  0.00     0.052 C 
BRANCH  65  66
ATOM     66  C   UNK d   0     -26.147  -0.591   0.670  0.00  0.00     0.115 C 
BRANCH  66  67
ATOM     67  C   UNK d   0     -27.056   0.438   1.089  0.00  0.00     0.139 C 
ATOM     68  O   UNK d   0     -27.953   0.839   0.261  0.00  0.00    -0.650 OA
BRANCH  67  69
ATOM     69  O   UNK d   0     -27.098   1.088   2.323  0.00  0.00    -0.776 OA
ATOM     70  H   UNK d   0     -27.939   1.656   2.501  0.00  0.00     0.167 HD
ENDBRANCH  67  69
ENDBRANCH  66  67
ENDBRANCH  65  66
ENDBRANCH  14  65
ENDBRANCH   6   7
ENDBRANCH   5   6
ENDBRANCH   2   5
TORSDOF 28
ENDMDL
MODEL 11
REMARK VINA RESULT:      -8.9      5.539     11.974
REMARK  28 active torsions:
REMARK  status: ('A' for Active; 'I' for Inactive)
REMARK    1  A    between atoms: C_2  and  O_3 
REMARK    2  A    between atoms: C_2  and  C_4 
REMARK    3  A    between atoms: C_4  and  C_5 
REMARK    4  A    between atoms: C_5  and  C_6 
REMARK    5  A    between atoms: C_7  and  C_8 
REMARK    6  A    between atoms: C_8  and  C_9 
REMARK    7  A    between atoms: C_9  and  O_11 
REMARK    8  A    between atoms: C_28  and  C_29 
REMARK    9  A    between atoms: C_29  and  C_30 
REMARK   10  A    between atoms: C_30  and  O_32 
REMARK   11  A    between atoms: C_33  and  C_34 
REMARK   12  A    between atoms: C_34  and  C_35 
REMARK   13  A    between atoms: C_35  and  C_36 
REMARK   14  A    between atoms: C_36  and  O_38 
REMARK   15  A    between atoms: C_39  and  C_40 
REMARK   16  A    between atoms: C_40  and  C_41 
REMARK   17  A    between atoms: C_41  and  C_42 
REMARK   18  A    between atoms: C_42  and  O_44 
REMARK   19  A    between atoms: C_45  and  C_46 
REMARK   20  A    between atoms: C_46  and  C_47 
REMARK   21  A    between atoms: C_47  and  O_49 
REMARK   22  A    between atoms: C_50  and  C_51 
REMARK   23  A    between atoms: C_51  and  C_52 
REMARK   24  A    between atoms: C_52  and  O_54 
REMARK   25  A    between atoms: C_55  and  C_56 
REMARK   26  A    between atoms: C_56  and  C_57 
REMARK   27  A    between atoms: C_57  and  C_58 
REMARK   28  A    between atoms: C_58  and  O_60 
ROOT
ATOM      1  O   UNK d   0     -26.095   4.012   1.507  0.00  0.00    -0.650 OA
ATOM      2  C   UNK d   0     -25.956   2.961   2.171  0.00  0.00     0.139 C 
ENDROOT
BRANCH   2   3
ATOM      3  O   UNK d   0     -24.695   2.556   2.534  0.00  0.00    -0.776 OA
ATOM      4  H   UNK d   0     -24.219   1.801   2.036  0.00  0.00     0.167 HD
ENDBRANCH   2   3
BRANCH   2   5
ATOM      5  C   UNK d   0     -27.150   2.159   2.561  0.00  0.00     0.115 C 
BRANCH   5   6
ATOM      6  C   UNK d   0     -27.418   1.094   1.533  0.00  0.00     0.052 C 
BRANCH   6   7
ATOM      7  C   UNK d   0     -26.864  -0.253   1.933  0.00  0.00    -0.020 A 
ATOM      8  C   UNK d   0     -26.259  -1.126   1.169  0.00  0.00    -0.011 A 
ATOM      9  C   UNK d   0     -25.913  -2.273   1.992  0.00  0.00     0.067 A 
ATOM     10  C   UNK d   0     -25.257  -3.498   1.797  0.00  0.00     0.062 C 
ATOM     11  N   UNK d   0     -26.352  -2.015   3.242  0.00  0.00    -0.248 NA
ATOM     12  C   UNK d   0     -24.769  -4.364   2.782  0.00  0.00     0.041 A 
ATOM     13  N   UNK d   0     -25.306  -4.774   3.947  0.00  0.00    -0.355 N 
ATOM     14  C   UNK d   0     -23.478  -4.903   2.635  0.00  0.00    -0.022 A 
ATOM     15  C   UNK d   0     -24.386  -5.553   4.546  0.00  0.00     0.042 A 
ATOM     16  H   UNK d   0     -26.323  -4.534   4.328  0.00  0.00     0.166 HD
ATOM     17  C   UNK d   0     -24.431  -6.237   5.777  0.00  0.00     0.062 C 
ATOM     18  C   UNK d   0     -23.226  -5.657   3.754  0.00  0.00    -0.013 A 
ATOM     19  C   UNK d   0     -24.874  -5.791   6.996  0.00  0.00     0.067 A 
ATOM     20  N   UNK d   0     -25.535  -4.631   7.012  0.00  0.00    -0.248 NA
ATOM     21  C   UNK d   0     -24.803  -6.261   8.370  0.00  0.00    -0.011 A 
ATOM     22  C   UNK d   0     -25.900  -4.307   8.296  0.00  0.00     0.066 A 
ATOM     23  C   UNK d   0     -26.630  -3.138   8.453  0.00  0.00     0.062 C 
ATOM     24  C   UNK d   0     -25.401  -5.386   9.126  0.00  0.00    -0.020 A 
ATOM     25  C   UNK d   0     -27.121  -2.289   7.449  0.00  0.00     0.041 A 
ATOM     26  N   UNK d   0     -26.581  -1.869   6.299  0.00  0.00    -0.355 N 
ATOM     27  C   UNK d   0     -28.419  -1.752   7.595  0.00  0.00    -0.022 A 
ATOM     28  C   UNK d   0     -27.493  -1.085   5.703  0.00  0.00     0.042 A 
ATOM     29  H   UNK d   0     -25.556  -2.103   5.922  0.00  0.00     0.166 HD
ATOM     30  C   UNK d   0     -27.458  -0.391   4.483  0.00  0.00     0.062 C 
ATOM     31  C   UNK d   0     -28.663  -0.989   6.494  0.00  0.00    -0.013 A 
ATOM     32  C   UNK d   0     -26.932  -0.815   3.273  0.00  0.00     0.066 A 
BRANCH   8  33
ATOM     33  C   UNK d   0     -25.972  -0.993  -0.271  0.00  0.00     0.151 C 
BRANCH  33  34
ATOM     34  C   UNK d   0     -24.666  -1.563  -0.648  0.00  0.00     0.143 C 
ATOM     35  O   UNK d   0     -23.610  -0.993  -0.340  0.00  0.00    -0.650 OA
BRANCH  34  36
ATOM     36  O   UNK d   0     -24.622  -2.744  -1.353  0.00  0.00    -0.776 OA
ATOM     37  H   UNK d   0     -25.483  -3.198  -1.688  0.00  0.00     0.167 HD
ENDBRANCH  34  36
ENDBRANCH  33  34
ENDBRANCH   8  33
BRANCH  31  38
ATOM     38  C   UNK d   0     -29.933  -0.225   6.203  0.00  0.00     0.151 C 
BRANCH  38  39
ATOM     39  C   UNK d   0     -29.980   1.061   6.866  0.00  0.00     0.143 C 
ATOM     40  O   UNK d   0     -28.996   1.819   6.918  0.00  0.00    -0.650 OA
BRANCH  39  41
ATOM     41  O   UNK d   0     -31.165   1.478   7.471  0.00  0.00    -0.776 OA
ATOM     42  H   UNK d   0     -31.084   2.195   8.198  0.00  0.00     0.167 HD
ENDBRANCH  39  41
ENDBRANCH  38  39
ENDBRANCH  31  38
BRANCH  27  43
ATOM     43  C   UNK d   0     -29.410  -1.932   8.718  0.00  0.00     0.052 C 
BRANCH  43  44
ATOM     44  C   UNK d   0     -29.205  -0.973   9.846  0.00  0.00     0.115 C 
BRANCH  44  45
ATOM     45  C   UNK d   0     -30.533  -0.777  10.482  0.00  0.00     0.139 C 
ATOM     46  O   UNK d   0     -30.834  -1.504  11.461  0.00  0.00    -0.650 OA
BRANCH  45  47
ATOM     47  O   UNK d   0     -31.438   0.168  10.048  0.00  0.00    -0.776 OA
ATOM     48  H   UNK d   0     -31.189   1.160   9.910  0.00  0.00     0.167 HD
ENDBRANCH  45  47
ENDBRANCH  44  45
ENDBRANCH  43  44
ENDBRANCH  27  43
BRANCH  24  49
ATOM     49  C   UNK d   0     -25.595  -5.485  10.582  0.00  0.00     0.052 C 
BRANCH  49  50
ATOM     50  C   UNK d   0     -27.017  -5.873  10.897  0.00  0.00     0.115 C 
BRANCH  50  51
ATOM     51  C   UNK d   0     -27.367  -7.281  10.763  0.00  0.00     0.139 C 
ATOM     52  O   UNK d   0     -28.007  -7.728   9.782  0.00  0.00    -0.650 OA
BRANCH  51  53
ATOM     53  O   UNK d   0     -26.989  -8.179  11.749  0.00  0.00    -0.776 OA
ATOM     54  H   UNK d   0     -27.478  -9.055  11.808  0.00  0.00     0.167 HD
ENDBRANCH  51  53
ENDBRANCH  50  51
ENDBRANCH  49  50
ENDBRANCH  24  49
BRANCH  21  55
ATOM     55  C   UNK d   0     -24.148  -7.537   8.783  0.00  0.00     0.151 C 
BRANCH  55  56
ATOM     56  C   UNK d   0     -25.042  -8.694   8.618  0.00  0.00     0.143 C 
ATOM     57  O   UNK d   0     -25.599  -8.968   7.537  0.00  0.00    -0.650 OA
BRANCH  56  58
ATOM     58  O   UNK d   0     -25.263  -9.506   9.729  0.00  0.00    -0.776 OA
ATOM     59  H   UNK d   0     -25.963 -10.256   9.589  0.00  0.00     0.167 HD
ENDBRANCH  56  58
ENDBRANCH  55  56
ENDBRANCH  21  55
BRANCH  18  60
ATOM     60  C   UNK d   0     -21.947  -6.413   4.018  0.00  0.00     0.151 C 
BRANCH  60  61
ATOM     61  C   UNK d   0     -21.137  -5.545   4.885  0.00  0.00     0.143 C 
ATOM     62  O   UNK d   0     -20.946  -5.674   6.095  0.00  0.00    -0.650 OA
BRANCH  61  63
ATOM     63  O   UNK d   0     -20.519  -4.450   4.233  0.00  0.00    -0.776 OA
ATOM     64  H   UNK d   0     -20.077  -4.562   3.338  0.00  0.00     0.167 HD
ENDBRANCH  61  63
ENDBRANCH  60  61
ENDBRANCH  18  60
BRANCH  14  65
ATOM     65  C   UNK d   0     -22.513  -4.840   1.485  0.00  0.00     0.052 C 
BRANCH  65  66
ATOM     66  C   UNK d   0     -22.609  -6.018   0.581  0.00  0.00     0.115 C 
BRANCH  66  67
ATOM     67  C   UNK d   0     -23.720  -6.134  -0.321  0.00  0.00     0.139 C 
ATOM     68  O   UNK d   0     -23.778  -5.337  -1.329  0.00  0.00    -0.650 OA
BRANCH  67  69
ATOM     69  O   UNK d   0     -24.787  -7.029  -0.250  0.00  0.00    -0.776 OA
ATOM     70  H   UNK d   0     -24.964  -7.583  -1.100  0.00  0.00     0.167 HD
ENDBRANCH  67  69
ENDBRANCH  66  67
ENDBRANCH  65  66
ENDBRANCH  14  65
ENDBRANCH   6   7
ENDBRANCH   5   6
ENDBRANCH   2   5
TORSDOF 28
ENDMDL
MODEL 12
REMARK VINA RESULT:      -8.9      5.175     12.364
REMARK  28 active torsions:
REMARK  status: ('A' for Active; 'I' for Inactive)
REMARK    1  A    between atoms: C_2  and  O_3 
REMARK    2  A    between atoms: C_2  and  C_4 
REMARK    3  A    between atoms: C_4  and  C_5 
REMARK    4  A    between atoms: C_5  and  C_6 
REMARK    5  A    between atoms: C_7  and  C_8 
REMARK    6  A    between atoms: C_8  and  C_9 
REMARK    7  A    between atoms: C_9  and  O_11 
REMARK    8  A    between atoms: C_28  and  C_29 
REMARK    9  A    between atoms: C_29  and  C_30 
REMARK   10  A    between atoms: C_30  and  O_32 
REMARK   11  A    between atoms: C_33  and  C_34 
REMARK   12  A    between atoms: C_34  and  C_35 
REMARK   13  A    between atoms: C_35  and  C_36 
REMARK   14  A    between atoms: C_36  and  O_38 
REMARK   15  A    between atoms: C_39  and  C_40 
REMARK   16  A    between atoms: C_40  and  C_41 
REMARK   17  A    between atoms: C_41  and  C_42 
REMARK   18  A    between atoms: C_42  and  O_44 
REMARK   19  A    between atoms: C_45  and  C_46 
REMARK   20  A    between atoms: C_46  and  C_47 
REMARK   21  A    between atoms: C_47  and  O_49 
REMARK   22  A    between atoms: C_50  and  C_51 
REMARK   23  A    between atoms: C_51  and  C_52 
REMARK   24  A    between atoms: C_52  and  O_54 
REMARK   25  A    between atoms: C_55  and  C_56 
REMARK   26  A    between atoms: C_56  and  C_57 
REMARK   27  A    between atoms: C_57  and  C_58 
REMARK   28  A    between atoms: C_58  and  O_60 
ROOT
ATOM      1  O   UNK d   0     -24.506  -3.550  -1.273  0.00  0.00    -0.650 OA
ATOM      2  C   UNK d   0     -23.629  -2.675  -1.099  0.00  0.00     0.139 C 
ENDROOT
BRANCH   2   3
ATOM      3  O   UNK d   0     -22.459  -2.742  -1.818  0.00  0.00    -0.776 OA
ATOM      4  H   UNK d   0     -21.714  -3.389  -1.553  0.00  0.00     0.167 HD
ENDBRANCH   2   3
BRANCH   2   5
ATOM      5  C   UNK d   0     -23.854  -1.573  -0.121  0.00  0.00     0.115 C 
BRANCH   5   6
ATOM      6  C   UNK d   0     -25.327  -1.316   0.039  0.00  0.00     0.052 C 
BRANCH   6   7
ATOM      7  C   UNK d   0     -25.774  -1.373   1.480  0.00  0.00    -0.020 A 
ATOM      8  C   UNK d   0     -26.476  -0.483   2.134  0.00  0.00    -0.011 A 
ATOM      9  C   UNK d   0     -26.652  -0.966   3.494  0.00  0.00     0.067 A 
ATOM     10  C   UNK d   0     -27.302  -0.514   4.653  0.00  0.00     0.062 C 
ATOM     11  N   UNK d   0     -26.020  -2.156   3.581  0.00  0.00    -0.248 NA
ATOM     12  C   UNK d   0     -27.599  -1.256   5.801  0.00  0.00     0.041 A 
ATOM     13  N   UNK d   0     -26.867  -2.150   6.493  0.00  0.00    -0.355 N 
ATOM     14  C   UNK d   0     -28.883  -1.150   6.367  0.00  0.00    -0.022 A 
ATOM     15  C   UNK d   0     -27.656  -2.619   7.478  0.00  0.00     0.042 A 
ATOM     16  H   UNK d   0     -25.807  -2.429   6.301  0.00  0.00     0.166 HD
ATOM     17  C   UNK d   0     -27.392  -3.568   8.486  0.00  0.00     0.062 C 
ATOM     18  C   UNK d   0     -28.928  -2.016   7.431  0.00  0.00    -0.013 A 
ATOM     19  C   UNK d   0     -26.765  -4.783   8.384  0.00  0.00     0.067 A 
ATOM     20  N   UNK d   0     -26.139  -5.046   7.234  0.00  0.00    -0.248 NA
ATOM     21  C   UNK d   0     -26.597  -5.947   9.238  0.00  0.00    -0.011 A 
ATOM     22  C   UNK d   0     -25.576  -6.298   7.273  0.00  0.00     0.066 A 
ATOM     23  C   UNK d   0     -24.859  -6.687   6.151  0.00  0.00     0.062 C 
ATOM     24  C   UNK d   0     -25.904  -6.832   8.581  0.00  0.00    -0.020 A 
ATOM     25  C   UNK d   0     -24.561  -5.922   5.013  0.00  0.00     0.041 A 
ATOM     26  N   UNK d   0     -25.293  -5.045   4.316  0.00  0.00    -0.355 N 
ATOM     27  C   UNK d   0     -23.270  -6.025   4.449  0.00  0.00    -0.022 A 
ATOM     28  C   UNK d   0     -24.511  -4.581   3.328  0.00  0.00     0.042 A 
ATOM     29  H   UNK d   0     -26.361  -4.773   4.504  0.00  0.00     0.166 HD
ATOM     30  C   UNK d   0     -24.764  -3.645   2.313  0.00  0.00     0.062 C 
ATOM     31  C   UNK d   0     -23.230  -5.180   3.383  0.00  0.00    -0.013 A 
ATOM     32  C   UNK d   0     -25.472  -2.457   2.403  0.00  0.00     0.066 A 
BRANCH   8  33
ATOM     33  C   UNK d   0     -26.999   0.792   1.609  0.00  0.00     0.151 C 
BRANCH  33  34
ATOM     34  C   UNK d   0     -26.297   1.966   2.157  0.00  0.00     0.143 C 
ATOM     35  O   UNK d   0     -25.108   1.895   2.500  0.00  0.00    -0.650 OA
BRANCH  34  36
ATOM     36  O   UNK d   0     -26.975   3.156   2.291  0.00  0.00    -0.776 OA
ATOM     37  H   UNK d   0     -26.913   3.889   1.571  0.00  0.00     0.167 HD
ENDBRANCH  34  36
ENDBRANCH  33  34
ENDBRANCH   8  33
BRANCH  31  38
ATOM     38  C   UNK d   0     -22.044  -4.943   2.477  0.00  0.00     0.151 C 
BRANCH  38  39
ATOM     39  C   UNK d   0     -22.047  -5.803   1.313  0.00  0.00     0.143 C 
ATOM     40  O   UNK d   0     -21.722  -7.002   1.370  0.00  0.00    -0.650 OA
BRANCH  39  41
ATOM     41  O   UNK d   0     -22.425  -5.282   0.076  0.00  0.00    -0.776 OA
ATOM     42  H   UNK d   0     -21.677  -4.912  -0.518  0.00  0.00     0.167 HD
ENDBRANCH  39  41
ENDBRANCH  38  39
ENDBRANCH  31  38
BRANCH  27  43
ATOM     43  C   UNK d   0     -22.104  -6.880   4.876  0.00  0.00     0.052 C 
BRANCH  43  44
ATOM     44  C   UNK d   0     -21.338  -6.306   6.024  0.00  0.00     0.115 C 
BRANCH  44  45
ATOM     45  C   UNK d   0     -19.898  -6.486   5.706  0.00  0.00     0.139 C 
ATOM     46  O   UNK d   0     -19.367  -5.687   4.895  0.00  0.00    -0.650 OA
BRANCH  45  47
ATOM     47  O   UNK d   0     -19.128  -7.482   6.266  0.00  0.00    -0.776 OA
ATOM     48  H   UNK d   0     -19.018  -7.598   7.287  0.00  0.00     0.167 HD
ENDBRANCH  45  47
ENDBRANCH  44  45
ENDBRANCH  43  44
ENDBRANCH  27  43
BRANCH  24  49
ATOM     49  C   UNK d   0     -25.470  -8.146   9.086  0.00  0.00     0.052 C 
BRANCH  49  50
ATOM     50  C   UNK d   0     -24.345  -7.982  10.075  0.00  0.00     0.115 C 
BRANCH  50  51
ATOM     51  C   UNK d   0     -24.597  -8.410  11.445  0.00  0.00     0.139 C 
ATOM     52  O   UNK d   0     -24.034  -7.882  12.433  0.00  0.00    -0.650 OA
BRANCH  51  53
ATOM     53  O   UNK d   0     -25.489  -9.443  11.688  0.00  0.00    -0.776 OA
ATOM     54  H   UNK d   0     -25.186 -10.385  11.510  0.00  0.00     0.167 HD
ENDBRANCH  51  53
ENDBRANCH  50  51
ENDBRANCH  49  50
ENDBRANCH  24  49
BRANCH  21  55
ATOM     55  C   UNK d   0     -27.143  -6.053  10.623  0.00  0.00     0.151 C 
BRANCH  55  56
ATOM     56  C   UNK d   0     -26.659  -4.968  11.491  0.00  0.00     0.143 C 
ATOM     57  O   UNK d   0     -25.456  -4.826  11.786  0.00  0.00    -0.650 OA
BRANCH  56  58
ATOM     58  O   UNK d   0     -27.599  -4.070  11.994  0.00  0.00    -0.776 OA
ATOM     59  H   UNK d   0     -27.871  -4.231  12.981  0.00  0.00     0.167 HD
ENDBRANCH  56  58
ENDBRANCH  55  56
ENDBRANCH  21  55
BRANCH  18  60
ATOM     60  C   UNK d   0     -30.126  -2.230   8.321  0.00  0.00     0.151 C 
BRANCH  60  61
ATOM     61  C   UNK d   0     -29.694  -1.858   9.677  0.00  0.00     0.143 C 
ATOM     62  O   UNK d   0     -29.832  -2.518  10.707  0.00  0.00    -0.650 OA
BRANCH  61  63
ATOM     63  O   UNK d   0     -29.052  -0.601   9.781  0.00  0.00    -0.776 OA
ATOM     64  H   UNK d   0     -28.061  -0.512   9.639  0.00  0.00     0.167 HD
ENDBRANCH  61  63
ENDBRANCH  60  61
ENDBRANCH  18  60
BRANCH  14  65
ATOM     65  C   UNK d   0     -30.025  -0.230   6.041  0.00  0.00     0.052 C 
BRANCH  65  66
ATOM     66  C   UNK d   0     -29.972   1.052   6.794  0.00  0.00     0.115 C 
BRANCH  66  67
ATOM     67  C   UNK d   0     -31.046   1.402   7.680  0.00  0.00     0.139 C 
ATOM     68  O   UNK d   0     -30.827   1.380   8.947  0.00  0.00    -0.650 OA
BRANCH  67  69
ATOM     69  O   UNK d   0     -32.345   1.776   7.340  0.00  0.00    -0.776 OA
ATOM     70  H   UNK d   0     -32.664   2.680   7.719  0.00  0.00     0.167 HD
ENDBRANCH  67  69
ENDBRANCH  66  67
ENDBRANCH  65  66
ENDBRANCH  14  65
ENDBRANCH   6   7
ENDBRANCH   5   6
ENDBRANCH   2   5
TORSDOF 28
ENDMDL
MODEL 13
REMARK VINA RESULT:      -8.9      1.851     10.883
REMARK  28 active torsions:
REMARK  status: ('A' for Active; 'I' for Inactive)
REMARK    1  A    between atoms: C_2  and  O_3 
REMARK    2  A    between atoms: C_2  and  C_4 
REMARK    3  A    between atoms: C_4  and  C_5 
REMARK    4  A    between atoms: C_5  and  C_6 
REMARK    5  A    between atoms: C_7  and  C_8 
REMARK    6  A    between atoms: C_8  and  C_9 
REMARK    7  A    between atoms: C_9  and  O_11 
REMARK    8  A    between atoms: C_28  and  C_29 
REMARK    9  A    between atoms: C_29  and  C_30 
REMARK   10  A    between atoms: C_30  and  O_32 
REMARK   11  A    between atoms: C_33  and  C_34 
REMARK   12  A    between atoms: C_34  and  C_35 
REMARK   13  A    between atoms: C_35  and  C_36 
REMARK   14  A    between atoms: C_36  and  O_38 
REMARK   15  A    between atoms: C_39  and  C_40 
REMARK   16  A    between atoms: C_40  and  C_41 
REMARK   17  A    between atoms: C_41  and  C_42 
REMARK   18  A    between atoms: C_42  and  O_44 
REMARK   19  A    between atoms: C_45  and  C_46 
REMARK   20  A    between atoms: C_46  and  C_47 
REMARK   21  A    between atoms: C_47  and  O_49 
REMARK   22  A    between atoms: C_50  and  C_51 
REMARK   23  A    between atoms: C_51  and  C_52 
REMARK   24  A    between atoms: C_52  and  O_54 
REMARK   25  A    between atoms: C_55  and  C_56 
REMARK   26  A    between atoms: C_56  and  C_57 
REMARK   27  A    between atoms: C_57  and  C_58 
REMARK   28  A    between atoms: C_58  and  O_60 
ROOT
ATOM      1  O   UNK d   0     -13.608  -5.921   1.570  0.00  0.00    -0.650 OA
ATOM      2  C   UNK d   0     -14.078  -6.455   0.541  0.00  0.00     0.139 C 
ENDROOT
BRANCH   2   3
ATOM      3  O   UNK d   0     -13.909  -5.839  -0.676  0.00  0.00    -0.776 OA
ATOM      4  H   UNK d   0     -13.439  -4.934  -0.748  0.00  0.00     0.167 HD
ENDBRANCH   2   3
BRANCH   2   5
ATOM      5  C   UNK d   0     -14.814  -7.748   0.638  0.00  0.00     0.115 C 
BRANCH   5   6
ATOM      6  C   UNK d   0     -15.590  -7.998  -0.626  0.00  0.00     0.052 C 
BRANCH   6   7
ATOM      7  C   UNK d   0     -16.914  -7.272  -0.649  0.00  0.00    -0.020 A 
ATOM      8  C   UNK d   0     -17.513  -6.739  -1.682  0.00  0.00    -0.011 A 
ATOM      9  C   UNK d   0     -18.756  -6.144  -1.218  0.00  0.00     0.067 A 
ATOM     10  C   UNK d   0     -19.832  -5.459  -1.803  0.00  0.00     0.062 C 
ATOM     11  N   UNK d   0     -18.829  -6.358   0.113  0.00  0.00    -0.248 NA
ATOM     12  C   UNK d   0     -21.084  -5.203  -1.234  0.00  0.00     0.041 A 
ATOM     13  N   UNK d   0     -21.429  -4.800   0.004  0.00  0.00    -0.355 N 
ATOM     14  C   UNK d   0     -22.240  -5.432  -2.002  0.00  0.00    -0.022 A 
ATOM     15  C   UNK d   0     -22.775  -4.775   0.043  0.00  0.00     0.042 A 
ATOM     16  H   UNK d   0     -20.735  -4.520   0.827  0.00  0.00     0.166 HD
ATOM     17  C   UNK d   0     -23.651  -4.427   1.091  0.00  0.00     0.062 C 
ATOM     18  C   UNK d   0     -23.319  -5.165  -1.195  0.00  0.00    -0.013 A 
ATOM     19  C   UNK d   0     -23.601  -4.787   2.413  0.00  0.00     0.067 A 
ATOM     20  N   UNK d   0     -22.482  -5.382   2.836  0.00  0.00    -0.248 NA
ATOM     21  C   UNK d   0     -24.498  -4.705   3.553  0.00  0.00    -0.011 A 
ATOM     22  C   UNK d   0     -22.584  -5.696   4.169  0.00  0.00     0.066 A 
ATOM     23  C   UNK d   0     -21.472  -6.288   4.749  0.00  0.00     0.062 C 
ATOM     24  C   UNK d   0     -23.899  -5.242   4.576  0.00  0.00    -0.020 A 
ATOM     25  C   UNK d   0     -20.219  -6.525   4.163  0.00  0.00     0.041 A 
ATOM     26  N   UNK d   0     -19.876  -6.940   2.938  0.00  0.00    -0.355 N 
ATOM     27  C   UNK d   0     -19.059  -6.291   4.933  0.00  0.00    -0.022 A 
ATOM     28  C   UNK d   0     -18.535  -6.974   2.898  0.00  0.00     0.042 A 
ATOM     29  H   UNK d   0     -20.575  -7.231   2.115  0.00  0.00     0.166 HD
ATOM     30  C   UNK d   0     -17.651  -7.327   1.867  0.00  0.00     0.062 C 
ATOM     31  C   UNK d   0     -17.989  -6.572   4.140  0.00  0.00    -0.013 A 
ATOM     32  C   UNK d   0     -17.751  -7.032   0.516  0.00  0.00     0.066 A 
BRANCH   8  33
ATOM     33  C   UNK d   0     -17.032  -6.725  -3.076  0.00  0.00     0.151 C 
BRANCH  33  34
ATOM     34  C   UNK d   0     -16.544  -5.400  -3.499  0.00  0.00     0.143 C 
ATOM     35  O   UNK d   0     -16.749  -4.983  -4.648  0.00  0.00    -0.650 OA
BRANCH  34  36
ATOM     36  O   UNK d   0     -15.851  -4.618  -2.603  0.00  0.00    -0.776 OA
ATOM     37  H   UNK d   0     -15.042  -4.988  -2.086  0.00  0.00     0.167 HD
ENDBRANCH  34  36
ENDBRANCH  33  34
ENDBRANCH   8  33
BRANCH  31  38
ATOM     38  C   UNK d   0     -16.534  -6.454   4.531  0.00  0.00     0.151 C 
BRANCH  38  39
ATOM     39  C   UNK d   0     -16.023  -5.106   4.392  0.00  0.00     0.143 C 
ATOM     40  O   UNK d   0     -16.126  -4.461   3.334  0.00  0.00    -0.650 OA
BRANCH  39  41
ATOM     41  O   UNK d   0     -15.391  -4.497   5.476  0.00  0.00    -0.776 OA
ATOM     42  H   UNK d   0     -15.994  -4.158   6.232  0.00  0.00     0.167 HD
ENDBRANCH  39  41
ENDBRANCH  38  39
ENDBRANCH  31  38
BRANCH  27  43
ATOM     43  C   UNK d   0     -18.935  -5.823   6.361  0.00  0.00     0.052 C 
BRANCH  43  44
ATOM     44  C   UNK d   0     -18.884  -6.944   7.348  0.00  0.00     0.115 C 
BRANCH  44  45
ATOM     45  C   UNK d   0     -17.590  -6.817   8.068  0.00  0.00     0.139 C 
ATOM     46  O   UNK d   0     -17.225  -7.770   8.801  0.00  0.00    -0.650 OA
BRANCH  45  47
ATOM     47  O   UNK d   0     -16.779  -5.709   7.958  0.00  0.00    -0.776 OA
ATOM     48  H   UNK d   0     -17.043  -4.874   7.410  0.00  0.00     0.167 HD
ENDBRANCH  45  47
ENDBRANCH  44  45
ENDBRANCH  43  44
ENDBRANCH  27  43
BRANCH  24  49
ATOM     49  C   UNK d   0     -24.434  -5.336   5.945  0.00  0.00     0.052 C 
BRANCH  49  50
ATOM     50  C   UNK d   0     -23.929  -4.192   6.786  0.00  0.00     0.115 C 
BRANCH  50  51
ATOM     51  C   UNK d   0     -23.181  -4.530   7.989  0.00  0.00     0.139 C 
ATOM     52  O   UNK d   0     -22.039  -5.046   7.953  0.00  0.00    -0.650 OA
BRANCH  51  53
ATOM     53  O   UNK d   0     -23.736  -4.282   9.235  0.00  0.00    -0.776 OA
ATOM     54  H   UNK d   0     -24.138  -3.377   9.405  0.00  0.00     0.167 HD
ENDBRANCH  51  53
ENDBRANCH  50  51
ENDBRANCH  49  50
ENDBRANCH  24  49
BRANCH  21  55
ATOM     55  C   UNK d   0     -25.859  -4.093   3.502  0.00  0.00     0.151 C 
BRANCH  55  56
ATOM     56  C   UNK d   0     -25.803  -2.624   3.485  0.00  0.00     0.143 C 
ATOM     57  O   UNK d   0     -26.041  -1.951   2.462  0.00  0.00    -0.650 OA
BRANCH  56  58
ATOM     58  O   UNK d   0     -25.469  -1.973   4.671  0.00  0.00    -0.776 OA
ATOM     59  H   UNK d   0     -24.562  -1.472   4.653  0.00  0.00     0.167 HD
ENDBRANCH  56  58
ENDBRANCH  55  56
ENDBRANCH  21  55
BRANCH  18  60
ATOM     60  C   UNK d   0     -24.763  -5.289  -1.614  0.00  0.00     0.151 C 
BRANCH  60  61
ATOM     61  C   UNK d   0     -25.285  -6.475  -0.918  0.00  0.00     0.143 C 
ATOM     62  O   UNK d   0     -24.764  -7.589  -0.857  0.00  0.00    -0.650 OA
BRANCH  61  63
ATOM     63  O   UNK d   0     -26.521  -6.288  -0.254  0.00  0.00    -0.776 OA
ATOM     64  H   UNK d   0     -27.264  -5.763  -0.680  0.00  0.00     0.167 HD
ENDBRANCH  61  63
ENDBRANCH  60  61
ENDBRANCH  18  60
BRANCH  14  65
ATOM     65  C   UNK d   0     -22.400  -5.785  -3.453  0.00  0.00     0.052 C 
BRANCH  65  66
ATOM     66  C   UNK d   0     -22.124  -4.641  -4.363  0.00  0.00     0.115 C 
BRANCH  66  67
ATOM     67  C   UNK d   0     -21.037  -4.722  -5.298  0.00  0.00     0.139 C 
ATOM     68  O   UNK d   0     -21.311  -4.802  -6.552  0.00  0.00    -0.650 OA
BRANCH  67  69
ATOM     69  O   UNK d   0     -19.671  -4.726  -5.020  0.00  0.00    -0.776 OA
ATOM     70  H   UNK d   0     -19.114  -4.004  -5.500  0.00  0.00     0.167 HD
ENDBRANCH  67  69
ENDBRANCH  66  67
ENDBRANCH  65  66
ENDBRANCH  14  65
ENDBRANCH   6   7
ENDBRANCH   5   6
ENDBRANCH   2   5
TORSDOF 28
ENDMDL
MODEL 14
REMARK VINA RESULT:      -8.8      5.363     12.010
REMARK  28 active torsions:
REMARK  status: ('A' for Active; 'I' for Inactive)
REMARK    1  A    between atoms: C_2  and  O_3 
REMARK    2  A    between atoms: C_2  and  C_4 
REMARK    3  A    between atoms: C_4  and  C_5 
REMARK    4  A    between atoms: C_5  and  C_6 
REMARK    5  A    between atoms: C_7  and  C_8 
REMARK    6  A    between atoms: C_8  and  C_9 
REMARK    7  A    between atoms: C_9  and  O_11 
REMARK    8  A    between atoms: C_28  and  C_29 
REMARK    9  A    between atoms: C_29  and  C_30 
REMARK   10  A    between atoms: C_30  and  O_32 
REMARK   11  A    between atoms: C_33  and  C_34 
REMARK   12  A    between atoms: C_34  and  C_35 
REMARK   13  A    between atoms: C_35  and  C_36 
REMARK   14  A    between atoms: C_36  and  O_38 
REMARK   15  A    between atoms: C_39  and  C_40 
REMARK   16  A    between atoms: C_40  and  C_41 
REMARK   17  A    between atoms: C_41  and  C_42 
REMARK   18  A    between atoms: C_42  and  O_44 
REMARK   19  A    between atoms: C_45  and  C_46 
REMARK   20  A    between atoms: C_46  and  C_47 
REMARK   21  A    between atoms: C_47  and  O_49 
REMARK   22  A    between atoms: C_50  and  C_51 
REMARK   23  A    between atoms: C_51  and  C_52 
REMARK   24  A    between atoms: C_52  and  O_54 
REMARK   25  A    between atoms: C_55  and  C_56 
REMARK   26  A    between atoms: C_56  and  C_57 
REMARK   27  A    between atoms: C_57  and  C_58 
REMARK   28  A    between atoms: C_58  and  O_60 
ROOT
ATOM      1  O   UNK d   0     -25.274  -4.178   0.168  0.00  0.00    -0.650 OA
ATOM      2  C   UNK d   0     -24.774  -3.081  -0.166  0.00  0.00     0.139 C 
ENDROOT
BRANCH   2   3
ATOM      3  O   UNK d   0     -23.963  -3.020  -1.273  0.00  0.00    -0.776 OA
ATOM      4  H   UNK d   0     -23.801  -2.136  -1.760  0.00  0.00     0.167 HD
ENDBRANCH   2   3
BRANCH   2   5
ATOM      5  C   UNK d   0     -25.056  -1.856   0.634  0.00  0.00     0.115 C 
BRANCH   5   6
ATOM      6  C   UNK d   0     -26.365  -2.003   1.362  0.00  0.00     0.052 C 
BRANCH   6   7
ATOM      7  C   UNK d   0     -26.225  -1.811   2.853  0.00  0.00    -0.020 A 
ATOM      8  C   UNK d   0     -26.636  -0.796   3.569  0.00  0.00    -0.011 A 
ATOM      9  C   UNK d   0     -26.272  -1.051   4.953  0.00  0.00     0.067 A 
ATOM     10  C   UNK d   0     -26.435  -0.392   6.181  0.00  0.00     0.062 C 
ATOM     11  N   UNK d   0     -25.637  -2.242   4.987  0.00  0.00    -0.248 NA
ATOM     12  C   UNK d   0     -26.259  -0.929   7.461  0.00  0.00     0.041 A 
ATOM     13  N   UNK d   0     -25.305  -1.738   7.960  0.00  0.00    -0.355 N 
ATOM     14  C   UNK d   0     -27.230  -0.673   8.446  0.00  0.00    -0.022 A 
ATOM     15  C   UNK d   0     -25.650  -2.008   9.233  0.00  0.00     0.042 A 
ATOM     16  H   UNK d   0     -24.396  -2.096   7.428  0.00  0.00     0.166 HD
ATOM     17  C   UNK d   0     -25.007  -2.799  10.205  0.00  0.00     0.062 C 
ATOM     18  C   UNK d   0     -26.852  -1.358   9.574  0.00  0.00    -0.013 A 
ATOM     19  C   UNK d   0     -24.449  -4.045  10.073  0.00  0.00     0.067 A 
ATOM     20  N   UNK d   0     -24.308  -4.515   8.831  0.00  0.00    -0.248 NA
ATOM     21  C   UNK d   0     -23.951  -5.068  10.977  0.00  0.00    -0.011 A 
ATOM     22  C   UNK d   0     -23.754  -5.772   8.858  0.00  0.00     0.066 A 
ATOM     23  C   UNK d   0     -23.515  -6.366   7.627  0.00  0.00     0.062 C 
ATOM     24  C   UNK d   0     -23.549  -6.078  10.260  0.00  0.00    -0.020 A 
ATOM     25  C   UNK d   0     -23.686  -5.805   6.353  0.00  0.00     0.041 A 
ATOM     26  N   UNK d   0     -24.642  -5.012   5.853  0.00  0.00    -0.355 N 
ATOM     27  C   UNK d   0     -22.709  -6.059   5.366  0.00  0.00    -0.022 A 
ATOM     28  C   UNK d   0     -24.305  -4.749   4.581  0.00  0.00     0.042 A 
ATOM     29  H   UNK d   0     -25.561  -4.663   6.385  0.00  0.00     0.166 HD
ATOM     30  C   UNK d   0     -24.940  -3.972   3.599  0.00  0.00     0.062 C 
ATOM     31  C   UNK d   0     -23.092  -5.394   4.242  0.00  0.00    -0.013 A 
ATOM     32  C   UNK d   0     -25.577  -2.751   3.756  0.00  0.00     0.066 A 
BRANCH   8  33
ATOM     33  C   UNK d   0     -27.339   0.405   3.081  0.00  0.00     0.151 C 
BRANCH  33  34
ATOM     34  C   UNK d   0     -26.416   1.469   2.646  0.00  0.00     0.143 C 
ATOM     35  O   UNK d   0     -25.458   1.809   3.354  0.00  0.00    -0.650 OA
BRANCH  34  36
ATOM     36  O   UNK d   0     -26.626   2.092   1.437  0.00  0.00    -0.776 OA
ATOM     37  H   UNK d   0     -26.374   1.635   0.550  0.00  0.00     0.167 HD
ENDBRANCH  34  36
ENDBRANCH  33  34
ENDBRANCH   8  33
BRANCH  31  38
ATOM     38  C   UNK d   0     -22.346  -5.361   2.928  0.00  0.00     0.151 C 
BRANCH  38  39
ATOM     39  C   UNK d   0     -20.984  -4.891   3.067  0.00  0.00     0.143 C 
ATOM     40  O   UNK d   0     -20.024  -5.465   2.526  0.00  0.00    -0.650 OA
BRANCH  39  41
ATOM     41  O   UNK d   0     -20.726  -3.754   3.832  0.00  0.00    -0.776 OA
ATOM     42  H   UNK d   0     -20.337  -2.944   3.338  0.00  0.00     0.167 HD
ENDBRANCH  39  41
ENDBRANCH  38  39
ENDBRANCH  31  38
BRANCH  27  43
ATOM     43  C   UNK d   0     -21.455  -6.893   5.452  0.00  0.00     0.052 C 
BRANCH  43  44
ATOM     44  C   UNK d   0     -20.522  -6.449   6.531  0.00  0.00     0.115 C 
BRANCH  44  45
ATOM     45  C   UNK d   0     -19.163  -6.895   6.128  0.00  0.00     0.139 C 
ATOM     46  O   UNK d   0     -18.385  -7.306   7.025  0.00  0.00    -0.650 OA
BRANCH  45  47
ATOM     47  O   UNK d   0     -18.729  -6.882   4.820  0.00  0.00    -0.776 OA
ATOM     48  H   UNK d   0     -17.952  -7.471   4.482  0.00  0.00     0.167 HD
ENDBRANCH  45  47
ENDBRANCH  44  45
ENDBRANCH  43  44
ENDBRANCH  27  43
BRANCH  24  49
ATOM     49  C   UNK d   0     -22.936  -7.316  10.770  0.00  0.00     0.052 C 
BRANCH  49  50
ATOM     50  C   UNK d   0     -23.928  -8.450  10.725  0.00  0.00     0.115 C 
BRANCH  50  51
ATOM     51  C   UNK d   0     -24.778  -8.636  11.893  0.00  0.00     0.139 C 
ATOM     52  O   UNK d   0     -25.903  -8.093  12.004  0.00  0.00    -0.650 OA
BRANCH  51  53
ATOM     53  O   UNK d   0     -24.345  -9.439  12.936  0.00  0.00    -0.776 OA
ATOM     54  H   UNK d   0     -23.392  -9.348  13.243  0.00  0.00     0.167 HD
ENDBRANCH  51  53
ENDBRANCH  50  51
ENDBRANCH  49  50
ENDBRANCH  24  49
BRANCH  21  55
ATOM     55  C   UNK d   0     -23.924  -4.928  12.463  0.00  0.00     0.151 C 
BRANCH  55  56
ATOM     56  C   UNK d   0     -23.035  -3.840  12.898  0.00  0.00     0.143 C 
ATOM     57  O   UNK d   0     -23.460  -2.782  13.404  0.00  0.00    -0.650 OA
BRANCH  56  58
ATOM     58  O   UNK d   0     -21.662  -4.017  12.731  0.00  0.00    -0.776 OA
ATOM     59  H   UNK d   0     -21.187  -3.266  12.198  0.00  0.00     0.167 HD
ENDBRANCH  56  58
ENDBRANCH  55  56
ENDBRANCH  21  55
BRANCH  18  60
ATOM     60  C   UNK d   0     -27.616  -1.371  10.875  0.00  0.00     0.151 C 
BRANCH  60  61
ATOM     61  C   UNK d   0     -28.097  -2.750  11.047  0.00  0.00     0.143 C 
ATOM     62  O   UNK d   0     -28.765  -3.408  10.249  0.00  0.00    -0.650 OA
BRANCH  61  63
ATOM     63  O   UNK d   0     -27.740  -3.364  12.272  0.00  0.00    -0.776 OA
ATOM     64  H   UNK d   0     -28.007  -4.311  12.474  0.00  0.00     0.167 HD
ENDBRANCH  61  63
ENDBRANCH  60  61
ENDBRANCH  18  60
BRANCH  14  65
ATOM     65  C   UNK d   0     -28.423   0.240   8.433  0.00  0.00     0.052 C 
BRANCH  65  66
ATOM     66  C   UNK d   0     -29.501  -0.224   7.519  0.00  0.00     0.115 C 
BRANCH  66  67
ATOM     67  C   UNK d   0     -29.944  -1.589   7.576  0.00  0.00     0.139 C 
ATOM     68  O   UNK d   0     -29.576  -2.393   6.642  0.00  0.00    -0.650 OA
BRANCH  67  69
ATOM     69  O   UNK d   0     -30.751  -2.184   8.544  0.00  0.00    -0.776 OA
ATOM     70  H   UNK d   0     -31.594  -1.656   8.811  0.00  0.00     0.167 HD
ENDBRANCH  67  69
ENDBRANCH  66  67
ENDBRANCH  65  66
ENDBRANCH  14  65
ENDBRANCH   6   7
ENDBRANCH   5   6
ENDBRANCH   2   5
TORSDOF 28
ENDMDL
MODEL 15
REMARK VINA RESULT:      -8.7      2.349      4.891
REMARK  28 active torsions:
REMARK  status: ('A' for Active; 'I' for Inactive)
REMARK    1  A    between atoms: C_2  and  O_3 
REMARK    2  A    between atoms: C_2  and  C_4 
REMARK    3  A    between atoms: C_4  and  C_5 
REMARK    4  A    between atoms: C_5  and  C_6 
REMARK    5  A    between atoms: C_7  and  C_8 
REMARK    6  A    between atoms: C_8  and  C_9 
REMARK    7  A    between atoms: C_9  and  O_11 
REMARK    8  A    between atoms: C_28  and  C_29 
REMARK    9  A    between atoms: C_29  and  C_30 
REMARK   10  A    between atoms: C_30  and  O_32 
REMARK   11  A    between atoms: C_33  and  C_34 
REMARK   12  A    between atoms: C_34  and  C_35 
REMARK   13  A    between atoms: C_35  and  C_36 
REMARK   14  A    between atoms: C_36  and  O_38 
REMARK   15  A    between atoms: C_39  and  C_40 
REMARK   16  A    between atoms: C_40  and  C_41 
REMARK   17  A    between atoms: C_41  and  C_42 
REMARK   18  A    between atoms: C_42  and  O_44 
REMARK   19  A    between atoms: C_45  and  C_46 
REMARK   20  A    between atoms: C_46  and  C_47 
REMARK   21  A    between atoms: C_47  and  O_49 
REMARK   22  A    between atoms: C_50  and  C_51 
REMARK   23  A    between atoms: C_51  and  C_52 
REMARK   24  A    between atoms: C_52  and  O_54 
REMARK   25  A    between atoms: C_55  and  C_56 
REMARK   26  A    between atoms: C_56  and  C_57 
REMARK   27  A    between atoms: C_57  and  C_58 
REMARK   28  A    between atoms: C_58  and  O_60 
ROOT
ATOM      1  O   UNK d   0     -26.333  -6.140  -1.621  0.00  0.00    -0.650 OA
ATOM      2  C   UNK d   0     -26.006  -6.676  -0.539  0.00  0.00     0.139 C 
ENDROOT
BRANCH   2   3
ATOM      3  O   UNK d   0     -25.150  -7.751  -0.551  0.00  0.00    -0.776 OA
ATOM      4  H   UNK d   0     -25.427  -8.640  -0.971  0.00  0.00     0.167 HD
ENDBRANCH   2   3
BRANCH   2   5
ATOM      5  C   UNK d   0     -26.542  -6.150   0.748  0.00  0.00     0.115 C 
BRANCH   5   6
ATOM      6  C   UNK d   0     -25.907  -4.824   1.071  0.00  0.00     0.052 C 
BRANCH   6   7
ATOM      7  C   UNK d   0     -24.697  -4.961   1.964  0.00  0.00    -0.020 A 
ATOM      8  C   UNK d   0     -24.633  -4.768   3.256  0.00  0.00    -0.011 A 
ATOM      9  C   UNK d   0     -23.262  -5.009   3.675  0.00  0.00     0.067 A 
ATOM     10  C   UNK d   0     -22.557  -4.994   4.888  0.00  0.00     0.062 C 
ATOM     11  N   UNK d   0     -22.559  -5.339   2.571  0.00  0.00    -0.248 NA
ATOM     12  C   UNK d   0     -21.288  -5.530   5.137  0.00  0.00     0.041 A 
ATOM     13  N   UNK d   0     -20.153  -5.495   4.413  0.00  0.00    -0.355 N 
ATOM     14  C   UNK d   0     -21.090  -6.299   6.298  0.00  0.00    -0.022 A 
ATOM     15  C   UNK d   0     -19.243  -6.228   5.080  0.00  0.00     0.042 A 
ATOM     16  H   UNK d   0     -19.994  -4.946   3.458  0.00  0.00     0.166 HD
ATOM     17  C   UNK d   0     -17.899  -6.518   4.771  0.00  0.00     0.062 C 
ATOM     18  C   UNK d   0     -19.793  -6.748   6.268  0.00  0.00    -0.013 A 
ATOM     19  C   UNK d   0     -17.354  -6.900   3.572  0.00  0.00     0.067 A 
ATOM     20  N   UNK d   0     -18.136  -6.803   2.493  0.00  0.00    -0.248 NA
ATOM     21  C   UNK d   0     -16.075  -7.429   3.127  0.00  0.00    -0.011 A 
ATOM     22  C   UNK d   0     -17.462  -7.232   1.376  0.00  0.00     0.066 A 
ATOM     23  C   UNK d   0     -18.148  -7.150   0.173  0.00  0.00     0.062 C 
ATOM     24  C   UNK d   0     -16.146  -7.625   1.842  0.00  0.00    -0.020 A 
ATOM     25  C   UNK d   0     -19.417  -6.597  -0.057  0.00  0.00     0.041 A 
ATOM     26  N   UNK d   0     -20.549  -6.644   0.655  0.00  0.00    -0.355 N 
ATOM     27  C   UNK d   0     -19.614  -5.821  -1.221  0.00  0.00    -0.022 A 
ATOM     28  C   UNK d   0     -21.461  -5.921  -0.013  0.00  0.00     0.042 A 
ATOM     29  H   UNK d   0     -20.711  -7.204   1.609  0.00  0.00     0.166 HD
ATOM     30  C   UNK d   0     -22.803  -5.631   0.278  0.00  0.00     0.062 C 
ATOM     31  C   UNK d   0     -20.904  -5.389  -1.201  0.00  0.00    -0.013 A 
ATOM     32  C   UNK d   0     -23.365  -5.329   1.509  0.00  0.00     0.066 A 
BRANCH   8  33
ATOM     33  C   UNK d   0     -25.739  -4.370   4.147  0.00  0.00     0.151 C 
BRANCH  33  34
ATOM     34  C   UNK d   0     -25.726  -2.930   4.464  0.00  0.00     0.143 C 
ATOM     35  O   UNK d   0     -25.012  -2.485   5.374  0.00  0.00    -0.650 OA
BRANCH  34  36
ATOM     36  O   UNK d   0     -26.520  -2.072   3.739  0.00  0.00    -0.776 OA
ATOM     37  H   UNK d   0     -27.283  -1.545   4.185  0.00  0.00     0.167 HD
ENDBRANCH  34  36
ENDBRANCH  33  34
ENDBRANCH   8  33
BRANCH  31  38
ATOM     38  C   UNK d   0     -21.567  -4.513  -2.238  0.00  0.00     0.151 C 
BRANCH  38  39
ATOM     39  C   UNK d   0     -22.093  -5.267  -3.356  0.00  0.00     0.143 C 
ATOM     40  O   UNK d   0     -23.137  -5.938  -3.274  0.00  0.00    -0.650 OA
BRANCH  39  41
ATOM     41  O   UNK d   0     -21.417  -5.249  -4.575  0.00  0.00    -0.776 OA
ATOM     42  H   UNK d   0     -20.395  -5.173  -4.535  0.00  0.00     0.167 HD
ENDBRANCH  39  41
ENDBRANCH  38  39
ENDBRANCH  31  38
BRANCH  27  43
ATOM     43  C   UNK d   0     -18.642  -5.487  -2.326  0.00  0.00     0.052 C 
BRANCH  43  44
ATOM     44  C   UNK d   0     -18.188  -6.684  -3.095  0.00  0.00     0.115 C 
BRANCH  44  45
ATOM     45  C   UNK d   0     -16.970  -6.273  -3.841  0.00  0.00     0.139 C 
ATOM     46  O   UNK d   0     -15.978  -7.042  -3.824  0.00  0.00    -0.650 OA
BRANCH  45  47
ATOM     47  O   UNK d   0     -16.890  -5.092  -4.547  0.00  0.00    -0.776 OA
ATOM     48  H   UNK d   0     -16.661  -4.188  -4.104  0.00  0.00     0.167 HD
ENDBRANCH  45  47
ENDBRANCH  44  45
ENDBRANCH  43  44
ENDBRANCH  27  43
BRANCH  24  49
ATOM     49  C   UNK d   0     -15.061  -8.118   0.977  0.00  0.00     0.052 C 
BRANCH  49  50
ATOM     50  C   UNK d   0     -15.315  -9.549   0.578  0.00  0.00     0.115 C 
BRANCH  50  51
ATOM     51  C   UNK d   0     -14.863 -10.585   1.496  0.00  0.00     0.139 C 
ATOM     52  O   UNK d   0     -14.061 -10.357   2.432  0.00  0.00    -0.650 OA
BRANCH  51  53
ATOM     53  O   UNK d   0     -15.325 -11.884   1.346  0.00  0.00    -0.776 OA
ATOM     54  H   UNK d   0     -15.853 -12.291   2.098  0.00  0.00     0.167 HD
ENDBRANCH  51  53
ENDBRANCH  50  51
ENDBRANCH  49  50
ENDBRANCH  24  49
BRANCH  21  55
ATOM     55  C   UNK d   0     -14.915  -7.679   4.032  0.00  0.00     0.151 C 
BRANCH  55  56
ATOM     56  C   UNK d   0     -14.351  -6.429   4.564  0.00  0.00     0.143 C 
ATOM     57  O   UNK d   0     -13.634  -5.669   3.884  0.00  0.00    -0.650 OA
BRANCH  56  58
ATOM     58  O   UNK d   0     -14.641  -6.098   5.886  0.00  0.00    -0.776 OA
ATOM     59  H   UNK d   0     -13.813  -5.958   6.493  0.00  0.00     0.167 HD
ENDBRANCH  56  58
ENDBRANCH  55  56
ENDBRANCH  21  55
BRANCH  18  60
ATOM     60  C   UNK d   0     -19.156  -7.621   7.321  0.00  0.00     0.151 C 
BRANCH  60  61
ATOM     61  C   UNK d   0     -18.348  -6.720   8.156  0.00  0.00     0.143 C 
ATOM     62  O   UNK d   0     -17.256  -6.226   7.874  0.00  0.00    -0.650 OA
BRANCH  61  63
ATOM     63  O   UNK d   0     -18.910  -6.402   9.416  0.00  0.00    -0.776 OA
ATOM     64  H   UNK d   0     -18.732  -6.974  10.223  0.00  0.00     0.167 HD
ENDBRANCH  61  63
ENDBRANCH  60  61
ENDBRANCH  18  60
BRANCH  14  65
ATOM     65  C   UNK d   0     -21.994  -6.556   7.470  0.00  0.00     0.052 C 
BRANCH  65  66
ATOM     66  C   UNK d   0     -22.139  -5.374   8.363  0.00  0.00     0.115 C 
BRANCH  66  67
ATOM     67  C   UNK d   0     -23.119  -4.370   8.060  0.00  0.00     0.139 C 
ATOM     68  O   UNK d   0     -22.761  -3.135   8.088  0.00  0.00    -0.650 OA
BRANCH  67  69
ATOM     69  O   UNK d   0     -24.459  -4.558   7.726  0.00  0.00    -0.776 OA
ATOM     70  H   UNK d   0     -24.635  -5.068   6.848  0.00  0.00     0.167 HD
ENDBRANCH  67  69
ENDBRANCH  66  67
ENDBRANCH  65  66
ENDBRANCH  14  65
ENDBRANCH   6   7
ENDBRANCH   5   6
ENDBRANCH   2   5
TORSDOF 28
ENDMDL
MODEL 16
REMARK VINA RESULT:      -8.7      2.573      8.106
REMARK  28 active torsions:
REMARK  status: ('A' for Active; 'I' for Inactive)
REMARK    1  A    between atoms: C_2  and  O_3 
REMARK    2  A    between atoms: C_2  and  C_4 
REMARK    3  A    between atoms: C_4  and  C_5 
REMARK    4  A    between atoms: C_5  and  C_6 
REMARK    5  A    between atoms: C_7  and  C_8 
REMARK    6  A    between atoms: C_8  and  C_9 
REMARK    7  A    between atoms: C_9  and  O_11 
REMARK    8  A    between atoms: C_28  and  C_29 
REMARK    9  A    between atoms: C_29  and  C_30 
REMARK   10  A    between atoms: C_30  and  O_32 
REMARK   11  A    between atoms: C_33  and  C_34 
REMARK   12  A    between atoms: C_34  and  C_35 
REMARK   13  A    between atoms: C_35  and  C_36 
REMARK   14  A    between atoms: C_36  and  O_38 
REMARK   15  A    between atoms: C_39  and  C_40 
REMARK   16  A    between atoms: C_40  and  C_41 
REMARK   17  A    between atoms: C_41  and  C_42 
REMARK   18  A    between atoms: C_42  and  O_44 
REMARK   19  A    between atoms: C_45  and  C_46 
REMARK   20  A    between atoms: C_46  and  C_47 
REMARK   21  A    between atoms: C_47  and  O_49 
REMARK   22  A    between atoms: C_50  and  C_51 
REMARK   23  A    between atoms: C_51  and  C_52 
REMARK   24  A    between atoms: C_52  and  O_54 
REMARK   25  A    between atoms: C_55  and  C_56 
REMARK   26  A    between atoms: C_56  and  C_57 
REMARK   27  A    between atoms: C_57  and  C_58 
REMARK   28  A    between atoms: C_58  and  O_60 
ROOT
ATOM      1  O   UNK d   0     -25.153  -3.284   7.858  0.00  0.00    -0.650 OA
ATOM      2  C   UNK d   0     -25.890  -4.271   7.636  0.00  0.00     0.139 C 
ENDROOT
BRANCH   2   3
ATOM      3  O   UNK d   0     -26.164  -5.150   8.656  0.00  0.00    -0.776 OA
ATOM      4  H   UNK d   0     -26.590  -6.060   8.468  0.00  0.00     0.167 HD
ENDBRANCH   2   3
BRANCH   2   5
ATOM      5  C   UNK d   0     -26.461  -4.488   6.276  0.00  0.00     0.115 C 
BRANCH   5   6
ATOM      6  C   UNK d   0     -25.960  -3.431   5.330  0.00  0.00     0.052 C 
BRANCH   6   7
ATOM      7  C   UNK d   0     -25.107  -4.000   4.221  0.00  0.00    -0.020 A 
ATOM      8  C   UNK d   0     -25.407  -4.093   2.951  0.00  0.00    -0.011 A 
ATOM      9  C   UNK d   0     -24.283  -4.716   2.273  0.00  0.00     0.067 A 
ATOM     10  C   UNK d   0     -23.966  -5.069   0.952  0.00  0.00     0.062 C 
ATOM     11  N   UNK d   0     -23.344  -4.974   3.208  0.00  0.00    -0.248 NA
ATOM     12  C   UNK d   0     -22.708  -5.411   0.444  0.00  0.00     0.041 A 
ATOM     13  N   UNK d   0     -21.732  -6.192   0.945  0.00  0.00    -0.355 N 
ATOM     14  C   UNK d   0     -22.287  -4.842  -0.771  0.00  0.00    -0.022 A 
ATOM     15  C   UNK d   0     -20.700  -6.127   0.083  0.00  0.00     0.042 A 
ATOM     16  H   UNK d   0     -21.780  -6.793   1.880  0.00  0.00     0.166 HD
ATOM     17  C   UNK d   0     -19.437  -6.749   0.122  0.00  0.00     0.062 C 
ATOM     18  C   UNK d   0     -21.011  -5.289  -1.005  0.00  0.00    -0.013 A 
ATOM     19  C   UNK d   0     -18.571  -6.877   1.178  0.00  0.00     0.067 A 
ATOM     20  N   UNK d   0     -19.038  -6.554   2.386  0.00  0.00    -0.248 NA
ATOM     21  C   UNK d   0     -17.185  -7.283   1.349  0.00  0.00    -0.011 A 
ATOM     22  C   UNK d   0     -18.059  -6.717   3.335  0.00  0.00     0.066 A 
ATOM     23  C   UNK d   0     -18.422  -6.451   4.647  0.00  0.00     0.062 C 
ATOM     24  C   UNK d   0     -16.891  -7.183   2.613  0.00  0.00    -0.020 A 
ATOM     25  C   UNK d   0     -19.694  -6.122   5.138  0.00  0.00     0.041 A 
ATOM     26  N   UNK d   0     -20.658  -5.333   4.648  0.00  0.00    -0.355 N 
ATOM     27  C   UNK d   0     -20.118  -6.697   6.356  0.00  0.00    -0.022 A 
ATOM     28  C   UNK d   0     -21.686  -5.390   5.510  0.00  0.00     0.042 A 
ATOM     29  H   UNK d   0     -20.605  -4.722   3.714  0.00  0.00     0.166 HD
ATOM     30  C   UNK d   0     -22.944  -4.769   5.488  0.00  0.00     0.062 C 
ATOM     31  C   UNK d   0     -21.377  -6.240   6.598  0.00  0.00    -0.013 A 
ATOM     32  C   UNK d   0     -23.779  -4.567   4.401  0.00  0.00     0.066 A 
BRANCH   8  33
ATOM     33  C   UNK d   0     -26.658  -3.657   2.303  0.00  0.00     0.151 C 
BRANCH  33  34
ATOM     34  C   UNK d   0     -26.482  -2.447   1.480  0.00  0.00     0.143 C 
ATOM     35  O   UNK d   0     -25.963  -1.426   1.954  0.00  0.00    -0.650 OA
BRANCH  34  36
ATOM     36  O   UNK d   0     -26.903  -2.453   0.171  0.00  0.00    -0.776 OA
ATOM     37  H   UNK d   0     -27.675  -1.851  -0.145  0.00  0.00     0.167 HD
ENDBRANCH  34  36
ENDBRANCH  33  34
ENDBRANCH   8  33
BRANCH  31  38
ATOM     38  C   UNK d   0     -22.242  -6.598   7.784  0.00  0.00     0.151 C 
BRANCH  38  39
ATOM     39  C   UNK d   0     -23.389  -7.402   7.420  0.00  0.00     0.143 C 
ATOM     40  O   UNK d   0     -24.417  -7.451   8.119  0.00  0.00    -0.650 OA
BRANCH  39  41
ATOM     41  O   UNK d   0     -23.355  -8.154   6.246  0.00  0.00    -0.776 OA
ATOM     42  H   UNK d   0     -23.345  -7.632   5.364  0.00  0.00     0.167 HD
ENDBRANCH  39  41
ENDBRANCH  38  39
ENDBRANCH  31  38
BRANCH  27  43
ATOM     43  C   UNK d   0     -19.385  -7.641   7.276  0.00  0.00     0.052 C 
BRANCH  43  44
ATOM     44  C   UNK d   0     -18.564  -6.941   8.309  0.00  0.00     0.115 C 
BRANCH  44  45
ATOM     45  C   UNK d   0     -18.041  -7.992   9.220  0.00  0.00     0.139 C 
ATOM     46  O   UNK d   0     -17.296  -8.880   8.734  0.00  0.00    -0.650 OA
BRANCH  45  47
ATOM     47  O   UNK d   0     -18.334  -8.028  10.566  0.00  0.00    -0.776 OA
ATOM     48  H   UNK d   0     -18.864  -8.799  11.004  0.00  0.00     0.167 HD
ENDBRANCH  45  47
ENDBRANCH  44  45
ENDBRANCH  43  44
ENDBRANCH  27  43
BRANCH  24  49
ATOM     49  C   UNK d   0     -15.602  -7.531   3.235  0.00  0.00     0.052 C 
BRANCH  49  50
ATOM     50  C   UNK d   0     -14.968  -6.309   3.848  0.00  0.00     0.115 C 
BRANCH  50  51
ATOM     51  C   UNK d   0     -14.241  -5.417   2.954  0.00  0.00     0.139 C 
ATOM     52  O   UNK d   0     -13.440  -5.836   2.085  0.00  0.00    -0.650 OA
BRANCH  51  53
ATOM     53  O   UNK d   0     -14.425  -4.047   3.053  0.00  0.00    -0.776 OA
ATOM     54  H   UNK d   0     -13.612  -3.456   3.036  0.00  0.00     0.167 HD
ENDBRANCH  51  53
ENDBRANCH  50  51
ENDBRANCH  49  50
ENDBRANCH  24  49
BRANCH  21  55
ATOM     55  C   UNK d   0     -16.302  -7.732   0.233  0.00  0.00     0.151 C 
BRANCH  55  56
ATOM     56  C   UNK d   0     -16.612  -9.104  -0.197  0.00  0.00     0.143 C 
ATOM     57  O   UNK d   0     -16.204 -10.111   0.414  0.00  0.00    -0.650 OA
BRANCH  56  58
ATOM     58  O   UNK d   0     -17.396  -9.266  -1.338  0.00  0.00    -0.776 OA
ATOM     59  H   UNK d   0     -18.012  -8.463  -1.561  0.00  0.00     0.167 HD
ENDBRANCH  56  58
ENDBRANCH  55  56
ENDBRANCH  21  55
BRANCH  18  60
ATOM     60  C   UNK d   0     -20.170  -4.917  -2.202  0.00  0.00     0.151 C 
BRANCH  60  61
ATOM     61  C   UNK d   0     -20.537  -5.865  -3.264  0.00  0.00     0.143 C 
ATOM     62  O   UNK d   0     -21.291  -5.659  -4.215  0.00  0.00    -0.650 OA
BRANCH  61  63
ATOM     63  O   UNK d   0     -19.946  -7.147  -3.158  0.00  0.00    -0.776 OA
ATOM     64  H   UNK d   0     -20.265  -7.914  -3.724  0.00  0.00     0.167 HD
ENDBRANCH  61  63
ENDBRANCH  60  61
ENDBRANCH  18  60
BRANCH  14  65
ATOM     65  C   UNK d   0     -23.028  -3.994  -1.766  0.00  0.00     0.052 C 
BRANCH  65  66
ATOM     66  C   UNK d   0     -22.734  -2.543  -1.627  0.00  0.00     0.115 C 
BRANCH  66  67
ATOM     67  C   UNK d   0     -23.503  -1.745  -0.715  0.00  0.00     0.139 C 
ATOM     68  O   UNK d   0     -24.634  -1.278  -1.111  0.00  0.00    -0.650 OA
BRANCH  67  69
ATOM     69  O   UNK d   0     -23.178  -1.393   0.595  0.00  0.00    -0.776 OA
ATOM     70  H   UNK d   0     -22.328  -0.821   0.707  0.00  0.00     0.167 HD
ENDBRANCH  67  69
ENDBRANCH  66  67
ENDBRANCH  65  66
ENDBRANCH  14  65
ENDBRANCH   6   7
ENDBRANCH   5   6
ENDBRANCH   2   5
TORSDOF 28
ENDMDL
MODEL 17
REMARK VINA RESULT:      -8.6      3.380     10.010
REMARK  28 active torsions:
REMARK  status: ('A' for Active; 'I' for Inactive)
REMARK    1  A    between atoms: C_2  and  O_3 
REMARK    2  A    between atoms: C_2  and  C_4 
REMARK    3  A    between atoms: C_4  and  C_5 
REMARK    4  A    between atoms: C_5  and  C_6 
REMARK    5  A    between atoms: C_7  and  C_8 
REMARK    6  A    between atoms: C_8  and  C_9 
REMARK    7  A    between atoms: C_9  and  O_11 
REMARK    8  A    between atoms: C_28  and  C_29 
REMARK    9  A    between atoms: C_29  and  C_30 
REMARK   10  A    between atoms: C_30  and  O_32 
REMARK   11  A    between atoms: C_33  and  C_34 
REMARK   12  A    between atoms: C_34  and  C_35 
REMARK   13  A    between atoms: C_35  and  C_36 
REMARK   14  A    between atoms: C_36  and  O_38 
REMARK   15  A    between atoms: C_39  and  C_40 
REMARK   16  A    between atoms: C_40  and  C_41 
REMARK   17  A    between atoms: C_41  and  C_42 
REMARK   18  A    between atoms: C_42  and  O_44 
REMARK   19  A    between atoms: C_45  and  C_46 
REMARK   20  A    between atoms: C_46  and  C_47 
REMARK   21  A    between atoms: C_47  and  O_49 
REMARK   22  A    between atoms: C_50  and  C_51 
REMARK   23  A    between atoms: C_51  and  C_52 
REMARK   24  A    between atoms: C_52  and  O_54 
REMARK   25  A    between atoms: C_55  and  C_56 
REMARK   26  A    between atoms: C_56  and  C_57 
REMARK   27  A    between atoms: C_57  and  C_58 
REMARK   28  A    between atoms: C_58  and  O_60 
ROOT
ATOM      1  O   UNK d   0     -24.178  -3.952  -1.294  0.00  0.00    -0.650 OA
ATOM      2  C   UNK d   0     -22.930  -3.867  -1.328  0.00  0.00     0.139 C 
ENDROOT
BRANCH   2   3
ATOM      3  O   UNK d   0     -22.328  -3.215  -2.378  0.00  0.00    -0.776 OA
ATOM      4  H   UNK d   0     -21.310  -3.157  -2.448  0.00  0.00     0.167 HD
ENDBRANCH   2   3
BRANCH   2   5
ATOM      5  C   UNK d   0     -22.109  -4.470  -0.240  0.00  0.00     0.115 C 
BRANCH   5   6
ATOM      6  C   UNK d   0     -22.864  -5.595   0.415  0.00  0.00     0.052 C 
BRANCH   6   7
ATOM      7  C   UNK d   0     -22.986  -5.419   1.910  0.00  0.00    -0.020 A 
ATOM      8  C   UNK d   0     -24.022  -4.983   2.580  0.00  0.00    -0.011 A 
ATOM      9  C   UNK d   0     -23.669  -4.978   3.990  0.00  0.00     0.067 A 
ATOM     10  C   UNK d   0     -24.315  -4.655   5.194  0.00  0.00     0.062 C 
ATOM     11  N   UNK d   0     -22.398  -5.421   4.087  0.00  0.00    -0.248 NA
ATOM     12  C   UNK d   0     -23.902  -4.980   6.490  0.00  0.00     0.041 A 
ATOM     13  N   UNK d   0     -22.686  -4.946   7.068  0.00  0.00    -0.355 N 
ATOM     14  C   UNK d   0     -24.848  -5.492   7.398  0.00  0.00    -0.022 A 
ATOM     15  C   UNK d   0     -22.835  -5.429   8.316  0.00  0.00     0.042 A 
ATOM     16  H   UNK d   0     -21.745  -4.569   6.610  0.00  0.00     0.166 HD
ATOM     17  C   UNK d   0     -21.888  -5.610   9.344  0.00  0.00     0.062 C 
ATOM     18  C   UNK d   0     -24.176  -5.782   8.559  0.00  0.00    -0.013 A 
ATOM     19  C   UNK d   0     -20.625  -6.140   9.270  0.00  0.00     0.067 A 
ATOM     20  N   UNK d   0     -20.123  -6.339   8.049  0.00  0.00    -0.248 NA
ATOM     21  C   UNK d   0     -19.622  -6.587  10.223  0.00  0.00    -0.011 A 
ATOM     22  C   UNK d   0     -18.866  -6.884   8.133  0.00  0.00     0.066 A 
ATOM     23  C   UNK d   0     -18.210  -7.108   6.932  0.00  0.00     0.062 C 
ATOM     24  C   UNK d   0     -18.597  -7.025   9.551  0.00  0.00    -0.020 A 
ATOM     25  C   UNK d   0     -18.636  -6.762   5.640  0.00  0.00     0.041 A 
ATOM     26  N   UNK d   0     -19.842  -6.811   5.061  0.00  0.00    -0.355 N 
ATOM     27  C   UNK d   0     -17.687  -6.245   4.732  0.00  0.00    -0.022 A 
ATOM     28  C   UNK d   0     -19.695  -6.337   3.813  0.00  0.00     0.042 A 
ATOM     29  H   UNK d   0     -20.784  -7.200   5.519  0.00  0.00     0.166 HD
ATOM     30  C   UNK d   0     -20.625  -6.160   2.778  0.00  0.00     0.062 C 
ATOM     31  C   UNK d   0     -18.348  -5.973   3.574  0.00  0.00    -0.013 A 
ATOM     32  C   UNK d   0     -21.931  -5.704   2.870  0.00  0.00     0.066 A 
BRANCH   8  33
ATOM     33  C   UNK d   0     -25.321  -4.561   2.025  0.00  0.00     0.151 C 
BRANCH  33  34
ATOM     34  C   UNK d   0     -25.507  -3.099   2.056  0.00  0.00     0.143 C 
ATOM     35  O   UNK d   0     -26.294  -2.574   2.857  0.00  0.00    -0.650 OA
BRANCH  34  36
ATOM     36  O   UNK d   0     -24.797  -2.309   1.183  0.00  0.00    -0.776 OA
ATOM     37  H   UNK d   0     -24.009  -1.730   1.505  0.00  0.00     0.167 HD
ENDBRANCH  34  36
ENDBRANCH  33  34
ENDBRANCH   8  33
BRANCH  31  38
ATOM     38  C   UNK d   0     -17.744  -5.390   2.318  0.00  0.00     0.151 C 
BRANCH  38  39
ATOM     39  C   UNK d   0     -17.277  -6.404   1.396  0.00  0.00     0.143 C 
ATOM     40  O   UNK d   0     -16.542  -6.136   0.429  0.00  0.00    -0.650 OA
BRANCH  39  41
ATOM     41  O   UNK d   0     -17.656  -7.732   1.588  0.00  0.00    -0.776 OA
ATOM     42  H   UNK d   0     -18.230  -8.159   0.853  0.00  0.00     0.167 HD
ENDBRANCH  39  41
ENDBRANCH  38  39
ENDBRANCH  31  38
BRANCH  27  43
ATOM     43  C   UNK d   0     -16.210  -6.009   4.921  0.00  0.00     0.052 C 
BRANCH  43  44
ATOM     44  C   UNK d   0     -15.358  -7.072   4.307  0.00  0.00     0.115 C 
BRANCH  44  45
ATOM     45  C   UNK d   0     -14.310  -6.374   3.518  0.00  0.00     0.139 C 
ATOM     46  O   UNK d   0     -13.679  -5.438   4.069  0.00  0.00    -0.650 OA
BRANCH  45  47
ATOM     47  O   UNK d   0     -14.002  -6.714   2.219  0.00  0.00    -0.776 OA
ATOM     48  H   UNK d   0     -13.590  -7.625   1.960  0.00  0.00     0.167 HD
ENDBRANCH  45  47
ENDBRANCH  44  45
ENDBRANCH  43  44
ENDBRANCH  27  43
BRANCH  24  49
ATOM     49  C   UNK d   0     -17.339  -7.537  10.121  0.00  0.00     0.052 C 
BRANCH  49  50
ATOM     50  C   UNK d   0     -17.250  -9.031   9.939  0.00  0.00     0.115 C 
BRANCH  50  51
ATOM     51  C   UNK d   0     -16.481  -9.776  10.926  0.00  0.00     0.139 C 
ATOM     52  O   UNK d   0     -16.866 -10.873  11.395  0.00  0.00    -0.650 OA
BRANCH  51  53
ATOM     53  O   UNK d   0     -15.274  -9.269  11.382  0.00  0.00    -0.776 OA
ATOM     54  H   UNK d   0     -14.738  -8.688  10.761  0.00  0.00     0.167 HD
ENDBRANCH  51  53
ENDBRANCH  50  51
ENDBRANCH  49  50
ENDBRANCH  24  49
BRANCH  21  55
ATOM     55  C   UNK d   0     -19.792  -6.526  11.704  0.00  0.00     0.151 C 
BRANCH  55  56
ATOM     56  C   UNK d   0     -20.817  -5.549  12.102  0.00  0.00     0.143 C 
ATOM     57  O   UNK d   0     -21.961  -5.883  12.468  0.00  0.00    -0.650 OA
BRANCH  56  58
ATOM     58  O   UNK d   0     -20.477  -4.198  12.062  0.00  0.00    -0.776 OA
ATOM     59  H   UNK d   0     -19.545  -3.995  11.659  0.00  0.00     0.167 HD
ENDBRANCH  56  58
ENDBRANCH  55  56
ENDBRANCH  21  55
BRANCH  18  60
ATOM     60  C   UNK d   0     -24.808  -6.362   9.800  0.00  0.00     0.151 C 
BRANCH  60  61
ATOM     61  C   UNK d   0     -24.949  -5.242  10.743  0.00  0.00     0.143 C 
ATOM     62  O   UNK d   0     -25.265  -4.082  10.475  0.00  0.00    -0.650 OA
BRANCH  61  63
ATOM     63  O   UNK d   0     -24.687  -5.558  12.098  0.00  0.00    -0.776 OA
ATOM     64  H   UNK d   0     -25.422  -5.551  12.783  0.00  0.00     0.167 HD
ENDBRANCH  61  63
ENDBRANCH  60  61
ENDBRANCH  18  60
BRANCH  14  65
ATOM     65  C   UNK d   0     -26.339  -5.632   7.284  0.00  0.00     0.052 C 
BRANCH  65  66
ATOM     66  C   UNK d   0     -27.065  -4.363   7.559  0.00  0.00     0.115 C 
BRANCH  66  67
ATOM     67  C   UNK d   0     -27.598  -3.597   6.467  0.00  0.00     0.139 C 
ATOM     68  O   UNK d   0     -28.800  -3.835   6.080  0.00  0.00    -0.650 OA
BRANCH  67  69
ATOM     69  O   UNK d   0     -26.962  -2.591   5.741  0.00  0.00    -0.776 OA
ATOM     70  H   UNK d   0     -26.423  -2.903   4.921  0.00  0.00     0.167 HD
ENDBRANCH  67  69
ENDBRANCH  66  67
ENDBRANCH  65  66
ENDBRANCH  14  65
ENDBRANCH   6   7
ENDBRANCH   5   6
ENDBRANCH   2   5
TORSDOF 28
ENDMDL
MODEL 18
REMARK VINA RESULT:      -8.6      4.867     11.755
REMARK  28 active torsions:
REMARK  status: ('A' for Active; 'I' for Inactive)
REMARK    1  A    between atoms: C_2  and  O_3 
REMARK    2  A    between atoms: C_2  and  C_4 
REMARK    3  A    between atoms: C_4  and  C_5 
REMARK    4  A    between atoms: C_5  and  C_6 
REMARK    5  A    between atoms: C_7  and  C_8 
REMARK    6  A    between atoms: C_8  and  C_9 
REMARK    7  A    between atoms: C_9  and  O_11 
REMARK    8  A    between atoms: C_28  and  C_29 
REMARK    9  A    between atoms: C_29  and  C_30 
REMARK   10  A    between atoms: C_30  and  O_32 
REMARK   11  A    between atoms: C_33  and  C_34 
REMARK   12  A    between atoms: C_34  and  C_35 
REMARK   13  A    between atoms: C_35  and  C_36 
REMARK   14  A    between atoms: C_36  and  O_38 
REMARK   15  A    between atoms: C_39  and  C_40 
REMARK   16  A    between atoms: C_40  and  C_41 
REMARK   17  A    between atoms: C_41  and  C_42 
REMARK   18  A    between atoms: C_42  and  O_44 
REMARK   19  A    between atoms: C_45  and  C_46 
REMARK   20  A    between atoms: C_46  and  C_47 
REMARK   21  A    between atoms: C_47  and  O_49 
REMARK   22  A    between atoms: C_50  and  C_51 
REMARK   23  A    between atoms: C_51  and  C_52 
REMARK   24  A    between atoms: C_52  and  O_54 
REMARK   25  A    between atoms: C_55  and  C_56 
REMARK   26  A    between atoms: C_56  and  C_57 
REMARK   27  A    between atoms: C_57  and  C_58 
REMARK   28  A    between atoms: C_58  and  O_60 
ROOT
ATOM      1  O   UNK d   0     -26.914  -6.924   0.710  0.00  0.00    -0.650 OA
ATOM      2  C   UNK d   0     -25.992  -6.622  -0.079  0.00  0.00     0.139 C 
ENDROOT
BRANCH   2   3
ATOM      3  O   UNK d   0     -25.086  -7.584  -0.456  0.00  0.00    -0.776 OA
ATOM      4  H   UNK d   0     -24.103  -7.518  -0.183  0.00  0.00     0.167 HD
ENDBRANCH   2   3
BRANCH   2   5
ATOM      5  C   UNK d   0     -25.880  -5.231  -0.603  0.00  0.00     0.115 C 
BRANCH   5   6
ATOM      6  C   UNK d   0     -24.660  -4.560  -0.034  0.00  0.00     0.052 C 
BRANCH   6   7
ATOM      7  C   UNK d   0     -24.910  -3.956   1.327  0.00  0.00    -0.020 A 
ATOM      8  C   UNK d   0     -25.646  -2.913   1.615  0.00  0.00    -0.011 A 
ATOM      9  C   UNK d   0     -25.579  -2.704   3.051  0.00  0.00     0.067 A 
ATOM     10  C   UNK d   0     -26.137  -1.801   3.970  0.00  0.00     0.062 C 
ATOM     11  N   UNK d   0     -24.775  -3.662   3.559  0.00  0.00    -0.248 NA
ATOM     12  C   UNK d   0     -26.177  -1.927   5.363  0.00  0.00     0.041 A 
ATOM     13  N   UNK d   0     -25.243  -2.332   6.244  0.00  0.00    -0.355 N 
ATOM     14  C   UNK d   0     -27.382  -1.654   6.036  0.00  0.00    -0.022 A 
ATOM     15  C   UNK d   0     -25.826  -2.330   7.458  0.00  0.00     0.042 A 
ATOM     16  H   UNK d   0     -24.187  -2.594   6.015  0.00  0.00     0.166 HD
ATOM     17  C   UNK d   0     -25.303  -2.665   8.723  0.00  0.00     0.062 C 
ATOM     18  C   UNK d   0     -27.168  -1.911   7.367  0.00  0.00    -0.013 A 
ATOM     19  C   UNK d   0     -24.525  -3.737   9.078  0.00  0.00     0.067 A 
ATOM     20  N   UNK d   0     -24.016  -4.471   8.085  0.00  0.00    -0.248 NA
ATOM     21  C   UNK d   0     -24.084  -4.341  10.324  0.00  0.00    -0.011 A 
ATOM     22  C   UNK d   0     -23.277  -5.511   8.591  0.00  0.00     0.066 A 
ATOM     23  C   UNK d   0     -22.657  -6.335   7.664  0.00  0.00     0.062 C 
ATOM     24  C   UNK d   0     -23.358  -5.381  10.033  0.00  0.00    -0.020 A 
ATOM     25  C   UNK d   0     -22.617  -6.185   6.269  0.00  0.00     0.041 A 
ATOM     26  N   UNK d   0     -23.551  -5.797   5.391  0.00  0.00    -0.355 N 
ATOM     27  C   UNK d   0     -21.407  -6.454   5.595  0.00  0.00    -0.022 A 
ATOM     28  C   UNK d   0     -22.974  -5.806   4.179  0.00  0.00     0.042 A 
ATOM     29  H   UNK d   0     -24.615  -5.543   5.621  0.00  0.00     0.166 HD
ATOM     30  C   UNK d   0     -23.485  -5.484   2.912  0.00  0.00     0.062 C 
ATOM     31  C   UNK d   0     -21.623  -6.216   4.272  0.00  0.00    -0.013 A 
ATOM     32  C   UNK d   0     -24.341  -4.448   2.573  0.00  0.00     0.066 A 
BRANCH   8  33
ATOM     33  C   UNK d   0     -26.410  -2.081   0.667  0.00  0.00     0.151 C 
BRANCH  33  34
ATOM     34  C   UNK d   0     -25.651  -0.907   0.198  0.00  0.00     0.143 C 
ATOM     35  O   UNK d   0     -25.039  -0.935  -0.880  0.00  0.00    -0.650 OA
BRANCH  34  36
ATOM     36  O   UNK d   0     -25.622   0.231   0.969  0.00  0.00    -0.776 OA
ATOM     37  H   UNK d   0     -25.879   1.148   0.578  0.00  0.00     0.167 HD
ENDBRANCH  34  36
ENDBRANCH  33  34
ENDBRANCH   8  33
BRANCH  31  38
ATOM     38  C   UNK d   0     -20.607  -6.357   3.163  0.00  0.00     0.151 C 
BRANCH  38  39
ATOM     39  C   UNK d   0     -19.775  -5.182   3.011  0.00  0.00     0.143 C 
ATOM     40  O   UNK d   0     -18.624  -5.237   2.544  0.00  0.00    -0.650 OA
BRANCH  39  41
ATOM     41  O   UNK d   0     -20.269  -3.937   3.398  0.00  0.00    -0.776 OA
ATOM     42  H   UNK d   0     -21.080  -3.937   4.025  0.00  0.00     0.167 HD
ENDBRANCH  39  41
ENDBRANCH  38  39
ENDBRANCH  31  38
BRANCH  27  43
ATOM     43  C   UNK d   0     -20.084  -6.921   6.150  0.00  0.00     0.052 C 
BRANCH  43  44
ATOM     44  C   UNK d   0     -19.040  -5.852   6.166  0.00  0.00     0.115 C 
BRANCH  44  45
ATOM     45  C   UNK d   0     -17.747  -6.516   5.859  0.00  0.00     0.139 C 
ATOM     46  O   UNK d   0     -16.866  -6.540   6.754  0.00  0.00    -0.650 OA
BRANCH  45  47
ATOM     47  O   UNK d   0     -17.481  -7.108   4.643  0.00  0.00    -0.776 OA
ATOM     48  H   UNK d   0     -17.617  -8.117   4.469  0.00  0.00     0.167 HD
ENDBRANCH  45  47
ENDBRANCH  44  45
ENDBRANCH  43  44
ENDBRANCH  27  43
BRANCH  24  49
ATOM     49  C   UNK d   0     -22.678  -6.264  10.996  0.00  0.00     0.052 C 
BRANCH  49  50
ATOM     50  C   UNK d   0     -23.229  -7.664  10.904  0.00  0.00     0.115 C 
BRANCH  50  51
ATOM     51  C   UNK d   0     -24.290  -8.024  11.834  0.00  0.00     0.139 C 
ATOM     52  O   UNK d   0     -25.342  -7.351  11.953  0.00  0.00    -0.650 OA
BRANCH  51  53
ATOM     53  O   UNK d   0     -24.152  -9.151  12.630  0.00  0.00    -0.776 OA
ATOM     54  H   UNK d   0     -23.829  -9.029  13.573  0.00  0.00     0.167 HD
ENDBRANCH  51  53
ENDBRANCH  50  51
ENDBRANCH  49  50
ENDBRANCH  24  49
BRANCH  21  55
ATOM     55  C   UNK d   0     -24.432  -3.813  11.677  0.00  0.00     0.151 C 
BRANCH  55  56
ATOM     56  C   UNK d   0     -25.886  -3.694  11.865  0.00  0.00     0.143 C 
ATOM     57  O   UNK d   0     -26.432  -2.643  12.256  0.00  0.00    -0.650 OA
BRANCH  56  58
ATOM     58  O   UNK d   0     -26.670  -4.813  11.590  0.00  0.00    -0.776 OA
ATOM     59  H   UNK d   0     -26.258  -5.717  11.883  0.00  0.00     0.167 HD
ENDBRANCH  56  58
ENDBRANCH  55  56
ENDBRANCH  21  55
BRANCH  18  60
ATOM     60  C   UNK d   0     -28.202  -1.759   8.455  0.00  0.00     0.151 C 
BRANCH  60  61
ATOM     61  C   UNK d   0     -28.530  -3.124   8.895  0.00  0.00     0.143 C 
ATOM     62  O   UNK d   0     -28.538  -4.144   8.205  0.00  0.00    -0.650 OA
BRANCH  61  63
ATOM     63  O   UNK d   0     -28.867  -3.251  10.264  0.00  0.00    -0.776 OA
ATOM     64  H   UNK d   0     -28.502  -4.004  10.820  0.00  0.00     0.167 HD
ENDBRANCH  61  63
ENDBRANCH  60  61
ENDBRANCH  18  60
BRANCH  14  65
ATOM     65  C   UNK d   0     -28.677  -1.081   5.536  0.00  0.00     0.052 C 
BRANCH  65  66
ATOM     66  C   UNK d   0     -28.568   0.351   5.147  0.00  0.00     0.115 C 
BRANCH  66  67
ATOM     67  C   UNK d   0     -28.612   1.369   6.159  0.00  0.00     0.139 C 
ATOM     68  O   UNK d   0     -29.497   1.274   7.087  0.00  0.00    -0.650 OA
BRANCH  67  69
ATOM     69  O   UNK d   0     -27.793   2.491   6.277  0.00  0.00    -0.776 OA
ATOM     70  H   UNK d   0     -28.006   3.121   7.064  0.00  0.00     0.167 HD
ENDBRANCH  67  69
ENDBRANCH  66  67
ENDBRANCH  65  66
ENDBRANCH  14  65
ENDBRANCH   6   7
ENDBRANCH   5   6
ENDBRANCH   2   5
TORSDOF 28
ENDMDL
MODEL 19
REMARK VINA RESULT:      -8.5      5.272      9.136
REMARK  28 active torsions:
REMARK  status: ('A' for Active; 'I' for Inactive)
REMARK    1  A    between atoms: C_2  and  O_3 
REMARK    2  A    between atoms: C_2  and  C_4 
REMARK    3  A    between atoms: C_4  and  C_5 
REMARK    4  A    between atoms: C_5  and  C_6 
REMARK    5  A    between atoms: C_7  and  C_8 
REMARK    6  A    between atoms: C_8  and  C_9 
REMARK    7  A    between atoms: C_9  and  O_11 
REMARK    8  A    between atoms: C_28  and  C_29 
REMARK    9  A    between atoms: C_29  and  C_30 
REMARK   10  A    between atoms: C_30  and  O_32 
REMARK   11  A    between atoms: C_33  and  C_34 
REMARK   12  A    between atoms: C_34  and  C_35 
REMARK   13  A    between atoms: C_35  and  C_36 
REMARK   14  A    between atoms: C_36  and  O_38 
REMARK   15  A    between atoms: C_39  and  C_40 
REMARK   16  A    between atoms: C_40  and  C_41 
REMARK   17  A    between atoms: C_41  and  C_42 
REMARK   18  A    between atoms: C_42  and  O_44 
REMARK   19  A    between atoms: C_45  and  C_46 
REMARK   20  A    between atoms: C_46  and  C_47 
REMARK   21  A    between atoms: C_47  and  O_49 
REMARK   22  A    between atoms: C_50  and  C_51 
REMARK   23  A    between atoms: C_51  and  C_52 
REMARK   24  A    between atoms: C_52  and  O_54 
REMARK   25  A    between atoms: C_55  and  C_56 
REMARK   26  A    between atoms: C_56  and  C_57 
REMARK   27  A    between atoms: C_57  and  C_58 
REMARK   28  A    between atoms: C_58  and  O_60 
ROOT
ATOM      1  O   UNK d   0     -28.755   2.361   8.502  0.00  0.00    -0.650 OA
ATOM      2  C   UNK d   0     -29.672   1.542   8.273  0.00  0.00     0.139 C 
ENDROOT
BRANCH   2   3
ATOM      3  O   UNK d   0     -30.186   1.444   7.002  0.00  0.00    -0.776 OA
ATOM      4  H   UNK d   0     -29.868   2.066   6.255  0.00  0.00     0.167 HD
ENDBRANCH   2   3
BRANCH   2   5
ATOM      5  C   UNK d   0     -30.201   0.684   9.371  0.00  0.00     0.115 C 
BRANCH   5   6
ATOM      6  C   UNK d   0     -30.350  -0.735   8.892  0.00  0.00     0.052 C 
BRANCH   6   7
ATOM      7  C   UNK d   0     -29.039  -1.484   8.876  0.00  0.00    -0.020 A 
ATOM      8  C   UNK d   0     -28.369  -1.943   9.902  0.00  0.00    -0.011 A 
ATOM      9  C   UNK d   0     -27.166  -2.583   9.397  0.00  0.00     0.067 A 
ATOM     10  C   UNK d   0     -26.074  -3.268   9.953  0.00  0.00     0.062 C 
ATOM     11  N   UNK d   0     -27.182  -2.462   8.053  0.00  0.00    -0.248 NA
ATOM     12  C   UNK d   0     -25.141  -4.064   9.279  0.00  0.00     0.041 A 
ATOM     13  N   UNK d   0     -24.501  -3.881   8.108  0.00  0.00    -0.355 N 
ATOM     14  C   UNK d   0     -24.794  -5.313   9.823  0.00  0.00    -0.022 A 
ATOM     15  C   UNK d   0     -23.764  -4.986   7.891  0.00  0.00     0.042 A 
ATOM     16  H   UNK d   0     -24.555  -2.981   7.457  0.00  0.00     0.166 HD
ATOM     17  C   UNK d   0     -22.907  -5.318   6.823  0.00  0.00     0.062 C 
ATOM     18  C   UNK d   0     -23.921  -5.907   8.945  0.00  0.00    -0.013 A 
ATOM     19  C   UNK d   0     -23.112  -5.169   5.475  0.00  0.00     0.067 A 
ATOM     20  N   UNK d   0     -24.166  -4.439   5.101  0.00  0.00    -0.248 NA
ATOM     21  C   UNK d   0     -22.459  -5.631   4.261  0.00  0.00    -0.011 A 
ATOM     22  C   UNK d   0     -24.251  -4.392   3.731  0.00  0.00     0.066 A 
ATOM     23  C   UNK d   0     -25.284  -3.632   3.203  0.00  0.00     0.062 C 
ATOM     24  C   UNK d   0     -23.133  -5.176   3.244  0.00  0.00    -0.020 A 
ATOM     25  C   UNK d   0     -26.203  -2.829   3.897  0.00  0.00     0.041 A 
ATOM     26  N   UNK d   0     -26.850  -3.017   5.053  0.00  0.00    -0.355 N 
ATOM     27  C   UNK d   0     -26.548  -1.573   3.352  0.00  0.00    -0.022 A 
ATOM     28  C   UNK d   0     -27.594  -1.920   5.267  0.00  0.00     0.042 A 
ATOM     29  H   UNK d   0     -26.803  -3.927   5.701  0.00  0.00     0.166 HD
ATOM     30  C   UNK d   0     -28.457  -1.581   6.321  0.00  0.00     0.062 C 
ATOM     31  C   UNK d   0     -27.427  -0.991   4.213  0.00  0.00    -0.013 A 
ATOM     32  C   UNK d   0     -28.283  -1.811   7.676  0.00  0.00     0.066 A 
BRANCH   8  33
ATOM     33  C   UNK d   0     -28.745  -1.836  11.324  0.00  0.00     0.151 C 
BRANCH  33  34
ATOM     34  C   UNK d   0     -29.117  -3.134  11.915  0.00  0.00     0.143 C 
ATOM     35  O   UNK d   0     -28.433  -3.643  12.815  0.00  0.00    -0.650 OA
BRANCH  34  36
ATOM     36  O   UNK d   0     -30.237  -3.788  11.457  0.00  0.00    -0.776 OA
ATOM     37  H   UNK d   0     -31.127  -3.290  11.317  0.00  0.00     0.167 HD
ENDBRANCH  34  36
ENDBRANCH  33  34
ENDBRANCH   8  33
BRANCH  31  38
ATOM     38  C   UNK d   0     -28.061   0.372   4.054  0.00  0.00     0.151 C 
BRANCH  38  39
ATOM     39  C   UNK d   0     -27.259   1.434   4.622  0.00  0.00     0.143 C 
ATOM     40  O   UNK d   0     -26.090   1.653   4.257  0.00  0.00    -0.650 OA
BRANCH  39  41
ATOM     41  O   UNK d   0     -27.803   2.250   5.613  0.00  0.00    -0.776 OA
ATOM     42  H   UNK d   0     -28.825   2.263   5.691  0.00  0.00     0.167 HD
ENDBRANCH  39  41
ENDBRANCH  38  39
ENDBRANCH  31  38
BRANCH  27  43
ATOM     43  C   UNK d   0     -26.084  -0.923   2.072  0.00  0.00     0.052 C 
BRANCH  43  44
ATOM     44  C   UNK d   0     -26.694  -1.527   0.849  0.00  0.00     0.115 C 
BRANCH  44  45
ATOM     45  C   UNK d   0     -27.327  -0.413   0.096  0.00  0.00     0.139 C 
ATOM     46  O   UNK d   0     -27.866  -0.675  -1.007  0.00  0.00    -0.650 OA
BRANCH  45  47
ATOM     47  O   UNK d   0     -27.350   0.885   0.561  0.00  0.00    -0.776 OA
ATOM     48  H   UNK d   0     -27.936   1.185   1.357  0.00  0.00     0.167 HD
ENDBRANCH  45  47
ENDBRANCH  44  45
ENDBRANCH  43  44
ENDBRANCH  27  43
BRANCH  24  49
ATOM     49  C   UNK d   0     -22.799  -5.374   1.823  0.00  0.00     0.052 C 
BRANCH  49  50
ATOM     50  C   UNK d   0     -23.632  -4.463   0.958  0.00  0.00     0.115 C 
BRANCH  50  51
ATOM     51  C   UNK d   0     -22.922  -3.472   0.161  0.00  0.00     0.139 C 
ATOM     52  O   UNK d   0     -22.120  -3.785  -0.751  0.00  0.00    -0.650 OA
BRANCH  51  53
ATOM     53  O   UNK d   0     -23.124  -2.122   0.404  0.00  0.00    -0.776 OA
ATOM     54  H   UNK d   0     -22.630  -1.457  -0.165  0.00  0.00     0.167 HD
ENDBRANCH  51  53
ENDBRANCH  50  51
ENDBRANCH  49  50
ENDBRANCH  24  49
BRANCH  21  55
ATOM     55  C   UNK d   0     -21.228  -6.474   4.245  0.00  0.00     0.151 C 
BRANCH  55  56
ATOM     56  C   UNK d   0     -20.002  -5.661   4.225  0.00  0.00     0.143 C 
ATOM     57  O   UNK d   0     -19.725  -4.882   3.292  0.00  0.00    -0.650 OA
BRANCH  56  58
ATOM     58  O   UNK d   0     -19.127  -5.780   5.303  0.00  0.00    -0.776 OA
ATOM     59  H   UNK d   0     -18.213  -6.213   5.078  0.00  0.00     0.167 HD
ENDBRANCH  56  58
ENDBRANCH  55  56
ENDBRANCH  21  55
BRANCH  18  60
ATOM     60  C   UNK d   0     -23.300  -7.269   9.132  0.00  0.00     0.151 C 
BRANCH  60  61
ATOM     61  C   UNK d   0     -24.324  -8.240   8.717  0.00  0.00     0.143 C 
ATOM     62  O   UNK d   0     -24.785  -8.395   7.585  0.00  0.00    -0.650 OA
BRANCH  61  63
ATOM     63  O   UNK d   0     -24.816  -9.075   9.749  0.00  0.00    -0.776 OA
ATOM     64  H   UNK d   0     -25.240  -8.687  10.572  0.00  0.00     0.167 HD
ENDBRANCH  61  63
ENDBRANCH  60  61
ENDBRANCH  18  60
BRANCH  14  65
ATOM     65  C   UNK d   0     -25.143  -5.940  11.143  0.00  0.00     0.052 C 
BRANCH  65  66
ATOM     66  C   UNK d   0     -24.016  -5.919  12.114  0.00  0.00     0.115 C 
BRANCH  66  67
ATOM     67  C   UNK d   0     -23.329  -4.687  12.381  0.00  0.00     0.139 C 
ATOM     68  O   UNK d   0     -24.002  -3.701  12.859  0.00  0.00    -0.650 OA
BRANCH  67  69
ATOM     69  O   UNK d   0     -21.979  -4.402  12.183  0.00  0.00    -0.776 OA
ATOM     70  H   UNK d   0     -21.613  -3.586  12.694  0.00  0.00     0.167 HD
ENDBRANCH  67  69
ENDBRANCH  66  67
ENDBRANCH  65  66
ENDBRANCH  14  65
ENDBRANCH   6   7
ENDBRANCH   5   6
ENDBRANCH   2   5
TORSDOF 28
ENDMDL
MODEL 20
REMARK VINA RESULT:      -8.5      2.005      7.882
REMARK  28 active torsions:
REMARK  status: ('A' for Active; 'I' for Inactive)
REMARK    1  A    between atoms: C_2  and  O_3 
REMARK    2  A    between atoms: C_2  and  C_4 
REMARK    3  A    between atoms: C_4  and  C_5 
REMARK    4  A    between atoms: C_5  and  C_6 
REMARK    5  A    between atoms: C_7  and  C_8 
REMARK    6  A    between atoms: C_8  and  C_9 
REMARK    7  A    between atoms: C_9  and  O_11 
REMARK    8  A    between atoms: C_28  and  C_29 
REMARK    9  A    between atoms: C_29  and  C_30 
REMARK   10  A    between atoms: C_30  and  O_32 
REMARK   11  A    between atoms: C_33  and  C_34 
REMARK   12  A    between atoms: C_34  and  C_35 
REMARK   13  A    between atoms: C_35  and  C_36 
REMARK   14  A    between atoms: C_36  and  O_38 
REMARK   15  A    between atoms: C_39  and  C_40 
REMARK   16  A    between atoms: C_40  and  C_41 
REMARK   17  A    between atoms: C_41  and  C_42 
REMARK   18  A    between atoms: C_42  and  O_44 
REMARK   19  A    between atoms: C_45  and  C_46 
REMARK   20  A    between atoms: C_46  and  C_47 
REMARK   21  A    between atoms: C_47  and  O_49 
REMARK   22  A    between atoms: C_50  and  C_51 
REMARK   23  A    between atoms: C_51  and  C_52 
REMARK   24  A    between atoms: C_52  and  O_54 
REMARK   25  A    between atoms: C_55  and  C_56 
REMARK   26  A    between atoms: C_56  and  C_57 
REMARK   27  A    between atoms: C_57  and  C_58 
REMARK   28  A    between atoms: C_58  and  O_60 
ROOT
ATOM      1  O   UNK d   0     -27.057  -1.426   0.400  0.00  0.00    -0.650 OA
ATOM      2  C   UNK d   0     -25.985  -1.344   1.039  0.00  0.00     0.139 C 
ENDROOT
BRANCH   2   3
ATOM      3  O   UNK d   0     -25.006  -0.483   0.605  0.00  0.00    -0.776 OA
ATOM      4  H   UNK d   0     -24.506  -0.650  -0.271  0.00  0.00     0.167 HD
ENDBRANCH   2   3
BRANCH   2   5
ATOM      5  C   UNK d   0     -25.775  -2.176   2.258  0.00  0.00     0.115 C 
BRANCH   5   6
ATOM      6  C   UNK d   0     -25.954  -3.633   1.927  0.00  0.00     0.052 C 
BRANCH   6   7
ATOM      7  C   UNK d   0     -24.728  -4.239   1.287  0.00  0.00    -0.020 A 
ATOM      8  C   UNK d   0     -24.514  -4.448   0.013  0.00  0.00    -0.011 A 
ATOM      9  C   UNK d   0     -23.202  -5.057  -0.124  0.00  0.00     0.067 A 
ATOM     10  C   UNK d   0     -22.394  -5.496  -1.185  0.00  0.00     0.062 C 
ATOM     11  N   UNK d   0     -22.689  -5.188   1.118  0.00  0.00    -0.248 NA
ATOM     12  C   UNK d   0     -21.030  -5.805  -1.140  0.00  0.00     0.041 A 
ATOM     13  N   UNK d   0     -20.306  -6.487  -0.234  0.00  0.00    -0.355 N 
ATOM     14  C   UNK d   0     -20.187  -5.309  -2.151  0.00  0.00    -0.022 A 
ATOM     15  C   UNK d   0     -19.023  -6.432  -0.640  0.00  0.00     0.042 A 
ATOM     16  H   UNK d   0     -20.695  -7.015   0.665  0.00  0.00     0.166 HD
ATOM     17  C   UNK d   0     -17.858  -6.977  -0.064  0.00  0.00     0.062 C 
ATOM     18  C   UNK d   0     -18.909  -5.701  -1.838  0.00  0.00    -0.013 A 
ATOM     19  C   UNK d   0     -17.462  -6.972   1.249  0.00  0.00     0.067 A 
ATOM     20  N   UNK d   0     -18.365  -6.582   2.152  0.00  0.00    -0.248 NA
ATOM     21  C   UNK d   0     -16.241  -7.284   1.973  0.00  0.00    -0.011 A 
ATOM     22  C   UNK d   0     -17.823  -6.614   3.414  0.00  0.00     0.066 A 
ATOM     23  C   UNK d   0     -18.668  -6.267   4.457  0.00  0.00     0.062 C 
ATOM     24  C   UNK d   0     -16.457  -7.069   3.239  0.00  0.00    -0.020 A 
ATOM     25  C   UNK d   0     -20.039  -5.972   4.392  0.00  0.00     0.041 A 
ATOM     26  N   UNK d   0     -20.757  -5.281   3.500  0.00  0.00    -0.355 N 
ATOM     27  C   UNK d   0     -20.885  -6.473   5.405  0.00  0.00    -0.022 A 
ATOM     28  C   UNK d   0     -22.035  -5.327   3.907  0.00  0.00     0.042 A 
ATOM     29  H   UNK d   0     -20.362  -4.742   2.603  0.00  0.00     0.166 HD
ATOM     30  C   UNK d   0     -23.202  -4.782   3.349  0.00  0.00     0.062 C 
ATOM     31  C   UNK d   0     -22.150  -6.070   5.105  0.00  0.00    -0.013 A 
ATOM     32  C   UNK d   0     -23.559  -4.713   2.011  0.00  0.00     0.066 A 
BRANCH   8  33
ATOM     33  C   UNK d   0     -25.429  -4.136  -1.101  0.00  0.00     0.151 C 
BRANCH  33  34
ATOM     34  C   UNK d   0     -26.167  -5.317  -1.582  0.00  0.00     0.143 C 
ATOM     35  O   UNK d   0     -26.370  -6.287  -0.838  0.00  0.00    -0.650 OA
BRANCH  34  36
ATOM     36  O   UNK d   0     -26.635  -5.342  -2.875  0.00  0.00    -0.776 OA
ATOM     37  H   UNK d   0     -26.303  -6.044  -3.550  0.00  0.00     0.167 HD
ENDBRANCH  34  36
ENDBRANCH  33  34
ENDBRANCH   8  33
BRANCH  31  38
ATOM     38  C   UNK d   0     -23.397  -6.382   5.900  0.00  0.00     0.151 C 
BRANCH  38  39
ATOM     39  C   UNK d   0     -23.815  -5.283   6.744  0.00  0.00     0.143 C 
ATOM     40  O   UNK d   0     -25.008  -4.960   6.873  0.00  0.00    -0.650 OA
BRANCH  39  41
ATOM     41  O   UNK d   0     -22.855  -4.552   7.443  0.00  0.00    -0.776 OA
ATOM     42  H   UNK d   0     -23.195  -3.775   8.019  0.00  0.00     0.167 HD
ENDBRANCH  39  41
ENDBRANCH  38  39
ENDBRANCH  31  38
BRANCH  27  43
ATOM     43  C   UNK d   0     -20.542  -7.299   6.620  0.00  0.00     0.052 C 
BRANCH  43  44
ATOM     44  C   UNK d   0     -19.946  -6.497   7.731  0.00  0.00     0.115 C 
BRANCH  44  45
ATOM     45  C   UNK d   0     -18.533  -6.940   7.863  0.00  0.00     0.139 C 
ATOM     46  O   UNK d   0     -18.245  -8.111   7.516  0.00  0.00    -0.650 OA
BRANCH  45  47
ATOM     47  O   UNK d   0     -17.535  -6.120   8.343  0.00  0.00    -0.776 OA
ATOM     48  H   UNK d   0     -16.721  -5.836   7.775  0.00  0.00     0.167 HD
ENDBRANCH  45  47
ENDBRANCH  44  45
ENDBRANCH  43  44
ENDBRANCH  27  43
BRANCH  24  49
ATOM     49  C   UNK d   0     -15.499  -7.293   4.334  0.00  0.00     0.052 C 
BRANCH  49  50
ATOM     50  C   UNK d   0     -14.681  -6.051   4.579  0.00  0.00     0.115 C 
BRANCH  50  51
ATOM     51  C   UNK d   0     -15.314  -4.975   5.330  0.00  0.00     0.139 C 
ATOM     52  O   UNK d   0     -15.709  -3.915   4.790  0.00  0.00    -0.650 OA
BRANCH  51  53
ATOM     53  O   UNK d   0     -15.496  -5.108   6.698  0.00  0.00    -0.776 OA
ATOM     54  H   UNK d   0     -16.413  -4.941   7.074  0.00  0.00     0.167 HD
ENDBRANCH  51  53
ENDBRANCH  50  51
ENDBRANCH  49  50
ENDBRANCH  24  49
BRANCH  21  55
ATOM     55  C   UNK d   0     -14.987  -7.769   1.325  0.00  0.00     0.151 C 
BRANCH  55  56
ATOM     56  C   UNK d   0     -14.794  -9.216   1.510  0.00  0.00     0.143 C 
ATOM     57  O   UNK d   0     -14.125  -9.693   2.448  0.00  0.00    -0.650 OA
BRANCH  56  58
ATOM     58  O   UNK d   0     -15.392 -10.073   0.588  0.00  0.00    -0.776 OA
ATOM     59  H   UNK d   0     -14.890 -10.164  -0.313  0.00  0.00     0.167 HD
ENDBRANCH  56  58
ENDBRANCH  55  56
ENDBRANCH  21  55
BRANCH  18  60
ATOM     60  C   UNK d   0     -17.681  -5.377  -2.653  0.00  0.00     0.151 C 
BRANCH  60  61
ATOM     61  C   UNK d   0     -16.697  -4.836  -1.703  0.00  0.00     0.143 C 
ATOM     62  O   UNK d   0     -15.522  -5.179  -1.577  0.00  0.00    -0.650 OA
BRANCH  61  63
ATOM     63  O   UNK d   0     -17.180  -3.810  -0.855  0.00  0.00    -0.776 OA
ATOM     64  H   UNK d   0     -18.039  -3.330  -1.059  0.00  0.00     0.167 HD
ENDBRANCH  61  63
ENDBRANCH  60  61
ENDBRANCH  18  60
BRANCH  14  65
ATOM     65  C   UNK d   0     -20.507  -4.586  -3.429  0.00  0.00     0.052 C 
BRANCH  65  66
ATOM     66  C   UNK d   0     -21.487  -5.314  -4.279  0.00  0.00     0.115 C 
BRANCH  66  67
ATOM     67  C   UNK d   0     -21.702  -4.894  -5.635  0.00  0.00     0.139 C 
ATOM     68  O   UNK d   0     -22.750  -5.317  -6.249  0.00  0.00    -0.650 OA
BRANCH  67  69
ATOM     69  O   UNK d   0     -20.897  -4.058  -6.407  0.00  0.00    -0.776 OA
ATOM     70  H   UNK d   0     -21.201  -3.918  -7.382  0.00  0.00     0.167 HD
ENDBRANCH  67  69
ENDBRANCH  66  67
ENDBRANCH  65  66
ENDBRANCH  14  65
ENDBRANCH   6   7
ENDBRANCH   5   6
ENDBRANCH   2   5
TORSDOF 28
ENDMDL
