MODEL 1
REMARK VINA RESULT:      -7.9      0.000      0.000
REMARK  16 active torsions:
REMARK  status: ('A' for Active; 'I' for Inactive)
REMARK    1  A    between atoms: C_6  and  C_7 
REMARK    2  A    between atoms: C_7  and  C_8 
REMARK    3  A    between atoms: C_8  and  C_9 
REMARK    4  A    between atoms: C_9  and  O_11 
REMARK    5  A    between atoms: C_16  and  C_17 
REMARK    6  A    between atoms: C_17  and  C_18 
REMARK    7  A    between atoms: C_18  and  C_19 
REMARK    8  A    between atoms: C_19  and  O_21 
REMARK    9  A    between atoms: C_28  and  C_29 
REMARK   10  A    between atoms: C_29  and  C_30 
REMARK   11  A    between atoms: C_30  and  C_31 
REMARK   12  A    between atoms: C_31  and  O_33 
REMARK   13  A    between atoms: C_42  and  C_43 
REMARK   14  A    between atoms: C_43  and  C_44 
REMARK   15  A    between atoms: C_44  and  C_45 
REMARK   16  A    between atoms: C_45  and  O_47 
ROOT
HETATM    1  C   UNK     0      13.264  19.164  -5.159  0.00  0.00     0.051 C 
HETATM    2  C   UNK     0      12.040  18.813  -5.980  0.00  0.00    -0.031 A 
HETATM    3  C   UNK     0      11.955  18.129  -7.182  0.00  0.00     0.021 A 
HETATM    4  N   UNK     0      10.657  18.073  -7.567  0.00  0.00    -0.361 N 
HETATM    5  C   UNK     0       9.914  18.699  -6.631  0.00  0.00     0.022 A 
HETATM    6  C   UNK     0      10.748  19.176  -5.626  0.00  0.00    -0.027 A 
HETATM    7  C   UNK     0       8.426  18.836  -6.532  0.00  0.00     0.115 C 
HETATM    8  C   UNK     0       7.605  17.600  -6.855  0.00  0.00     0.021 A 
HETATM    9  N   UNK     0       7.895  16.314  -6.601  0.00  0.00    -0.361 N 
HETATM   10  C   UNK     0       6.924  15.550  -7.146  0.00  0.00     0.022 A 
HETATM   11  C   UNK     0       5.979  16.367  -7.759  0.00  0.00    -0.027 A 
HETATM   12  C   UNK     0       6.402  17.659  -7.580  0.00  0.00    -0.031 A 
HETATM   13  C   UNK     0       5.681  18.892  -8.077  0.00  0.00     0.051 C 
HETATM   14  C   UNK     0       6.877  14.025  -7.156  0.00  0.00     0.115 C 
HETATM   15  C   UNK     0       8.049  13.377  -7.875  0.00  0.00     0.021 A 
HETATM   16  N   UNK     0       9.359  13.511  -7.596  0.00  0.00    -0.361 N 
HETATM   17  C   UNK     0      10.071  12.838  -8.503  0.00  0.00     0.022 A 
HETATM   18  C   UNK     0       9.182  12.229  -9.411  0.00  0.00    -0.027 A 
HETATM   19  C   UNK     0       7.919  12.573  -9.006  0.00  0.00    -0.031 A 
HETATM   20  C   UNK     0       6.653  12.094  -9.692  0.00  0.00     0.051 C 
HETATM   21  C   UNK     0      11.569  12.730  -8.677  0.00  0.00     0.115 C 
HETATM   22  C   UNK     0      12.402  13.938  -8.318  0.00  0.00     0.022 A 
HETATM   23  N   UNK     0      12.137  15.229  -8.555  0.00  0.00    -0.361 N 
HETATM   24  C   UNK     0      13.075  15.974  -7.936  0.00  0.00     0.021 A 
HETATM   25  C   UNK     0      13.972  15.142  -7.294  0.00  0.00    -0.031 A 
HETATM   26  C   UNK     0      15.212  15.506  -6.504  0.00  0.00     0.051 C 
HETATM   27  C   UNK     0      13.563  13.834  -7.524  0.00  0.00    -0.027 A 
HETATM   28  C   UNK     0      13.144  17.489  -7.840  0.00  0.00     0.115 C 
HETATM   29  H   UNK     0      10.280  17.627  -8.516  0.00  0.00     0.165 HD
HETATM   30  H   UNK     0       8.757  15.945  -5.994  0.00  0.00     0.165 HD
HETATM   31  H   UNK     0       9.790  14.052  -6.714  0.00  0.00     0.165 HD
HETATM   32  H   UNK     0      11.309  15.626  -9.198  0.00  0.00     0.165 HD
ENDROOT
BRANCH   6  33
HETATM   33  C   UNK     0      10.414  19.943  -4.371  0.00  0.00     0.051 C 
BRANCH  33  34
HETATM   34  C   UNK     0       9.921  19.012  -3.289  0.00  0.00     0.114 C 
BRANCH  34  35
HETATM   35  C   UNK     0       8.586  19.507  -2.848  0.00  0.00     0.139 C 
HETATM   36  O   UNK     0       8.033  20.472  -3.452  0.00  0.00    -0.650 OA
BRANCH  35  37
HETATM   37  O   UNK     0       7.896  18.949  -1.779  0.00  0.00    -0.776 OA
HETATM   38  H   UNK     0       8.096  19.199  -0.824  0.00  0.00     0.167 HD
ENDBRANCH  35  37
ENDBRANCH  34  35
ENDBRANCH  33  34
ENDBRANCH   6  33
BRANCH  27  39
HETATM   39  C   UNK     0      14.327  12.650  -7.046  0.00  0.00     0.051 C 
BRANCH  39  40
HETATM   40  C   UNK     0      13.770  11.863  -5.946  0.00  0.00     0.114 C 
BRANCH  40  41
HETATM   41  C   UNK     0      13.114  10.593  -6.161  0.00  0.00     0.139 C 
HETATM   42  O   UNK     0      13.242   9.924  -7.195  0.00  0.00    -0.650 OA
BRANCH  41  43
HETATM   43  O   UNK     0      12.272  10.068  -5.140  0.00  0.00    -0.776 OA
HETATM   44  H   UNK     0      11.746  10.768  -4.630  0.00  0.00     0.167 HD
ENDBRANCH  41  43
ENDBRANCH  40  41
ENDBRANCH  39  40
ENDBRANCH  27  39
BRANCH  11  45
HETATM   45  C   UNK     0       4.723  15.970  -8.487  0.00  0.00     0.051 C 
BRANCH  45  46
HETATM   46  C   UNK     0       4.962  15.349  -9.815  0.00  0.00     0.114 C 
BRANCH  46  47
HETATM   47  C   UNK     0       3.917  14.302 -10.007  0.00  0.00     0.139 C 
HETATM   48  O   UNK     0       3.695  13.891 -11.154  0.00  0.00    -0.650 OA
BRANCH  47  49
HETATM   49  O   UNK     0       3.216  13.805  -8.938  0.00  0.00    -0.776 OA
HETATM   50  H   UNK     0       2.231  14.042  -8.774  0.00  0.00     0.167 HD
ENDBRANCH  47  49
ENDBRANCH  46  47
ENDBRANCH  45  46
ENDBRANCH  11  45
BRANCH  18  51
HETATM   51  C   UNK     0       9.518  11.349 -10.587  0.00  0.00     0.051 C 
BRANCH  51  52
HETATM   52  C   UNK     0       9.687  12.278 -11.780  0.00  0.00     0.114 C 
BRANCH  52  53
HETATM   53  C   UNK     0       8.906  11.823 -12.946  0.00  0.00     0.139 C 
HETATM   54  O   UNK     0       7.792  12.318 -13.179  0.00  0.00    -0.650 OA
BRANCH  53  55
HETATM   55  O   UNK     0       9.417  10.848 -13.768  0.00  0.00    -0.776 OA
HETATM   56  H   UNK     0       9.103  10.633 -14.685  0.00  0.00     0.167 HD
ENDBRANCH  53  55
ENDBRANCH  52  53
ENDBRANCH  51  52
ENDBRANCH  18  51
TORSDOF 16
ENDMDL
MODEL 2
REMARK VINA RESULT:      -7.8      6.944     11.958
REMARK  16 active torsions:
REMARK  status: ('A' for Active; 'I' for Inactive)
REMARK    1  A    between atoms: C_6  and  C_7 
REMARK    2  A    between atoms: C_7  and  C_8 
REMARK    3  A    between atoms: C_8  and  C_9 
REMARK    4  A    between atoms: C_9  and  O_11 
REMARK    5  A    between atoms: C_16  and  C_17 
REMARK    6  A    between atoms: C_17  and  C_18 
REMARK    7  A    between atoms: C_18  and  C_19 
REMARK    8  A    between atoms: C_19  and  O_21 
REMARK    9  A    between atoms: C_28  and  C_29 
REMARK   10  A    between atoms: C_29  and  C_30 
REMARK   11  A    between atoms: C_30  and  C_31 
REMARK   12  A    between atoms: C_31  and  O_33 
REMARK   13  A    between atoms: C_42  and  C_43 
REMARK   14  A    between atoms: C_43  and  C_44 
REMARK   15  A    between atoms: C_44  and  C_45 
REMARK   16  A    between atoms: C_45  and  O_47 
ROOT
HETATM    1  C   UNK     0      12.660  12.387  -7.176  0.00  0.00     0.051 C 
HETATM    2  C   UNK     0      13.915  11.716  -7.698  0.00  0.00    -0.031 A 
HETATM    3  C   UNK     0      14.808  10.886  -7.038  0.00  0.00     0.021 A 
HETATM    4  N   UNK     0      15.803  10.543  -7.890  0.00  0.00    -0.361 N 
HETATM    5  C   UNK     0      15.559  11.130  -9.080  0.00  0.00     0.022 A 
HETATM    6  C   UNK     0      14.387  11.873  -8.994  0.00  0.00    -0.027 A 
HETATM    7  C   UNK     0      16.298  10.998 -10.376  0.00  0.00     0.115 C 
HETATM    8  C   UNK     0      16.747   9.601 -10.765  0.00  0.00     0.021 A 
HETATM    9  N   UNK     0      16.121   8.432 -10.555  0.00  0.00    -0.361 N 
HETATM   10  C   UNK     0      16.929   7.440 -10.986  0.00  0.00     0.022 A 
HETATM   11  C   UNK     0      18.104   7.985 -11.496  0.00  0.00    -0.027 A 
HETATM   12  C   UNK     0      17.995   9.346 -11.360  0.00  0.00    -0.031 A 
HETATM   13  C   UNK     0      19.040  10.353 -11.786  0.00  0.00     0.051 C 
HETATM   14  C   UNK     0      16.650   5.943 -10.885  0.00  0.00     0.115 C 
HETATM   15  C   UNK     0      16.484   5.442  -9.460  0.00  0.00     0.021 A 
HETATM   16  N   UNK     0      15.584   5.850  -8.545  0.00  0.00    -0.361 N 
HETATM   17  C   UNK     0      15.811   5.216  -7.393  0.00  0.00     0.022 A 
HETATM   18  C   UNK     0      16.905   4.345  -7.568  0.00  0.00    -0.027 A 
HETATM   19  C   UNK     0      17.317   4.496  -8.867  0.00  0.00    -0.031 A 
HETATM   20  C   UNK     0      18.456   3.709  -9.488  0.00  0.00     0.051 C 
HETATM   21  C   UNK     0      15.134   5.368  -6.050  0.00  0.00     0.115 C 
HETATM   22  C   UNK     0      14.643   6.744  -5.668  0.00  0.00     0.022 A 
HETATM   23  N   UNK     0      15.243   7.925  -5.869  0.00  0.00    -0.361 N 
HETATM   24  C   UNK     0      14.388   8.902  -5.504  0.00  0.00     0.021 A 
HETATM   25  C   UNK     0      13.213   8.336  -5.049  0.00  0.00    -0.031 A 
HETATM   26  C   UNK     0      11.978   9.018  -4.497  0.00  0.00     0.051 C 
HETATM   27  C   UNK     0      13.352   6.957  -5.144  0.00  0.00    -0.027 A 
HETATM   28  C   UNK     0      14.583  10.403  -5.633  0.00  0.00     0.115 C 
HETATM   29  H   UNK     0      16.692   9.922  -7.633  0.00  0.00     0.165 HD
HETATM   30  H   UNK     0      15.087   8.307 -10.149  0.00  0.00     0.165 HD
HETATM   31  H   UNK     0      14.741   6.566  -8.729  0.00  0.00     0.165 HD
HETATM   32  H   UNK     0      16.294   8.079  -6.229  0.00  0.00     0.165 HD
ENDROOT
BRANCH   6  33
HETATM   33  C   UNK     0      13.692  12.713 -10.036  0.00  0.00     0.051 C 
BRANCH  33  34
HETATM   34  C   UNK     0      14.327  14.079 -10.134  0.00  0.00     0.114 C 
BRANCH  34  35
HETATM   35  C   UNK     0      14.535  14.373 -11.581  0.00  0.00     0.139 C 
HETATM   36  O   UNK     0      15.538  13.899 -12.189  0.00  0.00    -0.650 OA
BRANCH  35  37
HETATM   37  O   UNK     0      13.659  15.159 -12.319  0.00  0.00    -0.776 OA
HETATM   38  H   UNK     0      13.801  16.149 -12.439  0.00  0.00     0.167 HD
ENDBRANCH  35  37
ENDBRANCH  34  35
ENDBRANCH  33  34
ENDBRANCH   6  33
BRANCH  27  39
HETATM   39  C   UNK     0      12.310   6.003  -4.676  0.00  0.00     0.051 C 
BRANCH  39  40
HETATM   40  C   UNK     0      12.268   5.664  -3.254  0.00  0.00     0.114 C 
BRANCH  40  41
HETATM   41  C   UNK     0      11.433   4.602  -2.739  0.00  0.00     0.139 C 
HETATM   42  O   UNK     0      10.354   4.798  -2.164  0.00  0.00    -0.650 OA
BRANCH  41  43
HETATM   43  O   UNK     0      11.859   3.252  -2.893  0.00  0.00    -0.776 OA
HETATM   44  H   UNK     0      12.364   2.879  -2.099  0.00  0.00     0.167 HD
ENDBRANCH  41  43
ENDBRANCH  40  41
ENDBRANCH  39  40
ENDBRANCH  27  39
BRANCH  11  45
HETATM   45  C   UNK     0      19.289   7.276 -12.092  0.00  0.00     0.051 C 
BRANCH  45  46
HETATM   46  C   UNK     0      20.416   7.076 -11.145  0.00  0.00     0.114 C 
BRANCH  46  47
HETATM   47  C   UNK     0      20.910   5.682 -11.335  0.00  0.00     0.139 C 
HETATM   48  O   UNK     0      20.383   4.981 -12.210  0.00  0.00    -0.650 OA
BRANCH  47  49
HETATM   49  O   UNK     0      21.925   5.185 -10.558  0.00  0.00    -0.776 OA
HETATM   50  H   UNK     0      22.904   5.194 -10.868  0.00  0.00     0.167 HD
ENDBRANCH  47  49
ENDBRANCH  46  47
ENDBRANCH  45  46
ENDBRANCH  11  45
BRANCH  18  51
HETATM   51  C   UNK     0      17.512   3.406  -6.558  0.00  0.00     0.051 C 
BRANCH  51  52
HETATM   52  C   UNK     0      17.198   1.998  -7.043  0.00  0.00     0.114 C 
BRANCH  52  53
HETATM   53  C   UNK     0      15.923   1.499  -6.492  0.00  0.00     0.139 C 
HETATM   54  O   UNK     0      15.336   0.554  -7.042  0.00  0.00    -0.650 OA
BRANCH  53  55
HETATM   55  O   UNK     0      15.391   2.088  -5.371  0.00  0.00    -0.776 OA
HETATM   56  H   UNK     0      14.685   2.787  -5.358  0.00  0.00     0.167 HD
ENDBRANCH  53  55
ENDBRANCH  52  53
ENDBRANCH  51  52
ENDBRANCH  18  51
TORSDOF 16
ENDMDL
MODEL 3
REMARK VINA RESULT:      -7.8     15.463     20.824
REMARK  16 active torsions:
REMARK  status: ('A' for Active; 'I' for Inactive)
REMARK    1  A    between atoms: C_6  and  C_7 
REMARK    2  A    between atoms: C_7  and  C_8 
REMARK    3  A    between atoms: C_8  and  C_9 
REMARK    4  A    between atoms: C_9  and  O_11 
REMARK    5  A    between atoms: C_16  and  C_17 
REMARK    6  A    between atoms: C_17  and  C_18 
REMARK    7  A    between atoms: C_18  and  C_19 
REMARK    8  A    between atoms: C_19  and  O_21 
REMARK    9  A    between atoms: C_28  and  C_29 
REMARK   10  A    between atoms: C_29  and  C_30 
REMARK   11  A    between atoms: C_30  and  C_31 
REMARK   12  A    between atoms: C_31  and  O_33 
REMARK   13  A    between atoms: C_42  and  C_43 
REMARK   14  A    between atoms: C_43  and  C_44 
REMARK   15  A    between atoms: C_44  and  C_45 
REMARK   16  A    between atoms: C_45  and  O_47 
ROOT
HETATM    1  C   UNK     0      -5.581   1.772 -22.343  0.00  0.00     0.051 C 
HETATM    2  C   UNK     0      -5.222   2.479 -21.052  0.00  0.00    -0.031 A 
HETATM    3  C   UNK     0      -4.322   2.106 -20.066  0.00  0.00     0.021 A 
HETATM    4  N   UNK     0      -4.348   3.027 -19.074  0.00  0.00    -0.361 N 
HETATM    5  C   UNK     0      -5.239   3.983 -19.410  0.00  0.00     0.022 A 
HETATM    6  C   UNK     0      -5.806   3.670 -20.641  0.00  0.00    -0.027 A 
HETATM    7  C   UNK     0      -5.574   5.262 -18.707  0.00  0.00     0.115 C 
HETATM    8  C   UNK     0      -4.408   6.058 -18.148  0.00  0.00     0.021 A 
HETATM    9  N   UNK     0      -3.177   6.208 -18.659  0.00  0.00    -0.361 N 
HETATM   10  C   UNK     0      -2.442   6.923 -17.780  0.00  0.00     0.022 A 
HETATM   11  C   UNK     0      -3.225   7.250 -16.677  0.00  0.00    -0.027 A 
HETATM   12  C   UNK     0      -4.465   6.709 -16.903  0.00  0.00    -0.031 A 
HETATM   13  C   UNK     0      -5.649   6.816 -15.968  0.00  0.00     0.051 C 
HETATM   14  C   UNK     0      -0.965   7.278 -17.920  0.00  0.00     0.115 C 
HETATM   15  C   UNK     0      -0.045   6.070 -17.991  0.00  0.00     0.021 A 
HETATM   16  N   UNK     0      -0.071   5.070 -18.892  0.00  0.00    -0.361 N 
HETATM   17  C   UNK     0       0.856   4.165 -18.570  0.00  0.00     0.022 A 
HETATM   18  C   UNK     0       1.524   4.601 -17.409  0.00  0.00    -0.027 A 
HETATM   19  C   UNK     0       0.952   5.796 -17.057  0.00  0.00    -0.031 A 
HETATM   20  C   UNK     0       1.403   6.632 -15.873  0.00  0.00     0.051 C 
HETATM   21  C   UNK     0       1.180   2.836 -19.212  0.00  0.00     0.115 C 
HETATM   22  C   UNK     0       0.036   2.053 -19.811  0.00  0.00     0.022 A 
HETATM   23  N   UNK     0      -1.202   1.890 -19.327  0.00  0.00    -0.361 N 
HETATM   24  C   UNK     0      -1.938   1.242 -20.253  0.00  0.00     0.021 A 
HETATM   25  C   UNK     0      -1.151   0.973 -21.357  0.00  0.00    -0.031 A 
HETATM   26  C   UNK     0      -1.514   0.234 -22.628  0.00  0.00     0.051 C 
HETATM   27  C   UNK     0       0.116   1.482 -21.098  0.00  0.00    -0.027 A 
HETATM   28  C   UNK     0      -3.419   0.912 -20.199  0.00  0.00     0.115 C 
HETATM   29  H   UNK     0      -3.766   2.975 -18.124  0.00  0.00     0.165 HD
HETATM   30  H   UNK     0      -2.836   5.853 -19.663  0.00  0.00     0.165 HD
HETATM   31  H   UNK     0      -0.724   5.025 -19.802  0.00  0.00     0.165 HD
HETATM   32  H   UNK     0      -1.557   2.192 -18.307  0.00  0.00     0.165 HD
ENDROOT
BRANCH   6  33
HETATM   33  C   UNK     0      -6.849   4.405 -21.444  0.00  0.00     0.051 C 
BRANCH  33  34
HETATM   34  C   UNK     0      -8.237   4.076 -20.948  0.00  0.00     0.114 C 
BRANCH  34  35
HETATM   35  C   UNK     0      -9.001   3.516 -22.099  0.00  0.00     0.139 C 
HETATM   36  O   UNK     0      -9.565   4.290 -22.926  0.00  0.00    -0.650 OA
BRANCH  35  37
HETATM   37  O   UNK     0      -9.129   2.150 -22.320  0.00  0.00    -0.776 OA
HETATM   38  H   UNK     0      -8.526   1.477 -21.874  0.00  0.00     0.167 HD
ENDBRANCH  35  37
ENDBRANCH  34  35
ENDBRANCH  33  34
ENDBRANCH   6  33
BRANCH  27  39
HETATM   39  C   UNK     0       1.262   1.318 -22.033  0.00  0.00     0.051 C 
BRANCH  39  40
HETATM   40  C   UNK     0       2.294   0.337 -21.702  0.00  0.00     0.114 C 
BRANCH  40  41
HETATM   41  C   UNK     0       3.564   0.718 -21.126  0.00  0.00     0.139 C 
HETATM   42  O   UNK     0       4.526   1.117 -21.797  0.00  0.00    -0.650 OA
BRANCH  41  43
HETATM   43  O   UNK     0       3.736   0.638 -19.715  0.00  0.00    -0.776 OA
HETATM   44  H   UNK     0       3.336   1.412 -19.199  0.00  0.00     0.167 HD
ENDBRANCH  41  43
ENDBRANCH  40  41
ENDBRANCH  39  40
ENDBRANCH  27  39
BRANCH  11  45
HETATM   45  C   UNK     0      -2.845   8.040 -15.454  0.00  0.00     0.051 C 
BRANCH  45  46
HETATM   46  C   UNK     0      -3.109   9.497 -15.567  0.00  0.00     0.114 C 
BRANCH  46  47
HETATM   47  C   UNK     0      -3.708   9.940 -14.275  0.00  0.00     0.139 C 
HETATM   48  O   UNK     0      -4.924  10.174 -14.236  0.00  0.00    -0.650 OA
BRANCH  47  49
HETATM   49  O   UNK     0      -2.931  10.086 -13.154  0.00  0.00    -0.776 OA
HETATM   50  H   UNK     0      -3.297  10.495 -12.286  0.00  0.00     0.167 HD
ENDBRANCH  47  49
ENDBRANCH  46  47
ENDBRANCH  45  46
ENDBRANCH  11  45
BRANCH  18  51
HETATM   51  C   UNK     0       2.661   3.926 -16.686  0.00  0.00     0.051 C 
BRANCH  51  52
HETATM   52  C   UNK     0       2.024   2.998 -15.662  0.00  0.00     0.114 C 
BRANCH  52  53
HETATM   53  C   UNK     0       2.416   1.592 -15.876  0.00  0.00     0.139 C 
HETATM   54  O   UNK     0       3.292   1.311 -16.709  0.00  0.00    -0.650 OA
BRANCH  53  55
HETATM   55  O   UNK     0       1.805   0.598 -15.150  0.00  0.00    -0.776 OA
HETATM   56  H   UNK     0       1.806   0.512 -14.161  0.00  0.00     0.167 HD
ENDBRANCH  53  55
ENDBRANCH  52  53
ENDBRANCH  51  52
ENDBRANCH  18  51
TORSDOF 16
ENDMDL
MODEL 4
REMARK VINA RESULT:      -7.7     15.573     21.071
REMARK  16 active torsions:
REMARK  status: ('A' for Active; 'I' for Inactive)
REMARK    1  A    between atoms: C_6  and  C_7 
REMARK    2  A    between atoms: C_7  and  C_8 
REMARK    3  A    between atoms: C_8  and  C_9 
REMARK    4  A    between atoms: C_9  and  O_11 
REMARK    5  A    between atoms: C_16  and  C_17 
REMARK    6  A    between atoms: C_17  and  C_18 
REMARK    7  A    between atoms: C_18  and  C_19 
REMARK    8  A    between atoms: C_19  and  O_21 
REMARK    9  A    between atoms: C_28  and  C_29 
REMARK   10  A    between atoms: C_29  and  C_30 
REMARK   11  A    between atoms: C_30  and  C_31 
REMARK   12  A    between atoms: C_31  and  O_33 
REMARK   13  A    between atoms: C_42  and  C_43 
REMARK   14  A    between atoms: C_43  and  C_44 
REMARK   15  A    between atoms: C_44  and  C_45 
REMARK   16  A    between atoms: C_45  and  O_47 
ROOT
HETATM    1  C   UNK     0      -5.667   1.695 -22.390  0.00  0.00     0.051 C 
HETATM    2  C   UNK     0      -5.281   2.408 -21.111  0.00  0.00    -0.031 A 
HETATM    3  C   UNK     0      -4.387   2.023 -20.124  0.00  0.00     0.021 A 
HETATM    4  N   UNK     0      -4.381   2.957 -19.144  0.00  0.00    -0.361 N 
HETATM    5  C   UNK     0      -5.246   3.934 -19.489  0.00  0.00     0.022 A 
HETATM    6  C   UNK     0      -5.828   3.621 -20.712  0.00  0.00    -0.027 A 
HETATM    7  C   UNK     0      -5.541   5.230 -18.801  0.00  0.00     0.115 C 
HETATM    8  C   UNK     0      -4.349   6.000 -18.259  0.00  0.00     0.021 A 
HETATM    9  N   UNK     0      -3.117   6.108 -18.778  0.00  0.00    -0.361 N 
HETATM   10  C   UNK     0      -2.357   6.812 -17.912  0.00  0.00     0.022 A 
HETATM   11  C   UNK     0      -3.125   7.177 -16.810  0.00  0.00    -0.027 A 
HETATM   12  C   UNK     0      -4.381   6.668 -17.022  0.00  0.00    -0.031 A 
HETATM   13  C   UNK     0      -5.556   6.822 -16.082  0.00  0.00     0.051 C 
HETATM   14  C   UNK     0      -0.871   7.124 -18.064  0.00  0.00     0.115 C 
HETATM   15  C   UNK     0       0.014   5.889 -18.124  0.00  0.00     0.021 A 
HETATM   16  N   UNK     0      -0.046   4.878 -19.011  0.00  0.00    -0.361 N 
HETATM   17  C   UNK     0       0.856   3.951 -18.681  0.00  0.00     0.022 A 
HETATM   18  C   UNK     0       1.543   4.383 -17.529  0.00  0.00    -0.027 A 
HETATM   19  C   UNK     0       1.007   5.598 -17.191  0.00  0.00    -0.031 A 
HETATM   20  C   UNK     0       1.488   6.436 -16.020  0.00  0.00     0.051 C 
HETATM   21  C   UNK     0       1.139   2.604 -19.307  0.00  0.00     0.115 C 
HETATM   22  C   UNK     0      -0.031   1.847 -19.891  0.00  0.00     0.022 A 
HETATM   23  N   UNK     0      -1.271   1.726 -19.398  0.00  0.00    -0.361 N 
HETATM   24  C   UNK     0      -2.029   1.088 -20.312  0.00  0.00     0.021 A 
HETATM   25  C   UNK     0      -1.257   0.781 -21.415  0.00  0.00    -0.031 A 
HETATM   26  C   UNK     0      -1.648   0.037 -22.675  0.00  0.00     0.051 C 
HETATM   27  C   UNK     0       0.026   1.257 -21.169  0.00  0.00    -0.027 A 
HETATM   28  C   UNK     0      -3.519   0.802 -20.246  0.00  0.00     0.115 C 
HETATM   29  H   UNK     0      -3.796   2.901 -18.197  0.00  0.00     0.165 HD
HETATM   30  H   UNK     0      -2.792   5.730 -19.778  0.00  0.00     0.165 HD
HETATM   31  H   UNK     0      -0.705   4.840 -19.917  0.00  0.00     0.165 HD
HETATM   32  H   UNK     0      -1.611   2.052 -18.381  0.00  0.00     0.165 HD
ENDROOT
BRANCH   6  33
HETATM   33  C   UNK     0      -6.854   4.375 -21.520  0.00  0.00     0.051 C 
BRANCH  33  34
HETATM   34  C   UNK     0      -8.248   4.096 -21.009  0.00  0.00     0.114 C 
BRANCH  34  35
HETATM   35  C   UNK     0      -9.031   3.523 -22.142  0.00  0.00     0.139 C 
HETATM   36  O   UNK     0      -9.593   4.289 -22.978  0.00  0.00    -0.650 OA
BRANCH  35  37
HETATM   37  O   UNK     0      -9.180   2.155 -22.334  0.00  0.00    -0.776 OA
HETATM   38  H   UNK     0      -9.609   1.776 -23.162  0.00  0.00     0.167 HD
ENDBRANCH  35  37
ENDBRANCH  34  35
ENDBRANCH  33  34
ENDBRANCH   6  33
BRANCH  27  39
HETATM   39  C   UNK     0       1.162   1.048 -22.108  0.00  0.00     0.051 C 
BRANCH  39  40
HETATM   40  C   UNK     0       1.586   2.171 -22.944  0.00  0.00     0.114 C 
BRANCH  40  41
HETATM   41  C   UNK     0       0.776   3.357 -23.111  0.00  0.00     0.139 C 
HETATM   42  O   UNK     0      -0.078   3.482 -23.999  0.00  0.00    -0.650 OA
BRANCH  41  43
HETATM   43  O   UNK     0       0.958   4.449 -22.216  0.00  0.00    -0.776 OA
HETATM   44  H   UNK     0       0.111   4.964 -22.006  0.00  0.00     0.167 HD
ENDBRANCH  41  43
ENDBRANCH  40  41
ENDBRANCH  39  40
ENDBRANCH  27  39
BRANCH  11  45
HETATM   45  C   UNK     0      -2.716   7.972 -15.599  0.00  0.00     0.051 C 
BRANCH  45  46
HETATM   46  C   UNK     0      -2.963   9.431 -15.720  0.00  0.00     0.114 C 
BRANCH  46  47
HETATM   47  C   UNK     0      -3.685   9.860 -14.488  0.00  0.00     0.139 C 
HETATM   48  O   UNK     0      -4.912  10.023 -14.546  0.00  0.00    -0.650 OA
BRANCH  47  49
HETATM   49  O   UNK     0      -3.007  10.072 -13.314  0.00  0.00    -0.776 OA
HETATM   50  H   UNK     0      -3.493  10.286 -12.435  0.00  0.00     0.167 HD
ENDBRANCH  47  49
ENDBRANCH  46  47
ENDBRANCH  45  46
ENDBRANCH  11  45
BRANCH  18  51
HETATM   51  C   UNK     0       2.663   3.685 -16.803  0.00  0.00     0.051 C 
BRANCH  51  52
HETATM   52  C   UNK     0       2.012   2.880 -15.688  0.00  0.00     0.114 C 
BRANCH  52  53
HETATM   53  C   UNK     0       2.450   1.471 -15.700  0.00  0.00     0.139 C 
HETATM   54  O   UNK     0       1.766   0.603 -15.135  0.00  0.00    -0.650 OA
BRANCH  53  55
HETATM   55  O   UNK     0       3.619   1.128 -16.335  0.00  0.00    -0.776 OA
HETATM   56  H   UNK     0       4.512   1.043 -15.909  0.00  0.00     0.167 HD
ENDBRANCH  53  55
ENDBRANCH  52  53
ENDBRANCH  51  52
ENDBRANCH  18  51
TORSDOF 16
ENDMDL
MODEL 5
REMARK VINA RESULT:      -7.6     16.029     20.198
REMARK  16 active torsions:
REMARK  status: ('A' for Active; 'I' for Inactive)
REMARK    1  A    between atoms: C_6  and  C_7 
REMARK    2  A    between atoms: C_7  and  C_8 
REMARK    3  A    between atoms: C_8  and  C_9 
REMARK    4  A    between atoms: C_9  and  O_11 
REMARK    5  A    between atoms: C_16  and  C_17 
REMARK    6  A    between atoms: C_17  and  C_18 
REMARK    7  A    between atoms: C_18  and  C_19 
REMARK    8  A    between atoms: C_19  and  O_21 
REMARK    9  A    between atoms: C_28  and  C_29 
REMARK   10  A    between atoms: C_29  and  C_30 
REMARK   11  A    between atoms: C_30  and  C_31 
REMARK   12  A    between atoms: C_31  and  O_33 
REMARK   13  A    between atoms: C_42  and  C_43 
REMARK   14  A    between atoms: C_43  and  C_44 
REMARK   15  A    between atoms: C_44  and  C_45 
REMARK   16  A    between atoms: C_45  and  O_47 
ROOT
HETATM    1  C   UNK     0      -2.212   8.077 -15.092  0.00  0.00     0.051 C 
HETATM    2  C   UNK     0      -2.803   7.443 -16.336  0.00  0.00    -0.031 A 
HETATM    3  C   UNK     0      -2.188   7.120 -17.535  0.00  0.00     0.021 A 
HETATM    4  N   UNK     0      -3.112   6.599 -18.378  0.00  0.00    -0.361 N 
HETATM    5  C   UNK     0      -4.299   6.575 -17.738  0.00  0.00     0.022 A 
HETATM    6  C   UNK     0      -4.143   7.098 -16.459  0.00  0.00    -0.027 A 
HETATM    7  C   UNK     0      -5.612   6.013 -18.188  0.00  0.00     0.115 C 
HETATM    8  C   UNK     0      -5.572   4.668 -18.892  0.00  0.00     0.021 A 
HETATM    9  N   UNK     0      -4.764   3.624 -18.655  0.00  0.00    -0.361 N 
HETATM   10  C   UNK     0      -5.020   2.676 -19.582  0.00  0.00     0.022 A 
HETATM   11  C   UNK     0      -6.027   3.120 -20.434  0.00  0.00    -0.027 A 
HETATM   12  C   UNK     0      -6.380   4.374 -20.006  0.00  0.00    -0.031 A 
HETATM   13  C   UNK     0      -7.445   5.245 -20.633  0.00  0.00     0.051 C 
HETATM   14  C   UNK     0      -4.292   1.344 -19.734  0.00  0.00     0.115 C 
HETATM   15  C   UNK     0      -2.805   1.483 -20.016  0.00  0.00     0.021 A 
HETATM   16  N   UNK     0      -1.880   2.104 -19.260  0.00  0.00    -0.361 N 
HETATM   17  C   UNK     0      -0.703   2.066 -19.888  0.00  0.00     0.022 A 
HETATM   18  C   UNK     0      -0.866   1.380 -21.107  0.00  0.00    -0.027 A 
HETATM   19  C   UNK     0      -2.187   1.019 -21.175  0.00  0.00    -0.031 A 
HETATM   20  C   UNK     0      -2.787   0.222 -22.319  0.00  0.00     0.051 C 
HETATM   21  C   UNK     0       0.625   2.676 -19.500  0.00  0.00     0.115 C 
HETATM   22  C   UNK     0       0.599   3.992 -18.760  0.00  0.00     0.022 A 
HETATM   23  N   UNK     0      -0.197   5.048 -18.972  0.00  0.00    -0.361 N 
HETATM   24  C   UNK     0       0.021   5.947 -17.991  0.00  0.00     0.021 A 
HETATM   25  C   UNK     0       0.988   5.462 -17.132  0.00  0.00    -0.031 A 
HETATM   26  C   UNK     0       1.595   6.121 -15.910  0.00  0.00     0.051 C 
HETATM   27  C   UNK     0       1.374   4.212 -17.603  0.00  0.00    -0.027 A 
HETATM   28  C   UNK     0      -0.708   7.258 -17.753  0.00  0.00     0.115 C 
HETATM   29  H   UNK     0      -2.926   6.289 -19.432  0.00  0.00     0.165 HD
HETATM   30  H   UNK     0      -4.047   3.531 -17.803  0.00  0.00     0.165 HD
HETATM   31  H   UNK     0      -2.050   2.536 -18.239  0.00  0.00     0.165 HD
HETATM   32  H   UNK     0      -0.890   5.188 -19.843  0.00  0.00     0.165 HD
ENDROOT
BRANCH   6  33
HETATM   33  C   UNK     0      -5.157   7.296 -15.361  0.00  0.00     0.051 C 
BRANCH  33  34
HETATM   34  C   UNK     0      -5.945   8.564 -15.582  0.00  0.00     0.114 C 
BRANCH  34  35
HETATM   35  C   UNK     0      -7.171   8.482 -14.736  0.00  0.00     0.139 C 
HETATM   36  O   UNK     0      -7.682   7.357 -14.464  0.00  0.00    -0.650 OA
BRANCH  35  37
HETATM   37  O   UNK     0      -7.798   9.606 -14.214  0.00  0.00    -0.776 OA
HETATM   38  H   UNK     0      -7.347  10.507 -14.189  0.00  0.00     0.167 HD
ENDBRANCH  35  37
ENDBRANCH  34  35
ENDBRANCH  33  34
ENDBRANCH   6  33
BRANCH  27  39
HETATM   39  C   UNK     0       2.455   3.407 -16.974  0.00  0.00     0.051 C 
BRANCH  39  40
HETATM   40  C   UNK     0       2.150   2.677 -15.743  0.00  0.00     0.114 C 
BRANCH  40  41
HETATM   41  C   UNK     0       2.412   1.262 -15.602  0.00  0.00     0.139 C 
HETATM   42  O   UNK     0       3.406   0.700 -16.081  0.00  0.00    -0.650 OA
BRANCH  41  43
HETATM   43  O   UNK     0       1.488   0.458 -14.876  0.00  0.00    -0.776 OA
HETATM   44  H   UNK     0       1.551  -0.534 -15.073  0.00  0.00     0.167 HD
ENDBRANCH  41  43
ENDBRANCH  40  41
ENDBRANCH  39  40
ENDBRANCH  27  39
BRANCH  11  45
HETATM   45  C   UNK     0      -6.648   2.409 -21.607  0.00  0.00     0.051 C 
BRANCH  45  46
HETATM   46  C   UNK     0      -5.810   2.416 -22.833  0.00  0.00     0.114 C 
BRANCH  46  47
HETATM   47  C   UNK     0      -6.574   1.698 -23.894  0.00  0.00     0.139 C 
HETATM   48  O   UNK     0      -5.989   0.835 -24.563  0.00  0.00    -0.650 OA
BRANCH  47  49
HETATM   49  O   UNK     0      -7.895   1.985 -24.125  0.00  0.00    -0.776 OA
HETATM   50  H   UNK     0      -8.627   1.267 -24.071  0.00  0.00     0.167 HD
ENDBRANCH  47  49
ENDBRANCH  46  47
ENDBRANCH  45  46
ENDBRANCH  11  45
BRANCH  18  51
HETATM   51  C   UNK     0       0.183   1.066 -22.142  0.00  0.00     0.051 C 
BRANCH  51  52
HETATM   52  C   UNK     0       0.777  -0.279 -21.753  0.00  0.00     0.114 C 
BRANCH  52  53
HETATM   53  C   UNK     0       2.252  -0.246 -21.740  0.00  0.00     0.139 C 
HETATM   54  O   UNK     0       2.848   0.818 -21.508  0.00  0.00    -0.650 OA
BRANCH  53  55
HETATM   55  O   UNK     0       2.960  -1.397 -21.989  0.00  0.00    -0.776 OA
HETATM   56  H   UNK     0       3.607  -1.536 -22.729  0.00  0.00     0.167 HD
ENDBRANCH  53  55
ENDBRANCH  52  53
ENDBRANCH  51  52
ENDBRANCH  18  51
TORSDOF 16
ENDMDL
MODEL 6
REMARK VINA RESULT:      -7.5     14.320     19.506
REMARK  16 active torsions:
REMARK  status: ('A' for Active; 'I' for Inactive)
REMARK    1  A    between atoms: C_6  and  C_7 
REMARK    2  A    between atoms: C_7  and  C_8 
REMARK    3  A    between atoms: C_8  and  C_9 
REMARK    4  A    between atoms: C_9  and  O_11 
REMARK    5  A    between atoms: C_16  and  C_17 
REMARK    6  A    between atoms: C_17  and  C_18 
REMARK    7  A    between atoms: C_18  and  C_19 
REMARK    8  A    between atoms: C_19  and  O_21 
REMARK    9  A    between atoms: C_28  and  C_29 
REMARK   10  A    between atoms: C_29  and  C_30 
REMARK   11  A    between atoms: C_30  and  C_31 
REMARK   12  A    between atoms: C_31  and  O_33 
REMARK   13  A    between atoms: C_42  and  C_43 
REMARK   14  A    between atoms: C_43  and  C_44 
REMARK   15  A    between atoms: C_44  and  C_45 
REMARK   16  A    between atoms: C_45  and  O_47 
ROOT
HETATM    1  C   UNK     0       2.140   4.471 -17.952  0.00  0.00     0.051 C 
HETATM    2  C   UNK     0       1.067   5.524 -17.767  0.00  0.00    -0.031 A 
HETATM    3  C   UNK     0       0.210   6.081 -18.702  0.00  0.00     0.021 A 
HETATM    4  N   UNK     0      -0.564   7.010 -18.093  0.00  0.00    -0.361 N 
HETATM    5  C   UNK     0      -0.225   7.052 -16.788  0.00  0.00     0.022 A 
HETATM    6  C   UNK     0       0.795   6.136 -16.550  0.00  0.00    -0.027 A 
HETATM    7  C   UNK     0      -0.836   7.836 -15.670  0.00  0.00     0.115 C 
HETATM    8  C   UNK     0      -2.353   7.902 -15.634  0.00  0.00     0.021 A 
HETATM    9  N   UNK     0      -3.240   6.954 -15.972  0.00  0.00    -0.361 N 
HETATM   10  C   UNK     0      -4.478   7.482 -15.871  0.00  0.00     0.022 A 
HETATM   11  C   UNK     0      -4.387   8.804 -15.446  0.00  0.00    -0.027 A 
HETATM   12  C   UNK     0      -3.051   9.076 -15.295  0.00  0.00    -0.031 A 
HETATM   13  C   UNK     0      -2.473  10.398 -14.841  0.00  0.00     0.051 C 
HETATM   14  C   UNK     0      -5.788   6.781 -16.219  0.00  0.00     0.115 C 
HETATM   15  C   UNK     0      -5.888   6.351 -17.674  0.00  0.00     0.021 A 
HETATM   16  N   UNK     0      -5.063   5.526 -18.345  0.00  0.00    -0.361 N 
HETATM   17  C   UNK     0      -5.452   5.458 -19.620  0.00  0.00     0.022 A 
HETATM   18  C   UNK     0      -6.591   6.271 -19.786  0.00  0.00    -0.027 A 
HETATM   19  C   UNK     0      -6.855   6.823 -18.559  0.00  0.00    -0.031 A 
HETATM   20  C   UNK     0      -8.030   7.743 -18.283  0.00  0.00     0.051 C 
HETATM   21  C   UNK     0      -4.826   4.734 -20.790  0.00  0.00     0.115 C 
HETATM   22  C   UNK     0      -3.320   4.622 -20.817  0.00  0.00     0.022 A 
HETATM   23  N   UNK     0      -2.413   5.549 -20.481  0.00  0.00    -0.361 N 
HETATM   24  C   UNK     0      -1.192   4.978 -20.515  0.00  0.00     0.021 A 
HETATM   25  C   UNK     0      -1.314   3.654 -20.890  0.00  0.00    -0.031 A 
HETATM   26  C   UNK     0      -0.229   2.619 -21.106  0.00  0.00     0.051 C 
HETATM   27  C   UNK     0      -2.667   3.403 -21.090  0.00  0.00    -0.027 A 
HETATM   28  C   UNK     0       0.137   5.602 -20.124  0.00  0.00     0.115 C 
HETATM   29  H   UNK     0      -1.318   7.659 -18.598  0.00  0.00     0.165 HD
HETATM   30  H   UNK     0      -2.997   5.895 -16.235  0.00  0.00     0.165 HD
HETATM   31  H   UNK     0      -4.216   4.941 -17.900  0.00  0.00     0.165 HD
HETATM   32  H   UNK     0      -2.622   6.627 -20.260  0.00  0.00     0.165 HD
ENDROOT
BRANCH   6  33
HETATM   33  C   UNK     0       1.523   5.806 -15.272  0.00  0.00     0.051 C 
BRANCH  33  34
HETATM   34  C   UNK     0       2.601   6.825 -14.991  0.00  0.00     0.114 C 
BRANCH  34  35
HETATM   35  C   UNK     0       3.834   6.077 -14.610  0.00  0.00     0.139 C 
HETATM   36  O   UNK     0       4.472   5.416 -15.480  0.00  0.00    -0.650 OA
BRANCH  35  37
HETATM   37  O   UNK     0       4.335   6.069 -13.314  0.00  0.00    -0.776 OA
HETATM   38  H   UNK     0       4.067   5.369 -12.641  0.00  0.00     0.167 HD
ENDBRANCH  35  37
ENDBRANCH  34  35
ENDBRANCH  33  34
ENDBRANCH   6  33
BRANCH  27  39
HETATM   39  C   UNK     0      -3.186   2.094 -21.574  0.00  0.00     0.051 C 
BRANCH  39  40
HETATM   40  C   UNK     0      -3.900   1.238 -20.627  0.00  0.00     0.114 C 
BRANCH  40  41
HETATM   41  C   UNK     0      -3.592   1.225 -19.215  0.00  0.00     0.139 C 
HETATM   42  O   UNK     0      -4.216   1.884 -18.373  0.00  0.00    -0.650 OA
BRANCH  41  43
HETATM   43  O   UNK     0      -2.516   0.417 -18.750  0.00  0.00    -0.776 OA
HETATM   44  H   UNK     0      -1.724   0.369 -19.381  0.00  0.00     0.167 HD
ENDBRANCH  41  43
ENDBRANCH  40  41
ENDBRANCH  39  40
ENDBRANCH  27  39
BRANCH  11  45
HETATM   45  C   UNK     0      -5.495   9.788 -15.185  0.00  0.00     0.051 C 
BRANCH  45  46
HETATM   46  C   UNK     0      -6.257   9.526 -13.937  0.00  0.00     0.114 C 
BRANCH  46  47
HETATM   47  C   UNK     0      -5.961  10.644 -12.996  0.00  0.00     0.139 C 
HETATM   48  O   UNK     0      -5.648  11.747 -13.467  0.00  0.00    -0.650 OA
BRANCH  47  49
HETATM   49  O   UNK     0      -6.032  10.458 -11.639  0.00  0.00    -0.776 OA
HETATM   50  H   UNK     0      -6.928  10.438 -11.137  0.00  0.00     0.167 HD
ENDBRANCH  47  49
ENDBRANCH  46  47
ENDBRANCH  45  46
ENDBRANCH  11  45
BRANCH  18  51
HETATM   51  C   UNK     0      -7.397   6.492 -21.040  0.00  0.00     0.051 C 
BRANCH  51  52
HETATM   52  C   UNK     0      -8.446   5.390 -21.071  0.00  0.00     0.114 C 
BRANCH  52  53
HETATM   53  C   UNK     0      -9.815   5.931 -20.967  0.00  0.00     0.139 C 
HETATM   54  O   UNK     0     -10.688   5.300 -20.351  0.00  0.00    -0.650 OA
BRANCH  53  55
HETATM   55  O   UNK     0     -10.117   7.134 -21.559  0.00  0.00    -0.776 OA
HETATM   56  H   UNK     0     -10.706   7.266 -22.347  0.00  0.00     0.167 HD
ENDBRANCH  53  55
ENDBRANCH  52  53
ENDBRANCH  51  52
ENDBRANCH  18  51
TORSDOF 16
ENDMDL
MODEL 7
REMARK VINA RESULT:      -7.5     25.811     29.359
REMARK  16 active torsions:
REMARK  status: ('A' for Active; 'I' for Inactive)
REMARK    1  A    between atoms: C_6  and  C_7 
REMARK    2  A    between atoms: C_7  and  C_8 
REMARK    3  A    between atoms: C_8  and  C_9 
REMARK    4  A    between atoms: C_9  and  O_11 
REMARK    5  A    between atoms: C_16  and  C_17 
REMARK    6  A    between atoms: C_17  and  C_18 
REMARK    7  A    between atoms: C_18  and  C_19 
REMARK    8  A    between atoms: C_19  and  O_21 
REMARK    9  A    between atoms: C_28  and  C_29 
REMARK   10  A    between atoms: C_29  and  C_30 
REMARK   11  A    between atoms: C_30  and  C_31 
REMARK   12  A    between atoms: C_31  and  O_33 
REMARK   13  A    between atoms: C_42  and  C_43 
REMARK   14  A    between atoms: C_43  and  C_44 
REMARK   15  A    between atoms: C_44  and  C_45 
REMARK   16  A    between atoms: C_45  and  O_47 
ROOT
HETATM    1  C   UNK     0     -14.118  17.669   0.866  0.00  0.00     0.051 C 
HETATM    2  C   UNK     0     -14.101  16.413   1.714  0.00  0.00    -0.031 A 
HETATM    3  C   UNK     0     -13.516  16.196   2.952  0.00  0.00     0.021 A 
HETATM    4  N   UNK     0     -13.727  14.910   3.320  0.00  0.00    -0.361 N 
HETATM    5  C   UNK     0     -14.441  14.306   2.348  0.00  0.00     0.022 A 
HETATM    6  C   UNK     0     -14.689  15.217   1.326  0.00  0.00    -0.027 A 
HETATM    7  C   UNK     0     -15.012  12.922   2.305  0.00  0.00     0.115 C 
HETATM    8  C   UNK     0     -15.666  12.416   3.579  0.00  0.00     0.021 A 
HETATM    9  N   UNK     0     -16.383  13.104   4.481  0.00  0.00    -0.361 N 
HETATM   10  C   UNK     0     -16.689  12.271   5.498  0.00  0.00     0.022 A 
HETATM   11  C   UNK     0     -16.163  11.008   5.239  0.00  0.00    -0.027 A 
HETATM   12  C   UNK     0     -15.518  11.093   4.031  0.00  0.00    -0.031 A 
HETATM   13  C   UNK     0     -14.797   9.955   3.343  0.00  0.00     0.051 C 
HETATM   14  C   UNK     0     -17.440  12.642   6.773  0.00  0.00     0.115 C 
HETATM   15  C   UNK     0     -16.746  13.707   7.608  0.00  0.00     0.021 A 
HETATM   16  N   UNK     0     -16.409  14.955   7.233  0.00  0.00    -0.361 N 
HETATM   17  C   UNK     0     -15.753  15.551   8.231  0.00  0.00     0.022 A 
HETATM   18  C   UNK     0     -15.667  14.652   9.312  0.00  0.00    -0.027 A 
HETATM   19  C   UNK     0     -16.294  13.501   8.910  0.00  0.00    -0.031 A 
HETATM   20  C   UNK     0     -16.461  12.278   9.793  0.00  0.00     0.051 C 
HETATM   21  C   UNK     0     -15.106  16.916   8.289  0.00  0.00     0.115 C 
HETATM   22  C   UNK     0     -14.489  17.451   7.018  0.00  0.00     0.022 A 
HETATM   23  N   UNK     0     -13.774  16.788   6.100  0.00  0.00    -0.361 N 
HETATM   24  C   UNK     0     -13.548  17.617   5.061  0.00  0.00     0.021 A 
HETATM   25  C   UNK     0     -14.122  18.846   5.321  0.00  0.00    -0.031 A 
HETATM   26  C   UNK     0     -14.102  20.105   4.479  0.00  0.00     0.051 C 
HETATM   27  C   UNK     0     -14.730  18.765   6.568  0.00  0.00    -0.027 A 
HETATM   28  C   UNK     0     -12.862  17.292   3.745  0.00  0.00     0.115 C 
HETATM   29  H   UNK     0     -13.337  14.428   4.246  0.00  0.00     0.165 HD
HETATM   30  H   UNK     0     -16.717  14.166   4.380  0.00  0.00     0.165 HD
HETATM   31  H   UNK     0     -16.681  15.442   6.260  0.00  0.00     0.165 HD
HETATM   32  H   UNK     0     -13.386  15.741   6.195  0.00  0.00     0.165 HD
ENDROOT
BRANCH   6  33
HETATM   33  C   UNK     0     -15.431  15.038   0.026  0.00  0.00     0.051 C 
BRANCH  33  34
HETATM   34  C   UNK     0     -16.817  15.633   0.115  0.00  0.00     0.114 C 
BRANCH  34  35
HETATM   35  C   UNK     0     -17.346  15.742  -1.275  0.00  0.00     0.139 C 
HETATM   36  O   UNK     0     -16.567  16.019  -2.233  0.00  0.00    -0.650 OA
BRANCH  35  37
HETATM   37  O   UNK     0     -18.687  15.548  -1.584  0.00  0.00    -0.776 OA
HETATM   38  H   UNK     0     -18.984  14.887  -2.284  0.00  0.00     0.167 HD
ENDBRANCH  35  37
ENDBRANCH  34  35
ENDBRANCH  33  34
ENDBRANCH   6  33
BRANCH  27  39
HETATM   39  C   UNK     0     -15.396  19.924   7.223  0.00  0.00     0.051 C 
BRANCH  39  40
HETATM   40  C   UNK     0     -16.857  19.972   7.228  0.00  0.00     0.114 C 
BRANCH  40  41
HETATM   41  C   UNK     0     -17.605  20.793   6.302  0.00  0.00     0.139 C 
HETATM   42  O   UNK     0     -17.847  21.992   6.495  0.00  0.00    -0.650 OA
BRANCH  41  43
HETATM   43  O   UNK     0     -18.095  20.208   5.101  0.00  0.00    -0.776 OA
HETATM   44  H   UNK     0     -18.788  20.766   4.616  0.00  0.00     0.167 HD
ENDBRANCH  41  43
ENDBRANCH  40  41
ENDBRANCH  39  40
ENDBRANCH  27  39
BRANCH  11  45
HETATM   45  C   UNK     0     -16.253   9.761   6.075  0.00  0.00     0.051 C 
BRANCH  45  46
HETATM   46  C   UNK     0     -15.395   9.780   7.287  0.00  0.00     0.114 C 
BRANCH  46  47
HETATM   47  C   UNK     0     -16.108   9.010   8.346  0.00  0.00     0.139 C 
HETATM   48  O   UNK     0     -15.443   8.288   9.102  0.00  0.00    -0.650 OA
BRANCH  47  49
HETATM   49  O   UNK     0     -17.471   9.096   8.480  0.00  0.00    -0.776 OA
HETATM   50  H   UNK     0     -18.089   9.256   7.676  0.00  0.00     0.167 HD
ENDBRANCH  47  49
ENDBRANCH  46  47
ENDBRANCH  45  46
ENDBRANCH  11  45
BRANCH  18  51
HETATM   51  C   UNK     0     -15.041  14.884  10.662  0.00  0.00     0.051 C 
BRANCH  51  52
HETATM   52  C   UNK     0     -13.672  14.220  10.617  0.00  0.00     0.114 C 
BRANCH  52  53
HETATM   53  C   UNK     0     -12.595  15.199  10.377  0.00  0.00     0.139 C 
HETATM   54  O   UNK     0     -12.139  15.353   9.232  0.00  0.00    -0.650 OA
BRANCH  53  55
HETATM   55  O   UNK     0     -12.098  15.935  11.426  0.00  0.00    -0.776 OA
HETATM   56  H   UNK     0     -11.906  16.908  11.417  0.00  0.00     0.167 HD
ENDBRANCH  53  55
ENDBRANCH  52  53
ENDBRANCH  51  52
ENDBRANCH  18  51
TORSDOF 16
ENDMDL
MODEL 8
REMARK VINA RESULT:      -7.4     14.376     19.747
REMARK  16 active torsions:
REMARK  status: ('A' for Active; 'I' for Inactive)
REMARK    1  A    between atoms: C_6  and  C_7 
REMARK    2  A    between atoms: C_7  and  C_8 
REMARK    3  A    between atoms: C_8  and  C_9 
REMARK    4  A    between atoms: C_9  and  O_11 
REMARK    5  A    between atoms: C_16  and  C_17 
REMARK    6  A    between atoms: C_17  and  C_18 
REMARK    7  A    between atoms: C_18  and  C_19 
REMARK    8  A    between atoms: C_19  and  O_21 
REMARK    9  A    between atoms: C_28  and  C_29 
REMARK   10  A    between atoms: C_29  and  C_30 
REMARK   11  A    between atoms: C_30  and  C_31 
REMARK   12  A    between atoms: C_31  and  O_33 
REMARK   13  A    between atoms: C_42  and  C_43 
REMARK   14  A    between atoms: C_43  and  C_44 
REMARK   15  A    between atoms: C_44  and  C_45 
REMARK   16  A    between atoms: C_45  and  O_47 
ROOT
HETATM    1  C   UNK     0       1.510   4.226 -17.779  0.00  0.00     0.051 C 
HETATM    2  C   UNK     0       0.629   5.452 -17.644  0.00  0.00    -0.031 A 
HETATM    3  C   UNK     0      -0.271   5.992 -18.548  0.00  0.00     0.021 A 
HETATM    4  N   UNK     0      -0.814   7.112 -18.015  0.00  0.00    -0.361 N 
HETATM    5  C   UNK     0      -0.285   7.293 -16.787  0.00  0.00     0.022 A 
HETATM    6  C   UNK     0       0.624   6.273 -16.524  0.00  0.00    -0.027 A 
HETATM    7  C   UNK     0      -0.614   8.322 -15.751  0.00  0.00     0.115 C 
HETATM    8  C   UNK     0      -2.086   8.632 -15.541  0.00  0.00     0.021 A 
HETATM    9  N   UNK     0      -3.134   7.796 -15.604  0.00  0.00    -0.361 N 
HETATM   10  C   UNK     0      -4.260   8.522 -15.443  0.00  0.00     0.022 A 
HETATM   11  C   UNK     0      -3.928   9.861 -15.262  0.00  0.00    -0.027 A 
HETATM   12  C   UNK     0      -2.560   9.938 -15.322  0.00  0.00    -0.031 A 
HETATM   13  C   UNK     0      -1.747  11.204 -15.172  0.00  0.00     0.051 C 
HETATM   14  C   UNK     0      -5.690   7.993 -15.506  0.00  0.00     0.115 C 
HETATM   15  C   UNK     0      -6.059   7.373 -16.844  0.00  0.00     0.021 A 
HETATM   16  N   UNK     0      -5.461   6.337 -17.462  0.00  0.00    -0.361 N 
HETATM   17  C   UNK     0      -6.038   6.143 -18.650  0.00  0.00     0.022 A 
HETATM   18  C   UNK     0      -7.067   7.092 -18.810  0.00  0.00    -0.027 A 
HETATM   19  C   UNK     0      -7.071   7.855 -17.671  0.00  0.00    -0.031 A 
HETATM   20  C   UNK     0      -8.056   8.981 -17.413  0.00  0.00     0.051 C 
HETATM   21  C   UNK     0      -5.694   5.163 -19.748  0.00  0.00     0.115 C 
HETATM   22  C   UNK     0      -4.237   4.812 -19.939  0.00  0.00     0.022 A 
HETATM   23  N   UNK     0      -3.173   5.623 -19.878  0.00  0.00    -0.361 N 
HETATM   24  C   UNK     0      -2.060   4.867 -19.963  0.00  0.00     0.021 A 
HETATM   25  C   UNK     0      -2.416   3.539 -20.093  0.00  0.00    -0.031 A 
HETATM   26  C   UNK     0      -1.525   2.325 -20.261  0.00  0.00     0.051 C 
HETATM   27  C   UNK     0      -3.804   3.478 -20.080  0.00  0.00    -0.027 A 
HETATM   28  C   UNK     0      -0.615   5.324 -19.849  0.00  0.00     0.115 C 
HETATM   29  H   UNK     0      -1.537   7.789 -18.526  0.00  0.00     0.165 HD
HETATM   30  H   UNK     0      -3.079   6.685 -15.712  0.00  0.00     0.165 HD
HETATM   31  H   UNK     0      -4.646   5.699 -17.031  0.00  0.00     0.165 HD
HETATM   32  H   UNK     0      -3.199   6.742 -19.818  0.00  0.00     0.165 HD
ENDROOT
BRANCH   6  33
HETATM   33  C   UNK     0       1.478   6.025 -15.306  0.00  0.00     0.051 C 
BRANCH  33  34
HETATM   34  C   UNK     0       2.703   6.908 -15.324  0.00  0.00     0.114 C 
BRANCH  34  35
HETATM   35  C   UNK     0       3.851   6.089 -14.838  0.00  0.00     0.139 C 
HETATM   36  O   UNK     0       4.420   5.267 -15.614  0.00  0.00    -0.650 OA
BRANCH  35  37
HETATM   37  O   UNK     0       4.345   6.185 -13.543  0.00  0.00    -0.776 OA
HETATM   38  H   UNK     0       3.994   6.862 -12.886  0.00  0.00     0.167 HD
ENDBRANCH  35  37
ENDBRANCH  34  35
ENDBRANCH  33  34
ENDBRANCH   6  33
BRANCH  27  39
HETATM   39  C   UNK     0      -4.562   2.211 -20.269  0.00  0.00     0.051 C 
BRANCH  39  40
HETATM   40  C   UNK     0      -4.978   1.847 -21.623  0.00  0.00     0.114 C 
BRANCH  40  41
HETATM   41  C   UNK     0      -6.103   2.476 -22.279  0.00  0.00     0.139 C 
HETATM   42  O   UNK     0      -5.994   3.448 -23.039  0.00  0.00    -0.650 OA
BRANCH  41  43
HETATM   43  O   UNK     0      -7.411   1.965 -22.050  0.00  0.00    -0.776 OA
HETATM   44  H   UNK     0      -7.434   1.066 -21.582  0.00  0.00     0.167 HD
ENDBRANCH  41  43
ENDBRANCH  40  41
ENDBRANCH  39  40
ENDBRANCH  27  39
BRANCH  11  45
HETATM   45  C   UNK     0      -4.842  11.036 -15.037  0.00  0.00     0.051 C 
BRANCH  45  46
HETATM   46  C   UNK     0      -4.926  11.476 -13.621  0.00  0.00     0.114 C 
BRANCH  46  47
HETATM   47  C   UNK     0      -6.146  10.850 -13.035  0.00  0.00     0.139 C 
HETATM   48  O   UNK     0      -7.139  10.698 -13.760  0.00  0.00    -0.650 OA
BRANCH  47  49
HETATM   49  O   UNK     0      -6.170  10.451 -11.723  0.00  0.00    -0.776 OA
HETATM   50  H   UNK     0      -5.443  10.731 -11.055  0.00  0.00     0.167 HD
ENDBRANCH  47  49
ENDBRANCH  46  47
ENDBRANCH  45  46
ENDBRANCH  11  45
BRANCH  18  51
HETATM   51  C   UNK     0      -8.010   7.249 -19.975  0.00  0.00     0.051 C 
BRANCH  51  52
HETATM   52  C   UNK     0      -9.237   6.413 -19.645  0.00  0.00     0.114 C 
BRANCH  52  53
HETATM   53  C   UNK     0     -10.018   6.083 -20.853  0.00  0.00     0.139 C 
HETATM   54  O   UNK     0     -10.083   6.893 -21.792  0.00  0.00    -0.650 OA
BRANCH  53  55
HETATM   55  O   UNK     0     -10.673   4.878 -20.931  0.00  0.00    -0.776 OA
HETATM   56  H   UNK     0     -11.655   4.742 -20.879  0.00  0.00     0.167 HD
ENDBRANCH  53  55
ENDBRANCH  52  53
ENDBRANCH  51  52
ENDBRANCH  18  51
TORSDOF 16
ENDMDL
MODEL 9
REMARK VINA RESULT:      -7.4      2.187      3.376
REMARK  16 active torsions:
REMARK  status: ('A' for Active; 'I' for Inactive)
REMARK    1  A    between atoms: C_6  and  C_7 
REMARK    2  A    between atoms: C_7  and  C_8 
REMARK    3  A    between atoms: C_8  and  C_9 
REMARK    4  A    between atoms: C_9  and  O_11 
REMARK    5  A    between atoms: C_16  and  C_17 
REMARK    6  A    between atoms: C_17  and  C_18 
REMARK    7  A    between atoms: C_18  and  C_19 
REMARK    8  A    between atoms: C_19  and  O_21 
REMARK    9  A    between atoms: C_28  and  C_29 
REMARK   10  A    between atoms: C_29  and  C_30 
REMARK   11  A    between atoms: C_30  and  C_31 
REMARK   12  A    between atoms: C_31  and  O_33 
REMARK   13  A    between atoms: C_42  and  C_43 
REMARK   14  A    between atoms: C_43  and  C_44 
REMARK   15  A    between atoms: C_44  and  C_45 
REMARK   16  A    between atoms: C_45  and  O_47 
ROOT
HETATM    1  C   UNK     0      10.381  19.254  -4.093  0.00  0.00     0.051 C 
HETATM    2  C   UNK     0       9.668  18.610  -5.264  0.00  0.00    -0.031 A 
HETATM    3  C   UNK     0      10.006  18.610  -6.608  0.00  0.00     0.021 A 
HETATM    4  N   UNK     0       9.060  17.932  -7.301  0.00  0.00    -0.361 N 
HETATM    5  C   UNK     0       8.132  17.492  -6.426  0.00  0.00     0.022 A 
HETATM    6  C   UNK     0       8.479  17.901  -5.143  0.00  0.00    -0.027 A 
HETATM    7  C   UNK     0       6.938  16.620  -6.663  0.00  0.00     0.115 C 
HETATM    8  C   UNK     0       7.137  15.429  -7.583  0.00  0.00     0.021 A 
HETATM    9  N   UNK     0       8.220  14.648  -7.719  0.00  0.00    -0.361 N 
HETATM   10  C   UNK     0       7.983  13.771  -8.717  0.00  0.00     0.022 A 
HETATM   11  C   UNK     0       6.708  13.986  -9.232  0.00  0.00    -0.027 A 
HETATM   12  C   UNK     0       6.169  15.028  -8.522  0.00  0.00    -0.031 A 
HETATM   13  C   UNK     0       4.789  15.609  -8.733  0.00  0.00     0.051 C 
HETATM   14  C   UNK     0       8.963  12.735  -9.258  0.00  0.00     0.115 C 
HETATM   15  C   UNK     0      10.235  13.334  -9.836  0.00  0.00     0.021 A 
HETATM   16  N   UNK     0      11.134  14.116  -9.209  0.00  0.00    -0.361 N 
HETATM   17  C   UNK     0      12.072  14.492 -10.081  0.00  0.00     0.022 A 
HETATM   18  C   UNK     0      11.776  13.920 -11.335  0.00  0.00    -0.027 A 
HETATM   19  C   UNK     0      10.624  13.196 -11.167  0.00  0.00    -0.031 A 
HETATM   20  C   UNK     0       9.970  12.384 -12.271  0.00  0.00     0.051 C 
HETATM   21  C   UNK     0      13.251  15.421  -9.900  0.00  0.00     0.115 C 
HETATM   22  C   UNK     0      13.082  16.586  -8.953  0.00  0.00     0.022 A 
HETATM   23  N   UNK     0      12.013  17.378  -8.794  0.00  0.00    -0.361 N 
HETATM   24  C   UNK     0      12.242  18.192  -7.744  0.00  0.00     0.021 A 
HETATM   25  C   UNK     0      13.493  17.925  -7.221  0.00  0.00    -0.031 A 
HETATM   26  C   UNK     0      14.209  18.601  -6.070  0.00  0.00     0.051 C 
HETATM   27  C   UNK     0      14.050  16.901  -7.978  0.00  0.00    -0.027 A 
HETATM   28  C   UNK     0      11.289  19.198  -7.123  0.00  0.00     0.115 C 
HETATM   29  H   UNK     0       9.035  17.802  -8.407  0.00  0.00     0.165 HD
HETATM   30  H   UNK     0       9.136  14.682  -7.078  0.00  0.00     0.165 HD
HETATM   31  H   UNK     0      11.133  14.369  -8.117  0.00  0.00     0.165 HD
HETATM   32  H   UNK     0      11.104  17.399  -9.449  0.00  0.00     0.165 HD
ENDROOT
BRANCH   6  33
HETATM   33  C   UNK     0       7.776  17.675  -3.829  0.00  0.00     0.051 C 
BRANCH  33  34
HETATM   34  C   UNK     0       6.862  18.833  -3.505  0.00  0.00     0.114 C 
BRANCH  34  35
HETATM   35  C   UNK     0       7.231  19.327  -2.148  0.00  0.00     0.139 C 
HETATM   36  O   UNK     0       7.356  20.568  -1.934  0.00  0.00    -0.650 OA
BRANCH  35  37
HETATM   37  O   UNK     0       7.448  18.474  -1.073  0.00  0.00    -0.776 OA
HETATM   38  H   UNK     0       7.834  18.799  -0.201  0.00  0.00     0.167 HD
ENDBRANCH  35  37
ENDBRANCH  34  35
ENDBRANCH  33  34
ENDBRANCH   6  33
BRANCH  27  39
HETATM   39  C   UNK     0      15.429  16.388  -7.757  0.00  0.00     0.051 C 
BRANCH  39  40
HETATM   40  C   UNK     0      15.610  15.250  -6.856  0.00  0.00     0.114 C 
BRANCH  40  41
HETATM   41  C   UNK     0      14.818  14.046  -6.966  0.00  0.00     0.139 C 
HETATM   42  O   UNK     0      13.834  13.807  -6.253  0.00  0.00    -0.650 OA
BRANCH  41  43
HETATM   43  O   UNK     0      15.175  13.071  -7.941  0.00  0.00    -0.776 OA
HETATM   44  H   UNK     0      15.593  12.231  -7.560  0.00  0.00     0.167 HD
ENDBRANCH  41  43
ENDBRANCH  40  41
ENDBRANCH  39  40
ENDBRANCH  27  39
BRANCH  11  45
HETATM   45  C   UNK     0       6.004  13.252 -10.341  0.00  0.00     0.051 C 
BRANCH  45  46
HETATM   46  C   UNK     0       5.540  11.891  -9.969  0.00  0.00     0.114 C 
BRANCH  46  47
HETATM   47  C   UNK     0       6.264  10.923 -10.842  0.00  0.00     0.139 C 
HETATM   48  O   UNK     0       6.220  11.084 -12.069  0.00  0.00    -0.650 OA
BRANCH  47  49
HETATM   49  O   UNK     0       6.964   9.875 -10.299  0.00  0.00    -0.776 OA
HETATM   50  H   UNK     0       6.706   9.456  -9.398  0.00  0.00     0.167 HD
ENDBRANCH  47  49
ENDBRANCH  46  47
ENDBRANCH  45  46
ENDBRANCH  11  45
BRANCH  18  51
HETATM   51  C   UNK     0      12.559  14.040 -12.616  0.00  0.00     0.051 C 
BRANCH  51  52
HETATM   52  C   UNK     0      11.929  15.184 -13.395  0.00  0.00     0.114 C 
BRANCH  52  53
HETATM   53  C   UNK     0      11.902  14.912 -14.846  0.00  0.00     0.139 C 
HETATM   54  O   UNK     0      12.506  15.661 -15.630  0.00  0.00    -0.650 OA
BRANCH  53  55
HETATM   55  O   UNK     0      11.202  13.830 -15.321  0.00  0.00    -0.776 OA
HETATM   56  H   UNK     0      10.322  13.859 -15.780  0.00  0.00     0.167 HD
ENDBRANCH  53  55
ENDBRANCH  52  53
ENDBRANCH  51  52
ENDBRANCH  18  51
TORSDOF 16
ENDMDL
MODEL 10
REMARK VINA RESULT:      -7.4     14.572     20.073
REMARK  16 active torsions:
REMARK  status: ('A' for Active; 'I' for Inactive)
REMARK    1  A    between atoms: C_6  and  C_7 
REMARK    2  A    between atoms: C_7  and  C_8 
REMARK    3  A    between atoms: C_8  and  C_9 
REMARK    4  A    between atoms: C_9  and  O_11 
REMARK    5  A    between atoms: C_16  and  C_17 
REMARK    6  A    between atoms: C_17  and  C_18 
REMARK    7  A    between atoms: C_18  and  C_19 
REMARK    8  A    between atoms: C_19  and  O_21 
REMARK    9  A    between atoms: C_28  and  C_29 
REMARK   10  A    between atoms: C_29  and  C_30 
REMARK   11  A    between atoms: C_30  and  C_31 
REMARK   12  A    between atoms: C_31  and  O_33 
REMARK   13  A    between atoms: C_42  and  C_43 
REMARK   14  A    between atoms: C_43  and  C_44 
REMARK   15  A    between atoms: C_44  and  C_45 
REMARK   16  A    between atoms: C_45  and  O_47 
ROOT
HETATM    1  C   UNK     0      -5.832  10.375 -16.372  0.00  0.00     0.051 C 
HETATM    2  C   UNK     0      -4.709   9.372 -16.199  0.00  0.00    -0.031 A 
HETATM    3  C   UNK     0      -4.766   7.989 -16.140  0.00  0.00     0.021 A 
HETATM    4  N   UNK     0      -3.516   7.504 -15.944  0.00  0.00    -0.361 N 
HETATM    5  C   UNK     0      -2.664   8.547 -15.887  0.00  0.00     0.022 A 
HETATM    6  C   UNK     0      -3.376   9.732 -16.040  0.00  0.00    -0.027 A 
HETATM    7  C   UNK     0      -1.171   8.552 -15.780  0.00  0.00     0.115 C 
HETATM    8  C   UNK     0      -0.423   7.542 -16.633  0.00  0.00     0.021 A 
HETATM    9  N   UNK     0      -0.722   7.105 -17.866  0.00  0.00    -0.361 N 
HETATM   10  C   UNK     0       0.166   6.142 -18.195  0.00  0.00     0.022 A 
HETATM   11  C   UNK     0       1.067   5.962 -17.150  0.00  0.00    -0.027 A 
HETATM   12  C   UNK     0       0.702   6.840 -16.162  0.00  0.00    -0.031 A 
HETATM   13  C   UNK     0       1.404   7.001 -14.832  0.00  0.00     0.051 C 
HETATM   14  C   UNK     0       0.168   5.321 -19.482  0.00  0.00     0.115 C 
HETATM   15  C   UNK     0      -1.090   4.492 -19.685  0.00  0.00     0.021 A 
HETATM   16  N   UNK     0      -2.360   4.930 -19.758  0.00  0.00    -0.361 N 
HETATM   17  C   UNK     0      -3.180   3.883 -19.870  0.00  0.00     0.022 A 
HETATM   18  C   UNK     0      -2.406   2.706 -19.879  0.00  0.00    -0.027 A 
HETATM   19  C   UNK     0      -1.099   3.100 -19.764  0.00  0.00    -0.031 A 
HETATM   20  C   UNK     0       0.076   2.140 -19.769  0.00  0.00     0.051 C 
HETATM   21  C   UNK     0      -4.691   3.832 -19.914  0.00  0.00     0.115 C 
HETATM   22  C   UNK     0      -5.447   4.859 -19.105  0.00  0.00     0.022 A 
HETATM   23  N   UNK     0      -5.171   5.316 -17.877  0.00  0.00    -0.361 N 
HETATM   24  C   UNK     0      -6.019   6.327 -17.601  0.00  0.00     0.021 A 
HETATM   25  C   UNK     0      -6.869   6.519 -18.673  0.00  0.00    -0.031 A 
HETATM   26  C   UNK     0      -8.011   7.503 -18.819  0.00  0.00     0.051 C 
HETATM   27  C   UNK     0      -6.523   5.590 -19.648  0.00  0.00    -0.027 A 
HETATM   28  C   UNK     0      -6.034   7.217 -16.370  0.00  0.00     0.115 C 
HETATM   29  H   UNK     0      -3.251   6.429 -15.809  0.00  0.00     0.165 HD
HETATM   30  H   UNK     0      -1.528   7.508 -18.526  0.00  0.00     0.165 HD
HETATM   31  H   UNK     0      -2.683   6.004 -19.780  0.00  0.00     0.165 HD
HETATM   32  H   UNK     0      -4.401   4.900 -17.176  0.00  0.00     0.165 HD
ENDROOT
BRANCH   6  33
HETATM   33  C   UNK     0      -2.895  11.160 -16.044  0.00  0.00     0.051 C 
BRANCH  33  34
HETATM   34  C   UNK     0      -3.374  11.890 -14.811  0.00  0.00     0.114 C 
BRANCH  34  35
HETATM   35  C   UNK     0      -2.504  11.467 -13.676  0.00  0.00     0.139 C 
HETATM   36  O   UNK     0      -1.356  11.978 -13.528  0.00  0.00    -0.650 OA
BRANCH  35  37
HETATM   37  O   UNK     0      -2.899  10.516 -12.743  0.00  0.00    -0.776 OA
HETATM   38  H   UNK     0      -3.846  10.175 -12.696  0.00  0.00     0.167 HD
ENDBRANCH  35  37
ENDBRANCH  34  35
ENDBRANCH  33  34
ENDBRANCH   6  33
BRANCH  27  39
HETATM   39  C   UNK     0      -7.268   5.443 -20.928  0.00  0.00     0.051 C 
BRANCH  39  40
HETATM   40  C   UNK     0      -8.273   4.385 -21.028  0.00  0.00     0.114 C 
BRANCH  40  41
HETATM   41  C   UNK     0      -9.610   4.636 -21.518  0.00  0.00     0.139 C 
HETATM   42  O   UNK     0     -10.602   4.724 -20.781  0.00  0.00    -0.650 OA
BRANCH  41  43
HETATM   43  O   UNK     0      -9.816   4.793 -22.918  0.00  0.00    -0.776 OA
HETATM   44  H   UNK     0      -8.998   5.105 -23.429  0.00  0.00     0.167 HD
ENDBRANCH  41  43
ENDBRANCH  40  41
ENDBRANCH  39  40
ENDBRANCH  27  39
BRANCH  11  45
HETATM   45  C   UNK     0       2.230   5.011 -17.063  0.00  0.00     0.051 C 
BRANCH  45  46
HETATM   46  C   UNK     0       1.839   3.588 -16.900  0.00  0.00     0.114 C 
BRANCH  46  47
HETATM   47  C   UNK     0       2.098   3.219 -15.478  0.00  0.00     0.139 C 
HETATM   48  O   UNK     0       1.711   2.114 -15.073  0.00  0.00    -0.650 OA
BRANCH  47  49
HETATM   49  O   UNK     0       2.750   4.084 -14.636  0.00  0.00    -0.776 OA
HETATM   50  H   UNK     0       3.407   4.792 -14.983  0.00  0.00     0.167 HD
ENDBRANCH  47  49
ENDBRANCH  46  47
ENDBRANCH  45  46
ENDBRANCH  11  45
BRANCH  18  51
HETATM   51  C   UNK     0      -2.885   1.283 -20.012  0.00  0.00     0.051 C 
BRANCH  51  52
HETATM   52  C   UNK     0      -2.865   0.964 -21.500  0.00  0.00     0.114 C 
BRANCH  52  53
HETATM   53  C   UNK     0      -4.216   0.677 -22.019  0.00  0.00     0.139 C 
HETATM   54  O   UNK     0      -4.923   1.600 -22.455  0.00  0.00    -0.650 OA
BRANCH  53  55
HETATM   55  O   UNK     0      -4.686  -0.613 -22.014  0.00  0.00    -0.776 OA
HETATM   56  H   UNK     0      -4.443  -1.326 -22.661  0.00  0.00     0.167 HD
ENDBRANCH  53  55
ENDBRANCH  52  53
ENDBRANCH  51  52
ENDBRANCH  18  51
TORSDOF 16
ENDMDL
MODEL 11
REMARK VINA RESULT:      -7.3     29.707     32.204
REMARK  16 active torsions:
REMARK  status: ('A' for Active; 'I' for Inactive)
REMARK    1  A    between atoms: C_6  and  C_7 
REMARK    2  A    between atoms: C_7  and  C_8 
REMARK    3  A    between atoms: C_8  and  C_9 
REMARK    4  A    between atoms: C_9  and  O_11 
REMARK    5  A    between atoms: C_16  and  C_17 
REMARK    6  A    between atoms: C_17  and  C_18 
REMARK    7  A    between atoms: C_18  and  C_19 
REMARK    8  A    between atoms: C_19  and  O_21 
REMARK    9  A    between atoms: C_28  and  C_29 
REMARK   10  A    between atoms: C_29  and  C_30 
REMARK   11  A    between atoms: C_30  and  C_31 
REMARK   12  A    between atoms: C_31  and  O_33 
REMARK   13  A    between atoms: C_42  and  C_43 
REMARK   14  A    between atoms: C_43  and  C_44 
REMARK   15  A    between atoms: C_44  and  C_45 
REMARK   16  A    between atoms: C_45  and  O_47 
ROOT
HETATM    1  C   UNK     0       0.929  -8.962  13.015  0.00  0.00     0.051 C 
HETATM    2  C   UNK     0      -0.463  -8.612  12.528  0.00  0.00    -0.031 A 
HETATM    3  C   UNK     0      -1.566  -8.186  13.251  0.00  0.00     0.021 A 
HETATM    4  N   UNK     0      -2.610  -8.021  12.405  0.00  0.00    -0.361 N 
HETATM    5  C   UNK     0      -2.194  -8.323  11.158  0.00  0.00     0.022 A 
HETATM    6  C   UNK     0      -0.856  -8.699  11.199  0.00  0.00    -0.027 A 
HETATM    7  C   UNK     0      -2.927  -8.215   9.857  0.00  0.00     0.115 C 
HETATM    8  C   UNK     0      -3.763  -6.965   9.648  0.00  0.00     0.021 A 
HETATM    9  N   UNK     0      -3.510  -5.712  10.055  0.00  0.00    -0.361 N 
HETATM   10  C   UNK     0      -4.571  -4.943   9.729  0.00  0.00     0.022 A 
HETATM   11  C   UNK     0      -5.529  -5.720   9.084  0.00  0.00    -0.027 A 
HETATM   12  C   UNK     0      -5.026  -6.995   9.029  0.00  0.00    -0.031 A 
HETATM   13  C   UNK     0      -5.725  -8.184   8.409  0.00  0.00     0.051 C 
HETATM   14  C   UNK     0      -4.745  -3.462  10.056  0.00  0.00     0.115 C 
HETATM   15  C   UNK     0      -4.747  -3.158  11.546  0.00  0.00     0.021 A 
HETATM   16  N   UNK     0      -3.775  -3.422  12.439  0.00  0.00    -0.361 N 
HETATM   17  C   UNK     0      -4.189  -3.064  13.657  0.00  0.00     0.022 A 
HETATM   18  C   UNK     0      -5.490  -2.531  13.550  0.00  0.00    -0.027 A 
HETATM   19  C   UNK     0      -5.827  -2.594  12.223  0.00  0.00    -0.031 A 
HETATM   20  C   UNK     0      -7.142  -2.086  11.661  0.00  0.00     0.051 C 
HETATM   21  C   UNK     0      -3.510  -3.216  14.998  0.00  0.00     0.115 C 
HETATM   22  C   UNK     0      -2.639  -4.433  15.205  0.00  0.00     0.022 A 
HETATM   23  N   UNK     0      -2.864  -5.692  14.806  0.00  0.00    -0.361 N 
HETATM   24  C   UNK     0      -1.763  -6.423  15.073  0.00  0.00     0.021 A 
HETATM   25  C   UNK     0      -0.810  -5.618  15.666  0.00  0.00    -0.031 A 
HETATM   26  C   UNK     0       0.566  -5.990  16.180  0.00  0.00     0.051 C 
HETATM   27  C   UNK     0      -1.347  -4.340  15.762  0.00  0.00    -0.027 A 
HETATM   28  C   UNK     0      -1.506  -7.878  14.720  0.00  0.00     0.115 C 
HETATM   29  H   UNK     0      -3.645  -7.730  12.700  0.00  0.00     0.165 HD
HETATM   30  H   UNK     0      -2.563  -5.356  10.530  0.00  0.00     0.165 HD
HETATM   31  H   UNK     0      -2.757  -3.827  12.200  0.00  0.00     0.165 HD
HETATM   32  H   UNK     0      -3.819  -6.086  14.372  0.00  0.00     0.165 HD
ENDROOT
BRANCH   6  33
HETATM   33  C   UNK     0       0.065  -9.133  10.086  0.00  0.00     0.051 C 
BRANCH  33  34
HETATM   34  C   UNK     0      -0.146 -10.591   9.755  0.00  0.00     0.114 C 
BRANCH  34  35
HETATM   35  C   UNK     0       1.046 -11.051   8.986  0.00  0.00     0.139 C 
HETATM   36  O   UNK     0       1.791 -10.211   8.402  0.00  0.00    -0.650 OA
BRANCH  35  37
HETATM   37  O   UNK     0       1.395 -12.392   8.876  0.00  0.00    -0.776 OA
HETATM   38  H   UNK     0       1.873 -12.755   8.067  0.00  0.00     0.167 HD
ENDBRANCH  35  37
ENDBRANCH  34  35
ENDBRANCH  33  34
ENDBRANCH   6  33
BRANCH  27  39
HETATM   39  C   UNK     0      -0.636  -3.208  16.417  0.00  0.00     0.051 C 
BRANCH  39  40
HETATM   40  C   UNK     0      -0.057  -2.168  15.567  0.00  0.00     0.114 C 
BRANCH  40  41
HETATM   41  C   UNK     0       0.930  -2.462  14.552  0.00  0.00     0.139 C 
HETATM   42  O   UNK     0       0.642  -2.755  13.384  0.00  0.00    -0.650 OA
BRANCH  41  43
HETATM   43  O   UNK     0       2.310  -2.418  14.897  0.00  0.00    -0.776 OA
HETATM   44  H   UNK     0       2.729  -3.324  15.067  0.00  0.00     0.167 HD
ENDBRANCH  41  43
ENDBRANCH  40  41
ENDBRANCH  39  40
ENDBRANCH  27  39
BRANCH  11  45
HETATM   45  C   UNK     0      -6.865  -5.301   8.532  0.00  0.00     0.051 C 
BRANCH  45  46
HETATM   46  C   UNK     0      -7.941  -5.212   9.552  0.00  0.00     0.114 C 
BRANCH  46  47
HETATM   47  C   UNK     0      -9.113  -4.560   8.902  0.00  0.00     0.139 C 
HETATM   48  O   UNK     0      -9.399  -3.398   9.222  0.00  0.00    -0.650 OA
BRANCH  47  49
HETATM   49  O   UNK     0      -9.862  -5.231   7.968  0.00  0.00    -0.776 OA
HETATM   50  H   UNK     0     -10.380  -4.741   7.230  0.00  0.00     0.167 HD
ENDBRANCH  47  49
ENDBRANCH  46  47
ENDBRANCH  45  46
ENDBRANCH  11  45
BRANCH  18  51
HETATM   51  C   UNK     0      -6.355  -1.973  14.650  0.00  0.00     0.051 C 
BRANCH  51  52
HETATM   52  C   UNK     0      -5.964  -0.510  14.798  0.00  0.00     0.114 C 
BRANCH  52  53
HETATM   53  C   UNK     0      -7.140   0.353  15.022  0.00  0.00     0.139 C 
HETATM   54  O   UNK     0      -7.757   0.825  14.053  0.00  0.00    -0.650 OA
BRANCH  53  55
HETATM   55  O   UNK     0      -7.544   0.633  16.304  0.00  0.00    -0.776 OA
HETATM   56  H   UNK     0      -7.725   1.535  16.676  0.00  0.00     0.167 HD
ENDBRANCH  53  55
ENDBRANCH  52  53
ENDBRANCH  51  52
ENDBRANCH  18  51
TORSDOF 16
ENDMDL
MODEL 12
REMARK VINA RESULT:      -7.1     29.246     32.078
REMARK  16 active torsions:
REMARK  status: ('A' for Active; 'I' for Inactive)
REMARK    1  A    between atoms: C_6  and  C_7 
REMARK    2  A    between atoms: C_7  and  C_8 
REMARK    3  A    between atoms: C_8  and  C_9 
REMARK    4  A    between atoms: C_9  and  O_11 
REMARK    5  A    between atoms: C_16  and  C_17 
REMARK    6  A    between atoms: C_17  and  C_18 
REMARK    7  A    between atoms: C_18  and  C_19 
REMARK    8  A    between atoms: C_19  and  O_21 
REMARK    9  A    between atoms: C_28  and  C_29 
REMARK   10  A    between atoms: C_29  and  C_30 
REMARK   11  A    between atoms: C_30  and  C_31 
REMARK   12  A    between atoms: C_31  and  O_33 
REMARK   13  A    between atoms: C_42  and  C_43 
REMARK   14  A    between atoms: C_43  and  C_44 
REMARK   15  A    between atoms: C_44  and  C_45 
REMARK   16  A    between atoms: C_45  and  O_47 
ROOT
HETATM    1  C   UNK     0      -7.470  -4.265  13.758  0.00  0.00     0.051 C 
HETATM    2  C   UNK     0      -6.037  -4.567  14.147  0.00  0.00    -0.031 A 
HETATM    3  C   UNK     0      -5.289  -5.713  13.930  0.00  0.00     0.021 A 
HETATM    4  N   UNK     0      -4.062  -5.550  14.479  0.00  0.00    -0.361 N 
HETATM    5  C   UNK     0      -4.009  -4.321  15.033  0.00  0.00     0.022 A 
HETATM    6  C   UNK     0      -5.229  -3.680  14.846  0.00  0.00    -0.027 A 
HETATM    7  C   UNK     0      -2.857  -3.618  15.681  0.00  0.00     0.115 C 
HETATM    8  C   UNK     0      -1.508  -3.745  14.994  0.00  0.00     0.021 A 
HETATM    9  N   UNK     0      -1.240  -3.801  13.681  0.00  0.00    -0.361 N 
HETATM   10  C   UNK     0       0.085  -4.008  13.531  0.00  0.00     0.022 A 
HETATM   11  C   UNK     0       0.689  -4.078  14.783  0.00  0.00    -0.027 A 
HETATM   12  C   UNK     0      -0.309  -3.913  15.709  0.00  0.00    -0.031 A 
HETATM   13  C   UNK     0      -0.118  -3.912  17.210  0.00  0.00     0.051 C 
HETATM   14  C   UNK     0       0.824  -4.200  12.210  0.00  0.00     0.115 C 
HETATM   15  C   UNK     0       0.357  -5.407  11.413  0.00  0.00     0.021 A 
HETATM   16  N   UNK     0      -0.885  -5.661  10.959  0.00  0.00    -0.361 N 
HETATM   17  C   UNK     0      -0.899  -6.857  10.366  0.00  0.00     0.022 A 
HETATM   18  C   UNK     0       0.398  -7.405  10.429  0.00  0.00    -0.027 A 
HETATM   19  C   UNK     0       1.175  -6.486  11.086  0.00  0.00    -0.031 A 
HETATM   20  C   UNK     0       2.661  -6.665  11.339  0.00  0.00     0.051 C 
HETATM   21  C   UNK     0      -2.050  -7.629   9.762  0.00  0.00     0.115 C 
HETATM   22  C   UNK     0      -3.407  -7.477  10.408  0.00  0.00     0.022 A 
HETATM   23  N   UNK     0      -3.703  -7.414  11.713  0.00  0.00    -0.361 N 
HETATM   24  C   UNK     0      -5.015  -7.130  11.837  0.00  0.00     0.021 A 
HETATM   25  C   UNK     0      -5.580  -7.017  10.581  0.00  0.00    -0.031 A 
HETATM   26  C   UNK     0      -7.023  -6.749  10.206  0.00  0.00     0.051 C 
HETATM   27  C   UNK     0      -4.571  -7.235   9.650  0.00  0.00    -0.027 A 
HETATM   28  C   UNK     0      -5.794  -6.870  13.115  0.00  0.00     0.115 C 
HETATM   29  H   UNK     0      -3.256  -6.319  14.506  0.00  0.00     0.165 HD
HETATM   30  H   UNK     0      -1.977  -3.644  12.855  0.00  0.00     0.165 HD
HETATM   31  H   UNK     0      -1.759  -4.961  11.015  0.00  0.00     0.165 HD
HETATM   32  H   UNK     0      -2.996  -7.613  12.560  0.00  0.00     0.165 HD
ENDROOT
BRANCH   6  33
HETATM   33  C   UNK     0      -5.680  -2.307  15.278  0.00  0.00     0.051 C 
BRANCH  33  34
HETATM   34  C   UNK     0      -5.245  -1.262  14.278  0.00  0.00     0.114 C 
BRANCH  34  35
HETATM   35  C   UNK     0      -6.057  -0.037  14.531  0.00  0.00     0.139 C 
HETATM   36  O   UNK     0      -6.475   0.661  13.562  0.00  0.00    -0.650 OA
BRANCH  35  37
HETATM   37  O   UNK     0      -6.392   0.389  15.810  0.00  0.00    -0.776 OA
HETATM   38  H   UNK     0      -5.743   0.333  16.579  0.00  0.00     0.167 HD
ENDBRANCH  35  37
ENDBRANCH  34  35
ENDBRANCH  33  34
ENDBRANCH   6  33
BRANCH  27  39
HETATM   39  C   UNK     0      -4.814  -7.264   8.183  0.00  0.00     0.051 C 
BRANCH  39  40
HETATM   40  C   UNK     0      -4.497  -6.068   7.403  0.00  0.00     0.114 C 
BRANCH  40  41
HETATM   41  C   UNK     0      -5.214  -4.824   7.573  0.00  0.00     0.139 C 
HETATM   42  O   UNK     0      -4.820  -3.902   8.299  0.00  0.00    -0.650 OA
BRANCH  41  43
HETATM   43  O   UNK     0      -6.442  -4.633   6.877  0.00  0.00    -0.776 OA
HETATM   44  H   UNK     0      -6.354  -4.624   5.868  0.00  0.00     0.167 HD
ENDBRANCH  41  43
ENDBRANCH  40  41
ENDBRANCH  39  40
ENDBRANCH  27  39
BRANCH  11  45
HETATM   45  C   UNK     0       2.142  -4.287  15.118  0.00  0.00     0.051 C 
BRANCH  45  46
HETATM   46  C   UNK     0       2.531  -5.713  15.262  0.00  0.00     0.114 C 
BRANCH  46  47
HETATM   47  C   UNK     0       3.529  -5.789  16.367  0.00  0.00     0.139 C 
HETATM   48  O   UNK     0       3.936  -6.904  16.723  0.00  0.00    -0.650 OA
BRANCH  47  49
HETATM   49  O   UNK     0       3.988  -4.650  16.979  0.00  0.00    -0.776 OA
HETATM   50  H   UNK     0       4.972  -4.534  17.249  0.00  0.00     0.167 HD
ENDBRANCH  47  49
ENDBRANCH  46  47
ENDBRANCH  45  46
ENDBRANCH  11  45
BRANCH  18  51
HETATM   51  C   UNK     0       0.875  -8.722   9.875  0.00  0.00     0.051 C 
BRANCH  51  52
HETATM   52  C   UNK     0       0.328  -9.797  10.802  0.00  0.00     0.114 C 
BRANCH  52  53
HETATM   53  C   UNK     0       1.405 -10.487  11.539  0.00  0.00     0.139 C 
HETATM   54  O   UNK     0       1.966  -9.923  12.491  0.00  0.00    -0.650 OA
BRANCH  53  55
HETATM   55  O   UNK     0       1.783 -11.753  11.162  0.00  0.00    -0.776 OA
HETATM   56  H   UNK     0       1.682 -12.148  10.257  0.00  0.00     0.167 HD
ENDBRANCH  53  55
ENDBRANCH  52  53
ENDBRANCH  51  52
ENDBRANCH  18  51
TORSDOF 16
ENDMDL
MODEL 13
REMARK VINA RESULT:      -7.0      4.129     10.998
REMARK  16 active torsions:
REMARK  status: ('A' for Active; 'I' for Inactive)
REMARK    1  A    between atoms: C_6  and  C_7 
REMARK    2  A    between atoms: C_7  and  C_8 
REMARK    3  A    between atoms: C_8  and  C_9 
REMARK    4  A    between atoms: C_9  and  O_11 
REMARK    5  A    between atoms: C_16  and  C_17 
REMARK    6  A    between atoms: C_17  and  C_18 
REMARK    7  A    between atoms: C_18  and  C_19 
REMARK    8  A    between atoms: C_19  and  O_21 
REMARK    9  A    between atoms: C_28  and  C_29 
REMARK   10  A    between atoms: C_29  and  C_30 
REMARK   11  A    between atoms: C_30  and  C_31 
REMARK   12  A    between atoms: C_31  and  O_33 
REMARK   13  A    between atoms: C_42  and  C_43 
REMARK   14  A    between atoms: C_43  and  C_44 
REMARK   15  A    between atoms: C_44  and  C_45 
REMARK   16  A    between atoms: C_45  and  O_47 
ROOT
HETATM    1  C   UNK     0       3.767  14.956  -8.577  0.00  0.00     0.051 C 
HETATM    2  C   UNK     0       4.820  15.931  -8.093  0.00  0.00    -0.031 A 
HETATM    3  C   UNK     0       4.749  17.310  -7.964  0.00  0.00     0.021 A 
HETATM    4  N   UNK     0       5.942  17.773  -7.521  0.00  0.00    -0.361 N 
HETATM    5  C   UNK     0       6.769  16.720  -7.357  0.00  0.00     0.022 A 
HETATM    6  C   UNK     0       6.100  15.552  -7.709  0.00  0.00    -0.027 A 
HETATM    7  C   UNK     0       8.159  16.677  -6.804  0.00  0.00     0.115 C 
HETATM    8  C   UNK     0       8.428  17.522  -5.571  0.00  0.00     0.021 A 
HETATM    9  N   UNK     0       7.608  17.781  -4.541  0.00  0.00    -0.361 N 
HETATM   10  C   UNK     0       8.232  18.651  -3.718  0.00  0.00     0.022 A 
HETATM   11  C   UNK     0       9.491  18.953  -4.228  0.00  0.00    -0.027 A 
HETATM   12  C   UNK     0       9.621  18.244  -5.395  0.00  0.00    -0.031 A 
HETATM   13  C   UNK     0      10.837  18.258  -6.295  0.00  0.00     0.051 C 
HETATM   14  C   UNK     0       7.647  19.272  -2.452  0.00  0.00     0.115 C 
HETATM   15  C   UNK     0       6.400  20.106  -2.695  0.00  0.00     0.021 A 
HETATM   16  N   UNK     0       5.239  19.707  -3.247  0.00  0.00    -0.361 N 
HETATM   17  C   UNK     0       4.419  20.755  -3.348  0.00  0.00     0.022 A 
HETATM   18  C   UNK     0       5.072  21.890  -2.827  0.00  0.00    -0.027 A 
HETATM   19  C   UNK     0       6.312  21.469  -2.420  0.00  0.00    -0.031 A 
HETATM   20  C   UNK     0       7.336  22.376  -1.761  0.00  0.00     0.051 C 
HETATM   21  C   UNK     0       3.039  20.854  -3.958  0.00  0.00     0.115 C 
HETATM   22  C   UNK     0       2.743  19.986  -5.159  0.00  0.00     0.022 A 
HETATM   23  N   UNK     0       3.542  19.707  -6.197  0.00  0.00    -0.361 N 
HETATM   24  C   UNK     0       2.932  18.779  -6.963  0.00  0.00     0.021 A 
HETATM   25  C   UNK     0       1.707  18.461  -6.409  0.00  0.00    -0.031 A 
HETATM   26  C   UNK     0       0.647  17.508  -6.922  0.00  0.00     0.051 C 
HETATM   27  C   UNK     0       1.563  19.221  -5.254  0.00  0.00    -0.027 A 
HETATM   28  C   UNK     0       3.482  18.084  -8.196  0.00  0.00     0.115 C 
HETATM   29  H   UNK     0       6.205  18.845  -7.366  0.00  0.00     0.165 HD
HETATM   30  H   UNK     0       6.609  17.314  -4.365  0.00  0.00     0.165 HD
HETATM   31  H   UNK     0       4.975  18.655  -3.529  0.00  0.00     0.165 HD
HETATM   32  H   UNK     0       4.525  20.194  -6.423  0.00  0.00     0.165 HD
ENDROOT
BRANCH   6  33
HETATM   33  C   UNK     0       6.578  14.122  -7.709  0.00  0.00     0.051 C 
BRANCH  33  34
HETATM   34  C   UNK     0       7.379  13.827  -8.955  0.00  0.00     0.114 C 
BRANCH  34  35
HETATM   35  C   UNK     0       8.471  12.886  -8.571  0.00  0.00     0.139 C 
HETATM   36  O   UNK     0       9.029  12.986  -7.440  0.00  0.00    -0.650 OA
BRANCH  35  37
HETATM   37  O   UNK     0       8.920  11.876  -9.413  0.00  0.00    -0.776 OA
HETATM   38  H   UNK     0       8.526  11.728 -10.328  0.00  0.00     0.167 HD
ENDBRANCH  35  37
ENDBRANCH  34  35
ENDBRANCH  33  34
ENDBRANCH   6  33
BRANCH  27  39
HETATM   39  C   UNK     0       0.331  19.203  -4.419  0.00  0.00     0.051 C 
BRANCH  39  40
HETATM   40  C   UNK     0      -0.019  17.963  -3.726  0.00  0.00     0.114 C 
BRANCH  40  41
HETATM   41  C   UNK     0      -0.502  17.952  -2.364  0.00  0.00     0.139 C 
HETATM   42  O   UNK     0       0.100  17.407  -1.430  0.00  0.00    -0.650 OA
BRANCH  41  43
HETATM   43  O   UNK     0      -1.735  18.598  -2.062  0.00  0.00    -0.776 OA
HETATM   44  H   UNK     0      -1.749  19.080  -1.172  0.00  0.00     0.167 HD
ENDBRANCH  41  43
ENDBRANCH  40  41
ENDBRANCH  39  40
ENDBRANCH  27  39
BRANCH  11  45
HETATM   45  C   UNK     0      10.545  19.863  -3.657  0.00  0.00     0.051 C 
BRANCH  45  46
HETATM   46  C   UNK     0      10.125  21.284  -3.550  0.00  0.00     0.114 C 
BRANCH  46  47
HETATM   47  C   UNK     0       9.788  21.750  -4.925  0.00  0.00     0.139 C 
HETATM   48  O   UNK     0      10.707  21.885  -5.746  0.00  0.00    -0.650 OA
BRANCH  47  49
HETATM   49  O   UNK     0       8.491  22.024  -5.276  0.00  0.00    -0.776 OA
HETATM   50  H   UNK     0       7.853  22.531  -4.652  0.00  0.00     0.167 HD
ENDBRANCH  47  49
ENDBRANCH  46  47
ENDBRANCH  45  46
ENDBRANCH  11  45
BRANCH  18  51
HETATM   51  C   UNK     0       4.537  23.293  -2.705  0.00  0.00     0.051 C 
BRANCH  51  52
HETATM   52  C   UNK     0       4.725  23.941  -4.068  0.00  0.00     0.114 C 
BRANCH  52  53
HETATM   53  C   UNK     0       5.947  24.768  -4.119  0.00  0.00     0.139 C 
HETATM   54  O   UNK     0       6.034  25.791  -3.421  0.00  0.00    -0.650 OA
BRANCH  53  55
HETATM   55  O   UNK     0       6.982  24.401  -4.945  0.00  0.00    -0.776 OA
HETATM   56  H   UNK     0       6.987  24.461  -5.936  0.00  0.00     0.167 HD
ENDBRANCH  53  55
ENDBRANCH  52  53
ENDBRANCH  51  52
ENDBRANCH  18  51
TORSDOF 16
ENDMDL
MODEL 14
REMARK VINA RESULT:      -7.0      2.150      7.220
REMARK  16 active torsions:
REMARK  status: ('A' for Active; 'I' for Inactive)
REMARK    1  A    between atoms: C_6  and  C_7 
REMARK    2  A    between atoms: C_7  and  C_8 
REMARK    3  A    between atoms: C_8  and  C_9 
REMARK    4  A    between atoms: C_9  and  O_11 
REMARK    5  A    between atoms: C_16  and  C_17 
REMARK    6  A    between atoms: C_17  and  C_18 
REMARK    7  A    between atoms: C_18  and  C_19 
REMARK    8  A    between atoms: C_19  and  O_21 
REMARK    9  A    between atoms: C_28  and  C_29 
REMARK   10  A    between atoms: C_29  and  C_30 
REMARK   11  A    between atoms: C_30  and  C_31 
REMARK   12  A    between atoms: C_31  and  O_33 
REMARK   13  A    between atoms: C_42  and  C_43 
REMARK   14  A    between atoms: C_43  and  C_44 
REMARK   15  A    between atoms: C_44  and  C_45 
REMARK   16  A    between atoms: C_45  and  O_47 
ROOT
HETATM    1  C   UNK     0       4.800  15.746  -8.688  0.00  0.00     0.051 C 
HETATM    2  C   UNK     0       5.989  16.049  -7.799  0.00  0.00    -0.031 A 
HETATM    3  C   UNK     0       6.878  15.177  -7.191  0.00  0.00     0.021 A 
HETATM    4  N   UNK     0       7.767  15.891  -6.460  0.00  0.00    -0.361 N 
HETATM    5  C   UNK     0       7.470  17.199  -6.597  0.00  0.00     0.022 A 
HETATM    6  C   UNK     0       6.361  17.334  -7.425  0.00  0.00    -0.027 A 
HETATM    7  C   UNK     0       8.195  18.400  -6.074  0.00  0.00     0.115 C 
HETATM    8  C   UNK     0       9.710  18.378  -6.176  0.00  0.00     0.021 A 
HETATM    9  N   UNK     0      10.476  17.854  -7.145  0.00  0.00    -0.361 N 
HETATM   10  C   UNK     0      11.767  17.983  -6.775  0.00  0.00     0.022 A 
HETATM   11  C   UNK     0      11.836  18.616  -5.538  0.00  0.00    -0.027 A 
HETATM   12  C   UNK     0      10.544  18.868  -5.155  0.00  0.00    -0.031 A 
HETATM   13  C   UNK     0      10.130  19.552  -3.871  0.00  0.00     0.051 C 
HETATM   14  C   UNK     0      12.981  17.469  -7.544  0.00  0.00     0.115 C 
HETATM   15  C   UNK     0      12.993  15.961  -7.740  0.00  0.00     0.021 A 
HETATM   16  N   UNK     0      12.063  15.205  -8.352  0.00  0.00    -0.361 N 
HETATM   17  C   UNK     0      12.408  13.919  -8.252  0.00  0.00     0.022 A 
HETATM   18  C   UNK     0      13.626  13.834  -7.549  0.00  0.00    -0.027 A 
HETATM   19  C   UNK     0      13.982  15.120  -7.235  0.00  0.00    -0.031 A 
HETATM   20  C   UNK     0      15.260  15.486  -6.502  0.00  0.00     0.051 C 
HETATM   21  C   UNK     0      11.673  12.678  -8.705  0.00  0.00     0.115 C 
HETATM   22  C   UNK     0      10.164  12.701  -8.651  0.00  0.00     0.022 A 
HETATM   23  N   UNK     0       9.375  13.220  -7.701  0.00  0.00    -0.361 N 
HETATM   24  C   UNK     0       8.098  13.151  -8.126  0.00  0.00     0.021 A 
HETATM   25  C   UNK     0       8.062  12.564  -9.376  0.00  0.00    -0.031 A 
HETATM   26  C   UNK     0       6.862  12.235 -10.240  0.00  0.00     0.051 C 
HETATM   27  C   UNK     0       9.372  12.267  -9.733  0.00  0.00    -0.027 A 
HETATM   28  C   UNK     0       6.858  13.694  -7.437  0.00  0.00     0.115 C 
HETATM   29  H   UNK     0       8.574  15.463  -5.822  0.00  0.00     0.165 HD
HETATM   30  H   UNK     0      10.109  17.437  -8.115  0.00  0.00     0.165 HD
HETATM   31  H   UNK     0      11.168  15.588  -8.909  0.00  0.00     0.165 HD
HETATM   32  H   UNK     0       9.710  13.601  -6.701  0.00  0.00     0.165 HD
ENDROOT
BRANCH   6  33
HETATM   33  C   UNK     0       5.635  18.575  -7.881  0.00  0.00     0.051 C 
BRANCH  33  34
HETATM   34  C   UNK     0       4.623  19.012  -6.849  0.00  0.00     0.114 C 
BRANCH  34  35
HETATM   35  C   UNK     0       3.268  18.796  -7.433  0.00  0.00     0.139 C 
HETATM   36  O   UNK     0       3.042  19.087  -8.644  0.00  0.00    -0.650 OA
BRANCH  35  37
HETATM   37  O   UNK     0       2.210  18.274  -6.699  0.00  0.00    -0.776 OA
HETATM   38  H   UNK     0       2.210  17.325  -6.363  0.00  0.00     0.167 HD
ENDBRANCH  35  37
ENDBRANCH  34  35
ENDBRANCH  33  34
ENDBRANCH   6  33
BRANCH  27  39
HETATM   39  C   UNK     0       9.728  11.558 -10.993  0.00  0.00     0.051 C 
BRANCH  39  40
HETATM   40  C   UNK     0       9.930  12.354 -12.203  0.00  0.00     0.114 C 
BRANCH  40  41
HETATM   41  C   UNK     0      10.789  13.516 -12.228  0.00  0.00     0.139 C 
HETATM   42  O   UNK     0      10.368  14.674 -12.353  0.00  0.00    -0.650 OA
BRANCH  41  43
HETATM   43  O   UNK     0      12.196  13.338 -12.102  0.00  0.00    -0.776 OA
HETATM   44  H   UNK     0      12.734  13.694 -12.883  0.00  0.00     0.167 HD
ENDBRANCH  41  43
ENDBRANCH  40  41
ENDBRANCH  39  40
ENDBRANCH  27  39
BRANCH  11  45
HETATM   45  C   UNK     0      13.054  18.981  -4.733  0.00  0.00     0.051 C 
BRANCH  45  46
HETATM   46  C   UNK     0      13.421  20.418  -4.806  0.00  0.00     0.114 C 
BRANCH  46  47
HETATM   47  C   UNK     0      14.524  20.542  -5.802  0.00  0.00     0.139 C 
HETATM   48  O   UNK     0      15.694  20.466  -5.403  0.00  0.00    -0.650 OA
BRANCH  47  49
HETATM   49  O   UNK     0      14.250  20.739  -7.132  0.00  0.00    -0.776 OA
HETATM   50  H   UNK     0      14.814  21.365  -7.718  0.00  0.00     0.167 HD
ENDBRANCH  47  49
ENDBRANCH  46  47
ENDBRANCH  45  46
ENDBRANCH  11  45
BRANCH  18  51
HETATM   51  C   UNK     0      14.417  12.597  -7.213  0.00  0.00     0.051 C 
BRANCH  51  52
HETATM   52  C   UNK     0      13.789  12.017  -5.954  0.00  0.00     0.114 C 
BRANCH  52  53
HETATM   53  C   UNK     0      13.287  10.647  -6.171  0.00  0.00     0.139 C 
HETATM   54  O   UNK     0      13.765   9.947  -7.079  0.00  0.00    -0.650 OA
BRANCH  53  55
HETATM   55  O   UNK     0      12.289  10.153  -5.367  0.00  0.00    -0.776 OA
HETATM   56  H   UNK     0      12.395   9.839  -4.431  0.00  0.00     0.167 HD
ENDBRANCH  53  55
ENDBRANCH  52  53
ENDBRANCH  51  52
ENDBRANCH  18  51
TORSDOF 16
ENDMDL
MODEL 15
REMARK VINA RESULT:      -7.0     29.222     31.124
REMARK  16 active torsions:
REMARK  status: ('A' for Active; 'I' for Inactive)
REMARK    1  A    between atoms: C_6  and  C_7 
REMARK    2  A    between atoms: C_7  and  C_8 
REMARK    3  A    between atoms: C_8  and  C_9 
REMARK    4  A    between atoms: C_9  and  O_11 
REMARK    5  A    between atoms: C_16  and  C_17 
REMARK    6  A    between atoms: C_17  and  C_18 
REMARK    7  A    between atoms: C_18  and  C_19 
REMARK    8  A    between atoms: C_19  and  O_21 
REMARK    9  A    between atoms: C_28  and  C_29 
REMARK   10  A    between atoms: C_29  and  C_30 
REMARK   11  A    between atoms: C_30  and  C_31 
REMARK   12  A    between atoms: C_31  and  O_33 
REMARK   13  A    between atoms: C_42  and  C_43 
REMARK   14  A    between atoms: C_43  and  C_44 
REMARK   15  A    between atoms: C_44  and  C_45 
REMARK   16  A    between atoms: C_45  and  O_47 
ROOT
HETATM    1  C   UNK     0       2.120  -5.477  14.664  0.00  0.00     0.051 C 
HETATM    2  C   UNK     0       0.812  -4.895  14.170  0.00  0.00    -0.031 A 
HETATM    3  C   UNK     0       0.355  -4.737  12.871  0.00  0.00     0.021 A 
HETATM    4  N   UNK     0      -0.862  -4.142  12.901  0.00  0.00    -0.361 N 
HETATM    5  C   UNK     0      -1.193  -3.926  14.190  0.00  0.00     0.022 A 
HETATM    6  C   UNK     0      -0.168  -4.383  15.011  0.00  0.00    -0.027 A 
HETATM    7  C   UNK     0      -2.463  -3.385  14.769  0.00  0.00     0.115 C 
HETATM    8  C   UNK     0      -3.759  -3.890  14.160  0.00  0.00     0.021 A 
HETATM    9  N   UNK     0      -4.039  -5.114  13.686  0.00  0.00    -0.361 N 
HETATM   10  C   UNK     0      -5.280  -5.084  13.155  0.00  0.00     0.022 A 
HETATM   11  C   UNK     0      -5.818  -3.808  13.300  0.00  0.00    -0.027 A 
HETATM   12  C   UNK     0      -4.865  -3.051  13.932  0.00  0.00    -0.031 A 
HETATM   13  C   UNK     0      -5.013  -1.593  14.303  0.00  0.00     0.051 C 
HETATM   14  C   UNK     0      -5.985  -6.237  12.446  0.00  0.00     0.115 C 
HETATM   15  C   UNK     0      -5.263  -6.729  11.202  0.00  0.00     0.021 A 
HETATM   16  N   UNK     0      -4.009  -7.210  11.117  0.00  0.00    -0.361 N 
HETATM   17  C   UNK     0      -3.724  -7.468   9.839  0.00  0.00     0.022 A 
HETATM   18  C   UNK     0      -4.850  -7.148   9.054  0.00  0.00    -0.027 A 
HETATM   19  C   UNK     0      -5.807  -6.687   9.920  0.00  0.00    -0.031 A 
HETATM   20  C   UNK     0      -7.200  -6.264   9.491  0.00  0.00     0.051 C 
HETATM   21  C   UNK     0      -2.437  -7.950   9.208  0.00  0.00     0.115 C 
HETATM   22  C   UNK     0      -1.140  -7.491   9.831  0.00  0.00     0.022 A 
HETATM   23  N   UNK     0      -0.835  -6.280  10.315  0.00  0.00    -0.361 N 
HETATM   24  C   UNK     0       0.374  -6.353  10.908  0.00  0.00     0.021 A 
HETATM   25  C   UNK     0       0.864  -7.640  10.794  0.00  0.00    -0.031 A 
HETATM   26  C   UNK     0       2.190  -8.200  11.263  0.00  0.00     0.051 C 
HETATM   27  C   UNK     0      -0.088  -8.387  10.108  0.00  0.00    -0.027 A 
HETATM   28  C   UNK     0       1.100  -5.262  11.677  0.00  0.00     0.115 C 
HETATM   29  H   UNK     0      -1.460  -3.842  12.009  0.00  0.00     0.165 HD
HETATM   30  H   UNK     0      -3.383  -6.014  13.769  0.00  0.00     0.165 HD
HETATM   31  H   UNK     0      -3.326  -7.418  11.982  0.00  0.00     0.165 HD
HETATM   32  H   UNK     0      -1.451  -5.350  10.205  0.00  0.00     0.165 HD
ENDROOT
BRANCH   6  33
HETATM   33  C   UNK     0      -0.048  -4.368  16.514  0.00  0.00     0.051 C 
BRANCH  33  34
HETATM   34  C   UNK     0       0.281  -2.980  17.010  0.00  0.00     0.114 C 
BRANCH  34  35
HETATM   35  C   UNK     0       1.743  -2.767  16.806  0.00  0.00     0.139 C 
HETATM   36  O   UNK     0       2.580  -3.300  17.591  0.00  0.00    -0.650 OA
BRANCH  35  37
HETATM   37  O   UNK     0       2.250  -1.995  15.768  0.00  0.00    -0.776 OA
HETATM   38  H   UNK     0       1.796  -1.150  15.460  0.00  0.00     0.167 HD
ENDBRANCH  35  37
ENDBRANCH  34  35
ENDBRANCH  33  34
ENDBRANCH   6  33
BRANCH  27  39
HETATM   39  C   UNK     0       0.118  -9.812   9.731  0.00  0.00     0.051 C 
BRANCH  39  40
HETATM   40  C   UNK     0      -0.080 -10.836  10.756  0.00  0.00     0.114 C 
BRANCH  40  41
HETATM   41  C   UNK     0       0.986 -11.711  11.188  0.00  0.00     0.139 C 
HETATM   42  O   UNK     0       1.602 -11.565  12.252  0.00  0.00    -0.650 OA
BRANCH  41  43
HETATM   43  O   UNK     0       1.363 -12.804  10.357  0.00  0.00    -0.776 OA
HETATM   44  H   UNK     0       1.512 -13.675  10.852  0.00  0.00     0.167 HD
ENDBRANCH  41  43
ENDBRANCH  40  41
ENDBRANCH  39  40
ENDBRANCH  27  39
BRANCH  11  45
HETATM   45  C   UNK     0      -7.169  -3.302  12.871  0.00  0.00     0.051 C 
BRANCH  45  46
HETATM   46  C   UNK     0      -7.331  -3.176  11.400  0.00  0.00     0.114 C 
BRANCH  46  47
HETATM   47  C   UNK     0      -6.518  -2.004  10.965  0.00  0.00     0.139 C 
HETATM   48  O   UNK     0      -6.888  -0.870  11.299  0.00  0.00    -0.650 OA
BRANCH  47  49
HETATM   49  O   UNK     0      -5.385  -2.177  10.210  0.00  0.00    -0.776 OA
HETATM   50  H   UNK     0      -5.228  -3.022   9.648  0.00  0.00     0.167 HD
ENDBRANCH  47  49
ENDBRANCH  46  47
ENDBRANCH  45  46
ENDBRANCH  11  45
BRANCH  18  51
HETATM   51  C   UNK     0      -5.011  -7.293   7.563  0.00  0.00     0.051 C 
BRANCH  51  52
HETATM   52  C   UNK     0      -4.327  -6.085   6.941  0.00  0.00     0.114 C 
BRANCH  52  53
HETATM   53  C   UNK     0      -5.121  -4.853   7.116  0.00  0.00     0.139 C 
HETATM   54  O   UNK     0      -6.137  -4.665   6.428  0.00  0.00    -0.650 OA
BRANCH  53  55
HETATM   55  O   UNK     0      -4.727  -3.917   8.041  0.00  0.00    -0.776 OA
HETATM   56  H   UNK     0      -3.987  -3.264   7.933  0.00  0.00     0.167 HD
ENDBRANCH  53  55
ENDBRANCH  52  53
ENDBRANCH  51  52
ENDBRANCH  18  51
TORSDOF 16
ENDMDL
MODEL 16
REMARK VINA RESULT:      -6.9     32.305     34.693
REMARK  16 active torsions:
REMARK  status: ('A' for Active; 'I' for Inactive)
REMARK    1  A    between atoms: C_6  and  C_7 
REMARK    2  A    between atoms: C_7  and  C_8 
REMARK    3  A    between atoms: C_8  and  C_9 
REMARK    4  A    between atoms: C_9  and  O_11 
REMARK    5  A    between atoms: C_16  and  C_17 
REMARK    6  A    between atoms: C_17  and  C_18 
REMARK    7  A    between atoms: C_18  and  C_19 
REMARK    8  A    between atoms: C_19  and  O_21 
REMARK    9  A    between atoms: C_28  and  C_29 
REMARK   10  A    between atoms: C_29  and  C_30 
REMARK   11  A    between atoms: C_30  and  C_31 
REMARK   12  A    between atoms: C_31  and  O_33 
REMARK   13  A    between atoms: C_42  and  C_43 
REMARK   14  A    between atoms: C_43  and  C_44 
REMARK   15  A    between atoms: C_44  and  C_45 
REMARK   16  A    between atoms: C_45  and  O_47 
ROOT
HETATM    1  C   UNK     0      -2.891 -15.574   6.946  0.00  0.00     0.051 C 
HETATM    2  C   UNK     0      -1.447 -16.032   6.928  0.00  0.00    -0.031 A 
HETATM    3  C   UNK     0      -0.752 -16.708   5.938  0.00  0.00     0.021 A 
HETATM    4  N   UNK     0       0.512 -16.939   6.366  0.00  0.00    -0.361 N 
HETATM    5  C   UNK     0       0.640 -16.417   7.604  0.00  0.00     0.022 A 
HETATM    6  C   UNK     0      -0.568 -15.844   7.987  0.00  0.00    -0.027 A 
HETATM    7  C   UNK     0       1.852 -16.321   8.476  0.00  0.00     0.115 C 
HETATM    8  C   UNK     0       3.150 -15.921   7.798  0.00  0.00     0.021 A 
HETATM    9  N   UNK     0       3.333 -15.061   6.784  0.00  0.00    -0.361 N 
HETATM   10  C   UNK     0       4.639 -15.085   6.444  0.00  0.00     0.022 A 
HETATM   11  C   UNK     0       5.318 -15.978   7.268  0.00  0.00    -0.027 A 
HETATM   12  C   UNK     0       4.386 -16.508   8.123  0.00  0.00    -0.031 A 
HETATM   13  C   UNK     0       4.671 -17.526   9.205  0.00  0.00     0.051 C 
HETATM   14  C   UNK     0       5.288 -14.311   5.300  0.00  0.00     0.115 C 
HETATM   15  C   UNK     0       4.732 -14.660   3.928  0.00  0.00     0.021 A 
HETATM   16  N   UNK     0       3.457 -14.560   3.508  0.00  0.00    -0.361 N 
HETATM   17  C   UNK     0       3.367 -15.031   2.263  0.00  0.00     0.022 A 
HETATM   18  C   UNK     0       4.647 -15.450   1.847  0.00  0.00    -0.027 A 
HETATM   19  C   UNK     0       5.493 -15.211   2.899  0.00  0.00    -0.031 A 
HETATM   20  C   UNK     0       6.985 -15.485   2.861  0.00  0.00     0.051 C 
HETATM   21  C   UNK     0       2.156 -15.206   1.375  0.00  0.00     0.115 C 
HETATM   22  C   UNK     0       0.848 -15.561   2.042  0.00  0.00     0.022 A 
HETATM   23  N   UNK     0       0.637 -16.411   3.055  0.00  0.00    -0.361 N 
HETATM   24  C   UNK     0      -0.655 -16.313   3.428  0.00  0.00     0.021 A 
HETATM   25  C   UNK     0      -1.294 -15.385   2.628  0.00  0.00    -0.031 A 
HETATM   26  C   UNK     0      -2.748 -14.961   2.635  0.00  0.00     0.051 C 
HETATM   27  C   UNK     0      -0.353 -14.891   1.733  0.00  0.00    -0.027 A 
HETATM   28  C   UNK     0      -1.343 -17.009   4.590  0.00  0.00     0.115 C 
HETATM   29  H   UNK     0       1.293 -17.505   5.807  0.00  0.00     0.165 HD
HETATM   30  H   UNK     0       2.551 -14.398   6.338  0.00  0.00     0.165 HD
HETATM   31  H   UNK     0       2.611 -14.103   4.085  0.00  0.00     0.165 HD
HETATM   32  H   UNK     0       1.389 -17.120   3.490  0.00  0.00     0.165 HD
ENDROOT
BRANCH   6  33
HETATM   33  C   UNK     0      -0.947 -15.143   9.267  0.00  0.00     0.051 C 
BRANCH  33  34
HETATM   34  C   UNK     0      -0.888 -13.644   9.093  0.00  0.00     0.114 C 
BRANCH  34  35
HETATM   35  C   UNK     0       0.521 -13.221   9.337  0.00  0.00     0.139 C 
HETATM   36  O   UNK     0       0.974 -13.163  10.518  0.00  0.00    -0.650 OA
BRANCH  35  37
HETATM   37  O   UNK     0       1.390 -12.880   8.308  0.00  0.00    -0.776 OA
HETATM   38  H   UNK     0       1.715 -11.936   8.173  0.00  0.00     0.167 HD
ENDBRANCH  35  37
ENDBRANCH  34  35
ENDBRANCH  33  34
ENDBRANCH   6  33
BRANCH  27  39
HETATM   39  C   UNK     0      -0.688 -13.916   0.659  0.00  0.00     0.051 C 
BRANCH  39  40
HETATM   40  C   UNK     0      -0.840 -14.414  -0.708  0.00  0.00     0.114 C 
BRANCH  40  41
HETATM   41  C   UNK     0      -0.943 -15.825  -1.007  0.00  0.00     0.139 C 
HETATM   42  O   UNK     0      -2.011 -16.452  -0.985  0.00  0.00    -0.650 OA
BRANCH  41  43
HETATM   43  O   UNK     0       0.235 -16.547  -1.347  0.00  0.00    -0.776 OA
HETATM   44  H   UNK     0       0.122 -17.195  -2.118  0.00  0.00     0.167 HD
ENDBRANCH  41  43
ENDBRANCH  40  41
ENDBRANCH  39  40
ENDBRANCH  27  39
BRANCH  11  45
HETATM   45  C   UNK     0       6.781 -16.331   7.271  0.00  0.00     0.051 C 
BRANCH  45  46
HETATM   46  C   UNK     0       7.678 -15.195   7.603  0.00  0.00     0.114 C 
BRANCH  46  47
HETATM   47  C   UNK     0       8.738 -15.147   6.555  0.00  0.00     0.139 C 
HETATM   48  O   UNK     0       9.453 -16.145   6.389  0.00  0.00    -0.650 OA
BRANCH  47  49
HETATM   49  O   UNK     0       8.919 -14.022   5.790  0.00  0.00    -0.776 OA
HETATM   50  H   UNK     0       8.264 -13.232   5.820  0.00  0.00     0.167 HD
ENDBRANCH  47  49
ENDBRANCH  46  47
ENDBRANCH  45  46
ENDBRANCH  11  45
BRANCH  18  51
HETATM   51  C   UNK     0       5.046 -16.026   0.514  0.00  0.00     0.051 C 
BRANCH  51  52
HETATM   52  C   UNK     0       4.631 -17.490   0.541  0.00  0.00     0.114 C 
BRANCH  52  53
HETATM   53  C   UNK     0       3.865 -17.867  -0.662  0.00  0.00     0.139 C 
HETATM   54  O   UNK     0       3.783 -19.059  -0.999  0.00  0.00    -0.650 OA
BRANCH  53  55
HETATM   55  O   UNK     0       3.248 -16.892  -1.408  0.00  0.00    -0.776 OA
HETATM   56  H   UNK     0       2.883 -16.036  -1.063  0.00  0.00     0.167 HD
ENDBRANCH  53  55
ENDBRANCH  52  53
ENDBRANCH  51  52
ENDBRANCH  18  51
TORSDOF 16
ENDMDL
MODEL 17
REMARK VINA RESULT:      -6.9     29.325     32.243
REMARK  16 active torsions:
REMARK  status: ('A' for Active; 'I' for Inactive)
REMARK    1  A    between atoms: C_6  and  C_7 
REMARK    2  A    between atoms: C_7  and  C_8 
REMARK    3  A    between atoms: C_8  and  C_9 
REMARK    4  A    between atoms: C_9  and  O_11 
REMARK    5  A    between atoms: C_16  and  C_17 
REMARK    6  A    between atoms: C_17  and  C_18 
REMARK    7  A    between atoms: C_18  and  C_19 
REMARK    8  A    between atoms: C_19  and  O_21 
REMARK    9  A    between atoms: C_28  and  C_29 
REMARK   10  A    between atoms: C_29  and  C_30 
REMARK   11  A    between atoms: C_30  and  C_31 
REMARK   12  A    between atoms: C_31  and  O_33 
REMARK   13  A    between atoms: C_42  and  C_43 
REMARK   14  A    between atoms: C_43  and  C_44 
REMARK   15  A    between atoms: C_44  and  C_45 
REMARK   16  A    between atoms: C_45  and  O_47 
ROOT
HETATM    1  C   UNK     0      -1.142  -2.602  15.682  0.00  0.00     0.051 C 
HETATM    2  C   UNK     0      -1.331  -4.025  15.197  0.00  0.00    -0.031 A 
HETATM    3  C   UNK     0      -2.489  -4.782  15.121  0.00  0.00     0.021 A 
HETATM    4  N   UNK     0      -2.181  -6.015  14.655  0.00  0.00    -0.361 N 
HETATM    5  C   UNK     0      -0.853  -6.058  14.424  0.00  0.00     0.022 A 
HETATM    6  C   UNK     0      -0.289  -4.831  14.756  0.00  0.00    -0.027 A 
HETATM    7  C   UNK     0      -0.026  -7.151  13.822  0.00  0.00     0.115 C 
HETATM    8  C   UNK     0      -0.609  -7.859  12.612  0.00  0.00     0.021 A 
HETATM    9  N   UNK     0      -1.353  -7.345  11.621  0.00  0.00    -0.361 N 
HETATM   10  C   UNK     0      -1.727  -8.357  10.810  0.00  0.00     0.022 A 
HETATM   11  C   UNK     0      -1.202  -9.555  11.286  0.00  0.00    -0.027 A 
HETATM   12  C   UNK     0      -0.496  -9.248  12.422  0.00  0.00    -0.031 A 
HETATM   13  C   UNK     0       0.255 -10.242  13.279  0.00  0.00     0.051 C 
HETATM   14  C   UNK     0      -2.635  -8.245   9.588  0.00  0.00     0.115 C 
HETATM   15  C   UNK     0      -4.032  -7.734   9.904  0.00  0.00     0.021 A 
HETATM   16  N   UNK     0      -4.368  -6.565  10.482  0.00  0.00    -0.361 N 
HETATM   17  C   UNK     0      -5.691  -6.523  10.649  0.00  0.00     0.022 A 
HETATM   18  C   UNK     0      -6.246  -7.717  10.148  0.00  0.00    -0.027 A 
HETATM   19  C   UNK     0      -5.196  -8.467   9.683  0.00  0.00    -0.031 A 
HETATM   20  C   UNK     0      -5.355  -9.824   9.023  0.00  0.00     0.051 C 
HETATM   21  C   UNK     0      -6.555  -5.472  11.309  0.00  0.00     0.115 C 
HETATM   22  C   UNK     0      -5.970  -4.728  12.487  0.00  0.00     0.022 A 
HETATM   23  N   UNK     0      -5.222  -5.214  13.487  0.00  0.00    -0.361 N 
HETATM   24  C   UNK     0      -4.796  -4.178  14.238  0.00  0.00     0.021 A 
HETATM   25  C   UNK     0      -5.291  -2.999  13.716  0.00  0.00    -0.031 A 
HETATM   26  C   UNK     0      -5.122  -1.584  14.230  0.00  0.00     0.051 C 
HETATM   27  C   UNK     0      -6.045  -3.325  12.595  0.00  0.00    -0.027 A 
HETATM   28  C   UNK     0      -3.849  -4.219  15.425  0.00  0.00     0.115 C 
HETATM   29  H   UNK     0      -2.898  -6.860  14.530  0.00  0.00     0.165 HD
HETATM   30  H   UNK     0      -1.575  -6.261  11.463  0.00  0.00     0.165 HD
HETATM   31  H   UNK     0      -3.662  -5.731  10.733  0.00  0.00     0.165 HD
HETATM   32  H   UNK     0      -5.023  -6.297  13.696  0.00  0.00     0.165 HD
ENDROOT
BRANCH   6  33
HETATM   33  C   UNK     0       1.145  -4.372  14.687  0.00  0.00     0.051 C 
BRANCH  33  34
HETATM   34  C   UNK     0       1.610  -4.279  13.253  0.00  0.00     0.114 C 
BRANCH  34  35
HETATM   35  C   UNK     0       1.838  -2.837  12.950  0.00  0.00     0.139 C 
HETATM   36  O   UNK     0       0.864  -2.086  12.651  0.00  0.00    -0.650 OA
BRANCH  35  37
HETATM   37  O   UNK     0       3.100  -2.255  12.982  0.00  0.00    -0.776 OA
HETATM   38  H   UNK     0       3.233  -1.262  12.880  0.00  0.00     0.167 HD
ENDBRANCH  35  37
ENDBRANCH  34  35
ENDBRANCH  33  34
ENDBRANCH   6  33
BRANCH  27  39
HETATM   39  C   UNK     0      -6.799  -2.315  11.803  0.00  0.00     0.051 C 
BRANCH  39  40
HETATM   40  C   UNK     0      -6.125  -1.674  10.674  0.00  0.00     0.114 C 
BRANCH  40  41
HETATM   41  C   UNK     0      -5.699  -2.417   9.510  0.00  0.00     0.139 C 
HETATM   42  O   UNK     0      -6.430  -3.205   8.896  0.00  0.00    -0.650 OA
BRANCH  41  43
HETATM   43  O   UNK     0      -4.370  -2.244   9.029  0.00  0.00    -0.776 OA
HETATM   44  H   UNK     0      -4.302  -1.732   8.158  0.00  0.00     0.167 HD
ENDBRANCH  41  43
ENDBRANCH  40  41
ENDBRANCH  39  40
ENDBRANCH  27  39
BRANCH  11  45
HETATM   45  C   UNK     0      -1.342 -10.939  10.713  0.00  0.00     0.051 C 
BRANCH  45  46
HETATM   46  C   UNK     0      -0.694 -11.115   9.388  0.00  0.00     0.114 C 
BRANCH  46  47
HETATM   47  C   UNK     0       0.770 -10.913   9.583  0.00  0.00     0.139 C 
HETATM   48  O   UNK     0       1.319  -9.964   9.004  0.00  0.00    -0.650 OA
BRANCH  47  49
HETATM   49  O   UNK     0       1.496 -11.758  10.383  0.00  0.00    -0.776 OA
HETATM   50  H   UNK     0       2.428 -11.510  10.735  0.00  0.00     0.167 HD
ENDBRANCH  47  49
ENDBRANCH  46  47
ENDBRANCH  45  46
ENDBRANCH  11  45
BRANCH  18  51
HETATM   51  C   UNK     0      -7.698  -8.114  10.095  0.00  0.00     0.051 C 
BRANCH  51  52
HETATM   52  C   UNK     0      -8.169  -7.822   8.678  0.00  0.00     0.114 C 
BRANCH  52  53
HETATM   53  C   UNK     0      -8.921  -6.555   8.599  0.00  0.00     0.139 C 
HETATM   54  O   UNK     0     -10.123  -6.526   8.908  0.00  0.00    -0.650 OA
BRANCH  53  55
HETATM   55  O   UNK     0      -8.286  -5.412   8.178  0.00  0.00    -0.776 OA
HETATM   56  H   UNK     0      -7.821  -5.289   7.310  0.00  0.00     0.167 HD
ENDBRANCH  53  55
ENDBRANCH  52  53
ENDBRANCH  51  52
ENDBRANCH  18  51
TORSDOF 16
ENDMDL
MODEL 18
REMARK VINA RESULT:      -6.8     29.645     32.478
REMARK  16 active torsions:
REMARK  status: ('A' for Active; 'I' for Inactive)
REMARK    1  A    between atoms: C_6  and  C_7 
REMARK    2  A    between atoms: C_7  and  C_8 
REMARK    3  A    between atoms: C_8  and  C_9 
REMARK    4  A    between atoms: C_9  and  O_11 
REMARK    5  A    between atoms: C_16  and  C_17 
REMARK    6  A    between atoms: C_17  and  C_18 
REMARK    7  A    between atoms: C_18  and  C_19 
REMARK    8  A    between atoms: C_19  and  O_21 
REMARK    9  A    between atoms: C_28  and  C_29 
REMARK   10  A    between atoms: C_29  and  C_30 
REMARK   11  A    between atoms: C_30  and  C_31 
REMARK   12  A    between atoms: C_31  and  O_33 
REMARK   13  A    between atoms: C_42  and  C_43 
REMARK   14  A    between atoms: C_43  and  C_44 
REMARK   15  A    between atoms: C_44  and  C_45 
REMARK   16  A    between atoms: C_45  and  O_47 
ROOT
HETATM    1  C   UNK     0      -1.823  -2.757  15.184  0.00  0.00     0.051 C 
HETATM    2  C   UNK     0      -2.488  -3.903  14.448  0.00  0.00    -0.031 A 
HETATM    3  C   UNK     0      -3.806  -4.328  14.490  0.00  0.00     0.021 A 
HETATM    4  N   UNK     0      -3.945  -5.413  13.691  0.00  0.00    -0.361 N 
HETATM    5  C   UNK     0      -2.747  -5.682  13.134  0.00  0.00     0.022 A 
HETATM    6  C   UNK     0      -1.811  -4.758  13.588  0.00  0.00    -0.027 A 
HETATM    7  C   UNK     0      -2.383  -6.712  12.111  0.00  0.00     0.115 C 
HETATM    8  C   UNK     0      -3.349  -6.895  10.954  0.00  0.00     0.021 A 
HETATM    9  N   UNK     0      -4.086  -5.966  10.325  0.00  0.00    -0.361 N 
HETATM   10  C   UNK     0      -4.869  -6.593   9.422  0.00  0.00     0.022 A 
HETATM   11  C   UNK     0      -4.623  -7.962   9.464  0.00  0.00    -0.027 A 
HETATM   12  C   UNK     0      -3.667  -8.159  10.427  0.00  0.00    -0.031 A 
HETATM   13  C   UNK     0      -3.083  -9.498  10.818  0.00  0.00     0.051 C 
HETATM   14  C   UNK     0      -5.913  -5.936   8.524  0.00  0.00     0.115 C 
HETATM   15  C   UNK     0      -7.029  -5.239   9.286  0.00  0.00     0.021 A 
HETATM   16  N   UNK     0      -6.914  -4.241  10.182  0.00  0.00    -0.361 N 
HETATM   17  C   UNK     0      -8.120  -3.955  10.678  0.00  0.00     0.022 A 
HETATM   18  C   UNK     0      -9.068  -4.802  10.069  0.00  0.00    -0.027 A 
HETATM   19  C   UNK     0      -8.372  -5.600   9.198  0.00  0.00    -0.031 A 
HETATM   20  C   UNK     0      -9.022  -6.640   8.304  0.00  0.00     0.051 C 
HETATM   21  C   UNK     0      -8.519  -2.973  11.755  0.00  0.00     0.115 C 
HETATM   22  C   UNK     0      -7.547  -2.748  12.890  0.00  0.00     0.022 A 
HETATM   23  N   UNK     0      -6.798  -3.654  13.532  0.00  0.00    -0.361 N 
HETATM   24  C   UNK     0      -5.971  -2.999  14.372  0.00  0.00     0.021 A 
HETATM   25  C   UNK     0      -6.200  -1.640  14.275  0.00  0.00    -0.031 A 
HETATM   26  C   UNK     0      -5.551  -0.507  15.042  0.00  0.00     0.051 C 
HETATM   27  C   UNK     0      -7.205  -1.455  13.333  0.00  0.00    -0.027 A 
HETATM   28  C   UNK     0      -4.875  -3.588  15.244  0.00  0.00     0.115 C 
HETATM   29  H   UNK     0      -4.881  -6.004  13.558  0.00  0.00     0.165 HD
HETATM   30  H   UNK     0      -4.019  -4.861  10.481  0.00  0.00     0.165 HD
HETATM   31  H   UNK     0      -5.969  -3.694  10.435  0.00  0.00     0.165 HD
HETATM   32  H   UNK     0      -6.877  -4.767  13.431  0.00  0.00     0.165 HD
ENDROOT
BRANCH   6  33
HETATM   33  C   UNK     0      -0.342  -4.630  13.273  0.00  0.00     0.051 C 
BRANCH  33  34
HETATM   34  C   UNK     0      -0.136  -3.870  11.985  0.00  0.00     0.114 C 
BRANCH  34  35
HETATM   35  C   UNK     0       0.909  -2.837  12.238  0.00  0.00     0.139 C 
HETATM   36  O   UNK     0       1.084  -2.380  13.406  0.00  0.00    -0.650 OA
BRANCH  35  37
HETATM   37  O   UNK     0       1.728  -2.336  11.233  0.00  0.00    -0.776 OA
HETATM   38  H   UNK     0       1.887  -2.838  10.374  0.00  0.00     0.167 HD
ENDBRANCH  35  37
ENDBRANCH  34  35
ENDBRANCH  33  34
ENDBRANCH   6  33
BRANCH  27  39
HETATM   39  C   UNK     0      -7.775  -0.119  13.007  0.00  0.00     0.051 C 
BRANCH  39  40
HETATM   40  C   UNK     0      -9.087   0.227  13.554  0.00  0.00     0.114 C 
BRANCH  40  41
HETATM   41  C   UNK     0      -9.393   1.554  14.041  0.00  0.00     0.139 C 
HETATM   42  O   UNK     0      -9.108   1.946  15.180  0.00  0.00    -0.650 OA
BRANCH  41  43
HETATM   43  O   UNK     0     -10.057   2.470  13.177  0.00  0.00    -0.776 OA
HETATM   44  H   UNK     0     -10.461   3.271  13.648  0.00  0.00     0.167 HD
ENDBRANCH  41  43
ENDBRANCH  40  41
ENDBRANCH  39  40
ENDBRANCH  27  39
BRANCH  11  45
HETATM   45  C   UNK     0      -5.248  -9.057   8.640  0.00  0.00     0.051 C 
BRANCH  45  46
HETATM   46  C   UNK     0      -6.509  -9.597   9.208  0.00  0.00     0.114 C 
BRANCH  46  47
HETATM   47  C   UNK     0      -6.426 -11.084   9.134  0.00  0.00     0.139 C 
HETATM   48  O   UNK     0      -6.275 -11.722  10.185  0.00  0.00    -0.650 OA
BRANCH  47  49
HETATM   49  O   UNK     0      -6.513 -11.734   7.928  0.00  0.00    -0.776 OA
HETATM   50  H   UNK     0      -6.492 -12.758   7.858  0.00  0.00     0.167 HD
ENDBRANCH  47  49
ENDBRANCH  46  47
ENDBRANCH  45  46
ENDBRANCH  11  45
BRANCH  18  51
HETATM   51  C   UNK     0     -10.558  -4.833  10.289  0.00  0.00     0.051 C 
BRANCH  51  52
HETATM   52  C   UNK     0     -11.145  -3.762   9.382  0.00  0.00     0.114 C 
BRANCH  52  53
HETATM   53  C   UNK     0     -12.309  -3.096   9.999  0.00  0.00     0.139 C 
HETATM   54  O   UNK     0     -12.138  -2.183  10.823  0.00  0.00    -0.650 OA
BRANCH  53  55
HETATM   55  O   UNK     0     -13.579  -3.495   9.660  0.00  0.00    -0.776 OA
HETATM   56  H   UNK     0     -14.406  -2.955   9.758  0.00  0.00     0.167 HD
ENDBRANCH  53  55
ENDBRANCH  52  53
ENDBRANCH  51  52
ENDBRANCH  18  51
TORSDOF 16
ENDMDL
MODEL 19
REMARK VINA RESULT:      -6.8      3.515      8.549
REMARK  16 active torsions:
REMARK  status: ('A' for Active; 'I' for Inactive)
REMARK    1  A    between atoms: C_6  and  C_7 
REMARK    2  A    between atoms: C_7  and  C_8 
REMARK    3  A    between atoms: C_8  and  C_9 
REMARK    4  A    between atoms: C_9  and  O_11 
REMARK    5  A    between atoms: C_16  and  C_17 
REMARK    6  A    between atoms: C_17  and  C_18 
REMARK    7  A    between atoms: C_18  and  C_19 
REMARK    8  A    between atoms: C_19  and  O_21 
REMARK    9  A    between atoms: C_28  and  C_29 
REMARK   10  A    between atoms: C_29  and  C_30 
REMARK   11  A    between atoms: C_30  and  C_31 
REMARK   12  A    between atoms: C_31  and  O_33 
REMARK   13  A    between atoms: C_42  and  C_43 
REMARK   14  A    between atoms: C_43  and  C_44 
REMARK   15  A    between atoms: C_44  and  C_45 
REMARK   16  A    between atoms: C_45  and  O_47 
ROOT
HETATM    1  C   UNK     0      14.206  13.456 -11.308  0.00  0.00     0.051 C 
HETATM    2  C   UNK     0      13.298  13.788 -10.141  0.00  0.00    -0.031 A 
HETATM    3  C   UNK     0      13.629  14.201  -8.860  0.00  0.00     0.021 A 
HETATM    4  N   UNK     0      12.493  14.353  -8.139  0.00  0.00    -0.361 N 
HETATM    5  C   UNK     0      11.445  14.054  -8.935  0.00  0.00     0.022 A 
HETATM    6  C   UNK     0      11.914  13.694 -10.194  0.00  0.00    -0.027 A 
HETATM    7  C   UNK     0       9.978  14.151  -8.654  0.00  0.00     0.115 C 
HETATM    8  C   UNK     0       9.506  15.390  -7.914  0.00  0.00     0.021 A 
HETATM    9  N   UNK     0       9.967  16.647  -8.010  0.00  0.00    -0.361 N 
HETATM   10  C   UNK     0       9.315  17.402  -7.101  0.00  0.00     0.022 A 
HETATM   11  C   UNK     0       8.402  16.612  -6.407  0.00  0.00    -0.027 A 
HETATM   12  C   UNK     0       8.517  15.344  -6.915  0.00  0.00    -0.031 A 
HETATM   13  C   UNK     0       7.712  14.145  -6.465  0.00  0.00     0.051 C 
HETATM   14  C   UNK     0       9.562  18.881  -6.814  0.00  0.00     0.115 C 
HETATM   15  C   UNK     0      10.971  19.188  -6.333  0.00  0.00     0.021 A 
HETATM   16  N   UNK     0      12.129  18.936  -6.972  0.00  0.00    -0.361 N 
HETATM   17  C   UNK     0      13.149  19.291  -6.187  0.00  0.00     0.022 A 
HETATM   18  C   UNK     0      12.630  19.808  -4.983  0.00  0.00    -0.027 A 
HETATM   19  C   UNK     0      11.265  19.738  -5.088  0.00  0.00    -0.031 A 
HETATM   20  C   UNK     0      10.310  20.230  -4.015  0.00  0.00     0.051 C 
HETATM   21  C   UNK     0      14.638  19.149  -6.404  0.00  0.00     0.115 C 
HETATM   22  C   UNK     0      15.118  17.944  -7.177  0.00  0.00     0.022 A 
HETATM   23  N   UNK     0      14.676  16.682  -7.106  0.00  0.00    -0.361 N 
HETATM   24  C   UNK     0      15.283  15.964  -8.072  0.00  0.00     0.021 A 
HETATM   25  C   UNK     0      16.146  16.782  -8.777  0.00  0.00    -0.031 A 
HETATM   26  C   UNK     0      17.073  16.428  -9.921  0.00  0.00     0.051 C 
HETATM   27  C   UNK     0      16.058  18.054  -8.222  0.00  0.00    -0.027 A 
HETATM   28  C   UNK     0      15.039  14.512  -8.445  0.00  0.00     0.115 C 
HETATM   29  H   UNK     0      12.441  14.631  -7.061  0.00  0.00     0.165 HD
HETATM   30  H   UNK     0      10.717  17.015  -8.752  0.00  0.00     0.165 HD
HETATM   31  H   UNK     0      12.230  18.544  -8.017  0.00  0.00     0.165 HD
HETATM   32  H   UNK     0      13.961  16.275  -6.343  0.00  0.00     0.165 HD
ENDROOT
BRANCH   6  33
HETATM   33  C   UNK     0      11.155  13.270 -11.426  0.00  0.00     0.051 C 
BRANCH  33  34
HETATM   34  C   UNK     0      10.623  14.474 -12.167  0.00  0.00     0.114 C 
BRANCH  34  35
HETATM   35  C   UNK     0      11.528  14.721 -13.326  0.00  0.00     0.139 C 
HETATM   36  O   UNK     0      12.330  15.700 -13.311  0.00  0.00    -0.650 OA
BRANCH  35  37
HETATM   37  O   UNK     0      11.540  13.909 -14.454  0.00  0.00    -0.776 OA
HETATM   38  H   UNK     0      10.692  13.572 -14.879  0.00  0.00     0.167 HD
ENDBRANCH  35  37
ENDBRANCH  34  35
ENDBRANCH  33  34
ENDBRANCH   6  33
BRANCH  27  39
HETATM   39  C   UNK     0      16.899  19.195  -8.675  0.00  0.00     0.051 C 
BRANCH  39  40
HETATM   40  C   UNK     0      16.423  20.007  -9.794  0.00  0.00     0.114 C 
BRANCH  40  41
HETATM   41  C   UNK     0      15.016  20.202 -10.061  0.00  0.00     0.139 C 
HETATM   42  O   UNK     0      14.332  21.080  -9.517  0.00  0.00    -0.650 OA
BRANCH  41  43
HETATM   43  O   UNK     0      14.365  19.348 -10.996  0.00  0.00    -0.776 OA
HETATM   44  H   UNK     0      13.364  19.270 -10.866  0.00  0.00     0.167 HD
ENDBRANCH  41  43
ENDBRANCH  40  41
ENDBRANCH  39  40
ENDBRANCH  27  39
BRANCH  11  45
HETATM   45  C   UNK     0       7.450  17.013  -5.312  0.00  0.00     0.051 C 
BRANCH  45  46
HETATM   46  C   UNK     0       8.073  17.089  -3.966  0.00  0.00     0.114 C 
BRANCH  46  47
HETATM   47  C   UNK     0       7.275  18.060  -3.164  0.00  0.00     0.139 C 
HETATM   48  O   UNK     0       6.920  19.120  -3.700  0.00  0.00    -0.650 OA
BRANCH  47  49
HETATM   49  O   UNK     0       6.940  17.789  -1.862  0.00  0.00    -0.776 OA
HETATM   50  H   UNK     0       7.362  17.010  -1.341  0.00  0.00     0.167 HD
ENDBRANCH  47  49
ENDBRANCH  46  47
ENDBRANCH  45  46
ENDBRANCH  11  45
BRANCH  18  51
HETATM   51  C   UNK     0      13.393  20.357  -3.805  0.00  0.00     0.051 C 
BRANCH  51  52
HETATM   52  C   UNK     0      13.741  21.796  -4.157  0.00  0.00     0.114 C 
BRANCH  52  53
HETATM   53  C   UNK     0      15.135  22.126  -3.804  0.00  0.00     0.139 C 
HETATM   54  O   UNK     0      16.064  21.405  -4.201  0.00  0.00    -0.650 OA
BRANCH  53  55
HETATM   55  O   UNK     0      15.396  23.231  -3.031  0.00  0.00    -0.776 OA
HETATM   56  H   UNK     0      15.818  24.075  -3.342  0.00  0.00     0.167 HD
ENDBRANCH  53  55
ENDBRANCH  52  53
ENDBRANCH  51  52
ENDBRANCH  18  51
TORSDOF 16
ENDMDL
MODEL 20
REMARK VINA RESULT:      -6.7     15.802     21.318
REMARK  16 active torsions:
REMARK  status: ('A' for Active; 'I' for Inactive)
REMARK    1  A    between atoms: C_6  and  C_7 
REMARK    2  A    between atoms: C_7  and  C_8 
REMARK    3  A    between atoms: C_8  and  C_9 
REMARK    4  A    between atoms: C_9  and  O_11 
REMARK    5  A    between atoms: C_16  and  C_17 
REMARK    6  A    between atoms: C_17  and  C_18 
REMARK    7  A    between atoms: C_18  and  C_19 
REMARK    8  A    between atoms: C_19  and  O_21 
REMARK    9  A    between atoms: C_28  and  C_29 
REMARK   10  A    between atoms: C_29  and  C_30 
REMARK   11  A    between atoms: C_30  and  C_31 
REMARK   12  A    between atoms: C_31  and  O_33 
REMARK   13  A    between atoms: C_42  and  C_43 
REMARK   14  A    between atoms: C_43  and  C_44 
REMARK   15  A    between atoms: C_44  and  C_45 
REMARK   16  A    between atoms: C_45  and  O_47 
ROOT
HETATM    1  C   UNK     0      -6.308  12.974 -15.400  0.00  0.00     0.051 C 
HETATM    2  C   UNK     0      -6.558  11.514 -15.718  0.00  0.00    -0.031 A 
HETATM    3  C   UNK     0      -7.435  10.949 -16.630  0.00  0.00     0.021 A 
HETATM    4  N   UNK     0      -7.345   9.600 -16.553  0.00  0.00    -0.361 N 
HETATM    5  C   UNK     0      -6.424   9.293 -15.617  0.00  0.00     0.022 A 
HETATM    6  C   UNK     0      -5.914  10.466 -15.072  0.00  0.00    -0.027 A 
HETATM    7  C   UNK     0      -5.886   7.955 -15.214  0.00  0.00     0.115 C 
HETATM    8  C   UNK     0      -5.577   6.979 -16.335  0.00  0.00     0.021 A 
HETATM    9  N   UNK     0      -5.094   7.239 -17.560  0.00  0.00    -0.361 N 
HETATM   10  C   UNK     0      -5.065   6.081 -18.254  0.00  0.00     0.022 A 
HETATM   11  C   UNK     0      -5.533   5.045 -17.450  0.00  0.00    -0.027 A 
HETATM   12  C   UNK     0      -5.857   5.605 -16.240  0.00  0.00    -0.031 A 
HETATM   13  C   UNK     0      -6.405   4.852 -15.048  0.00  0.00     0.051 C 
HETATM   14  C   UNK     0      -4.648   5.913 -19.712  0.00  0.00     0.115 C 
HETATM   15  C   UNK     0      -5.507   6.695 -20.692  0.00  0.00     0.021 A 
HETATM   16  N   UNK     0      -5.718   8.025 -20.721  0.00  0.00    -0.361 N 
HETATM   17  C   UNK     0      -6.590   8.310 -21.690  0.00  0.00     0.022 A 
HETATM   18  C   UNK     0      -6.958   7.110 -22.331  0.00  0.00    -0.027 A 
HETATM   19  C   UNK     0      -6.272   6.106 -21.697  0.00  0.00    -0.031 A 
HETATM   20  C   UNK     0      -6.351   4.645 -22.099  0.00  0.00     0.051 C 
HETATM   21  C   UNK     0      -7.207   9.632 -22.085  0.00  0.00     0.115 C 
HETATM   22  C   UNK     0      -7.479  10.631 -20.984  0.00  0.00     0.022 A 
HETATM   23  N   UNK     0      -7.956  10.400 -19.754  0.00  0.00    -0.361 N 
HETATM   24  C   UNK     0      -7.902  11.553 -19.056  0.00  0.00     0.021 A 
HETATM   25  C   UNK     0      -7.389  12.552 -19.860  0.00  0.00    -0.031 A 
HETATM   26  C   UNK     0      -7.176  14.017 -19.541  0.00  0.00     0.051 C 
HETATM   27  C   UNK     0      -7.111  11.986 -21.099  0.00  0.00    -0.027 A 
HETATM   28  C   UNK     0      -8.246  11.770 -17.593  0.00  0.00     0.115 C 
HETATM   29  H   UNK     0      -7.962   8.875 -17.132  0.00  0.00     0.165 HD
HETATM   30  H   UNK     0      -4.726   8.230 -17.923  0.00  0.00     0.165 HD
HETATM   31  H   UNK     0      -5.205   8.784 -20.075  0.00  0.00     0.165 HD
HETATM   32  H   UNK     0      -8.375   9.430 -19.379  0.00  0.00     0.165 HD
ENDROOT
BRANCH   6  33
HETATM   33  C   UNK     0      -4.875  10.666 -13.997  0.00  0.00     0.051 C 
BRANCH  33  34
HETATM   34  C   UNK     0      -3.500  10.812 -14.603  0.00  0.00     0.114 C 
BRANCH  34  35
HETATM   35  C   UNK     0      -2.560  11.158 -13.498  0.00  0.00     0.139 C 
HETATM   36  O   UNK     0      -1.620  11.982 -13.695  0.00  0.00    -0.650 OA
BRANCH  35  37
HETATM   37  O   UNK     0      -2.666  10.611 -12.225  0.00  0.00    -0.776 OA
HETATM   38  H   UNK     0      -2.509  11.157 -11.393  0.00  0.00     0.167 HD
ENDBRANCH  35  37
ENDBRANCH  34  35
ENDBRANCH  33  34
ENDBRANCH   6  33
BRANCH  27  39
HETATM   39  C   UNK     0      -6.607  12.776 -22.256  0.00  0.00     0.051 C 
BRANCH  39  40
HETATM   40  C   UNK     0      -5.177  12.729 -22.558  0.00  0.00     0.114 C 
BRANCH  40  41
HETATM   41  C   UNK     0      -4.213  12.166 -21.639  0.00  0.00     0.139 C 
HETATM   42  O   UNK     0      -3.571  12.842 -20.823  0.00  0.00    -0.650 OA
BRANCH  41  43
HETATM   43  O   UNK     0      -3.977  10.762 -21.660  0.00  0.00    -0.776 OA
HETATM   44  H   UNK     0      -3.035  10.492 -21.403  0.00  0.00     0.167 HD
ENDBRANCH  41  43
ENDBRANCH  40  41
ENDBRANCH  39  40
ENDBRANCH  27  39
BRANCH  11  45
HETATM   45  C   UNK     0      -5.676   3.585 -17.784  0.00  0.00     0.051 C 
BRANCH  45  46
HETATM   46  C   UNK     0      -4.389   2.899 -18.064  0.00  0.00     0.114 C 
BRANCH  46  47
HETATM   47  C   UNK     0      -4.656   1.869 -19.109  0.00  0.00     0.139 C 
HETATM   48  O   UNK     0      -4.611   2.208 -20.300  0.00  0.00    -0.650 OA
BRANCH  47  49
HETATM   49  O   UNK     0      -4.947   0.574 -18.762  0.00  0.00    -0.776 OA
HETATM   50  H   UNK     0      -4.368  -0.216 -19.070  0.00  0.00     0.167 HD
ENDBRANCH  47  49
ENDBRANCH  46  47
ENDBRANCH  45  46
ENDBRANCH  11  45
BRANCH  18  51
HETATM   51  C   UNK     0      -7.896   6.931 -23.496  0.00  0.00     0.051 C 
BRANCH  51  52
HETATM   52  C   UNK     0      -9.270   6.663 -22.901  0.00  0.00     0.114 C 
BRANCH  52  53
HETATM   53  C   UNK     0     -10.325   6.660 -23.933  0.00  0.00     0.139 C 
HETATM   54  O   UNK     0     -10.948   7.702 -24.187  0.00  0.00    -0.650 OA
BRANCH  53  55
HETATM   55  O   UNK     0     -10.614   5.497 -24.605  0.00  0.00    -0.776 OA
HETATM   56  H   UNK     0      -9.952   4.864 -24.987  0.00  0.00     0.167 HD
ENDBRANCH  53  55
ENDBRANCH  52  53
ENDBRANCH  51  52
ENDBRANCH  18  51
TORSDOF 16
ENDMDL
