MODEL 1
REMARK VINA RESULT:      -8.8      0.000      0.000
REMARK  16 active torsions:
REMARK  status: ('A' for Active; 'I' for Inactive)
REMARK    1  A    between atoms: C_6  and  C_7 
REMARK    2  A    between atoms: C_7  and  C_8 
REMARK    3  A    between atoms: C_8  and  C_9 
REMARK    4  A    between atoms: C_9  and  O_11 
REMARK    5  A    between atoms: C_16  and  C_17 
REMARK    6  A    between atoms: C_17  and  C_18 
REMARK    7  A    between atoms: C_18  and  C_19 
REMARK    8  A    between atoms: C_19  and  O_21 
REMARK    9  A    between atoms: C_28  and  C_29 
REMARK   10  A    between atoms: C_29  and  C_30 
REMARK   11  A    between atoms: C_30  and  C_31 
REMARK   12  A    between atoms: C_31  and  O_33 
REMARK   13  A    between atoms: C_42  and  C_43 
REMARK   14  A    between atoms: C_43  and  C_44 
REMARK   15  A    between atoms: C_44  and  C_45 
REMARK   16  A    between atoms: C_45  and  O_47 
ROOT
HETATM    1  C   UNK     0      -5.104  12.075 -37.103  0.00  0.00     0.051 C 
HETATM    2  C   UNK     0      -4.121  11.235 -36.312  0.00  0.00    -0.031 A 
HETATM    3  C   UNK     0      -4.327  10.043 -35.637  0.00  0.00     0.021 A 
HETATM    4  N   UNK     0      -3.170   9.666 -35.043  0.00  0.00    -0.361 N 
HETATM    5  C   UNK     0      -2.228  10.588 -35.333  0.00  0.00     0.022 A 
HETATM    6  C   UNK     0      -2.790  11.585 -36.123  0.00  0.00    -0.027 A 
HETATM    7  C   UNK     0      -0.769  10.596 -35.001  0.00  0.00     0.115 C 
HETATM    8  C   UNK     0      -0.026   9.281 -35.164  0.00  0.00     0.021 A 
HETATM    9  N   UNK     0      -0.208   8.327 -36.091  0.00  0.00    -0.361 N 
HETATM   10  C   UNK     0       0.610   7.295 -35.796  0.00  0.00     0.022 A 
HETATM   11  C   UNK     0       1.347   7.596 -34.654  0.00  0.00    -0.027 A 
HETATM   12  C   UNK     0       0.951   8.846 -34.251  0.00  0.00    -0.031 A 
HETATM   13  C   UNK     0       1.490   9.588 -33.049  0.00  0.00     0.051 C 
HETATM   14  C   UNK     0       0.692   5.968 -36.545  0.00  0.00     0.115 C 
HETATM   15  C   UNK     0      -0.608   5.180 -36.545  0.00  0.00     0.021 A 
HETATM   16  N   UNK     0      -1.806   5.573 -37.015  0.00  0.00    -0.361 N 
HETATM   17  C   UNK     0      -2.709   4.622 -36.765  0.00  0.00     0.022 A 
HETATM   18  C   UNK     0      -2.065   3.553 -36.110  0.00  0.00    -0.027 A 
HETATM   19  C   UNK     0      -0.749   3.914 -35.980  0.00  0.00    -0.031 A 
HETATM   20  C   UNK     0       0.312   3.027 -35.356  0.00  0.00     0.051 C 
HETATM   21  C   UNK     0      -4.198   4.603 -37.024  0.00  0.00     0.115 C 
HETATM   22  C   UNK     0      -4.943   5.912 -36.908  0.00  0.00     0.022 A 
HETATM   23  N   UNK     0      -4.779   6.882 -35.998  0.00  0.00    -0.361 N 
HETATM   24  C   UNK     0      -5.547   7.931 -36.356  0.00  0.00     0.021 A 
HETATM   25  C   UNK     0      -6.230   7.626 -37.518  0.00  0.00    -0.031 A 
HETATM   26  C   UNK     0      -7.236   8.462 -38.280  0.00  0.00     0.051 C 
HETATM   27  C   UNK     0      -5.859   6.338 -37.890  0.00  0.00    -0.027 A 
HETATM   28  C   UNK     0      -5.628   9.294 -35.689  0.00  0.00     0.115 C 
HETATM   29  H   UNK     0      -3.036   8.773 -34.390  0.00  0.00     0.165 HD
HETATM   30  H   UNK     0      -0.878   8.400 -36.982  0.00  0.00     0.165 HD
HETATM   31  H   UNK     0      -2.011   6.521 -37.577  0.00  0.00     0.165 HD
HETATM   32  H   UNK     0      -4.153   6.819 -35.071  0.00  0.00     0.165 HD
ENDROOT
BRANCH   6  33
HETATM   33  C   UNK     0      -2.168  12.830 -36.703  0.00  0.00     0.051 C 
BRANCH  33  34
HETATM   34  C   UNK     0      -2.128  13.937 -35.675  0.00  0.00     0.114 C 
BRANCH  34  35
HETATM   35  C   UNK     0      -1.354  15.066 -36.266  0.00  0.00     0.139 C 
HETATM   36  O   UNK     0      -0.460  14.842 -37.132  0.00  0.00    -0.650 OA
BRANCH  35  37
HETATM   37  O   UNK     0      -1.571  16.391 -35.907  0.00  0.00    -0.776 OA
HETATM   38  H   UNK     0      -1.079  17.152 -36.348  0.00  0.00     0.167 HD
ENDBRANCH  35  37
ENDBRANCH  34  35
ENDBRANCH  33  34
ENDBRANCH   6  33
BRANCH  27  39
HETATM   39  C   UNK     0      -6.446   5.633 -39.062  0.00  0.00     0.051 C 
BRANCH  39  40
HETATM   40  C   UNK     0      -5.570   5.312 -40.189  0.00  0.00     0.114 C 
BRANCH  40  41
HETATM   41  C   UNK     0      -5.260   6.274 -41.222  0.00  0.00     0.139 C 
HETATM   42  O   UNK     0      -5.221   7.497 -41.029  0.00  0.00    -0.650 OA
BRANCH  41  43
HETATM   43  O   UNK     0      -4.981   5.809 -42.538  0.00  0.00    -0.776 OA
HETATM   44  H   UNK     0      -4.062   6.057 -42.885  0.00  0.00     0.167 HD
ENDBRANCH  41  43
ENDBRANCH  40  41
ENDBRANCH  39  40
ENDBRANCH  27  39
BRANCH  11  45
HETATM   45  C   UNK     0       2.386   6.761 -33.956  0.00  0.00     0.051 C 
BRANCH  45  46
HETATM   46  C   UNK     0       3.778   7.241 -34.147  0.00  0.00     0.114 C 
BRANCH  46  47
HETATM   47  C   UNK     0       4.167   6.924 -35.551  0.00  0.00     0.139 C 
HETATM   48  O   UNK     0       4.553   5.777 -35.814  0.00  0.00    -0.650 OA
BRANCH  47  49
HETATM   49  O   UNK     0       4.100   7.882 -36.532  0.00  0.00    -0.776 OA
HETATM   50  H   UNK     0       3.488   8.702 -36.452  0.00  0.00     0.167 HD
ENDBRANCH  47  49
ENDBRANCH  46  47
ENDBRANCH  45  46
ENDBRANCH  11  45
BRANCH  18  51
HETATM   51  C   UNK     0      -2.667   2.249 -35.653  0.00  0.00     0.051 C 
BRANCH  51  52
HETATM   52  C   UNK     0      -2.861   2.374 -34.149  0.00  0.00     0.114 C 
BRANCH  52  53
HETATM   53  C   UNK     0      -4.185   2.931 -33.811  0.00  0.00     0.139 C 
HETATM   54  O   UNK     0      -5.213   2.275 -34.045  0.00  0.00    -0.650 OA
BRANCH  53  55
HETATM   55  O   UNK     0      -4.273   4.176 -33.239  0.00  0.00    -0.776 OA
HETATM   56  H   UNK     0      -4.949   4.871 -33.452  0.00  0.00     0.167 HD
ENDBRANCH  53  55
ENDBRANCH  52  53
ENDBRANCH  51  52
ENDBRANCH  18  51
TORSDOF 16
ENDMDL
MODEL 2
REMARK VINA RESULT:      -8.8      4.926     10.029
REMARK  16 active torsions:
REMARK  status: ('A' for Active; 'I' for Inactive)
REMARK    1  A    between atoms: C_6  and  C_7 
REMARK    2  A    between atoms: C_7  and  C_8 
REMARK    3  A    between atoms: C_8  and  C_9 
REMARK    4  A    between atoms: C_9  and  O_11 
REMARK    5  A    between atoms: C_16  and  C_17 
REMARK    6  A    between atoms: C_17  and  C_18 
REMARK    7  A    between atoms: C_18  and  C_19 
REMARK    8  A    between atoms: C_19  and  O_21 
REMARK    9  A    between atoms: C_28  and  C_29 
REMARK   10  A    between atoms: C_29  and  C_30 
REMARK   11  A    between atoms: C_30  and  C_31 
REMARK   12  A    between atoms: C_31  and  O_33 
REMARK   13  A    between atoms: C_42  and  C_43 
REMARK   14  A    between atoms: C_43  and  C_44 
REMARK   15  A    between atoms: C_44  and  C_45 
REMARK   16  A    between atoms: C_45  and  O_47 
ROOT
HETATM    1  C   UNK     0      -8.742  14.864 -35.102  0.00  0.00     0.051 C 
HETATM    2  C   UNK     0      -9.147  13.755 -36.052  0.00  0.00    -0.031 A 
HETATM    3  C   UNK     0      -8.409  13.136 -37.048  0.00  0.00     0.021 A 
HETATM    4  N   UNK     0      -9.187  12.219 -37.669  0.00  0.00    -0.361 N 
HETATM    5  C   UNK     0     -10.403  12.233 -37.085  0.00  0.00     0.022 A 
HETATM    6  C   UNK     0     -10.414  13.185 -36.071  0.00  0.00    -0.027 A 
HETATM    7  C   UNK     0     -11.589  11.353 -37.332  0.00  0.00     0.115 C 
HETATM    8  C   UNK     0     -11.312   9.871 -37.515  0.00  0.00     0.021 A 
HETATM    9  N   UNK     0     -10.385   9.113 -36.908  0.00  0.00    -0.361 N 
HETATM   10  C   UNK     0     -10.439   7.876 -37.446  0.00  0.00     0.022 A 
HETATM   11  C   UNK     0     -11.434   7.834 -38.419  0.00  0.00    -0.027 A 
HETATM   12  C   UNK     0     -11.987   9.088 -38.467  0.00  0.00    -0.031 A 
HETATM   13  C   UNK     0     -13.115   9.510 -39.382  0.00  0.00     0.051 C 
HETATM   14  C   UNK     0      -9.524   6.704 -37.103  0.00  0.00     0.115 C 
HETATM   15  C   UNK     0      -8.054   6.966 -37.388  0.00  0.00     0.021 A 
HETATM   16  N   UNK     0      -7.282   7.946 -36.883  0.00  0.00    -0.361 N 
HETATM   17  C   UNK     0      -6.069   7.877 -37.435  0.00  0.00     0.022 A 
HETATM   18  C   UNK     0      -6.046   6.794 -38.336  0.00  0.00    -0.027 A 
HETATM   19  C   UNK     0      -7.296   6.231 -38.297  0.00  0.00    -0.031 A 
HETATM   20  C   UNK     0      -7.694   5.005 -39.097  0.00  0.00     0.051 C 
HETATM   21  C   UNK     0      -4.870   8.782 -37.263  0.00  0.00     0.115 C 
HETATM   22  C   UNK     0      -5.132  10.252 -37.036  0.00  0.00     0.022 A 
HETATM   23  N   UNK     0      -6.050  11.032 -37.623  0.00  0.00    -0.361 N 
HETATM   24  C   UNK     0      -6.031  12.237 -37.018  0.00  0.00     0.021 A 
HETATM   25  C   UNK     0      -5.071  12.236 -36.025  0.00  0.00    -0.031 A 
HETATM   26  C   UNK     0      -4.651  13.363 -35.104  0.00  0.00     0.051 C 
HETATM   27  C   UNK     0      -4.481  10.977 -36.018  0.00  0.00    -0.027 A 
HETATM   28  C   UNK     0      -6.950  13.419 -37.273  0.00  0.00     0.115 C 
HETATM   29  H   UNK     0      -8.885  11.595 -38.543  0.00  0.00     0.165 HD
HETATM   30  H   UNK     0      -9.726   9.434 -36.065  0.00  0.00     0.165 HD
HETATM   31  H   UNK     0      -7.584   8.673 -36.084  0.00  0.00     0.165 HD
HETATM   32  H   UNK     0      -6.690  10.752 -38.499  0.00  0.00     0.165 HD
ENDROOT
BRANCH   6  33
HETATM   33  C   UNK     0     -11.522  13.590 -35.132  0.00  0.00     0.051 C 
BRANCH  33  34
HETATM   34  C   UNK     0     -12.246  14.809 -35.653  0.00  0.00     0.114 C 
BRANCH  34  35
HETATM   35  C   UNK     0     -12.322  15.794 -34.536  0.00  0.00     0.139 C 
HETATM   36  O   UNK     0     -12.881  16.915 -34.713  0.00  0.00    -0.650 OA
BRANCH  35  37
HETATM   37  O   UNK     0     -11.799  15.538 -33.275  0.00  0.00    -0.776 OA
HETATM   38  H   UNK     0     -11.958  14.666 -32.797  0.00  0.00     0.167 HD
ENDBRANCH  35  37
ENDBRANCH  34  35
ENDBRANCH  33  34
ENDBRANCH   6  33
BRANCH  27  39
HETATM   39  C   UNK     0      -3.347  10.618 -35.124  0.00  0.00     0.051 C 
BRANCH  39  40
HETATM   40  C   UNK     0      -1.991  10.662 -35.671  0.00  0.00     0.114 C 
BRANCH  40  41
HETATM   41  C   UNK     0      -1.414  11.876 -36.203  0.00  0.00     0.139 C 
HETATM   42  O   UNK     0      -1.316  12.927 -35.555  0.00  0.00    -0.650 OA
BRANCH  41  43
HETATM   43  O   UNK     0      -0.927  11.881 -37.541  0.00  0.00    -0.776 OA
HETATM   44  H   UNK     0       0.036  12.184 -37.635  0.00  0.00     0.167 HD
ENDBRANCH  41  43
ENDBRANCH  40  41
ENDBRANCH  39  40
ENDBRANCH  27  39
BRANCH  11  45
HETATM   45  C   UNK     0     -11.864   6.674 -39.276  0.00  0.00     0.051 C 
BRANCH  45  46
HETATM   46  C   UNK     0     -12.550   5.589 -38.529  0.00  0.00     0.114 C 
BRANCH  46  47
HETATM   47  C   UNK     0     -14.008   5.905 -38.531  0.00  0.00     0.139 C 
HETATM   48  O   UNK     0     -14.480   6.528 -37.570  0.00  0.00    -0.650 OA
BRANCH  47  49
HETATM   49  O   UNK     0     -14.810   5.514 -39.573  0.00  0.00    -0.776 OA
HETATM   50  H   UNK     0     -15.347   4.640 -39.548  0.00  0.00     0.167 HD
ENDBRANCH  47  49
ENDBRANCH  46  47
ENDBRANCH  45  46
ENDBRANCH  11  45
BRANCH  18  51
HETATM   51  C   UNK     0      -4.891   6.309 -39.173  0.00  0.00     0.051 C 
BRANCH  51  52
HETATM   52  C   UNK     0      -5.159   6.795 -40.590  0.00  0.00     0.114 C 
BRANCH  52  53
HETATM   53  C   UNK     0      -4.722   8.191 -40.784  0.00  0.00     0.139 C 
HETATM   54  O   UNK     0      -5.546   9.116 -40.708  0.00  0.00    -0.650 OA
BRANCH  53  55
HETATM   55  O   UNK     0      -3.402   8.459 -41.053  0.00  0.00    -0.776 OA
HETATM   56  H   UNK     0      -2.840   9.140 -40.598  0.00  0.00     0.167 HD
ENDBRANCH  53  55
ENDBRANCH  52  53
ENDBRANCH  51  52
ENDBRANCH  18  51
TORSDOF 16
ENDMDL
MODEL 3
REMARK VINA RESULT:      -8.3      1.907      2.269
REMARK  16 active torsions:
REMARK  status: ('A' for Active; 'I' for Inactive)
REMARK    1  A    between atoms: C_6  and  C_7 
REMARK    2  A    between atoms: C_7  and  C_8 
REMARK    3  A    between atoms: C_8  and  C_9 
REMARK    4  A    between atoms: C_9  and  O_11 
REMARK    5  A    between atoms: C_16  and  C_17 
REMARK    6  A    between atoms: C_17  and  C_18 
REMARK    7  A    between atoms: C_18  and  C_19 
REMARK    8  A    between atoms: C_19  and  O_21 
REMARK    9  A    between atoms: C_28  and  C_29 
REMARK   10  A    between atoms: C_29  and  C_30 
REMARK   11  A    between atoms: C_30  and  C_31 
REMARK   12  A    between atoms: C_31  and  O_33 
REMARK   13  A    between atoms: C_42  and  C_43 
REMARK   14  A    between atoms: C_43  and  C_44 
REMARK   15  A    between atoms: C_44  and  C_45 
REMARK   16  A    between atoms: C_45  and  O_47 
ROOT
HETATM    1  C   UNK     0      -6.257  10.621 -37.454  0.00  0.00     0.051 C 
HETATM    2  C   UNK     0      -5.121  10.094 -36.602  0.00  0.00    -0.031 A 
HETATM    3  C   UNK     0      -5.048   8.928 -35.856  0.00  0.00     0.021 A 
HETATM    4  N   UNK     0      -3.850   8.880 -35.227  0.00  0.00    -0.361 N 
HETATM    5  C   UNK     0      -3.154   9.986 -35.562  0.00  0.00     0.022 A 
HETATM    6  C   UNK     0      -3.920  10.768 -36.419  0.00  0.00    -0.027 A 
HETATM    7  C   UNK     0      -1.749  10.368 -35.214  0.00  0.00     0.115 C 
HETATM    8  C   UNK     0      -0.705   9.268 -35.288  0.00  0.00     0.021 A 
HETATM    9  N   UNK     0      -0.625   8.248 -36.155  0.00  0.00    -0.361 N 
HETATM   10  C   UNK     0       0.412   7.465 -35.788  0.00  0.00     0.022 A 
HETATM   11  C   UNK     0       1.022   8.002 -34.659  0.00  0.00    -0.027 A 
HETATM   12  C   UNK     0       0.324   9.138 -34.338  0.00  0.00    -0.031 A 
HETATM   13  C   UNK     0       0.634  10.056 -33.177  0.00  0.00     0.051 C 
HETATM   14  C   UNK     0       0.834   6.158 -36.453  0.00  0.00     0.115 C 
HETATM   15  C   UNK     0      -0.235   5.077 -36.420  0.00  0.00     0.021 A 
HETATM   16  N   UNK     0      -1.480   5.138 -36.927  0.00  0.00    -0.361 N 
HETATM   17  C   UNK     0      -2.130   4.011 -36.631  0.00  0.00     0.022 A 
HETATM   18  C   UNK     0      -1.264   3.171 -35.903  0.00  0.00    -0.027 A 
HETATM   19  C   UNK     0      -0.079   3.850 -35.780  0.00  0.00    -0.031 A 
HETATM   20  C   UNK     0       1.149   3.285 -35.090  0.00  0.00     0.051 C 
HETATM   21  C   UNK     0      -3.563   3.614 -36.905  0.00  0.00     0.115 C 
HETATM   22  C   UNK     0      -4.607   4.706 -36.878  0.00  0.00     0.022 A 
HETATM   23  N   UNK     0      -4.708   5.737 -36.029  0.00  0.00    -0.361 N 
HETATM   24  C   UNK     0      -5.699   6.544 -36.459  0.00  0.00     0.021 A 
HETATM   25  C   UNK     0      -6.255   6.016 -37.608  0.00  0.00    -0.031 A 
HETATM   26  C   UNK     0      -7.415   6.536 -38.432  0.00  0.00     0.051 C 
HETATM   27  C   UNK     0      -5.573   4.839 -37.896  0.00  0.00    -0.027 A 
HETATM   28  C   UNK     0      -6.126   7.881 -35.878  0.00  0.00     0.115 C 
HETATM   29  H   UNK     0      -3.520   8.084 -34.519  0.00  0.00     0.165 HD
HETATM   30  H   UNK     0      -1.269   8.104 -37.058  0.00  0.00     0.165 HD
HETATM   31  H   UNK     0      -1.895   5.974 -37.549  0.00  0.00     0.165 HD
HETATM   32  H   UNK     0      -4.110   5.881 -35.092  0.00  0.00     0.165 HD
ENDROOT
BRANCH   6  33
HETATM   33  C   UNK     0      -3.604  12.093 -37.067  0.00  0.00     0.051 C 
BRANCH  33  34
HETATM   34  C   UNK     0      -2.857  11.890 -38.363  0.00  0.00     0.114 C 
BRANCH  34  35
HETATM   35  C   UNK     0      -1.624  12.725 -38.304  0.00  0.00     0.139 C 
HETATM   36  O   UNK     0      -1.590  13.853 -38.877  0.00  0.00    -0.650 OA
BRANCH  35  37
HETATM   37  O   UNK     0      -0.477  12.322 -37.632  0.00  0.00    -0.776 OA
HETATM   38  H   UNK     0      -0.106  12.837 -36.850  0.00  0.00     0.167 HD
ENDBRANCH  35  37
ENDBRANCH  34  35
ENDBRANCH  33  34
ENDBRANCH   6  33
BRANCH  27  39
HETATM   39  C   UNK     0      -5.939   3.947 -39.029  0.00  0.00     0.051 C 
BRANCH  39  40
HETATM   40  C   UNK     0      -5.173   4.052 -40.271  0.00  0.00     0.114 C 
BRANCH  40  41
HETATM   41  C   UNK     0      -5.559   4.943 -41.341  0.00  0.00     0.139 C 
HETATM   42  O   UNK     0      -6.083   4.559 -42.395  0.00  0.00    -0.650 OA
BRANCH  41  43
HETATM   43  O   UNK     0      -5.330   6.341 -41.193  0.00  0.00    -0.776 OA
HETATM   44  H   UNK     0      -5.789   6.758 -40.391  0.00  0.00     0.167 HD
ENDBRANCH  41  43
ENDBRANCH  40  41
ENDBRANCH  39  40
ENDBRANCH  27  39
BRANCH  11  45
HETATM   45  C   UNK     0       2.215   7.486 -33.898  0.00  0.00     0.051 C 
BRANCH  45  46
HETATM   46  C   UNK     0       3.522   7.908 -34.463  0.00  0.00     0.114 C 
BRANCH  46  47
HETATM   47  C   UNK     0       4.344   6.677 -34.642  0.00  0.00     0.139 C 
HETATM   48  O   UNK     0       4.165   5.727 -33.867  0.00  0.00    -0.650 OA
BRANCH  47  49
HETATM   49  O   UNK     0       5.279   6.596 -35.643  0.00  0.00    -0.776 OA
HETATM   50  H   UNK     0       5.381   7.330 -36.354  0.00  0.00     0.167 HD
ENDBRANCH  47  49
ENDBRANCH  46  47
ENDBRANCH  45  46
ENDBRANCH  11  45
BRANCH  18  51
HETATM   51  C   UNK     0      -1.542   1.788 -35.374  0.00  0.00     0.051 C 
BRANCH  51  52
HETATM   52  C   UNK     0      -1.069   0.818 -36.446  0.00  0.00     0.114 C 
BRANCH  52  53
HETATM   53  C   UNK     0      -0.197  -0.234 -35.889  0.00  0.00     0.139 C 
HETATM   54  O   UNK     0       0.040  -1.259 -36.549  0.00  0.00    -0.650 OA
BRANCH  53  55
HETATM   55  O   UNK     0       0.347  -0.074 -34.638  0.00  0.00    -0.776 OA
HETATM   56  H   UNK     0       0.060  -0.545 -33.812  0.00  0.00     0.167 HD
ENDBRANCH  53  55
ENDBRANCH  52  53
ENDBRANCH  51  52
ENDBRANCH  18  51
TORSDOF 16
ENDMDL
MODEL 4
REMARK VINA RESULT:      -8.2     32.518     35.740
REMARK  16 active torsions:
REMARK  status: ('A' for Active; 'I' for Inactive)
REMARK    1  A    between atoms: C_6  and  C_7 
REMARK    2  A    between atoms: C_7  and  C_8 
REMARK    3  A    between atoms: C_8  and  C_9 
REMARK    4  A    between atoms: C_9  and  O_11 
REMARK    5  A    between atoms: C_16  and  C_17 
REMARK    6  A    between atoms: C_17  and  C_18 
REMARK    7  A    between atoms: C_18  and  C_19 
REMARK    8  A    between atoms: C_19  and  O_21 
REMARK    9  A    between atoms: C_28  and  C_29 
REMARK   10  A    between atoms: C_29  and  C_30 
REMARK   11  A    between atoms: C_30  and  C_31 
REMARK   12  A    between atoms: C_31  and  O_33 
REMARK   13  A    between atoms: C_42  and  C_43 
REMARK   14  A    between atoms: C_43  and  C_44 
REMARK   15  A    between atoms: C_44  and  C_45 
REMARK   16  A    between atoms: C_45  and  O_47 
ROOT
HETATM    1  C   UNK     0      -9.429  17.015  -3.286  0.00  0.00     0.051 C 
HETATM    2  C   UNK     0      -8.422  18.015  -2.756  0.00  0.00    -0.031 A 
HETATM    3  C   UNK     0      -7.131  17.804  -2.297  0.00  0.00     0.021 A 
HETATM    4  N   UNK     0      -6.610  18.985  -1.889  0.00  0.00    -0.361 N 
HETATM    5  C   UNK     0      -7.537  19.945  -2.085  0.00  0.00     0.022 A 
HETATM    6  C   UNK     0      -8.684  19.372  -2.624  0.00  0.00    -0.027 A 
HETATM    7  C   UNK     0      -7.431  21.425  -1.888  0.00  0.00     0.115 C 
HETATM    8  C   UNK     0      -6.146  22.085  -2.358  0.00  0.00     0.021 A 
HETATM    9  N   UNK     0      -5.392  21.781  -3.426  0.00  0.00    -0.361 N 
HETATM   10  C   UNK     0      -4.295  22.568  -3.402  0.00  0.00     0.022 A 
HETATM   11  C   UNK     0      -4.349  23.408  -2.294  0.00  0.00    -0.027 A 
HETATM   12  C   UNK     0      -5.513  23.110  -1.632  0.00  0.00    -0.031 A 
HETATM   13  C   UNK     0      -5.995  23.781  -0.366  0.00  0.00     0.051 C 
HETATM   14  C   UNK     0      -3.132  22.522  -4.388  0.00  0.00     0.115 C 
HETATM   15  C   UNK     0      -2.403  21.188  -4.420  0.00  0.00     0.021 A 
HETATM   16  N   UNK     0      -2.919  19.977  -4.700  0.00  0.00    -0.361 N 
HETATM   17  C   UNK     0      -1.969  19.051  -4.553  0.00  0.00     0.022 A 
HETATM   18  C   UNK     0      -0.774  19.690  -4.167  0.00  0.00    -0.027 A 
HETATM   19  C   UNK     0      -1.059  21.029  -4.089  0.00  0.00    -0.031 A 
HETATM   20  C   UNK     0      -0.033  22.091  -3.737  0.00  0.00     0.051 C 
HETATM   21  C   UNK     0      -2.051  17.546  -4.677  0.00  0.00     0.115 C 
HETATM   22  C   UNK     0      -3.340  16.880  -4.254  0.00  0.00     0.022 A 
HETATM   23  N   UNK     0      -4.114  17.165  -3.199  0.00  0.00    -0.361 N 
HETATM   24  C   UNK     0      -5.237  16.425  -3.285  0.00  0.00     0.021 A 
HETATM   25  C   UNK     0      -5.181  15.636  -4.419  0.00  0.00    -0.031 A 
HETATM   26  C   UNK     0      -6.180  14.615  -4.920  0.00  0.00     0.051 C 
HETATM   27  C   UNK     0      -3.975  15.910  -5.055  0.00  0.00    -0.027 A 
HETATM   28  C   UNK     0      -6.450  16.467  -2.372  0.00  0.00     0.115 C 
HETATM   29  H   UNK     0      -5.604  19.126  -1.428  0.00  0.00     0.165 HD
HETATM   30  H   UNK     0      -5.655  21.046  -4.226  0.00  0.00     0.165 HD
HETATM   31  H   UNK     0      -3.963  19.775  -5.056  0.00  0.00     0.165 HD
HETATM   32  H   UNK     0      -3.854  17.861  -2.359  0.00  0.00     0.165 HD
ENDROOT
BRANCH   6  33
HETATM   33  C   UNK     0      -9.994  20.008  -3.015  0.00  0.00     0.051 C 
BRANCH  33  34
HETATM   34  C   UNK     0      -9.927  20.550  -4.423  0.00  0.00     0.114 C 
BRANCH  34  35
HETATM   35  C   UNK     0     -10.594  21.884  -4.420  0.00  0.00     0.139 C 
HETATM   36  O   UNK     0     -11.456  22.166  -5.303  0.00  0.00    -0.650 OA
BRANCH  35  37
HETATM   37  O   UNK     0     -10.314  22.860  -3.472  0.00  0.00    -0.776 OA
HETATM   38  H   UNK     0      -9.803  23.697  -3.701  0.00  0.00     0.167 HD
ENDBRANCH  35  37
ENDBRANCH  34  35
ENDBRANCH  33  34
ENDBRANCH   6  33
BRANCH  27  39
HETATM   39  C   UNK     0      -3.526  15.196  -6.281  0.00  0.00     0.051 C 
BRANCH  39  40
HETATM   40  C   UNK     0      -2.277  14.437  -6.223  0.00  0.00     0.114 C 
BRANCH  40  41
HETATM   41  C   UNK     0      -1.952  13.571  -5.112  0.00  0.00     0.139 C 
HETATM   42  O   UNK     0      -2.201  12.358  -5.095  0.00  0.00    -0.650 OA
BRANCH  41  43
HETATM   43  O   UNK     0      -1.312  14.127  -3.967  0.00  0.00    -0.776 OA
HETATM   44  H   UNK     0      -1.055  15.102  -4.063  0.00  0.00     0.167 HD
ENDBRANCH  41  43
ENDBRANCH  40  41
ENDBRANCH  39  40
ENDBRANCH  27  39
BRANCH  11  45
HETATM   45  C   UNK     0      -3.361  24.457  -1.858  0.00  0.00     0.051 C 
BRANCH  45  46
HETATM   46  C   UNK     0      -3.499  25.753  -2.570  0.00  0.00     0.114 C 
BRANCH  46  47
HETATM   47  C   UNK     0      -4.212  26.687  -1.652  0.00  0.00     0.139 C 
HETATM   48  O   UNK     0      -5.100  27.414  -2.119  0.00  0.00    -0.650 OA
BRANCH  47  49
HETATM   49  O   UNK     0      -3.891  26.744  -0.320  0.00  0.00    -0.776 OA
HETATM   50  H   UNK     0      -4.350  27.399   0.324  0.00  0.00     0.167 HD
ENDBRANCH  47  49
ENDBRANCH  46  47
ENDBRANCH  45  46
ENDBRANCH  11  45
BRANCH  18  51
HETATM   51  C   UNK     0       0.571  19.062  -3.909  0.00  0.00     0.051 C 
BRANCH  51  52
HETATM   52  C   UNK     0       0.578  18.660  -2.441  0.00  0.00     0.114 C 
BRANCH  52  53
HETATM   53  C   UNK     0       1.161  17.320  -2.242  0.00  0.00     0.139 C 
HETATM   54  O   UNK     0       2.102  17.163  -1.447  0.00  0.00    -0.650 OA
BRANCH  53  55
HETATM   55  O   UNK     0       0.660  16.249  -2.942  0.00  0.00    -0.776 OA
HETATM   56  H   UNK     0       1.014  15.895  -3.799  0.00  0.00     0.167 HD
ENDBRANCH  53  55
ENDBRANCH  52  53
ENDBRANCH  51  52
ENDBRANCH  18  51
TORSDOF 16
ENDMDL
MODEL 5
REMARK VINA RESULT:      -8.2     22.412     25.244
REMARK  16 active torsions:
REMARK  status: ('A' for Active; 'I' for Inactive)
REMARK    1  A    between atoms: C_6  and  C_7 
REMARK    2  A    between atoms: C_7  and  C_8 
REMARK    3  A    between atoms: C_8  and  C_9 
REMARK    4  A    between atoms: C_9  and  O_11 
REMARK    5  A    between atoms: C_16  and  C_17 
REMARK    6  A    between atoms: C_17  and  C_18 
REMARK    7  A    between atoms: C_18  and  C_19 
REMARK    8  A    between atoms: C_19  and  O_21 
REMARK    9  A    between atoms: C_28  and  C_29 
REMARK   10  A    between atoms: C_29  and  C_30 
REMARK   11  A    between atoms: C_30  and  C_31 
REMARK   12  A    between atoms: C_31  and  O_33 
REMARK   13  A    between atoms: C_42  and  C_43 
REMARK   14  A    between atoms: C_43  and  C_44 
REMARK   15  A    between atoms: C_44  and  C_45 
REMARK   16  A    between atoms: C_45  and  O_47 
ROOT
HETATM    1  C   UNK     0     -11.145  13.135 -13.524  0.00  0.00     0.051 C 
HETATM    2  C   UNK     0     -11.866  11.846 -13.861  0.00  0.00    -0.031 A 
HETATM    3  C   UNK     0     -13.109  11.398 -13.443  0.00  0.00     0.021 A 
HETATM    4  N   UNK     0     -13.337  10.172 -13.970  0.00  0.00    -0.361 N 
HETATM    5  C   UNK     0     -12.270   9.833 -14.723  0.00  0.00     0.022 A 
HETATM    6  C   UNK     0     -11.330  10.857 -14.674  0.00  0.00    -0.027 A 
HETATM    7  C   UNK     0     -12.059   8.630 -15.589  0.00  0.00     0.115 C 
HETATM    8  C   UNK     0     -13.236   8.190 -16.442  0.00  0.00     0.021 A 
HETATM    9  N   UNK     0     -14.158   8.951 -17.052  0.00  0.00    -0.361 N 
HETATM   10  C   UNK     0     -15.068   8.132 -17.620  0.00  0.00     0.022 A 
HETATM   11  C   UNK     0     -14.718   6.807 -17.377  0.00  0.00    -0.027 A 
HETATM   12  C   UNK     0     -13.565   6.836 -16.635  0.00  0.00    -0.031 A 
HETATM   13  C   UNK     0     -12.813   5.621 -16.141  0.00  0.00     0.051 C 
HETATM   14  C   UNK     0     -16.327   8.564 -18.366  0.00  0.00     0.115 C 
HETATM   15  C   UNK     0     -17.302   9.365 -17.517  0.00  0.00     0.021 A 
HETATM   16  N   UNK     0     -17.070  10.525 -16.875  0.00  0.00    -0.361 N 
HETATM   17  C   UNK     0     -18.159  10.868 -16.183  0.00  0.00     0.022 A 
HETATM   18  C   UNK     0     -19.150   9.888 -16.391  0.00  0.00    -0.027 A 
HETATM   19  C   UNK     0     -18.601   8.953 -17.229  0.00  0.00    -0.031 A 
HETATM   20  C   UNK     0     -19.350   7.736 -17.741  0.00  0.00     0.051 C 
HETATM   21  C   UNK     0     -18.389  12.033 -15.248  0.00  0.00     0.115 C 
HETATM   22  C   UNK     0     -17.215  12.510 -14.425  0.00  0.00     0.022 A 
HETATM   23  N   UNK     0     -16.279  11.775 -13.810  0.00  0.00    -0.361 N 
HETATM   24  C   UNK     0     -15.341  12.610 -13.318  0.00  0.00     0.021 A 
HETATM   25  C   UNK     0     -15.686  13.914 -13.615  0.00  0.00    -0.031 A 
HETATM   26  C   UNK     0     -14.974  15.197 -13.241  0.00  0.00     0.051 C 
HETATM   27  C   UNK     0     -16.882  13.876 -14.323  0.00  0.00    -0.027 A 
HETATM   28  C   UNK     0     -14.043  12.241 -12.621  0.00  0.00     0.115 C 
HETATM   29  H   UNK     0     -14.232   9.537 -13.776  0.00  0.00     0.165 HD
HETATM   30  H   UNK     0     -14.141  10.066 -17.126  0.00  0.00     0.165 HD
HETATM   31  H   UNK     0     -16.136  11.141 -16.950  0.00  0.00     0.165 HD
HETATM   32  H   UNK     0     -16.295  10.662 -13.679  0.00  0.00     0.165 HD
ENDROOT
BRANCH   6  33
HETATM   33  C   UNK     0      -9.977  10.964 -15.331  0.00  0.00     0.051 C 
BRANCH  33  34
HETATM   34  C   UNK     0     -10.092  11.614 -16.690  0.00  0.00     0.114 C 
BRANCH  34  35
HETATM   35  C   UNK     0      -8.829  12.370 -16.931  0.00  0.00     0.139 C 
HETATM   36  O   UNK     0      -8.555  13.391 -16.235  0.00  0.00    -0.650 OA
BRANCH  35  37
HETATM   37  O   UNK     0      -7.910  12.002 -17.905  0.00  0.00    -0.776 OA
HETATM   38  H   UNK     0      -7.980  12.327 -18.856  0.00  0.00     0.167 HD
ENDBRANCH  35  37
ENDBRANCH  34  35
ENDBRANCH  33  34
ENDBRANCH   6  33
BRANCH  27  39
HETATM   39  C   UNK     0     -17.606  15.102 -14.757  0.00  0.00     0.051 C 
BRANCH  39  40
HETATM   40  C   UNK     0     -17.458  15.541 -16.144  0.00  0.00     0.114 C 
BRANCH  40  41
HETATM   41  C   UNK     0     -16.270  15.259 -16.919  0.00  0.00     0.139 C 
HETATM   42  O   UNK     0     -16.200  14.346 -17.754  0.00  0.00    -0.650 OA
BRANCH  41  43
HETATM   43  O   UNK     0     -15.111  16.062 -16.725  0.00  0.00    -0.776 OA
HETATM   44  H   UNK     0     -14.441  15.679 -16.068  0.00  0.00     0.167 HD
ENDBRANCH  41  43
ENDBRANCH  40  41
ENDBRANCH  39  40
ENDBRANCH  27  39
BRANCH  11  45
HETATM   45  C   UNK     0     -15.422   5.551 -17.817  0.00  0.00     0.051 C 
BRANCH  45  46
HETATM   46  C   UNK     0     -14.981   5.041 -19.140  0.00  0.00     0.114 C 
BRANCH  46  47
HETATM   47  C   UNK     0     -16.069   4.164 -19.660  0.00  0.00     0.139 C 
HETATM   48  O   UNK     0     -17.030   4.691 -20.238  0.00  0.00    -0.650 OA
BRANCH  47  49
HETATM   49  O   UNK     0     -16.011   2.802 -19.500  0.00  0.00    -0.776 OA
HETATM   50  H   UNK     0     -15.317   2.354 -18.891  0.00  0.00     0.167 HD
ENDBRANCH  47  49
ENDBRANCH  46  47
ENDBRANCH  45  46
ENDBRANCH  11  45
BRANCH  18  51
HETATM   51  C   UNK     0     -20.551   9.857 -15.838  0.00  0.00     0.051 C 
BRANCH  51  52
HETATM   52  C   UNK     0     -20.564   8.770 -14.772  0.00  0.00     0.114 C 
BRANCH  52  53
HETATM   53  C   UNK     0     -20.407   9.329 -13.416  0.00  0.00     0.139 C 
HETATM   54  O   UNK     0     -19.319   9.231 -12.826  0.00  0.00    -0.650 OA
BRANCH  53  55
HETATM   55  O   UNK     0     -21.470   9.954 -12.811  0.00  0.00    -0.776 OA
HETATM   56  H   UNK     0     -21.475  10.879 -12.448  0.00  0.00     0.167 HD
ENDBRANCH  53  55
ENDBRANCH  52  53
ENDBRANCH  51  52
ENDBRANCH  18  51
TORSDOF 16
ENDMDL
MODEL 6
REMARK VINA RESULT:      -8.2      2.783     10.086
REMARK  16 active torsions:
REMARK  status: ('A' for Active; 'I' for Inactive)
REMARK    1  A    between atoms: C_6  and  C_7 
REMARK    2  A    between atoms: C_7  and  C_8 
REMARK    3  A    between atoms: C_8  and  C_9 
REMARK    4  A    between atoms: C_9  and  O_11 
REMARK    5  A    between atoms: C_16  and  C_17 
REMARK    6  A    between atoms: C_17  and  C_18 
REMARK    7  A    between atoms: C_18  and  C_19 
REMARK    8  A    between atoms: C_19  and  O_21 
REMARK    9  A    between atoms: C_28  and  C_29 
REMARK   10  A    between atoms: C_29  and  C_30 
REMARK   11  A    between atoms: C_30  and  C_31 
REMARK   12  A    between atoms: C_31  and  O_33 
REMARK   13  A    between atoms: C_42  and  C_43 
REMARK   14  A    between atoms: C_43  and  C_44 
REMARK   15  A    between atoms: C_44  and  C_45 
REMARK   16  A    between atoms: C_45  and  O_47 
ROOT
HETATM    1  C   UNK     0      -0.007   0.797 -34.602  0.00  0.00     0.051 C 
HETATM    2  C   UNK     0      -1.148   1.754 -34.321  0.00  0.00    -0.031 A 
HETATM    3  C   UNK     0      -1.113   3.027 -33.775  0.00  0.00     0.021 A 
HETATM    4  N   UNK     0      -2.379   3.500 -33.678  0.00  0.00    -0.361 N 
HETATM    5  C   UNK     0      -3.218   2.559 -34.158  0.00  0.00     0.022 A 
HETATM    6  C   UNK     0      -2.481   1.452 -34.566  0.00  0.00    -0.027 A 
HETATM    7  C   UNK     0      -4.700   2.618 -34.360  0.00  0.00     0.115 C 
HETATM    8  C   UNK     0      -5.257   3.906 -34.941  0.00  0.00     0.021 A 
HETATM    9  N   UNK     0      -4.708   4.716 -35.859  0.00  0.00    -0.361 N 
HETATM   10  C   UNK     0      -5.512   5.790 -36.005  0.00  0.00     0.022 A 
HETATM   11  C   UNK     0      -6.614   5.664 -35.165  0.00  0.00    -0.027 A 
HETATM   12  C   UNK     0      -6.460   4.479 -34.491  0.00  0.00    -0.031 A 
HETATM   13  C   UNK     0      -7.426   3.923 -33.469  0.00  0.00     0.051 C 
HETATM   14  C   UNK     0      -5.248   6.998 -36.899  0.00  0.00     0.115 C 
HETATM   15  C   UNK     0      -3.981   7.761 -36.546  0.00  0.00     0.021 A 
HETATM   16  N   UNK     0      -2.721   7.289 -36.511  0.00  0.00    -0.361 N 
HETATM   17  C   UNK     0      -1.902   8.254 -36.086  0.00  0.00     0.022 A 
HETATM   18  C   UNK     0      -2.665   9.413 -35.841  0.00  0.00    -0.027 A 
HETATM   19  C   UNK     0      -3.965   9.092 -36.134  0.00  0.00    -0.031 A 
HETATM   20  C   UNK     0      -5.118  10.074 -36.040  0.00  0.00     0.051 C 
HETATM   21  C   UNK     0      -0.417   8.216 -35.806  0.00  0.00     0.115 C 
HETATM   22  C   UNK     0       0.159   6.926 -35.270  0.00  0.00     0.022 A 
HETATM   23  N   UNK     0      -0.368   6.098 -34.359  0.00  0.00    -0.361 N 
HETATM   24  C   UNK     0       0.409   4.998 -34.286  0.00  0.00     0.021 A 
HETATM   25  C   UNK     0       1.468   5.127 -35.165  0.00  0.00    -0.031 A 
HETATM   26  C   UNK     0       2.621   4.177 -35.412  0.00  0.00     0.051 C 
HETATM   27  C   UNK     0       1.329   6.352 -35.805  0.00  0.00    -0.027 A 
HETATM   28  C   UNK     0       0.170   3.744 -33.464  0.00  0.00     0.115 C 
HETATM   29  H   UNK     0      -2.673   4.479 -33.234  0.00  0.00     0.165 HD
HETATM   30  H   UNK     0      -3.777   4.508 -36.442  0.00  0.00     0.165 HD
HETATM   31  H   UNK     0      -2.394   6.268 -36.839  0.00  0.00     0.165 HD
HETATM   32  H   UNK     0      -1.271   6.301 -33.726  0.00  0.00     0.165 HD
ENDROOT
BRANCH   6  33
HETATM   33  C   UNK     0      -2.942   0.146 -35.162  0.00  0.00     0.051 C 
BRANCH  33  34
HETATM   34  C   UNK     0      -3.201  -0.874 -34.079  0.00  0.00     0.114 C 
BRANCH  34  35
HETATM   35  C   UNK     0      -4.679  -0.968 -33.898  0.00  0.00     0.139 C 
HETATM   36  O   UNK     0      -5.179  -0.988 -32.736  0.00  0.00    -0.650 OA
BRANCH  35  37
HETATM   37  O   UNK     0      -5.562  -1.033 -34.969  0.00  0.00    -0.776 OA
HETATM   38  H   UNK     0      -5.283  -0.792 -35.907  0.00  0.00     0.167 HD
ENDBRANCH  35  37
ENDBRANCH  34  35
ENDBRANCH  33  34
ENDBRANCH   6  33
BRANCH  27  39
HETATM   39  C   UNK     0       2.327   6.876 -36.778  0.00  0.00     0.051 C 
BRANCH  39  40
HETATM   40  C   UNK     0       3.376   7.767 -36.284  0.00  0.00     0.114 C 
BRANCH  40  41
HETATM   41  C   UNK     0       4.357   7.338 -35.312  0.00  0.00     0.139 C 
HETATM   42  O   UNK     0       4.288   7.612 -34.106  0.00  0.00    -0.650 OA
BRANCH  41  43
HETATM   43  O   UNK     0       5.467   6.560 -35.747  0.00  0.00    -0.776 OA
HETATM   44  H   UNK     0       5.906   6.895 -36.596  0.00  0.00     0.167 HD
ENDBRANCH  41  43
ENDBRANCH  40  41
ENDBRANCH  39  40
ENDBRANCH  27  39
BRANCH  11  45
HETATM   45  C   UNK     0      -7.776   6.605 -34.988  0.00  0.00     0.051 C 
BRANCH  45  46
HETATM   46  C   UNK     0      -7.539   7.680 -33.992  0.00  0.00     0.114 C 
BRANCH  46  47
HETATM   47  C   UNK     0      -8.680   8.635 -34.094  0.00  0.00     0.139 C 
HETATM   48  O   UNK     0      -8.463   9.771 -34.538  0.00  0.00    -0.650 OA
BRANCH  47  49
HETATM   49  O   UNK     0      -9.942   8.266 -33.703  0.00  0.00    -0.776 OA
HETATM   50  H   UNK     0     -10.243   8.305 -32.722  0.00  0.00     0.167 HD
ENDBRANCH  47  49
ENDBRANCH  46  47
ENDBRANCH  45  46
ENDBRANCH  11  45
BRANCH  18  51
HETATM   51  C   UNK     0      -2.178  10.761 -35.373  0.00  0.00     0.051 C 
BRANCH  51  52
HETATM   52  C   UNK     0      -2.229  11.677 -36.587  0.00  0.00     0.114 C 
BRANCH  52  53
HETATM   53  C   UNK     0      -1.476  12.926 -36.365  0.00  0.00     0.139 C 
HETATM   54  O   UNK     0      -0.743  13.378 -37.260  0.00  0.00    -0.650 OA
BRANCH  53  55
HETATM   55  O   UNK     0      -1.587  13.582 -35.163  0.00  0.00    -0.776 OA
HETATM   56  H   UNK     0      -2.423  13.711 -34.644  0.00  0.00     0.167 HD
ENDBRANCH  53  55
ENDBRANCH  52  53
ENDBRANCH  51  52
ENDBRANCH  18  51
TORSDOF 16
ENDMDL
MODEL 7
REMARK VINA RESULT:      -8.0      1.551      1.971
REMARK  16 active torsions:
REMARK  status: ('A' for Active; 'I' for Inactive)
REMARK    1  A    between atoms: C_6  and  C_7 
REMARK    2  A    between atoms: C_7  and  C_8 
REMARK    3  A    between atoms: C_8  and  C_9 
REMARK    4  A    between atoms: C_9  and  O_11 
REMARK    5  A    between atoms: C_16  and  C_17 
REMARK    6  A    between atoms: C_17  and  C_18 
REMARK    7  A    between atoms: C_18  and  C_19 
REMARK    8  A    between atoms: C_19  and  O_21 
REMARK    9  A    between atoms: C_28  and  C_29 
REMARK   10  A    between atoms: C_29  and  C_30 
REMARK   11  A    between atoms: C_30  and  C_31 
REMARK   12  A    between atoms: C_31  and  O_33 
REMARK   13  A    between atoms: C_42  and  C_43 
REMARK   14  A    between atoms: C_43  and  C_44 
REMARK   15  A    between atoms: C_44  and  C_45 
REMARK   16  A    between atoms: C_45  and  O_47 
ROOT
HETATM    1  C   UNK     0      -5.282  12.155 -36.908  0.00  0.00     0.051 C 
HETATM    2  C   UNK     0      -4.294  11.276 -36.169  0.00  0.00    -0.031 A 
HETATM    3  C   UNK     0      -4.512  10.095 -35.478  0.00  0.00     0.021 A 
HETATM    4  N   UNK     0      -3.341   9.671 -34.947  0.00  0.00    -0.361 N 
HETATM    5  C   UNK     0      -2.379  10.552 -35.292  0.00  0.00     0.022 A 
HETATM    6  C   UNK     0      -2.941  11.571 -36.054  0.00  0.00    -0.027 A 
HETATM    7  C   UNK     0      -0.904  10.499 -35.040  0.00  0.00     0.115 C 
HETATM    8  C   UNK     0      -0.227   9.154 -35.239  0.00  0.00     0.021 A 
HETATM    9  N   UNK     0      -0.499   8.208 -36.150  0.00  0.00    -0.361 N 
HETATM   10  C   UNK     0       0.290   7.143 -35.897  0.00  0.00     0.022 A 
HETATM   11  C   UNK     0       1.100   7.414 -34.798  0.00  0.00    -0.027 A 
HETATM   12  C   UNK     0       0.779   8.680 -34.379  0.00  0.00    -0.031 A 
HETATM   13  C   UNK     0       1.414   9.401 -33.210  0.00  0.00     0.051 C 
HETATM   14  C   UNK     0       0.276   5.812 -36.644  0.00  0.00     0.115 C 
HETATM   15  C   UNK     0      -1.054   5.079 -36.571  0.00  0.00     0.021 A 
HETATM   16  N   UNK     0      -2.259   5.521 -36.976  0.00  0.00    -0.361 N 
HETATM   17  C   UNK     0      -3.185   4.609 -36.674  0.00  0.00     0.022 A 
HETATM   18  C   UNK     0      -2.552   3.515 -36.051  0.00  0.00    -0.027 A 
HETATM   19  C   UNK     0      -1.217   3.821 -35.993  0.00  0.00    -0.031 A 
HETATM   20  C   UNK     0      -0.161   2.891 -35.425  0.00  0.00     0.051 C 
HETATM   21  C   UNK     0      -4.686   4.652 -36.850  0.00  0.00     0.115 C 
HETATM   22  C   UNK     0      -5.368   5.992 -36.699  0.00  0.00     0.022 A 
HETATM   23  N   UNK     0      -5.115   6.955 -35.803  0.00  0.00    -0.361 N 
HETATM   24  C   UNK     0      -5.857   8.035 -36.122  0.00  0.00     0.021 A 
HETATM   25  C   UNK     0      -6.614   7.756 -37.244  0.00  0.00    -0.031 A 
HETATM   26  C   UNK     0      -7.625   8.633 -37.954  0.00  0.00     0.051 C 
HETATM   27  C   UNK     0      -6.318   6.454 -37.631  0.00  0.00    -0.027 A 
HETATM   28  C   UNK     0      -5.844   9.400 -35.457  0.00  0.00     0.115 C 
HETATM   29  H   UNK     0      -3.209   8.773 -34.300  0.00  0.00     0.165 HD
HETATM   30  H   UNK     0      -1.213   8.307 -37.004  0.00  0.00     0.165 HD
HETATM   31  H   UNK     0      -2.454   6.477 -37.529  0.00  0.00     0.165 HD
HETATM   32  H   UNK     0      -4.441   6.867 -34.911  0.00  0.00     0.165 HD
ENDROOT
BRANCH   6  33
HETATM   33  C   UNK     0      -2.300  12.788 -36.671  0.00  0.00     0.051 C 
BRANCH  33  34
HETATM   34  C   UNK     0      -2.197  13.908 -35.663  0.00  0.00     0.114 C 
BRANCH  34  35
HETATM   35  C   UNK     0      -1.387  14.994 -36.284  0.00  0.00     0.139 C 
HETATM   36  O   UNK     0      -0.504  14.717 -37.147  0.00  0.00    -0.650 OA
BRANCH  35  37
HETATM   37  O   UNK     0      -1.556  16.335 -35.959  0.00  0.00    -0.776 OA
HETATM   38  H   UNK     0      -1.329  17.074 -36.604  0.00  0.00     0.167 HD
ENDBRANCH  35  37
ENDBRANCH  34  35
ENDBRANCH  33  34
ENDBRANCH   6  33
BRANCH  27  39
HETATM   39  C   UNK     0      -6.997   5.772 -38.767  0.00  0.00     0.051 C 
BRANCH  39  40
HETATM   40  C   UNK     0      -7.908   4.668 -38.469  0.00  0.00     0.114 C 
BRANCH  40  41
HETATM   41  C   UNK     0      -7.503   3.284 -38.579  0.00  0.00     0.139 C 
HETATM   42  O   UNK     0      -7.785   2.421 -37.737  0.00  0.00    -0.650 OA
BRANCH  41  43
HETATM   43  O   UNK     0      -6.739   2.875 -39.709  0.00  0.00    -0.776 OA
HETATM   44  H   UNK     0      -5.896   3.415 -39.862  0.00  0.00     0.167 HD
ENDBRANCH  41  43
ENDBRANCH  40  41
ENDBRANCH  39  40
ENDBRANCH  27  39
BRANCH  11  45
HETATM   45  C   UNK     0       2.140   6.537 -34.155  0.00  0.00     0.051 C 
BRANCH  45  46
HETATM   46  C   UNK     0       3.132   5.974 -35.107  0.00  0.00     0.114 C 
BRANCH  46  47
HETATM   47  C   UNK     0       4.337   6.851 -35.059  0.00  0.00     0.139 C 
HETATM   48  O   UNK     0       4.264   7.926 -34.447  0.00  0.00    -0.650 OA
BRANCH  47  49
HETATM   49  O   UNK     0       5.502   6.477 -35.679  0.00  0.00    -0.776 OA
HETATM   50  H   UNK     0       5.553   6.316 -36.692  0.00  0.00     0.167 HD
ENDBRANCH  47  49
ENDBRANCH  46  47
ENDBRANCH  45  46
ENDBRANCH  11  45
BRANCH  18  51
HETATM   51  C   UNK     0      -3.181   2.238 -35.557  0.00  0.00     0.051 C 
BRANCH  51  52
HETATM   52  C   UNK     0      -3.077   1.241 -36.701  0.00  0.00     0.114 C 
BRANCH  52  53
HETATM   53  C   UNK     0      -4.315   1.196 -37.504  0.00  0.00     0.139 C 
HETATM   54  O   UNK     0      -4.302   1.573 -38.687  0.00  0.00    -0.650 OA
BRANCH  53  55
HETATM   55  O   UNK     0      -5.478   0.737 -36.935  0.00  0.00    -0.776 OA
HETATM   56  H   UNK     0      -6.315   1.257 -36.819  0.00  0.00     0.167 HD
ENDBRANCH  53  55
ENDBRANCH  52  53
ENDBRANCH  51  52
ENDBRANCH  18  51
TORSDOF 16
ENDMDL
MODEL 8
REMARK VINA RESULT:      -7.9      3.501      6.045
REMARK  16 active torsions:
REMARK  status: ('A' for Active; 'I' for Inactive)
REMARK    1  A    between atoms: C_6  and  C_7 
REMARK    2  A    between atoms: C_7  and  C_8 
REMARK    3  A    between atoms: C_8  and  C_9 
REMARK    4  A    between atoms: C_9  and  O_11 
REMARK    5  A    between atoms: C_16  and  C_17 
REMARK    6  A    between atoms: C_17  and  C_18 
REMARK    7  A    between atoms: C_18  and  C_19 
REMARK    8  A    between atoms: C_19  and  O_21 
REMARK    9  A    between atoms: C_28  and  C_29 
REMARK   10  A    between atoms: C_29  and  C_30 
REMARK   11  A    between atoms: C_30  and  C_31 
REMARK   12  A    between atoms: C_31  and  O_33 
REMARK   13  A    between atoms: C_42  and  C_43 
REMARK   14  A    between atoms: C_43  and  C_44 
REMARK   15  A    between atoms: C_44  and  C_45 
REMARK   16  A    between atoms: C_45  and  O_47 
ROOT
HETATM    1  C   UNK     0      -8.092   6.479 -36.743  0.00  0.00     0.051 C 
HETATM    2  C   UNK     0      -6.666   6.358 -36.247  0.00  0.00    -0.031 A 
HETATM    3  C   UNK     0      -6.162   5.611 -35.193  0.00  0.00     0.021 A 
HETATM    4  N   UNK     0      -4.830   5.832 -35.094  0.00  0.00    -0.361 N 
HETATM    5  C   UNK     0      -4.472   6.695 -36.066  0.00  0.00     0.022 A 
HETATM    6  C   UNK     0      -5.597   7.047 -36.805  0.00  0.00    -0.027 A 
HETATM    7  C   UNK     0      -3.111   7.188 -36.448  0.00  0.00     0.115 C 
HETATM    8  C   UNK     0      -1.995   6.159 -36.474  0.00  0.00     0.021 A 
HETATM    9  N   UNK     0      -2.056   4.868 -36.838  0.00  0.00    -0.361 N 
HETATM   10  C   UNK     0      -0.847   4.312 -36.613  0.00  0.00     0.022 A 
HETATM   11  C   UNK     0       0.019   5.272 -36.100  0.00  0.00    -0.027 A 
HETATM   12  C   UNK     0      -0.698   6.438 -36.009  0.00  0.00    -0.031 A 
HETATM   13  C   UNK     0      -0.159   7.759 -35.506  0.00  0.00     0.051 C 
HETATM   14  C   UNK     0      -0.477   2.846 -36.823  0.00  0.00     0.115 C 
HETATM   15  C   UNK     0      -1.287   1.879 -35.975  0.00  0.00     0.021 A 
HETATM   16  N   UNK     0      -2.624   1.722 -35.958  0.00  0.00    -0.361 N 
HETATM   17  C   UNK     0      -2.948   0.823 -35.027  0.00  0.00     0.022 A 
HETATM   18  C   UNK     0      -1.765   0.365 -34.413  0.00  0.00    -0.027 A 
HETATM   19  C   UNK     0      -0.732   1.033 -35.017  0.00  0.00    -0.031 A 
HETATM   20  C   UNK     0       0.730   0.810 -34.677  0.00  0.00     0.051 C 
HETATM   21  C   UNK     0      -4.308   0.348 -34.566  0.00  0.00     0.115 C 
HETATM   22  C   UNK     0      -5.438   1.351 -34.578  0.00  0.00     0.022 A 
HETATM   23  N   UNK     0      -5.404   2.642 -34.225  0.00  0.00    -0.361 N 
HETATM   24  C   UNK     0      -6.596   3.195 -34.530  0.00  0.00     0.021 A 
HETATM   25  C   UNK     0      -7.420   2.234 -35.083  0.00  0.00    -0.031 A 
HETATM   26  C   UNK     0      -8.857   2.361 -35.544  0.00  0.00     0.051 C 
HETATM   27  C   UNK     0      -6.701   1.045 -35.124  0.00  0.00    -0.027 A 
HETATM   28  C   UNK     0      -7.005   4.652 -34.400  0.00  0.00     0.115 C 
HETATM   29  H   UNK     0      -4.158   5.406 -34.312  0.00  0.00     0.165 HD
HETATM   30  H   UNK     0      -2.937   4.359 -37.300  0.00  0.00     0.165 HD
HETATM   31  H   UNK     0      -3.351   2.220 -36.651  0.00  0.00     0.165 HD
HETATM   32  H   UNK     0      -4.553   3.166 -33.717  0.00  0.00     0.165 HD
ENDROOT
BRANCH   6  33
HETATM   33  C   UNK     0      -5.732   7.978 -37.983  0.00  0.00     0.051 C 
BRANCH  33  34
HETATM   34  C   UNK     0      -5.180   7.339 -39.236  0.00  0.00     0.114 C 
BRANCH  34  35
HETATM   35  C   UNK     0      -4.904   8.433 -40.210  0.00  0.00     0.139 C 
HETATM   36  O   UNK     0      -5.752   9.356 -40.389  0.00  0.00    -0.650 OA
BRANCH  35  37
HETATM   37  O   UNK     0      -3.732   8.497 -40.953  0.00  0.00    -0.776 OA
HETATM   38  H   UNK     0      -3.552   7.873 -41.723  0.00  0.00     0.167 HD
ENDBRANCH  35  37
ENDBRANCH  34  35
ENDBRANCH  33  34
ENDBRANCH   6  33
BRANCH  27  39
HETATM   39  C   UNK     0      -7.286  -0.241 -35.593  0.00  0.00     0.051 C 
BRANCH  39  40
HETATM   40  C   UNK     0      -7.940  -1.105 -34.612  0.00  0.00     0.114 C 
BRANCH  40  41
HETATM   41  C   UNK     0      -7.195  -1.837 -33.612  0.00  0.00     0.139 C 
HETATM   42  O   UNK     0      -6.873  -1.361 -32.515  0.00  0.00    -0.650 OA
BRANCH  41  43
HETATM   43  O   UNK     0      -6.802  -3.178 -33.886  0.00  0.00    -0.776 OA
HETATM   44  H   UNK     0      -6.547  -3.716 -33.067  0.00  0.00     0.167 HD
ENDBRANCH  41  43
ENDBRANCH  40  41
ENDBRANCH  39  40
ENDBRANCH  27  39
BRANCH  11  45
HETATM   45  C   UNK     0       1.464   5.123 -35.706  0.00  0.00     0.051 C 
BRANCH  45  46
HETATM   46  C   UNK     0       2.385   4.910 -36.852  0.00  0.00     0.114 C 
BRANCH  46  47
HETATM   47  C   UNK     0       2.244   6.086 -37.757  0.00  0.00     0.139 C 
HETATM   48  O   UNK     0       2.707   7.175 -37.390  0.00  0.00    -0.650 OA
BRANCH  47  49
HETATM   49  O   UNK     0       1.614   5.967 -38.970  0.00  0.00    -0.776 OA
HETATM   50  H   UNK     0       1.014   6.710 -39.348  0.00  0.00     0.167 HD
ENDBRANCH  47  49
ENDBRANCH  46  47
ENDBRANCH  45  46
ENDBRANCH  11  45
BRANCH  18  51
HETATM   51  C   UNK     0      -1.626  -0.668 -33.325  0.00  0.00     0.051 C 
BRANCH  51  52
HETATM   52  C   UNK     0      -1.367  -1.993 -34.027  0.00  0.00     0.114 C 
BRANCH  52  53
HETATM   53  C   UNK     0      -0.336  -2.789 -33.335  0.00  0.00     0.139 C 
HETATM   54  O   UNK     0      -0.281  -4.018 -33.504  0.00  0.00    -0.650 OA
BRANCH  53  55
HETATM   55  O   UNK     0       0.559  -2.164 -32.501  0.00  0.00    -0.776 OA
HETATM   56  H   UNK     0       0.928  -2.535 -31.657  0.00  0.00     0.167 HD
ENDBRANCH  53  55
ENDBRANCH  52  53
ENDBRANCH  51  52
ENDBRANCH  18  51
TORSDOF 16
ENDMDL
MODEL 9
REMARK VINA RESULT:      -7.9      4.868     10.266
REMARK  16 active torsions:
REMARK  status: ('A' for Active; 'I' for Inactive)
REMARK    1  A    between atoms: C_6  and  C_7 
REMARK    2  A    between atoms: C_7  and  C_8 
REMARK    3  A    between atoms: C_8  and  C_9 
REMARK    4  A    between atoms: C_9  and  O_11 
REMARK    5  A    between atoms: C_16  and  C_17 
REMARK    6  A    between atoms: C_17  and  C_18 
REMARK    7  A    between atoms: C_18  and  C_19 
REMARK    8  A    between atoms: C_19  and  O_21 
REMARK    9  A    between atoms: C_28  and  C_29 
REMARK   10  A    between atoms: C_29  and  C_30 
REMARK   11  A    between atoms: C_30  and  C_31 
REMARK   12  A    between atoms: C_31  and  O_33 
REMARK   13  A    between atoms: C_42  and  C_43 
REMARK   14  A    between atoms: C_43  and  C_44 
REMARK   15  A    between atoms: C_44  and  C_45 
REMARK   16  A    between atoms: C_45  and  O_47 
ROOT
HETATM    1  C   UNK     0     -11.706   5.513 -38.206  0.00  0.00     0.051 C 
HETATM    2  C   UNK     0     -11.373   6.746 -37.393  0.00  0.00    -0.031 A 
HETATM    3  C   UNK     0     -10.334   6.956 -36.499  0.00  0.00     0.021 A 
HETATM    4  N   UNK     0     -10.445   8.202 -35.979  0.00  0.00    -0.361 N 
HETATM    5  C   UNK     0     -11.526   8.793 -36.528  0.00  0.00     0.022 A 
HETATM    6  C   UNK     0     -12.132   7.909 -37.415  0.00  0.00    -0.027 A 
HETATM    7  C   UNK     0     -12.032  10.192 -36.364  0.00  0.00     0.115 C 
HETATM    8  C   UNK     0     -10.992  11.299 -36.374  0.00  0.00     0.021 A 
HETATM    9  N   UNK     0      -9.861  11.377 -37.092  0.00  0.00    -0.361 N 
HETATM   10  C   UNK     0      -9.199  12.490 -36.712  0.00  0.00     0.022 A 
HETATM   11  C   UNK     0      -9.928  13.152 -35.729  0.00  0.00    -0.027 A 
HETATM   12  C   UNK     0     -11.059  12.407 -35.511  0.00  0.00    -0.031 A 
HETATM   13  C   UNK     0     -12.154  12.747 -34.524  0.00  0.00     0.051 C 
HETATM   14  C   UNK     0      -7.834  12.944 -37.220  0.00  0.00     0.115 C 
HETATM   15  C   UNK     0      -6.713  11.957 -36.939  0.00  0.00     0.021 A 
HETATM   16  N   UNK     0      -6.630  10.673 -37.337  0.00  0.00    -0.361 N 
HETATM   17  C   UNK     0      -5.525  10.126 -36.826  0.00  0.00     0.022 A 
HETATM   18  C   UNK     0      -4.849  11.103 -36.068  0.00  0.00    -0.027 A 
HETATM   19  C   UNK     0      -5.603  12.245 -36.148  0.00  0.00    -0.031 A 
HETATM   20  C   UNK     0      -5.214  13.560 -35.497  0.00  0.00     0.051 C 
HETATM   21  C   UNK     0      -5.014   8.706 -36.913  0.00  0.00     0.115 C 
HETATM   22  C   UNK     0      -6.040   7.597 -36.948  0.00  0.00     0.022 A 
HETATM   23  N   UNK     0      -7.176   7.495 -36.247  0.00  0.00    -0.361 N 
HETATM   24  C   UNK     0      -7.857   6.421 -36.697  0.00  0.00     0.021 A 
HETATM   25  C   UNK     0      -7.135   5.811 -37.705  0.00  0.00    -0.031 A 
HETATM   26  C   UNK     0      -7.465   4.557 -38.488  0.00  0.00     0.051 C 
HETATM   27  C   UNK     0      -5.968   6.545 -37.884  0.00  0.00    -0.027 A 
HETATM   28  C   UNK     0      -9.239   5.953 -36.276  0.00  0.00     0.115 C 
HETATM   29  H   UNK     0      -9.782   8.640 -35.198  0.00  0.00     0.165 HD
HETATM   30  H   UNK     0      -9.551  10.674 -37.904  0.00  0.00     0.165 HD
HETATM   31  H   UNK     0      -7.342  10.155 -38.031  0.00  0.00     0.165 HD
HETATM   32  H   UNK     0      -7.490   8.156 -35.397  0.00  0.00     0.165 HD
ENDROOT
BRANCH   6  33
HETATM   33  C   UNK     0     -13.362   8.083 -38.269  0.00  0.00     0.051 C 
BRANCH  33  34
HETATM   34  C   UNK     0     -14.599   7.646 -37.521  0.00  0.00     0.114 C 
BRANCH  34  35
HETATM   35  C   UNK     0     -15.330   8.878 -37.107  0.00  0.00     0.139 C 
HETATM   36  O   UNK     0     -15.455   9.163 -35.881  0.00  0.00    -0.650 OA
BRANCH  35  37
HETATM   37  O   UNK     0     -15.894   9.757 -38.024  0.00  0.00    -0.776 OA
HETATM   38  H   UNK     0     -15.517   9.880 -38.949  0.00  0.00     0.167 HD
ENDBRANCH  35  37
ENDBRANCH  34  35
ENDBRANCH  33  34
ENDBRANCH   6  33
BRANCH  27  39
HETATM   39  C   UNK     0      -4.901   6.150 -38.842  0.00  0.00     0.051 C 
BRANCH  39  40
HETATM   40  C   UNK     0      -4.971   6.663 -40.210  0.00  0.00     0.114 C 
BRANCH  40  41
HETATM   41  C   UNK     0      -4.757   8.059 -40.521  0.00  0.00     0.139 C 
HETATM   42  O   UNK     0      -5.595   8.944 -40.303  0.00  0.00    -0.650 OA
BRANCH  41  43
HETATM   43  O   UNK     0      -3.522   8.454 -41.109  0.00  0.00    -0.776 OA
HETATM   44  H   UNK     0      -3.539   9.369 -41.544  0.00  0.00     0.167 HD
ENDBRANCH  41  43
ENDBRANCH  40  41
ENDBRANCH  39  40
ENDBRANCH  27  39
BRANCH  11  45
HETATM   45  C   UNK     0      -9.596  14.434 -35.012  0.00  0.00     0.051 C 
BRANCH  45  46
HETATM   46  C   UNK     0     -10.176  15.648 -35.642  0.00  0.00     0.114 C 
BRANCH  46  47
HETATM   47  C   UNK     0      -9.366  16.812 -35.183  0.00  0.00     0.139 C 
HETATM   48  O   UNK     0      -9.426  17.867 -35.831  0.00  0.00    -0.650 OA
BRANCH  47  49
HETATM   49  O   UNK     0      -8.570  16.720 -34.069  0.00  0.00    -0.776 OA
HETATM   50  H   UNK     0      -8.838  16.157 -33.253  0.00  0.00     0.167 HD
ENDBRANCH  47  49
ENDBRANCH  46  47
ENDBRANCH  45  46
ENDBRANCH  11  45
BRANCH  18  51
HETATM   51  C   UNK     0      -3.546  10.961 -35.325  0.00  0.00     0.051 C 
BRANCH  51  52
HETATM   52  C   UNK     0      -2.451  10.962 -36.382  0.00  0.00     0.114 C 
BRANCH  52  53
HETATM   53  C   UNK     0      -1.603  12.166 -36.294  0.00  0.00     0.139 C 
HETATM   54  O   UNK     0      -0.848  12.464 -37.233  0.00  0.00    -0.650 OA
BRANCH  53  55
HETATM   55  O   UNK     0      -1.651  12.950 -35.167  0.00  0.00    -0.776 OA
HETATM   56  H   UNK     0      -1.089  13.748 -34.986  0.00  0.00     0.167 HD
ENDBRANCH  53  55
ENDBRANCH  52  53
ENDBRANCH  51  52
ENDBRANCH  18  51
TORSDOF 16
ENDMDL
MODEL 10
REMARK VINA RESULT:      -7.8     22.402     25.350
REMARK  16 active torsions:
REMARK  status: ('A' for Active; 'I' for Inactive)
REMARK    1  A    between atoms: C_6  and  C_7 
REMARK    2  A    between atoms: C_7  and  C_8 
REMARK    3  A    between atoms: C_8  and  C_9 
REMARK    4  A    between atoms: C_9  and  O_11 
REMARK    5  A    between atoms: C_16  and  C_17 
REMARK    6  A    between atoms: C_17  and  C_18 
REMARK    7  A    between atoms: C_18  and  C_19 
REMARK    8  A    between atoms: C_19  and  O_21 
REMARK    9  A    between atoms: C_28  and  C_29 
REMARK   10  A    between atoms: C_29  and  C_30 
REMARK   11  A    between atoms: C_30  and  C_31 
REMARK   12  A    between atoms: C_31  and  O_33 
REMARK   13  A    between atoms: C_42  and  C_43 
REMARK   14  A    between atoms: C_43  and  C_44 
REMARK   15  A    between atoms: C_44  and  C_45 
REMARK   16  A    between atoms: C_45  and  O_47 
ROOT
HETATM    1  C   UNK     0     -18.555   7.553 -20.402  0.00  0.00     0.051 C 
HETATM    2  C   UNK     0     -17.372   8.350 -19.889  0.00  0.00    -0.031 A 
HETATM    3  C   UNK     0     -17.344   9.610 -19.313  0.00  0.00     0.021 A 
HETATM    4  N   UNK     0     -16.060   9.939 -19.034  0.00  0.00    -0.361 N 
HETATM    5  C   UNK     0     -15.271   8.912 -19.412  0.00  0.00     0.022 A 
HETATM    6  C   UNK     0     -16.059   7.902 -19.953  0.00  0.00    -0.027 A 
HETATM    7  C   UNK     0     -13.795   8.733 -19.239  0.00  0.00     0.115 C 
HETATM    8  C   UNK     0     -13.211   9.141 -17.898  0.00  0.00     0.021 A 
HETATM    9  N   UNK     0     -13.761   9.032 -16.678  0.00  0.00    -0.361 N 
HETATM   10  C   UNK     0     -12.924   9.607 -15.788  0.00  0.00     0.022 A 
HETATM   11  C   UNK     0     -11.801  10.091 -16.451  0.00  0.00    -0.027 A 
HETATM   12  C   UNK     0     -11.975   9.801 -17.781  0.00  0.00    -0.031 A 
HETATM   13  C   UNK     0     -10.997  10.138 -18.884  0.00  0.00     0.051 C 
HETATM   14  C   UNK     0     -13.174   9.769 -14.292  0.00  0.00     0.115 C 
HETATM   15  C   UNK     0     -14.401  10.602 -13.959  0.00  0.00     0.021 A 
HETATM   16  N   UNK     0     -15.675  10.371 -14.326  0.00  0.00    -0.361 N 
HETATM   17  C   UNK     0     -16.445  11.372 -13.893  0.00  0.00     0.022 A 
HETATM   18  C   UNK     0     -15.635  12.295 -13.203  0.00  0.00    -0.027 A 
HETATM   19  C   UNK     0     -14.357  11.801 -13.250  0.00  0.00    -0.031 A 
HETATM   20  C   UNK     0     -13.167  12.474 -12.591  0.00  0.00     0.051 C 
HETATM   21  C   UNK     0     -17.921  11.623 -14.102  0.00  0.00     0.115 C 
HETATM   22  C   UNK     0     -18.524  11.182 -15.415  0.00  0.00     0.022 A 
HETATM   23  N   UNK     0     -17.998  11.275 -16.643  0.00  0.00    -0.361 N 
HETATM   24  C   UNK     0     -18.811  10.627 -17.502  0.00  0.00     0.021 A 
HETATM   25  C   UNK     0     -19.892  10.114 -16.812  0.00  0.00    -0.031 A 
HETATM   26  C   UNK     0     -21.086   9.348 -17.343  0.00  0.00     0.051 C 
HETATM   27  C   UNK     0     -19.731  10.456 -15.474  0.00  0.00    -0.027 A 
HETATM   28  C   UNK     0     -18.591  10.382 -18.985  0.00  0.00     0.115 C 
HETATM   29  H   UNK     0     -15.717  10.911 -18.609  0.00  0.00     0.165 HD
HETATM   30  H   UNK     0     -14.716   8.505 -16.436  0.00  0.00     0.165 HD
HETATM   31  H   UNK     0     -16.048   9.458 -14.860  0.00  0.00     0.165 HD
HETATM   32  H   UNK     0     -17.069  11.836 -16.923  0.00  0.00     0.165 HD
ENDROOT
BRANCH   6  33
HETATM   33  C   UNK     0     -15.664   6.563 -20.522  0.00  0.00     0.051 C 
BRANCH  33  34
HETATM   34  C   UNK     0     -15.579   5.522 -19.431  0.00  0.00     0.114 C 
BRANCH  34  35
HETATM   35  C   UNK     0     -15.640   4.184 -20.085  0.00  0.00     0.139 C 
HETATM   36  O   UNK     0     -15.489   4.079 -21.337  0.00  0.00    -0.650 OA
BRANCH  35  37
HETATM   37  O   UNK     0     -15.859   3.011 -19.373  0.00  0.00    -0.776 OA
HETATM   38  H   UNK     0     -15.490   2.124 -19.676  0.00  0.00     0.167 HD
ENDBRANCH  35  37
ENDBRANCH  34  35
ENDBRANCH  33  34
ENDBRANCH   6  33
BRANCH  27  39
HETATM   39  C   UNK     0     -20.740  10.135 -14.428  0.00  0.00     0.051 C 
BRANCH  39  40
HETATM   40  C   UNK     0     -20.408   9.115 -13.434  0.00  0.00     0.114 C 
BRANCH  40  41
HETATM   41  C   UNK     0     -19.358   8.144 -13.646  0.00  0.00     0.139 C 
HETATM   42  O   UNK     0     -18.236   8.228 -13.129  0.00  0.00    -0.650 OA
BRANCH  41  43
HETATM   43  O   UNK     0     -19.611   7.027 -14.492  0.00  0.00    -0.776 OA
HETATM   44  H   UNK     0     -19.046   7.002 -15.332  0.00  0.00     0.167 HD
ENDBRANCH  41  43
ENDBRANCH  40  41
ENDBRANCH  39  40
ENDBRANCH  27  39
BRANCH  11  45
HETATM   45  C   UNK     0     -10.601  10.798 -15.879  0.00  0.00     0.051 C 
BRANCH  45  46
HETATM   46  C   UNK     0     -10.798  12.256 -15.673  0.00  0.00     0.114 C 
BRANCH  46  47
HETATM   47  C   UNK     0     -10.173  12.605 -14.365  0.00  0.00     0.139 C 
HETATM   48  O   UNK     0      -9.817  11.685 -13.614  0.00  0.00    -0.650 OA
BRANCH  47  49
HETATM   49  O   UNK     0      -9.995  13.915 -13.998  0.00  0.00    -0.776 OA
HETATM   50  H   UNK     0     -10.737  14.616 -14.107  0.00  0.00     0.167 HD
ENDBRANCH  47  49
ENDBRANCH  46  47
ENDBRANCH  45  46
ENDBRANCH  11  45
BRANCH  18  51
HETATM   51  C   UNK     0     -16.059  13.568 -12.517  0.00  0.00     0.051 C 
BRANCH  51  52
HETATM   52  C   UNK     0     -15.572  14.709 -13.398  0.00  0.00     0.114 C 
BRANCH  52  53
HETATM   53  C   UNK     0     -16.176  15.999 -13.012  0.00  0.00     0.139 C 
HETATM   54  O   UNK     0     -16.289  16.298 -11.812  0.00  0.00    -0.650 OA
BRANCH  53  55
HETATM   55  O   UNK     0     -16.616  16.862 -13.986  0.00  0.00    -0.776 OA
HETATM   56  H   UNK     0     -16.154  17.688 -14.285  0.00  0.00     0.167 HD
ENDBRANCH  53  55
ENDBRANCH  52  53
ENDBRANCH  51  52
ENDBRANCH  18  51
TORSDOF 16
ENDMDL
MODEL 11
REMARK VINA RESULT:      -7.8     32.678     35.561
REMARK  16 active torsions:
REMARK  status: ('A' for Active; 'I' for Inactive)
REMARK    1  A    between atoms: C_6  and  C_7 
REMARK    2  A    between atoms: C_7  and  C_8 
REMARK    3  A    between atoms: C_8  and  C_9 
REMARK    4  A    between atoms: C_9  and  O_11 
REMARK    5  A    between atoms: C_16  and  C_17 
REMARK    6  A    between atoms: C_17  and  C_18 
REMARK    7  A    between atoms: C_18  and  C_19 
REMARK    8  A    between atoms: C_19  and  O_21 
REMARK    9  A    between atoms: C_28  and  C_29 
REMARK   10  A    between atoms: C_29  and  C_30 
REMARK   11  A    between atoms: C_30  and  C_31 
REMARK   12  A    between atoms: C_31  and  O_33 
REMARK   13  A    between atoms: C_42  and  C_43 
REMARK   14  A    between atoms: C_43  and  C_44 
REMARK   15  A    between atoms: C_44  and  C_45 
REMARK   16  A    between atoms: C_45  and  O_47 
ROOT
HETATM    1  C   UNK     0      -0.011  17.290  -4.585  0.00  0.00     0.051 C 
HETATM    2  C   UNK     0      -0.878  18.515  -4.793  0.00  0.00    -0.031 A 
HETATM    3  C   UNK     0      -2.167  18.605  -5.294  0.00  0.00     0.021 A 
HETATM    4  N   UNK     0      -2.536  19.907  -5.331  0.00  0.00    -0.361 N 
HETATM    5  C   UNK     0      -1.513  20.648  -4.857  0.00  0.00     0.022 A 
HETATM    6  C   UNK     0      -0.458  19.809  -4.514  0.00  0.00    -0.027 A 
HETATM    7  C   UNK     0      -1.443  22.122  -4.603  0.00  0.00     0.115 C 
HETATM    8  C   UNK     0      -2.659  22.761  -3.958  0.00  0.00     0.021 A 
HETATM    9  N   UNK     0      -3.481  22.246  -3.030  0.00  0.00    -0.361 N 
HETATM   10  C   UNK     0      -4.480  23.130  -2.818  0.00  0.00     0.022 A 
HETATM   11  C   UNK     0      -4.291  24.248  -3.625  0.00  0.00    -0.027 A 
HETATM   12  C   UNK     0      -3.146  24.023  -4.345  0.00  0.00    -0.031 A 
HETATM   13  C   UNK     0      -2.545  24.976  -5.353  0.00  0.00     0.051 C 
HETATM   14  C   UNK     0      -5.676  22.933  -1.891  0.00  0.00     0.115 C 
HETATM   15  C   UNK     0      -6.552  21.747  -2.259  0.00  0.00     0.021 A 
HETATM   16  N   UNK     0      -6.188  20.454  -2.353  0.00  0.00    -0.361 N 
HETATM   17  C   UNK     0      -7.231  19.734  -2.771  0.00  0.00     0.022 A 
HETATM   18  C   UNK     0      -8.331  20.597  -2.948  0.00  0.00    -0.027 A 
HETATM   19  C   UNK     0      -7.893  21.855  -2.623  0.00  0.00    -0.031 A 
HETATM   20  C   UNK     0      -8.778  23.087  -2.642  0.00  0.00     0.051 C 
HETATM   21  C   UNK     0      -7.326  18.262  -3.102  0.00  0.00     0.115 C 
HETATM   22  C   UNK     0      -6.107  17.602  -3.704  0.00  0.00     0.022 A 
HETATM   23  N   UNK     0      -5.268  18.093  -4.626  0.00  0.00    -0.361 N 
HETATM   24  C   UNK     0      -4.240  17.231  -4.764  0.00  0.00     0.021 A 
HETATM   25  C   UNK     0      -4.427  16.155  -3.918  0.00  0.00    -0.031 A 
HETATM   26  C   UNK     0      -3.569  14.919  -3.744  0.00  0.00     0.051 C 
HETATM   27  C   UNK     0      -5.615  16.370  -3.229  0.00  0.00    -0.027 A 
HETATM   28  C   UNK     0      -2.998  17.397  -5.622  0.00  0.00     0.115 C 
HETATM   29  H   UNK     0      -3.501  20.297  -5.729  0.00  0.00     0.165 HD
HETATM   30  H   UNK     0      -3.333  21.282  -2.486  0.00  0.00     0.165 HD
HETATM   31  H   UNK     0      -5.187  20.033  -2.074  0.00  0.00     0.165 HD
HETATM   32  H   UNK     0      -5.416  19.032  -5.220  0.00  0.00     0.165 HD
ENDROOT
BRANCH   6  33
HETATM   33  C   UNK     0       0.901  20.139  -3.950  0.00  0.00     0.051 C 
BRANCH  33  34
HETATM   34  C   UNK     0       0.791  20.566  -2.506  0.00  0.00     0.114 C 
BRANCH  34  35
HETATM   35  C   UNK     0       0.844  19.332  -1.670  0.00  0.00     0.139 C 
HETATM   36  O   UNK     0       1.958  18.812  -1.372  0.00  0.00    -0.650 OA
BRANCH  35  37
HETATM   37  O   UNK     0      -0.298  18.707  -1.184  0.00  0.00    -0.776 OA
HETATM   38  H   UNK     0      -0.778  17.991  -1.705  0.00  0.00     0.167 HD
ENDBRANCH  35  37
ENDBRANCH  34  35
ENDBRANCH  33  34
ENDBRANCH   6  33
BRANCH  27  39
HETATM   39  C   UNK     0      -6.187  15.384  -2.272  0.00  0.00     0.051 C 
BRANCH  39  40
HETATM   40  C   UNK     0      -7.089  14.356  -2.791  0.00  0.00     0.114 C 
BRANCH  40  41
HETATM   41  C   UNK     0      -7.917  14.574  -3.956  0.00  0.00     0.139 C 
HETATM   42  O   UNK     0      -9.068  15.030  -3.901  0.00  0.00    -0.650 OA
BRANCH  41  43
HETATM   43  O   UNK     0      -7.399  14.254  -5.243  0.00  0.00    -0.776 OA
HETATM   44  H   UNK     0      -8.007  13.673  -5.807  0.00  0.00     0.167 HD
ENDBRANCH  41  43
ENDBRANCH  40  41
ENDBRANCH  39  40
ENDBRANCH  27  39
BRANCH  11  45
HETATM   45  C   UNK     0      -5.137  25.489  -3.728  0.00  0.00     0.051 C 
BRANCH  45  46
HETATM   46  C   UNK     0      -5.686  25.737  -5.085  0.00  0.00     0.114 C 
BRANCH  46  47
HETATM   47  C   UNK     0      -7.024  25.083  -5.147  0.00  0.00     0.139 C 
HETATM   48  O   UNK     0      -8.008  25.706  -4.723  0.00  0.00    -0.650 OA
BRANCH  47  49
HETATM   49  O   UNK     0      -7.166  23.819  -5.660  0.00  0.00    -0.776 OA
HETATM   50  H   UNK     0      -7.479  23.654  -6.624  0.00  0.00     0.167 HD
ENDBRANCH  47  49
ENDBRANCH  46  47
ENDBRANCH  45  46
ENDBRANCH  11  45
BRANCH  18  51
HETATM   51  C   UNK     0      -9.728  20.239  -3.383  0.00  0.00     0.051 C 
BRANCH  51  52
HETATM   52  C   UNK     0      -9.681  20.102  -4.898  0.00  0.00     0.114 C 
BRANCH  52  53
HETATM   53  C   UNK     0      -9.945  21.386  -5.574  0.00  0.00     0.139 C 
HETATM   54  O   UNK     0      -9.105  21.862  -6.355  0.00  0.00    -0.650 OA
BRANCH  53  55
HETATM   55  O   UNK     0     -11.123  22.052  -5.333  0.00  0.00    -0.776 OA
HETATM   56  H   UNK     0     -11.516  22.239  -4.441  0.00  0.00     0.167 HD
ENDBRANCH  53  55
ENDBRANCH  52  53
ENDBRANCH  51  52
ENDBRANCH  18  51
TORSDOF 16
ENDMDL
MODEL 12
REMARK VINA RESULT:      -7.8      2.772     10.249
REMARK  16 active torsions:
REMARK  status: ('A' for Active; 'I' for Inactive)
REMARK    1  A    between atoms: C_6  and  C_7 
REMARK    2  A    between atoms: C_7  and  C_8 
REMARK    3  A    between atoms: C_8  and  C_9 
REMARK    4  A    between atoms: C_9  and  O_11 
REMARK    5  A    between atoms: C_16  and  C_17 
REMARK    6  A    between atoms: C_17  and  C_18 
REMARK    7  A    between atoms: C_18  and  C_19 
REMARK    8  A    between atoms: C_19  and  O_21 
REMARK    9  A    between atoms: C_28  and  C_29 
REMARK   10  A    between atoms: C_29  and  C_30 
REMARK   11  A    between atoms: C_30  and  C_31 
REMARK   12  A    between atoms: C_31  and  O_33 
REMARK   13  A    between atoms: C_42  and  C_43 
REMARK   14  A    between atoms: C_43  and  C_44 
REMARK   15  A    between atoms: C_44  and  C_45 
REMARK   16  A    between atoms: C_45  and  O_47 
ROOT
HETATM    1  C   UNK     0       0.595   0.770 -34.634  0.00  0.00     0.051 C 
HETATM    2  C   UNK     0      -0.708   1.536 -34.524  0.00  0.00    -0.031 A 
HETATM    3  C   UNK     0      -0.959   2.764 -33.932  0.00  0.00     0.021 A 
HETATM    4  N   UNK     0      -2.278   3.046 -34.045  0.00  0.00    -0.361 N 
HETATM    5  C   UNK     0      -2.872   2.029 -34.703  0.00  0.00     0.022 A 
HETATM    6  C   UNK     0      -1.919   1.066 -35.016  0.00  0.00    -0.027 A 
HETATM    7  C   UNK     0      -4.289   1.893 -35.165  0.00  0.00     0.115 C 
HETATM    8  C   UNK     0      -4.926   3.124 -35.786  0.00  0.00     0.021 A 
HETATM    9  N   UNK     0      -4.355   4.060 -36.559  0.00  0.00    -0.361 N 
HETATM   10  C   UNK     0      -5.274   5.018 -36.805  0.00  0.00     0.022 A 
HETATM   11  C   UNK     0      -6.473   4.684 -36.181  0.00  0.00    -0.027 A 
HETATM   12  C   UNK     0      -6.260   3.492 -35.537  0.00  0.00    -0.031 A 
HETATM   13  C   UNK     0      -7.292   2.740 -34.726  0.00  0.00     0.051 C 
HETATM   14  C   UNK     0      -5.045   6.306 -37.590  0.00  0.00     0.115 C 
HETATM   15  C   UNK     0      -3.987   7.215 -36.986  0.00  0.00     0.021 A 
HETATM   16  N   UNK     0      -2.695   6.924 -36.745  0.00  0.00    -0.361 N 
HETATM   17  C   UNK     0      -2.115   7.966 -36.143  0.00  0.00     0.022 A 
HETATM   18  C   UNK     0      -3.074   8.988 -35.994  0.00  0.00    -0.027 A 
HETATM   19  C   UNK     0      -4.241   8.506 -36.527  0.00  0.00    -0.031 A 
HETATM   20  C   UNK     0      -5.528   9.307 -36.604  0.00  0.00     0.051 C 
HETATM   21  C   UNK     0      -0.711   8.119 -35.604  0.00  0.00     0.115 C 
HETATM   22  C   UNK     0      -0.049   6.892 -35.024  0.00  0.00     0.022 A 
HETATM   23  N   UNK     0      -0.594   5.940 -34.254  0.00  0.00    -0.361 N 
HETATM   24  C   UNK     0       0.315   4.959 -34.087  0.00  0.00     0.021 A 
HETATM   25  C   UNK     0       1.478   5.291 -34.756  0.00  0.00    -0.031 A 
HETATM   26  C   UNK     0       2.786   4.532 -34.829  0.00  0.00     0.051 C 
HETATM   27  C   UNK     0       1.269   6.524 -35.363  0.00  0.00    -0.027 A 
HETATM   28  C   UNK     0       0.130   3.633 -33.369  0.00  0.00     0.115 C 
HETATM   29  H   UNK     0      -2.788   3.943 -33.623  0.00  0.00     0.165 HD
HETATM   30  H   UNK     0      -3.318   4.024 -36.974  0.00  0.00     0.165 HD
HETATM   31  H   UNK     0      -2.167   5.983 -37.048  0.00  0.00     0.165 HD
HETATM   32  H   UNK     0      -1.612   5.973 -33.786  0.00  0.00     0.165 HD
ENDROOT
BRANCH   6  33
HETATM   33  C   UNK     0      -2.069  -0.251 -35.734  0.00  0.00     0.051 C 
BRANCH  33  34
HETATM   34  C   UNK     0      -2.364  -1.363 -34.756  0.00  0.00     0.114 C 
BRANCH  34  35
HETATM   35  C   UNK     0      -1.333  -2.421 -34.960  0.00  0.00     0.139 C 
HETATM   36  O   UNK     0      -0.631  -2.823 -33.986  0.00  0.00    -0.650 OA
BRANCH  35  37
HETATM   37  O   UNK     0      -1.096  -3.009 -36.197  0.00  0.00    -0.776 OA
HETATM   38  H   UNK     0      -0.164  -3.159 -36.548  0.00  0.00     0.167 HD
ENDBRANCH  35  37
ENDBRANCH  34  35
ENDBRANCH  33  34
ENDBRANCH   6  33
BRANCH  27  39
HETATM   39  C   UNK     0       2.328   7.244 -36.121  0.00  0.00     0.051 C 
BRANCH  39  40
HETATM   40  C   UNK     0       3.065   8.309 -35.441  0.00  0.00     0.114 C 
BRANCH  40  41
HETATM   41  C   UNK     0       3.203   8.354 -34.003  0.00  0.00     0.139 C 
HETATM   42  O   UNK     0       3.898   7.558 -33.358  0.00  0.00    -0.650 OA
BRANCH  41  43
HETATM   43  O   UNK     0       2.510   9.361 -33.273  0.00  0.00    -0.776 OA
HETATM   44  H   UNK     0       1.563   9.113 -33.012  0.00  0.00     0.167 HD
ENDBRANCH  41  43
ENDBRANCH  40  41
ENDBRANCH  39  40
ENDBRANCH  27  39
BRANCH  11  45
HETATM   45  C   UNK     0      -7.775   5.438 -36.179  0.00  0.00     0.051 C 
BRANCH  45  46
HETATM   46  C   UNK     0      -8.752   4.963 -37.192  0.00  0.00     0.114 C 
BRANCH  46  47
HETATM   47  C   UNK     0      -8.509   5.744 -38.439  0.00  0.00     0.139 C 
HETATM   48  O   UNK     0      -8.319   5.127 -39.497  0.00  0.00    -0.650 OA
BRANCH  47  49
HETATM   49  O   UNK     0      -8.494   7.116 -38.418  0.00  0.00    -0.776 OA
HETATM   50  H   UNK     0      -7.649   7.648 -38.177  0.00  0.00     0.167 HD
ENDBRANCH  47  49
ENDBRANCH  46  47
ENDBRANCH  45  46
ENDBRANCH  11  45
BRANCH  18  51
HETATM   51  C   UNK     0      -2.881  10.357 -35.395  0.00  0.00     0.051 C 
BRANCH  51  52
HETATM   52  C   UNK     0      -2.753  11.320 -36.566  0.00  0.00     0.114 C 
BRANCH  52  53
HETATM   53  C   UNK     0      -1.565  12.186 -36.438  0.00  0.00     0.139 C 
HETATM   54  O   UNK     0      -1.404  12.873 -35.417  0.00  0.00    -0.650 OA
BRANCH  53  55
HETATM   55  O   UNK     0      -0.642  12.228 -37.455  0.00  0.00    -0.776 OA
HETATM   56  H   UNK     0      -0.844  12.266 -38.426  0.00  0.00     0.167 HD
ENDBRANCH  53  55
ENDBRANCH  52  53
ENDBRANCH  51  52
ENDBRANCH  18  51
TORSDOF 16
ENDMDL
MODEL 13
REMARK VINA RESULT:      -7.6      2.101      7.438
REMARK  16 active torsions:
REMARK  status: ('A' for Active; 'I' for Inactive)
REMARK    1  A    between atoms: C_6  and  C_7 
REMARK    2  A    between atoms: C_7  and  C_8 
REMARK    3  A    between atoms: C_8  and  C_9 
REMARK    4  A    between atoms: C_9  and  O_11 
REMARK    5  A    between atoms: C_16  and  C_17 
REMARK    6  A    between atoms: C_17  and  C_18 
REMARK    7  A    between atoms: C_18  and  C_19 
REMARK    8  A    between atoms: C_19  and  O_21 
REMARK    9  A    between atoms: C_28  and  C_29 
REMARK   10  A    between atoms: C_29  and  C_30 
REMARK   11  A    between atoms: C_30  and  C_31 
REMARK   12  A    between atoms: C_31  and  O_33 
REMARK   13  A    between atoms: C_42  and  C_43 
REMARK   14  A    between atoms: C_43  and  C_44 
REMARK   15  A    between atoms: C_44  and  C_45 
REMARK   16  A    between atoms: C_45  and  O_47 
ROOT
HETATM    1  C   UNK     0       1.289   5.362 -33.901  0.00  0.00     0.051 C 
HETATM    2  C   UNK     0       0.464   6.343 -34.710  0.00  0.00    -0.031 A 
HETATM    3  C   UNK     0      -0.340   6.115 -35.815  0.00  0.00     0.021 A 
HETATM    4  N   UNK     0      -0.862   7.292 -36.232  0.00  0.00    -0.361 N 
HETATM    5  C   UNK     0      -0.415   8.265 -35.411  0.00  0.00     0.022 A 
HETATM    6  C   UNK     0       0.420   7.707 -34.449  0.00  0.00    -0.027 A 
HETATM    7  C   UNK     0      -0.766   9.720 -35.380  0.00  0.00     0.115 C 
HETATM    8  C   UNK     0      -2.231  10.072 -35.565  0.00  0.00     0.021 A 
HETATM    9  N   UNK     0      -3.313   9.404 -35.136  0.00  0.00    -0.361 N 
HETATM   10  C   UNK     0      -4.409  10.033 -35.609  0.00  0.00     0.022 A 
HETATM   11  C   UNK     0      -4.024  11.143 -36.355  0.00  0.00    -0.027 A 
HETATM   12  C   UNK     0      -2.653  11.174 -36.332  0.00  0.00    -0.031 A 
HETATM   13  C   UNK     0      -1.790  12.215 -37.009  0.00  0.00     0.051 C 
HETATM   14  C   UNK     0      -5.856   9.585 -35.422  0.00  0.00     0.115 C 
HETATM   15  C   UNK     0      -6.158   8.217 -36.011  0.00  0.00     0.021 A 
HETATM   16  N   UNK     0      -5.571   7.044 -35.709  0.00  0.00    -0.361 N 
HETATM   17  C   UNK     0      -6.069   6.088 -36.496  0.00  0.00     0.022 A 
HETATM   18  C   UNK     0      -7.035   6.663 -37.345  0.00  0.00    -0.027 A 
HETATM   19  C   UNK     0      -7.082   7.996 -37.031  0.00  0.00    -0.031 A 
HETATM   20  C   UNK     0      -8.025   8.986 -37.691  0.00  0.00     0.051 C 
HETATM   21  C   UNK     0      -5.697   4.626 -36.604  0.00  0.00     0.115 C 
HETATM   22  C   UNK     0      -4.250   4.256 -36.378  0.00  0.00     0.022 A 
HETATM   23  N   UNK     0      -3.153   4.906 -36.790  0.00  0.00    -0.361 N 
HETATM   24  C   UNK     0      -2.076   4.307 -36.243  0.00  0.00     0.021 A 
HETATM   25  C   UNK     0      -2.488   3.239 -35.469  0.00  0.00    -0.031 A 
HETATM   26  C   UNK     0      -1.651   2.245 -34.692  0.00  0.00     0.051 C 
HETATM   27  C   UNK     0      -3.876   3.187 -35.540  0.00  0.00    -0.027 A 
HETATM   28  C   UNK     0      -0.623   4.737 -36.343  0.00  0.00     0.115 C 
HETATM   29  H   UNK     0      -1.511   7.434 -37.127  0.00  0.00     0.165 HD
HETATM   30  H   UNK     0      -3.307   8.515 -34.458  0.00  0.00     0.165 HD
HETATM   31  H   UNK     0      -4.822   6.877 -34.891  0.00  0.00     0.165 HD
HETATM   32  H   UNK     0      -3.126   5.768 -37.506  0.00  0.00     0.165 HD
ENDROOT
BRANCH   6  33
HETATM   33  C   UNK     0       1.170   8.362 -33.317  0.00  0.00     0.051 C 
BRANCH  33  34
HETATM   34  C   UNK     0       2.349   9.148 -33.841  0.00  0.00     0.114 C 
BRANCH  34  35
HETATM   35  C   UNK     0       3.451   8.178 -34.102  0.00  0.00     0.139 C 
HETATM   36  O   UNK     0       3.975   8.104 -35.251  0.00  0.00    -0.650 OA
BRANCH  35  37
HETATM   37  O   UNK     0       3.951   7.329 -33.121  0.00  0.00    -0.776 OA
HETATM   38  H   UNK     0       3.454   7.154 -32.263  0.00  0.00     0.167 HD
ENDBRANCH  35  37
ENDBRANCH  34  35
ENDBRANCH  33  34
ENDBRANCH   6  33
BRANCH  27  39
HETATM   39  C   UNK     0      -4.681   2.119 -34.886  0.00  0.00     0.051 C 
BRANCH  39  40
HETATM   40  C   UNK     0      -5.572   2.496 -33.789  0.00  0.00     0.114 C 
BRANCH  40  41
HETATM   41  C   UNK     0      -5.188   3.456 -32.779  0.00  0.00     0.139 C 
HETATM   42  O   UNK     0      -5.178   4.680 -32.969  0.00  0.00    -0.650 OA
BRANCH  41  43
HETATM   43  O   UNK     0      -4.796   2.988 -31.493  0.00  0.00    -0.776 OA
HETATM   44  H   UNK     0      -4.743   3.708 -30.783  0.00  0.00     0.167 HD
ENDBRANCH  41  43
ENDBRANCH  40  41
ENDBRANCH  39  40
ENDBRANCH  27  39
BRANCH  11  45
HETATM   45  C   UNK     0      -4.891  12.147 -37.066  0.00  0.00     0.051 C 
BRANCH  45  46
HETATM   46  C   UNK     0      -5.661  13.034 -36.158  0.00  0.00     0.114 C 
BRANCH  46  47
HETATM   47  C   UNK     0      -7.090  12.965 -36.580  0.00  0.00     0.139 C 
HETATM   48  O   UNK     0      -7.911  12.450 -35.808  0.00  0.00    -0.650 OA
BRANCH  47  49
HETATM   49  O   UNK     0      -7.487  13.460 -37.796  0.00  0.00    -0.776 OA
HETATM   50  H   UNK     0      -7.543  14.468 -37.983  0.00  0.00     0.167 HD
ENDBRANCH  47  49
ENDBRANCH  46  47
ENDBRANCH  45  46
ENDBRANCH  11  45
BRANCH  18  51
HETATM   51  C   UNK     0      -7.881   5.976 -38.385  0.00  0.00     0.051 C 
BRANCH  51  52
HETATM   52  C   UNK     0      -6.916   5.426 -39.425  0.00  0.00     0.114 C 
BRANCH  52  53
HETATM   53  C   UNK     0      -7.324   4.090 -39.901  0.00  0.00     0.139 C 
HETATM   54  O   UNK     0      -7.985   3.342 -39.162  0.00  0.00    -0.650 OA
BRANCH  53  55
HETATM   55  O   UNK     0      -6.966   3.679 -41.162  0.00  0.00    -0.776 OA
HETATM   56  H   UNK     0      -6.447   4.208 -41.823  0.00  0.00     0.167 HD
ENDBRANCH  53  55
ENDBRANCH  52  53
ENDBRANCH  51  52
ENDBRANCH  18  51
TORSDOF 16
ENDMDL
MODEL 14
REMARK VINA RESULT:      -7.6     32.123     34.632
REMARK  16 active torsions:
REMARK  status: ('A' for Active; 'I' for Inactive)
REMARK    1  A    between atoms: C_6  and  C_7 
REMARK    2  A    between atoms: C_7  and  C_8 
REMARK    3  A    between atoms: C_8  and  C_9 
REMARK    4  A    between atoms: C_9  and  O_11 
REMARK    5  A    between atoms: C_16  and  C_17 
REMARK    6  A    between atoms: C_17  and  C_18 
REMARK    7  A    between atoms: C_18  and  C_19 
REMARK    8  A    between atoms: C_19  and  O_21 
REMARK    9  A    between atoms: C_28  and  C_29 
REMARK   10  A    between atoms: C_29  and  C_30 
REMARK   11  A    between atoms: C_30  and  C_31 
REMARK   12  A    between atoms: C_31  and  O_33 
REMARK   13  A    between atoms: C_42  and  C_43 
REMARK   14  A    between atoms: C_43  and  C_44 
REMARK   15  A    between atoms: C_44  and  C_45 
REMARK   16  A    between atoms: C_45  and  O_47 
ROOT
HETATM    1  C   UNK     0      -4.404  25.694  -4.322  0.00  0.00     0.051 C 
HETATM    2  C   UNK     0      -3.810  24.343  -3.979  0.00  0.00    -0.031 A 
HETATM    3  C   UNK     0      -4.181  23.443  -2.993  0.00  0.00     0.021 A 
HETATM    4  N   UNK     0      -3.348  22.376  -3.032  0.00  0.00    -0.361 N 
HETATM    5  C   UNK     0      -2.459  22.572  -4.027  0.00  0.00     0.022 A 
HETATM    6  C   UNK     0      -2.717  23.795  -4.639  0.00  0.00    -0.027 A 
HETATM    7  C   UNK     0      -1.392  21.659  -4.545  0.00  0.00     0.115 C 
HETATM    8  C   UNK     0      -1.765  20.195  -4.699  0.00  0.00     0.021 A 
HETATM    9  N   UNK     0      -2.941  19.666  -5.069  0.00  0.00    -0.361 N 
HETATM   10  C   UNK     0      -2.844  18.322  -4.980  0.00  0.00     0.022 A 
HETATM   11  C   UNK     0      -1.566  17.976  -4.549  0.00  0.00    -0.027 A 
HETATM   12  C   UNK     0      -0.881  19.151  -4.371  0.00  0.00    -0.031 A 
HETATM   13  C   UNK     0       0.555  19.264  -3.912  0.00  0.00     0.051 C 
HETATM   14  C   UNK     0      -3.962  17.318  -5.243  0.00  0.00     0.115 C 
HETATM   15  C   UNK     0      -5.163  17.479  -4.326  0.00  0.00     0.021 A 
HETATM   16  N   UNK     0      -5.938  18.568  -4.170  0.00  0.00    -0.361 N 
HETATM   17  C   UNK     0      -6.845  18.330  -3.220  0.00  0.00     0.022 A 
HETATM   18  C   UNK     0      -6.657  17.019  -2.739  0.00  0.00    -0.027 A 
HETATM   19  C   UNK     0      -5.602  16.496  -3.441  0.00  0.00    -0.031 A 
HETATM   20  C   UNK     0      -5.087  15.080  -3.259  0.00  0.00     0.051 C 
HETATM   21  C   UNK     0      -7.892  19.244  -2.624  0.00  0.00     0.115 C 
HETATM   22  C   UNK     0      -7.551  20.710  -2.505  0.00  0.00     0.022 A 
HETATM   23  N   UNK     0      -6.387  21.266  -2.143  0.00  0.00    -0.361 N 
HETATM   24  C   UNK     0      -6.483  22.599  -2.315  0.00  0.00     0.021 A 
HETATM   25  C   UNK     0      -7.742  22.912  -2.789  0.00  0.00    -0.031 A 
HETATM   26  C   UNK     0      -8.335  24.271  -3.095  0.00  0.00     0.051 C 
HETATM   27  C   UNK     0      -8.445  21.719  -2.918  0.00  0.00    -0.027 A 
HETATM   28  C   UNK     0      -5.393  23.641  -2.127  0.00  0.00     0.115 C 
HETATM   29  H   UNK     0      -3.369  21.510  -2.330  0.00  0.00     0.165 HD
HETATM   30  H   UNK     0      -3.827  20.236  -5.442  0.00  0.00     0.165 HD
HETATM   31  H   UNK     0      -5.876  19.509  -4.777  0.00  0.00     0.165 HD
HETATM   32  H   UNK     0      -5.500  20.724  -1.722  0.00  0.00     0.165 HD
ENDROOT
BRANCH   6  33
HETATM   33  C   UNK     0      -2.012  24.473  -5.786  0.00  0.00     0.051 C 
BRANCH  33  34
HETATM   34  C   UNK     0      -2.097  23.633  -7.038  0.00  0.00     0.114 C 
BRANCH  34  35
HETATM   35  C   UNK     0      -3.541  23.487  -7.381  0.00  0.00     0.139 C 
HETATM   36  O   UNK     0      -4.082  22.343  -7.382  0.00  0.00    -0.650 OA
BRANCH  35  37
HETATM   37  O   UNK     0      -4.348  24.570  -7.705  0.00  0.00    -0.776 OA
HETATM   38  H   UNK     0      -3.990  25.377  -8.191  0.00  0.00     0.167 HD
ENDBRANCH  35  37
ENDBRANCH  34  35
ENDBRANCH  33  34
ENDBRANCH   6  33
BRANCH  27  39
HETATM   39  C   UNK     0      -9.871  21.660  -3.338  0.00  0.00     0.051 C 
BRANCH  39  40
HETATM   40  C   UNK     0     -10.170  21.398  -4.746  0.00  0.00     0.114 C 
BRANCH  40  41
HETATM   41  C   UNK     0      -9.130  21.215  -5.733  0.00  0.00     0.139 C 
HETATM   42  O   UNK     0      -8.718  22.124  -6.468  0.00  0.00    -0.650 OA
BRANCH  41  43
HETATM   43  O   UNK     0      -8.537  19.930  -5.883  0.00  0.00    -0.776 OA
HETATM   44  H   UNK     0      -7.932  19.839  -6.690  0.00  0.00     0.167 HD
ENDBRANCH  41  43
ENDBRANCH  40  41
ENDBRANCH  39  40
ENDBRANCH  27  39
BRANCH  11  45
HETATM   45  C   UNK     0      -0.992  16.605  -4.312  0.00  0.00     0.051 C 
BRANCH  45  46
HETATM   46  C   UNK     0      -0.937  15.752  -5.527  0.00  0.00     0.114 C 
BRANCH  46  47
HETATM   47  C   UNK     0      -1.425  14.398  -5.138  0.00  0.00     0.139 C 
HETATM   48  O   UNK     0      -1.712  14.191  -3.950  0.00  0.00    -0.650 OA
BRANCH  47  49
HETATM   49  O   UNK     0      -1.553  13.402  -6.072  0.00  0.00    -0.776 OA
HETATM   50  H   UNK     0      -1.933  13.579  -7.009  0.00  0.00     0.167 HD
ENDBRANCH  47  49
ENDBRANCH  46  47
ENDBRANCH  45  46
ENDBRANCH  11  45
BRANCH  18  51
HETATM   51  C   UNK     0      -7.454  16.296  -1.684  0.00  0.00     0.051 C 
BRANCH  51  52
HETATM   52  C   UNK     0      -8.903  16.328  -2.147  0.00  0.00     0.114 C 
BRANCH  52  53
HETATM   53  C   UNK     0      -9.126  15.453  -3.314  0.00  0.00     0.139 C 
HETATM   54  O   UNK     0     -10.017  15.725  -4.134  0.00  0.00    -0.650 OA
BRANCH  53  55
HETATM   55  O   UNK     0      -8.345  14.335  -3.484  0.00  0.00    -0.776 OA
HETATM   56  H   UNK     0      -7.833  14.100  -4.301  0.00  0.00     0.167 HD
ENDBRANCH  53  55
ENDBRANCH  52  53
ENDBRANCH  51  52
ENDBRANCH  18  51
TORSDOF 16
ENDMDL
MODEL 15
REMARK VINA RESULT:      -7.6     32.961     36.494
REMARK  16 active torsions:
REMARK  status: ('A' for Active; 'I' for Inactive)
REMARK    1  A    between atoms: C_6  and  C_7 
REMARK    2  A    between atoms: C_7  and  C_8 
REMARK    3  A    between atoms: C_8  and  C_9 
REMARK    4  A    between atoms: C_9  and  O_11 
REMARK    5  A    between atoms: C_16  and  C_17 
REMARK    6  A    between atoms: C_17  and  C_18 
REMARK    7  A    between atoms: C_18  and  C_19 
REMARK    8  A    between atoms: C_19  and  O_21 
REMARK    9  A    between atoms: C_28  and  C_29 
REMARK   10  A    between atoms: C_29  and  C_30 
REMARK   11  A    between atoms: C_30  and  C_31 
REMARK   12  A    between atoms: C_31  and  O_33 
REMARK   13  A    between atoms: C_42  and  C_43 
REMARK   14  A    between atoms: C_43  and  C_44 
REMARK   15  A    between atoms: C_44  and  C_45 
REMARK   16  A    between atoms: C_45  and  O_47 
ROOT
HETATM    1  C   UNK     0      -9.021  18.433  -2.104  0.00  0.00     0.051 C 
HETATM    2  C   UNK     0      -7.695  18.272  -2.818  0.00  0.00    -0.031 A 
HETATM    3  C   UNK     0      -7.022  19.165  -3.637  0.00  0.00     0.021 A 
HETATM    4  N   UNK     0      -5.883  18.584  -4.083  0.00  0.00    -0.361 N 
HETATM    5  C   UNK     0      -5.811  17.343  -3.559  0.00  0.00     0.022 A 
HETATM    6  C   UNK     0      -6.929  17.114  -2.765  0.00  0.00    -0.027 A 
HETATM    7  C   UNK     0      -4.715  16.329  -3.662  0.00  0.00     0.115 C 
HETATM    8  C   UNK     0      -3.293  16.845  -3.524  0.00  0.00     0.021 A 
HETATM    9  N   UNK     0      -2.835  17.833  -2.740  0.00  0.00    -0.361 N 
HETATM   10  C   UNK     0      -1.525  18.010  -3.011  0.00  0.00     0.022 A 
HETATM   11  C   UNK     0      -1.126  17.104  -3.990  0.00  0.00    -0.027 A 
HETATM   12  C   UNK     0      -2.235  16.367  -4.317  0.00  0.00    -0.031 A 
HETATM   13  C   UNK     0      -2.274  15.254  -5.340  0.00  0.00     0.051 C 
HETATM   14  C   UNK     0      -0.612  19.070  -2.400  0.00  0.00     0.115 C 
HETATM   15  C   UNK     0      -1.054  20.497  -2.679  0.00  0.00     0.021 A 
HETATM   16  N   UNK     0      -2.230  21.071  -2.359  0.00  0.00    -0.361 N 
HETATM   17  C   UNK     0      -2.255  22.316  -2.840  0.00  0.00     0.022 A 
HETATM   18  C   UNK     0      -1.034  22.569  -3.496  0.00  0.00    -0.027 A 
HETATM   19  C   UNK     0      -0.290  21.423  -3.387  0.00  0.00    -0.031 A 
HETATM   20  C   UNK     0       1.119  21.276  -3.930  0.00  0.00     0.051 C 
HETATM   21  C   UNK     0      -3.363  23.344  -2.815  0.00  0.00     0.115 C 
HETATM   22  C   UNK     0      -4.784  22.842  -2.908  0.00  0.00     0.022 A 
HETATM   23  N   UNK     0      -5.268  21.857  -3.676  0.00  0.00    -0.361 N 
HETATM   24  C   UNK     0      -6.555  21.646  -3.334  0.00  0.00     0.021 A 
HETATM   25  C   UNK     0      -6.911  22.523  -2.327  0.00  0.00    -0.031 A 
HETATM   26  C   UNK     0      -8.252  22.697  -1.645  0.00  0.00     0.051 C 
HETATM   27  C   UNK     0      -5.795  23.299  -2.038  0.00  0.00    -0.027 A 
HETATM   28  C   UNK     0      -7.493  20.575  -3.861  0.00  0.00     0.115 C 
HETATM   29  H   UNK     0      -5.159  19.041  -4.796  0.00  0.00     0.165 HD
HETATM   30  H   UNK     0      -3.422  18.374  -1.958  0.00  0.00     0.165 HD
HETATM   31  H   UNK     0      -3.040  20.604  -1.740  0.00  0.00     0.165 HD
HETATM   32  H   UNK     0      -4.717  21.331  -4.499  0.00  0.00     0.165 HD
ENDROOT
BRANCH   6  33
HETATM   33  C   UNK     0      -7.322  15.893  -1.972  0.00  0.00     0.051 C 
BRANCH  33  34
HETATM   34  C   UNK     0      -7.062  14.634  -2.764  0.00  0.00     0.114 C 
BRANCH  34  35
HETATM   35  C   UNK     0      -7.957  14.663  -3.956  0.00  0.00     0.139 C 
HETATM   36  O   UNK     0      -9.169  15.004  -3.834  0.00  0.00    -0.650 OA
BRANCH  35  37
HETATM   37  O   UNK     0      -7.517  14.329  -5.231  0.00  0.00    -0.776 OA
HETATM   38  H   UNK     0      -7.717  14.905  -6.033  0.00  0.00     0.167 HD
ENDBRANCH  35  37
ENDBRANCH  34  35
ENDBRANCH  33  34
ENDBRANCH   6  33
BRANCH  27  39
HETATM   39  C   UNK     0      -5.814  24.410  -1.048  0.00  0.00     0.051 C 
BRANCH  39  40
HETATM   40  C   UNK     0      -5.390  24.126   0.323  0.00  0.00     0.114 C 
BRANCH  40  41
HETATM   41  C   UNK     0      -6.303  23.623   1.324  0.00  0.00     0.139 C 
HETATM   42  O   UNK     0      -6.989  24.354   2.052  0.00  0.00    -0.650 OA
BRANCH  41  43
HETATM   43  O   UNK     0      -6.435  22.216   1.495  0.00  0.00    -0.776 OA
HETATM   44  H   UNK     0      -5.810  21.664   0.920  0.00  0.00     0.167 HD
ENDBRANCH  41  43
ENDBRANCH  40  41
ENDBRANCH  39  40
ENDBRANCH  27  39
BRANCH  11  45
HETATM   45  C   UNK     0       0.236  16.921  -4.604  0.00  0.00     0.051 C 
BRANCH  45  46
HETATM   46  C   UNK     0       1.005  15.781  -4.043  0.00  0.00     0.114 C 
BRANCH  46  47
HETATM   47  C   UNK     0       2.185  16.351  -3.332  0.00  0.00     0.139 C 
HETATM   48  O   UNK     0       2.486  17.535  -3.540  0.00  0.00    -0.650 OA
BRANCH  47  49
HETATM   49  O   UNK     0       2.924  15.583  -2.468  0.00  0.00    -0.776 OA
HETATM   50  H   UNK     0       3.947  15.519  -2.533  0.00  0.00     0.167 HD
ENDBRANCH  47  49
ENDBRANCH  46  47
ENDBRANCH  45  46
ENDBRANCH  11  45
BRANCH  18  51
HETATM   51  C   UNK     0      -0.592  23.841  -4.172  0.00  0.00     0.051 C 
BRANCH  51  52
HETATM   52  C   UNK     0      -0.000  24.720  -3.080  0.00  0.00     0.114 C 
BRANCH  52  53
HETATM   53  C   UNK     0      -0.496  26.107  -3.163  0.00  0.00     0.139 C 
HETATM   54  O   UNK     0      -1.498  26.370  -3.846  0.00  0.00    -0.650 OA
BRANCH  53  55
HETATM   55  O   UNK     0       0.160  27.105  -2.483  0.00  0.00    -0.776 OA
HETATM   56  H   UNK     0      -0.221  27.666  -1.758  0.00  0.00     0.167 HD
ENDBRANCH  53  55
ENDBRANCH  52  53
ENDBRANCH  51  52
ENDBRANCH  18  51
TORSDOF 16
ENDMDL
MODEL 16
REMARK VINA RESULT:      -7.6      1.983      2.386
REMARK  16 active torsions:
REMARK  status: ('A' for Active; 'I' for Inactive)
REMARK    1  A    between atoms: C_6  and  C_7 
REMARK    2  A    between atoms: C_7  and  C_8 
REMARK    3  A    between atoms: C_8  and  C_9 
REMARK    4  A    between atoms: C_9  and  O_11 
REMARK    5  A    between atoms: C_16  and  C_17 
REMARK    6  A    between atoms: C_17  and  C_18 
REMARK    7  A    between atoms: C_18  and  C_19 
REMARK    8  A    between atoms: C_19  and  O_21 
REMARK    9  A    between atoms: C_28  and  C_29 
REMARK   10  A    between atoms: C_29  and  C_30 
REMARK   11  A    between atoms: C_30  and  C_31 
REMARK   12  A    between atoms: C_31  and  O_33 
REMARK   13  A    between atoms: C_42  and  C_43 
REMARK   14  A    between atoms: C_43  and  C_44 
REMARK   15  A    between atoms: C_44  and  C_45 
REMARK   16  A    between atoms: C_45  and  O_47 
ROOT
HETATM    1  C   UNK     0      -6.275  11.754 -37.307  0.00  0.00     0.051 C 
HETATM    2  C   UNK     0      -5.272  10.966 -36.490  0.00  0.00    -0.031 A 
HETATM    3  C   UNK     0      -5.487   9.933 -35.592  0.00  0.00     0.021 A 
HETATM    4  N   UNK     0      -4.299   9.548 -35.069  0.00  0.00    -0.361 N 
HETATM    5  C   UNK     0      -3.330  10.308 -35.621  0.00  0.00     0.022 A 
HETATM    6  C   UNK     0      -3.904  11.208 -36.513  0.00  0.00    -0.027 A 
HETATM    7  C   UNK     0      -1.845  10.224 -35.457  0.00  0.00     0.115 C 
HETATM    8  C   UNK     0      -1.236   8.833 -35.460  0.00  0.00     0.021 A 
HETATM    9  N   UNK     0      -1.608   7.759 -36.174  0.00  0.00    -0.361 N 
HETATM   10  C   UNK     0      -0.844   6.715 -35.789  0.00  0.00     0.022 A 
HETATM   11  C   UNK     0       0.051   7.129 -34.807  0.00  0.00    -0.027 A 
HETATM   12  C   UNK     0      -0.190   8.463 -34.595  0.00  0.00    -0.031 A 
HETATM   13  C   UNK     0       0.552   9.340 -33.612  0.00  0.00     0.051 C 
HETATM   14  C   UNK     0      -0.962   5.278 -36.291  0.00  0.00     0.115 C 
HETATM   15  C   UNK     0      -2.311   4.637 -36.008  0.00  0.00     0.021 A 
HETATM   16  N   UNK     0      -3.524   5.063 -36.408  0.00  0.00    -0.361 N 
HETATM   17  C   UNK     0      -4.461   4.264 -35.895  0.00  0.00     0.022 A 
HETATM   18  C   UNK     0      -3.829   3.262 -35.132  0.00  0.00    -0.027 A 
HETATM   19  C   UNK     0      -2.482   3.506 -35.212  0.00  0.00    -0.031 A 
HETATM   20  C   UNK     0      -1.426   2.635 -34.557  0.00  0.00     0.051 C 
HETATM   21  C   UNK     0      -5.968   4.352 -35.982  0.00  0.00     0.115 C 
HETATM   22  C   UNK     0      -6.585   5.730 -36.023  0.00  0.00     0.022 A 
HETATM   23  N   UNK     0      -6.233   6.818 -35.327  0.00  0.00    -0.361 N 
HETATM   24  C   UNK     0      -6.953   7.864 -35.782  0.00  0.00     0.021 A 
HETATM   25  C   UNK     0      -7.797   7.436 -36.789  0.00  0.00    -0.031 A 
HETATM   26  C   UNK     0      -8.820   8.228 -37.575  0.00  0.00     0.051 C 
HETATM   27  C   UNK     0      -7.580   6.073 -36.961  0.00  0.00    -0.027 A 
HETATM   28  C   UNK     0      -6.841   9.320 -35.367  0.00  0.00     0.115 C 
HETATM   29  H   UNK     0      -4.156   8.769 -34.285  0.00  0.00     0.165 HD
HETATM   30  H   UNK     0      -2.375   7.747 -36.986  0.00  0.00     0.165 HD
HETATM   31  H   UNK     0      -3.721   5.918 -37.106  0.00  0.00     0.165 HD
HETATM   32  H   UNK     0      -5.502   6.850 -34.477  0.00  0.00     0.165 HD
ENDROOT
BRANCH   6  33
HETATM   33  C   UNK     0      -3.261  12.267 -37.371  0.00  0.00     0.051 C 
BRANCH  33  34
HETATM   34  C   UNK     0      -2.465  13.232 -36.524  0.00  0.00     0.114 C 
BRANCH  34  35
HETATM   35  C   UNK     0      -1.252  13.613 -37.302  0.00  0.00     0.139 C 
HETATM   36  O   UNK     0      -0.505  14.551 -36.899  0.00  0.00    -0.650 OA
BRANCH  35  37
HETATM   37  O   UNK     0      -0.885  12.973 -38.480  0.00  0.00    -0.776 OA
HETATM   38  H   UNK     0      -1.237  13.263 -39.378  0.00  0.00     0.167 HD
ENDBRANCH  35  37
ENDBRANCH  34  35
ENDBRANCH  33  34
ENDBRANCH   6  33
BRANCH  27  39
HETATM   39  C   UNK     0      -8.363   5.243 -37.916  0.00  0.00     0.051 C 
BRANCH  39  40
HETATM   40  C   UNK     0      -7.760   4.919 -39.209  0.00  0.00     0.114 C 
BRANCH  40  41
HETATM   41  C   UNK     0      -7.097   3.658 -39.456  0.00  0.00     0.139 C 
HETATM   42  O   UNK     0      -7.531   2.568 -39.059  0.00  0.00    -0.650 OA
BRANCH  41  43
HETATM   43  O   UNK     0      -5.880   3.651 -40.194  0.00  0.00    -0.776 OA
HETATM   44  H   UNK     0      -5.076   3.992 -39.680  0.00  0.00     0.167 HD
ENDBRANCH  41  43
ENDBRANCH  40  41
ENDBRANCH  39  40
ENDBRANCH  27  39
BRANCH  11  45
HETATM   45  C   UNK     0       1.099   6.324 -34.087  0.00  0.00     0.051 C 
BRANCH  45  46
HETATM   46  C   UNK     0       2.300   6.021 -34.907  0.00  0.00     0.114 C 
BRANCH  46  47
HETATM   47  C   UNK     0       2.567   4.560 -34.776  0.00  0.00     0.139 C 
HETATM   48  O   UNK     0       2.246   3.812 -35.710  0.00  0.00    -0.650 OA
BRANCH  47  49
HETATM   49  O   UNK     0       3.154   4.052 -33.644  0.00  0.00    -0.776 OA
HETATM   50  H   UNK     0       2.696   3.338 -33.065  0.00  0.00     0.167 HD
ENDBRANCH  47  49
ENDBRANCH  46  47
ENDBRANCH  45  46
ENDBRANCH  11  45
BRANCH  18  51
HETATM   51  C   UNK     0      -4.471   2.122 -34.384  0.00  0.00     0.051 C 
BRANCH  51  52
HETATM   52  C   UNK     0      -4.531   0.955 -35.358  0.00  0.00     0.114 C 
BRANCH  52  53
HETATM   53  C   UNK     0      -5.921   0.555 -35.651  0.00  0.00     0.139 C 
HETATM   54  O   UNK     0      -6.537  -0.179 -34.861  0.00  0.00    -0.650 OA
BRANCH  53  55
HETATM   55  O   UNK     0      -6.527   0.996 -36.802  0.00  0.00    -0.776 OA
HETATM   56  H   UNK     0      -6.143   0.954 -37.717  0.00  0.00     0.167 HD
ENDBRANCH  53  55
ENDBRANCH  52  53
ENDBRANCH  51  52
ENDBRANCH  18  51
TORSDOF 16
ENDMDL
MODEL 17
REMARK VINA RESULT:      -7.5      4.752      6.925
REMARK  16 active torsions:
REMARK  status: ('A' for Active; 'I' for Inactive)
REMARK    1  A    between atoms: C_6  and  C_7 
REMARK    2  A    between atoms: C_7  and  C_8 
REMARK    3  A    between atoms: C_8  and  C_9 
REMARK    4  A    between atoms: C_9  and  O_11 
REMARK    5  A    between atoms: C_16  and  C_17 
REMARK    6  A    between atoms: C_17  and  C_18 
REMARK    7  A    between atoms: C_18  and  C_19 
REMARK    8  A    between atoms: C_19  and  O_21 
REMARK    9  A    between atoms: C_28  and  C_29 
REMARK   10  A    between atoms: C_29  and  C_30 
REMARK   11  A    between atoms: C_30  and  C_31 
REMARK   12  A    between atoms: C_31  and  O_33 
REMARK   13  A    between atoms: C_42  and  C_43 
REMARK   14  A    between atoms: C_43  and  C_44 
REMARK   15  A    between atoms: C_44  and  C_45 
REMARK   16  A    between atoms: C_45  and  O_47 
ROOT
HETATM    1  C   UNK     0     -12.025  13.994 -36.314  0.00  0.00     0.051 C 
HETATM    2  C   UNK     0     -10.656  13.457 -35.948  0.00  0.00    -0.031 A 
HETATM    3  C   UNK     0     -10.298  12.197 -35.495  0.00  0.00     0.021 A 
HETATM    4  N   UNK     0      -8.964  12.174 -35.264  0.00  0.00    -0.361 N 
HETATM    5  C   UNK     0      -8.463  13.389 -35.568  0.00  0.00     0.022 A 
HETATM    6  C   UNK     0      -9.495  14.217 -35.997  0.00  0.00    -0.027 A 
HETATM    7  C   UNK     0      -7.041  13.857 -35.578  0.00  0.00     0.115 C 
HETATM    8  C   UNK     0      -6.014  12.904 -36.163  0.00  0.00     0.021 A 
HETATM    9  N   UNK     0      -6.150  12.059 -37.196  0.00  0.00    -0.361 N 
HETATM   10  C   UNK     0      -5.011  11.342 -37.306  0.00  0.00     0.022 A 
HETATM   11  C   UNK     0      -4.113  11.744 -36.322  0.00  0.00    -0.027 A 
HETATM   12  C   UNK     0      -4.738  12.728 -35.599  0.00  0.00    -0.031 A 
HETATM   13  C   UNK     0      -4.135  13.467 -34.425  0.00  0.00     0.051 C 
HETATM   14  C   UNK     0      -4.746  10.218 -38.303  0.00  0.00     0.115 C 
HETATM   15  C   UNK     0      -5.695   9.039 -38.169  0.00  0.00     0.021 A 
HETATM   16  N   UNK     0      -7.037   9.049 -38.269  0.00  0.00    -0.361 N 
HETATM   17  C   UNK     0      -7.505   7.824 -38.018  0.00  0.00     0.022 A 
HETATM   18  C   UNK     0      -6.415   6.973 -37.751  0.00  0.00    -0.027 A 
HETATM   19  C   UNK     0      -5.287   7.745 -37.850  0.00  0.00    -0.031 A 
HETATM   20  C   UNK     0      -3.878   7.209 -37.671  0.00  0.00     0.051 C 
HETATM   21  C   UNK     0      -8.930   7.327 -37.934  0.00  0.00     0.115 C 
HETATM   22  C   UNK     0      -9.971   8.280 -37.394  0.00  0.00     0.022 A 
HETATM   23  N   UNK     0      -9.861   9.136 -36.370  0.00  0.00    -0.361 N 
HETATM   24  C   UNK     0     -10.976   9.892 -36.329  0.00  0.00     0.021 A 
HETATM   25  C   UNK     0     -11.830   9.507 -37.345  0.00  0.00    -0.031 A 
HETATM   26  C   UNK     0     -13.211  10.030 -37.679  0.00  0.00     0.051 C 
HETATM   27  C   UNK     0     -11.208   8.476 -38.040  0.00  0.00    -0.027 A 
HETATM   28  C   UNK     0     -11.274  11.059 -35.402  0.00  0.00     0.115 C 
HETATM   29  H   UNK     0      -8.392  11.311 -34.850  0.00  0.00     0.165 HD
HETATM   30  H   UNK     0      -7.031  11.999 -37.882  0.00  0.00     0.165 HD
HETATM   31  H   UNK     0      -7.666   9.928 -38.569  0.00  0.00     0.165 HD
HETATM   32  H   UNK     0      -9.012   9.185 -35.639  0.00  0.00     0.165 HD
ENDROOT
BRANCH   6  33
HETATM   33  C   UNK     0      -9.462  15.658 -36.441  0.00  0.00     0.051 C 
BRANCH  33  34
HETATM   34  C   UNK     0      -9.681  16.584 -35.268  0.00  0.00     0.114 C 
BRANCH  34  35
HETATM   35  C   UNK     0     -10.379  17.797 -35.782  0.00  0.00     0.139 C 
HETATM   36  O   UNK     0      -9.811  18.548 -36.628  0.00  0.00    -0.650 OA
BRANCH  35  37
HETATM   37  O   UNK     0     -11.656  18.157 -35.372  0.00  0.00    -0.776 OA
HETATM   38  H   UNK     0     -12.182  18.882 -35.833  0.00  0.00     0.167 HD
ENDBRANCH  35  37
ENDBRANCH  34  35
ENDBRANCH  33  34
ENDBRANCH   6  33
BRANCH  27  39
HETATM   39  C   UNK     0     -11.857   7.752 -39.167  0.00  0.00     0.051 C 
BRANCH  39  40
HETATM   40  C   UNK     0     -12.620   6.541 -38.866  0.00  0.00     0.114 C 
BRANCH  40  41
HETATM   41  C   UNK     0     -12.720   6.006 -37.527  0.00  0.00     0.139 C 
HETATM   42  O   UNK     0     -13.628   6.304 -36.738  0.00  0.00    -0.650 OA
BRANCH  41  43
HETATM   43  O   UNK     0     -11.732   5.087 -37.074  0.00  0.00    -0.776 OA
HETATM   44  H   UNK     0     -11.571   5.104 -36.074  0.00  0.00     0.167 HD
ENDBRANCH  41  43
ENDBRANCH  40  41
ENDBRANCH  39  40
ENDBRANCH  27  39
BRANCH  11  45
HETATM   45  C   UNK     0      -2.719  11.241 -36.057  0.00  0.00     0.051 C 
BRANCH  45  46
HETATM   46  C   UNK     0      -2.671   9.903 -35.413  0.00  0.00     0.114 C 
BRANCH  46  47
HETATM   47  C   UNK     0      -1.239   9.604 -35.122  0.00  0.00     0.139 C 
HETATM   48  O   UNK     0      -0.803   8.477 -35.392  0.00  0.00    -0.650 OA
BRANCH  47  49
HETATM   49  O   UNK     0      -0.422  10.556 -34.566  0.00  0.00    -0.776 OA
HETATM   50  H   UNK     0       0.590  10.415 -34.466  0.00  0.00     0.167 HD
ENDBRANCH  47  49
ENDBRANCH  46  47
ENDBRANCH  45  46
ENDBRANCH  11  45
BRANCH  18  51
HETATM   51  C   UNK     0      -6.445   5.499 -37.440  0.00  0.00     0.051 C 
BRANCH  51  52
HETATM   52  C   UNK     0      -6.580   4.784 -38.777  0.00  0.00     0.114 C 
BRANCH  52  53
HETATM   53  C   UNK     0      -5.328   4.106 -39.166  0.00  0.00     0.139 C 
HETATM   54  O   UNK     0      -4.469   3.847 -38.309  0.00  0.00    -0.650 OA
BRANCH  53  55
HETATM   55  O   UNK     0      -5.119   3.768 -40.481  0.00  0.00    -0.776 OA
HETATM   56  H   UNK     0      -4.618   4.304 -41.150  0.00  0.00     0.167 HD
ENDBRANCH  53  55
ENDBRANCH  52  53
ENDBRANCH  51  52
ENDBRANCH  18  51
TORSDOF 16
ENDMDL
MODEL 18
REMARK VINA RESULT:      -7.5      2.594      7.340
REMARK  16 active torsions:
REMARK  status: ('A' for Active; 'I' for Inactive)
REMARK    1  A    between atoms: C_6  and  C_7 
REMARK    2  A    between atoms: C_7  and  C_8 
REMARK    3  A    between atoms: C_8  and  C_9 
REMARK    4  A    between atoms: C_9  and  O_11 
REMARK    5  A    between atoms: C_16  and  C_17 
REMARK    6  A    between atoms: C_17  and  C_18 
REMARK    7  A    between atoms: C_18  and  C_19 
REMARK    8  A    between atoms: C_19  and  O_21 
REMARK    9  A    between atoms: C_28  and  C_29 
REMARK   10  A    between atoms: C_29  and  C_30 
REMARK   11  A    between atoms: C_30  and  C_31 
REMARK   12  A    between atoms: C_31  and  O_33 
REMARK   13  A    between atoms: C_42  and  C_43 
REMARK   14  A    between atoms: C_43  and  C_44 
REMARK   15  A    between atoms: C_44  and  C_45 
REMARK   16  A    between atoms: C_45  and  O_47 
ROOT
HETATM    1  C   UNK     0       2.071   8.795 -36.028  0.00  0.00     0.051 C 
HETATM    2  C   UNK     0       1.075   7.684 -35.762  0.00  0.00    -0.031 A 
HETATM    3  C   UNK     0      -0.155   7.740 -35.126  0.00  0.00     0.021 A 
HETATM    4  N   UNK     0      -0.688   6.495 -35.087  0.00  0.00    -0.361 N 
HETATM    5  C   UNK     0       0.173   5.650 -35.690  0.00  0.00     0.022 A 
HETATM    6  C   UNK     0       1.288   6.360 -36.122  0.00  0.00    -0.027 A 
HETATM    7  C   UNK     0       0.020   4.192 -35.992  0.00  0.00     0.115 C 
HETATM    8  C   UNK     0      -1.331   3.743 -36.520  0.00  0.00     0.021 A 
HETATM    9  N   UNK     0      -2.170   4.398 -37.337  0.00  0.00    -0.361 N 
HETATM   10  C   UNK     0      -3.293   3.661 -37.465  0.00  0.00     0.022 A 
HETATM   11  C   UNK     0      -3.171   2.494 -36.716  0.00  0.00    -0.027 A 
HETATM   12  C   UNK     0      -1.938   2.539 -36.118  0.00  0.00    -0.031 A 
HETATM   13  C   UNK     0      -1.367   1.474 -35.209  0.00  0.00     0.051 C 
HETATM   14  C   UNK     0      -4.542   4.049 -38.251  0.00  0.00     0.115 C 
HETATM   15  C   UNK     0      -5.210   5.322 -37.755  0.00  0.00     0.021 A 
HETATM   16  N   UNK     0      -4.670   6.551 -37.664  0.00  0.00    -0.361 N 
HETATM   17  C   UNK     0      -5.559   7.382 -37.116  0.00  0.00     0.022 A 
HETATM   18  C   UNK     0      -6.739   6.661 -36.845  0.00  0.00    -0.027 A 
HETATM   19  C   UNK     0      -6.508   5.372 -37.251  0.00  0.00    -0.031 A 
HETATM   20  C   UNK     0      -7.542   4.264 -37.172  0.00  0.00     0.051 C 
HETATM   21  C   UNK     0      -5.422   8.838 -36.734  0.00  0.00     0.115 C 
HETATM   22  C   UNK     0      -4.071   9.309 -36.250  0.00  0.00     0.022 A 
HETATM   23  N   UNK     0      -3.214   8.676 -35.439  0.00  0.00    -0.361 N 
HETATM   24  C   UNK     0      -2.072   9.391 -35.389  0.00  0.00     0.021 A 
HETATM   25  C   UNK     0      -2.201  10.517 -36.179  0.00  0.00    -0.031 A 
HETATM   26  C   UNK     0      -1.209  11.638 -36.409  0.00  0.00     0.051 C 
HETATM   27  C   UNK     0      -3.472  10.487 -36.740  0.00  0.00    -0.027 A 
HETATM   28  C   UNK     0      -0.780   9.030 -34.676  0.00  0.00     0.115 C 
HETATM   29  H   UNK     0      -1.650   6.217 -34.597  0.00  0.00     0.165 HD
HETATM   30  H   UNK     0      -1.951   5.358 -37.866  0.00  0.00     0.165 HD
HETATM   31  H   UNK     0      -3.656   6.851 -38.039  0.00  0.00     0.165 HD
HETATM   32  H   UNK     0      -3.422   7.739 -34.859  0.00  0.00     0.165 HD
ENDROOT
BRANCH   6  33
HETATM   33  C   UNK     0       2.525   5.882 -36.839  0.00  0.00     0.051 C 
BRANCH  33  34
HETATM   34  C   UNK     0       3.386   5.047 -35.921  0.00  0.00     0.114 C 
BRANCH  34  35
HETATM   35  C   UNK     0       4.279   5.981 -35.176  0.00  0.00     0.139 C 
HETATM   36  O   UNK     0       4.003   6.312 -33.986  0.00  0.00    -0.650 OA
BRANCH  35  37
HETATM   37  O   UNK     0       5.432   6.520 -35.732  0.00  0.00    -0.776 OA
HETATM   38  H   UNK     0       5.421   7.378 -36.260  0.00  0.00     0.167 HD
ENDBRANCH  35  37
ENDBRANCH  34  35
ENDBRANCH  33  34
ENDBRANCH   6  33
BRANCH  27  39
HETATM   39  C   UNK     0      -4.004  11.578 -37.600  0.00  0.00     0.051 C 
BRANCH  39  40
HETATM   40  C   UNK     0      -4.809  12.626 -36.973  0.00  0.00     0.114 C 
BRANCH  40  41
HETATM   41  C   UNK     0      -6.249  12.539 -36.878  0.00  0.00     0.139 C 
HETATM   42  O   UNK     0      -6.949  11.901 -37.676  0.00  0.00    -0.650 OA
BRANCH  41  43
HETATM   43  O   UNK     0      -6.914  13.217 -35.817  0.00  0.00    -0.776 OA
HETATM   44  H   UNK     0      -7.353  14.089 -36.087  0.00  0.00     0.167 HD
ENDBRANCH  41  43
ENDBRANCH  40  41
ENDBRANCH  39  40
ENDBRANCH  27  39
BRANCH  11  45
HETATM   45  C   UNK     0      -4.159   1.369 -36.557  0.00  0.00     0.051 C 
BRANCH  45  46
HETATM   46  C   UNK     0      -5.157   1.587 -35.479  0.00  0.00     0.114 C 
BRANCH  46  47
HETATM   47  C   UNK     0      -5.037   0.444 -34.529  0.00  0.00     0.139 C 
HETATM   48  O   UNK     0      -5.695   0.474 -33.479  0.00  0.00    -0.650 OA
BRANCH  47  49
HETATM   49  O   UNK     0      -4.216  -0.619 -34.808  0.00  0.00    -0.776 OA
HETATM   50  H   UNK     0      -3.970  -0.880 -35.771  0.00  0.00     0.167 HD
ENDBRANCH  47  49
ENDBRANCH  46  47
ENDBRANCH  45  46
ENDBRANCH  11  45
BRANCH  18  51
HETATM   51  C   UNK     0      -8.024   7.177 -36.250  0.00  0.00     0.051 C 
BRANCH  51  52
HETATM   52  C   UNK     0      -8.029   6.733 -34.795  0.00  0.00     0.114 C 
BRANCH  52  53
HETATM   53  C   UNK     0      -7.714   7.848 -33.880  0.00  0.00     0.139 C 
HETATM   54  O   UNK     0      -6.536   8.076 -33.561  0.00  0.00    -0.650 OA
BRANCH  53  55
HETATM   55  O   UNK     0      -8.731   8.626 -33.382  0.00  0.00    -0.776 OA
HETATM   56  H   UNK     0      -9.653   8.321 -33.176  0.00  0.00     0.167 HD
ENDBRANCH  53  55
ENDBRANCH  52  53
ENDBRANCH  51  52
ENDBRANCH  18  51
TORSDOF 16
ENDMDL
MODEL 19
REMARK VINA RESULT:      -7.5     32.078     34.580
REMARK  16 active torsions:
REMARK  status: ('A' for Active; 'I' for Inactive)
REMARK    1  A    between atoms: C_6  and  C_7 
REMARK    2  A    between atoms: C_7  and  C_8 
REMARK    3  A    between atoms: C_8  and  C_9 
REMARK    4  A    between atoms: C_9  and  O_11 
REMARK    5  A    between atoms: C_16  and  C_17 
REMARK    6  A    between atoms: C_17  and  C_18 
REMARK    7  A    between atoms: C_18  and  C_19 
REMARK    8  A    between atoms: C_19  and  O_21 
REMARK    9  A    between atoms: C_28  and  C_29 
REMARK   10  A    between atoms: C_29  and  C_30 
REMARK   11  A    between atoms: C_30  and  C_31 
REMARK   12  A    between atoms: C_31  and  O_33 
REMARK   13  A    between atoms: C_42  and  C_43 
REMARK   14  A    between atoms: C_43  and  C_44 
REMARK   15  A    between atoms: C_44  and  C_45 
REMARK   16  A    between atoms: C_45  and  O_47 
ROOT
HETATM    1  C   UNK     0       0.496  15.780  -3.871  0.00  0.00     0.051 C 
HETATM    2  C   UNK     0      -0.037  17.016  -4.566  0.00  0.00    -0.031 A 
HETATM    3  C   UNK     0      -1.192  17.176  -5.315  0.00  0.00     0.021 A 
HETATM    4  N   UNK     0      -1.250  18.449  -5.772  0.00  0.00    -0.361 N 
HETATM    5  C   UNK     0      -0.161  19.107  -5.324  0.00  0.00     0.022 A 
HETATM    6  C   UNK     0       0.621  18.240  -4.568  0.00  0.00    -0.027 A 
HETATM    7  C   UNK     0       0.204  20.552  -5.466  0.00  0.00     0.115 C 
HETATM    8  C   UNK     0      -0.915  21.560  -5.267  0.00  0.00     0.021 A 
HETATM    9  N   UNK     0      -1.950  21.503  -4.415  0.00  0.00    -0.361 N 
HETATM   10  C   UNK     0      -2.743  22.570  -4.648  0.00  0.00     0.022 A 
HETATM   11  C   UNK     0      -2.199  23.340  -5.672  0.00  0.00    -0.027 A 
HETATM   12  C   UNK     0      -1.047  22.710  -6.067  0.00  0.00    -0.031 A 
HETATM   13  C   UNK     0      -0.115  23.192  -7.156  0.00  0.00     0.051 C 
HETATM   14  C   UNK     0      -4.068  22.877  -3.955  0.00  0.00     0.115 C 
HETATM   15  C   UNK     0      -5.130  21.808  -4.156  0.00  0.00     0.021 A 
HETATM   16  N   UNK     0      -5.056  20.505  -3.826  0.00  0.00    -0.361 N 
HETATM   17  C   UNK     0      -6.168  19.887  -4.231  0.00  0.00     0.022 A 
HETATM   18  C   UNK     0      -7.011  20.835  -4.845  0.00  0.00    -0.027 A 
HETATM   19  C   UNK     0      -6.349  22.034  -4.790  0.00  0.00    -0.031 A 
HETATM   20  C   UNK     0      -6.923  23.339  -5.313  0.00  0.00     0.051 C 
HETATM   21  C   UNK     0      -6.545  18.424  -4.166  0.00  0.00     0.115 C 
HETATM   22  C   UNK     0      -5.436  17.410  -4.318  0.00  0.00     0.022 A 
HETATM   23  N   UNK     0      -4.391  17.443  -5.155  0.00  0.00    -0.361 N 
HETATM   24  C   UNK     0      -3.574  16.414  -4.852  0.00  0.00     0.021 A 
HETATM   25  C   UNK     0      -4.111  15.695  -3.802  0.00  0.00    -0.031 A 
HETATM   26  C   UNK     0      -3.585  14.439  -3.138  0.00  0.00     0.051 C 
HETATM   27  C   UNK     0      -5.303  16.313  -3.443  0.00  0.00    -0.027 A 
HETATM   28  C   UNK     0      -2.221  16.090  -5.463  0.00  0.00     0.115 C 
HETATM   29  H   UNK     0      -2.039  18.863  -6.441  0.00  0.00     0.165 HD
HETATM   30  H   UNK     0      -2.097  20.738  -3.614  0.00  0.00     0.165 HD
HETATM   31  H   UNK     0      -4.224  20.020  -3.253  0.00  0.00     0.165 HD
HETATM   32  H   UNK     0      -4.241  18.168  -5.996  0.00  0.00     0.165 HD
ENDROOT
BRANCH   6  33
HETATM   33  C   UNK     0       1.929  18.481  -3.859  0.00  0.00     0.051 C 
BRANCH  33  34
HETATM   34  C   UNK     0       1.749  19.460  -2.723  0.00  0.00     0.114 C 
BRANCH  34  35
HETATM   35  C   UNK     0       1.494  18.667  -1.486  0.00  0.00     0.139 C 
HETATM   36  O   UNK     0       2.069  17.553  -1.314  0.00  0.00    -0.650 OA
BRANCH  35  37
HETATM   37  O   UNK     0       0.636  19.100  -0.483  0.00  0.00    -0.776 OA
HETATM   38  H   UNK     0      -0.265  19.502  -0.686  0.00  0.00     0.167 HD
ENDBRANCH  35  37
ENDBRANCH  34  35
ENDBRANCH  33  34
ENDBRANCH   6  33
BRANCH  27  39
HETATM   39  C   UNK     0      -6.207  15.780  -2.388  0.00  0.00     0.051 C 
BRANCH  39  40
HETATM   40  C   UNK     0      -7.089  14.664  -2.728  0.00  0.00     0.114 C 
BRANCH  40  41
HETATM   41  C   UNK     0      -7.879  14.647  -3.939  0.00  0.00     0.139 C 
HETATM   42  O   UNK     0      -7.536  14.054  -4.971  0.00  0.00    -0.650 OA
BRANCH  41  43
HETATM   43  O   UNK     0      -9.119  15.345  -3.964  0.00  0.00    -0.776 OA
HETATM   44  H   UNK     0      -9.931  14.764  -3.793  0.00  0.00     0.167 HD
ENDBRANCH  41  43
ENDBRANCH  40  41
ENDBRANCH  39  40
ENDBRANCH  27  39
BRANCH  11  45
HETATM   45  C   UNK     0      -2.722  24.620  -6.268  0.00  0.00     0.051 C 
BRANCH  45  46
HETATM   46  C   UNK     0      -3.875  24.434  -7.186  0.00  0.00     0.114 C 
BRANCH  46  47
HETATM   47  C   UNK     0      -3.320  24.189  -8.548  0.00  0.00     0.139 C 
HETATM   48  O   UNK     0      -3.519  23.088  -9.080  0.00  0.00    -0.650 OA
BRANCH  47  49
HETATM   49  O   UNK     0      -2.602  25.160  -9.199  0.00  0.00    -0.776 OA
HETATM   50  H   UNK     0      -2.454  25.140 -10.215  0.00  0.00     0.167 HD
ENDBRANCH  47  49
ENDBRANCH  46  47
ENDBRANCH  45  46
ENDBRANCH  11  45
BRANCH  18  51
HETATM   51  C   UNK     0      -8.380  20.613  -5.433  0.00  0.00     0.051 C 
BRANCH  51  52
HETATM   52  C   UNK     0      -9.365  20.744  -4.280  0.00  0.00     0.114 C 
BRANCH  52  53
HETATM   53  C   UNK     0     -10.261  21.904  -4.453  0.00  0.00     0.139 C 
HETATM   54  O   UNK     0     -11.049  21.943  -5.411  0.00  0.00    -0.650 OA
BRANCH  53  55
HETATM   55  O   UNK     0     -10.215  22.938  -3.550  0.00  0.00    -0.776 OA
HETATM   56  H   UNK     0      -9.530  23.656  -3.518  0.00  0.00     0.167 HD
ENDBRANCH  53  55
ENDBRANCH  52  53
ENDBRANCH  51  52
ENDBRANCH  18  51
TORSDOF 16
ENDMDL
MODEL 20
REMARK VINA RESULT:      -7.3      3.996      8.871
REMARK  16 active torsions:
REMARK  status: ('A' for Active; 'I' for Inactive)
REMARK    1  A    between atoms: C_6  and  C_7 
REMARK    2  A    between atoms: C_7  and  C_8 
REMARK    3  A    between atoms: C_8  and  C_9 
REMARK    4  A    between atoms: C_9  and  O_11 
REMARK    5  A    between atoms: C_16  and  C_17 
REMARK    6  A    between atoms: C_17  and  C_18 
REMARK    7  A    between atoms: C_18  and  C_19 
REMARK    8  A    between atoms: C_19  and  O_21 
REMARK    9  A    between atoms: C_28  and  C_29 
REMARK   10  A    between atoms: C_29  and  C_30 
REMARK   11  A    between atoms: C_30  and  C_31 
REMARK   12  A    between atoms: C_31  and  O_33 
REMARK   13  A    between atoms: C_42  and  C_43 
REMARK   14  A    between atoms: C_43  and  C_44 
REMARK   15  A    between atoms: C_44  and  C_45 
REMARK   16  A    between atoms: C_45  and  O_47 
ROOT
HETATM    1  C   UNK     0       1.888   3.166 -35.086  0.00  0.00     0.051 C 
HETATM    2  C   UNK     0       0.513   3.585 -35.565  0.00  0.00    -0.031 A 
HETATM    3  C   UNK     0      -0.508   2.810 -36.092  0.00  0.00     0.021 A 
HETATM    4  N   UNK     0      -1.550   3.613 -36.414  0.00  0.00    -0.361 N 
HETATM    5  C   UNK     0      -1.218   4.881 -36.096  0.00  0.00     0.022 A 
HETATM    6  C   UNK     0       0.068   4.900 -35.565  0.00  0.00    -0.027 A 
HETATM    7  C   UNK     0      -2.044   6.127 -36.164  0.00  0.00     0.115 C 
HETATM    8  C   UNK     0      -3.483   6.018 -35.689  0.00  0.00     0.021 A 
HETATM    9  N   UNK     0      -3.978   5.279 -34.684  0.00  0.00    -0.361 N 
HETATM   10  C   UNK     0      -5.320   5.420 -34.682  0.00  0.00     0.022 A 
HETATM   11  C   UNK     0      -5.700   6.281 -35.707  0.00  0.00    -0.027 A 
HETATM   12  C   UNK     0      -4.547   6.662 -36.346  0.00  0.00    -0.031 A 
HETATM   13  C   UNK     0      -4.472   7.603 -37.527  0.00  0.00     0.051 C 
HETATM   14  C   UNK     0      -6.299   4.710 -33.751  0.00  0.00     0.115 C 
HETATM   15  C   UNK     0      -6.272   3.194 -33.868  0.00  0.00     0.021 A 
HETATM   16  N   UNK     0      -5.221   2.375 -33.677  0.00  0.00    -0.361 N 
HETATM   17  C   UNK     0      -5.589   1.120 -33.945  0.00  0.00     0.022 A 
HETATM   18  C   UNK     0      -6.947   1.121 -34.319  0.00  0.00    -0.027 A 
HETATM   19  C   UNK     0      -7.363   2.426 -34.266  0.00  0.00    -0.031 A 
HETATM   20  C   UNK     0      -8.784   2.871 -34.563  0.00  0.00     0.051 C 
HETATM   21  C   UNK     0      -4.772  -0.152 -33.952  0.00  0.00     0.115 C 
HETATM   22  C   UNK     0      -3.327  -0.050 -34.380  0.00  0.00     0.022 A 
HETATM   23  N   UNK     0      -2.805   0.681 -35.374  0.00  0.00    -0.361 N 
HETATM   24  C   UNK     0      -1.462   0.587 -35.309  0.00  0.00     0.021 A 
HETATM   25  C   UNK     0      -1.110  -0.233 -34.253  0.00  0.00    -0.031 A 
HETATM   26  C   UNK     0       0.269  -0.671 -33.805  0.00  0.00     0.051 C 
HETATM   27  C   UNK     0      -2.287  -0.653 -33.644  0.00  0.00    -0.027 A 
HETATM   28  C   UNK     0      -0.437   1.311 -36.164  0.00  0.00     0.115 C 
HETATM   29  H   UNK     0      -2.497   3.284 -36.901  0.00  0.00     0.165 HD
HETATM   30  H   UNK     0      -3.378   4.696 -33.943  0.00  0.00     0.165 HD
HETATM   31  H   UNK     0      -4.211   2.681 -33.299  0.00  0.00     0.165 HD
HETATM   32  H   UNK     0      -3.383   1.236 -36.158  0.00  0.00     0.165 HD
ENDROOT
BRANCH   6  33
HETATM   33  C   UNK     0       0.895   6.058 -35.066  0.00  0.00     0.051 C 
BRANCH  33  34
HETATM   34  C   UNK     0       1.208   7.015 -36.191  0.00  0.00     0.114 C 
BRANCH  34  35
HETATM   35  C   UNK     0       2.286   6.396 -37.016  0.00  0.00     0.139 C 
HETATM   36  O   UNK     0       3.390   6.079 -36.487  0.00  0.00    -0.650 OA
BRANCH  35  37
HETATM   37  O   UNK     0       2.136   6.140 -38.374  0.00  0.00    -0.776 OA
HETATM   38  H   UNK     0       2.798   5.582 -38.888  0.00  0.00     0.167 HD
ENDBRANCH  35  37
ENDBRANCH  34  35
ENDBRANCH  33  34
ENDBRANCH   6  33
BRANCH  27  39
HETATM   39  C   UNK     0      -2.313  -1.612 -32.506  0.00  0.00     0.051 C 
BRANCH  39  40
HETATM   40  C   UNK     0      -2.756  -2.982 -32.763  0.00  0.00     0.114 C 
BRANCH  40  41
HETATM   41  C   UNK     0      -4.142  -3.377 -32.654  0.00  0.00     0.139 C 
HETATM   42  O   UNK     0      -4.810  -3.797 -33.609  0.00  0.00    -0.650 OA
BRANCH  41  43
HETATM   43  O   UNK     0      -4.790  -3.285 -31.390  0.00  0.00    -0.776 OA
HETATM   44  H   UNK     0      -5.238  -2.394 -31.213  0.00  0.00     0.167 HD
ENDBRANCH  41  43
ENDBRANCH  40  41
ENDBRANCH  39  40
ENDBRANCH  27  39
BRANCH  11  45
HETATM   45  C   UNK     0      -7.081   6.742 -36.087  0.00  0.00     0.051 C 
BRANCH  45  46
HETATM   46  C   UNK     0      -7.859   5.746 -36.869  0.00  0.00     0.114 C 
BRANCH  46  47
HETATM   47  C   UNK     0      -8.248   6.399 -38.151  0.00  0.00     0.139 C 
HETATM   48  O   UNK     0      -7.914   7.576 -38.342  0.00  0.00    -0.650 OA
BRANCH  47  49
HETATM   49  O   UNK     0      -8.963   5.712 -39.100  0.00  0.00    -0.776 OA
HETATM   50  H   UNK     0      -9.184   6.120 -40.016  0.00  0.00     0.167 HD
ENDBRANCH  47  49
ENDBRANCH  46  47
ENDBRANCH  45  46
ENDBRANCH  11  45
BRANCH  18  51
HETATM   51  C   UNK     0      -7.808  -0.061 -34.687  0.00  0.00     0.051 C 
BRANCH  51  52
HETATM   52  C   UNK     0      -8.511  -0.490 -33.408  0.00  0.00     0.114 C 
BRANCH  52  53
HETATM   53  C   UNK     0      -7.850  -1.651 -32.781  0.00  0.00     0.139 C 
HETATM   54  O   UNK     0      -7.985  -2.783 -33.272  0.00  0.00    -0.650 OA
BRANCH  53  55
HETATM   55  O   UNK     0      -7.088  -1.472 -31.652  0.00  0.00    -0.776 OA
HETATM   56  H   UNK     0      -7.106  -0.678 -31.055  0.00  0.00     0.167 HD
ENDBRANCH  53  55
ENDBRANCH  52  53
ENDBRANCH  51  52
ENDBRANCH  18  51
TORSDOF 16
ENDMDL
