MODEL 1
REMARK VINA RESULT:      -7.1      0.000      0.000
REMARK  28 active torsions:
REMARK  status: ('A' for Active; 'I' for Inactive)
REMARK    1  A    between atoms: C_2  and  O_3 
REMARK    2  A    between atoms: C_2  and  C_4 
REMARK    3  A    between atoms: C_4  and  C_5 
REMARK    4  A    between atoms: C_5  and  C_6 
REMARK    5  A    between atoms: C_7  and  C_8 
REMARK    6  A    between atoms: C_8  and  C_9 
REMARK    7  A    between atoms: C_9  and  O_11 
REMARK    8  A    between atoms: C_28  and  C_29 
REMARK    9  A    between atoms: C_29  and  C_30 
REMARK   10  A    between atoms: C_30  and  O_32 
REMARK   11  A    between atoms: C_33  and  C_34 
REMARK   12  A    between atoms: C_34  and  C_35 
REMARK   13  A    between atoms: C_35  and  C_36 
REMARK   14  A    between atoms: C_36  and  O_38 
REMARK   15  A    between atoms: C_39  and  C_40 
REMARK   16  A    between atoms: C_40  and  C_41 
REMARK   17  A    between atoms: C_41  and  C_42 
REMARK   18  A    between atoms: C_42  and  O_44 
REMARK   19  A    between atoms: C_45  and  C_46 
REMARK   20  A    between atoms: C_46  and  C_47 
REMARK   21  A    between atoms: C_47  and  O_49 
REMARK   22  A    between atoms: C_50  and  C_51 
REMARK   23  A    between atoms: C_51  and  C_52 
REMARK   24  A    between atoms: C_52  and  O_54 
REMARK   25  A    between atoms: C_55  and  C_56 
REMARK   26  A    between atoms: C_56  and  C_57 
REMARK   27  A    between atoms: C_57  and  C_58 
REMARK   28  A    between atoms: C_58  and  O_60 
ROOT
ATOM      1  O   UNK d   0      12.262  -7.167 -14.911  0.00  0.00    -0.650 OA
ATOM      2  C   UNK d   0      12.456  -8.268 -14.349  0.00  0.00     0.139 C 
ENDROOT
BRANCH   2   3
ATOM      3  O   UNK d   0      13.444  -9.099 -14.819  0.00  0.00    -0.776 OA
ATOM      4  H   UNK d   0      13.879  -8.940 -15.730  0.00  0.00     0.167 HD
ENDBRANCH   2   3
BRANCH   2   5
ATOM      5  C   UNK d   0      11.622  -8.669 -13.181  0.00  0.00     0.115 C 
BRANCH   5   6
ATOM      6  C   UNK d   0      10.559  -7.635 -12.924  0.00  0.00     0.052 C 
BRANCH   6   7
ATOM      7  C   UNK d   0       9.174  -8.230 -12.851  0.00  0.00    -0.020 A 
ATOM      8  C   UNK d   0       8.297  -8.334 -13.816  0.00  0.00    -0.011 A 
ATOM      9  C   UNK d   0       7.107  -8.966 -13.271  0.00  0.00     0.067 A 
ATOM     10  C   UNK d   0       5.858  -9.369 -13.767  0.00  0.00     0.062 C 
ATOM     11  N   UNK d   0       7.345  -9.208 -11.965  0.00  0.00    -0.248 NA
ATOM     12  C   UNK d   0       4.936 -10.221 -13.149  0.00  0.00     0.041 A 
ATOM     13  N   UNK d   0       4.515 -10.295 -11.872  0.00  0.00    -0.355 N 
ATOM     14  C   UNK d   0       4.337 -11.242 -13.909  0.00  0.00    -0.022 A 
ATOM     15  C   UNK d   0       3.670 -11.341 -11.800  0.00  0.00     0.042 A 
ATOM     16  H   UNK d   0       4.794  -9.609 -11.042  0.00  0.00     0.166 HD
ATOM     17  C   UNK d   0       2.949 -11.860 -10.707  0.00  0.00     0.062 C 
ATOM     18  C   UNK d   0       3.534 -11.960 -13.058  0.00  0.00    -0.013 A 
ATOM     19  C   UNK d   0       3.377 -12.094  -9.425  0.00  0.00     0.067 A 
ATOM     20  N   UNK d   0       4.568 -11.596  -9.084  0.00  0.00    -0.248 NA
ATOM     21  C   UNK d   0       2.859 -12.796  -8.262  0.00  0.00    -0.011 A 
ATOM     22  C   UNK d   0       4.867 -11.922  -7.784  0.00  0.00     0.066 A 
ATOM     23  C   UNK d   0       6.065 -11.433  -7.285  0.00  0.00     0.062 C 
ATOM     24  C   UNK d   0       3.737 -12.695  -7.307  0.00  0.00    -0.020 A 
ATOM     25  C   UNK d   0       6.971 -10.568  -7.918  0.00  0.00     0.041 A 
ATOM     26  N   UNK d   0       7.401 -10.504  -9.184  0.00  0.00    -0.355 N 
ATOM     27  C   UNK d   0       7.568  -9.540  -7.156  0.00  0.00    -0.022 A 
ATOM     28  C   UNK d   0       8.250  -9.466  -9.256  0.00  0.00     0.042 A 
ATOM     29  H   UNK d   0       7.128 -11.200 -10.015  0.00  0.00     0.166 HD
ATOM     30  C   UNK d   0       8.981  -8.945 -10.335  0.00  0.00     0.062 C 
ATOM     31  C   UNK d   0       8.378  -8.838  -7.994  0.00  0.00    -0.013 A 
ATOM     32  C   UNK d   0       8.571  -8.789 -11.650  0.00  0.00     0.066 A 
BRANCH   8  33
ATOM     33  C   UNK d   0       8.462  -7.890 -15.213  0.00  0.00     0.151 C 
BRANCH  33  34
ATOM     34  C   UNK d   0       9.162  -8.884 -16.048  0.00  0.00     0.143 C 
ATOM     35  O   UNK d   0       8.794 -10.067 -16.072  0.00  0.00    -0.650 OA
BRANCH  34  36
ATOM     36  O   UNK d   0      10.238  -8.489 -16.809  0.00  0.00    -0.776 OA
ATOM     37  H   UNK d   0      11.062  -9.094 -16.923  0.00  0.00     0.167 HD
ENDBRANCH  34  36
ENDBRANCH  33  34
ENDBRANCH   8  33
BRANCH  31  38
ATOM     38  C   UNK d   0       9.215  -7.635  -7.626  0.00  0.00     0.151 C 
BRANCH  38  39
ATOM     39  C   UNK d   0       8.462  -6.399  -7.650  0.00  0.00     0.143 C 
ATOM     40  O   UNK d   0       8.237  -5.737  -6.621  0.00  0.00    -0.650 OA
BRANCH  39  41
ATOM     41  O   UNK d   0       7.965  -5.921  -8.862  0.00  0.00    -0.776 OA
ATOM     42  H   UNK d   0       7.154  -6.411  -9.254  0.00  0.00     0.167 HD
ENDBRANCH  39  41
ENDBRANCH  38  39
ENDBRANCH  31  38
BRANCH  27  43
ATOM     43  C   UNK d   0       7.402  -9.212  -5.693  0.00  0.00     0.052 C 
BRANCH  43  44
ATOM     44  C   UNK d   0       6.289  -8.251  -5.426  0.00  0.00     0.115 C 
BRANCH  44  45
ATOM     45  C   UNK d   0       6.389  -7.873  -3.992  0.00  0.00     0.139 C 
ATOM     46  O   UNK d   0       7.211  -6.978  -3.672  0.00  0.00    -0.650 OA
BRANCH  45  47
ATOM     47  O   UNK d   0       5.619  -8.457  -3.010  0.00  0.00    -0.776 OA
ATOM     48  H   UNK d   0       5.741  -8.250  -2.006  0.00  0.00     0.167 HD
ENDBRANCH  45  47
ENDBRANCH  44  45
ENDBRANCH  43  44
ENDBRANCH  27  43
BRANCH  24  49
ATOM     49  C   UNK d   0       3.600 -13.229  -5.941  0.00  0.00     0.052 C 
BRANCH  49  50
ATOM     50  C   UNK d   0       2.962 -12.204  -5.039  0.00  0.00     0.115 C 
BRANCH  50  51
ATOM     51  C   UNK d   0       3.811 -11.124  -4.554  0.00  0.00     0.139 C 
ATOM     52  O   UNK d   0       3.547  -9.915  -4.752  0.00  0.00    -0.650 OA
BRANCH  51  53
ATOM     53  O   UNK d   0       4.965 -11.424  -3.845  0.00  0.00    -0.776 OA
ATOM     54  H   UNK d   0       5.538 -12.183  -4.169  0.00  0.00     0.167 HD
ENDBRANCH  51  53
ENDBRANCH  50  51
ENDBRANCH  49  50
ENDBRANCH  24  49
BRANCH  21  55
ATOM     55  C   UNK d   0       1.538 -13.491  -8.227  0.00  0.00     0.151 C 
BRANCH  55  56
ATOM     56  C   UNK d   0       0.436 -12.566  -7.917  0.00  0.00     0.143 C 
ATOM     57  O   UNK d   0       0.057 -12.333  -6.753  0.00  0.00    -0.650 OA
BRANCH  56  58
ATOM     58  O   UNK d   0      -0.198 -11.932  -8.984  0.00  0.00    -0.776 OA
ATOM     59  H   UNK d   0       0.248 -12.081  -9.908  0.00  0.00     0.167 HD
ENDBRANCH  56  58
ENDBRANCH  55  56
ENDBRANCH  21  55
BRANCH  18  60
ATOM     60  C   UNK d   0       2.706 -13.158 -13.455  0.00  0.00     0.151 C 
BRANCH  60  61
ATOM     61  C   UNK d   0       1.318 -12.678 -13.540  0.00  0.00     0.143 C 
ATOM     62  O   UNK d   0       0.441 -12.789 -12.683  0.00  0.00    -0.650 OA
BRANCH  61  63
ATOM     63  O   UNK d   0       0.980 -12.022 -14.748  0.00  0.00    -0.776 OA
ATOM     64  H   UNK d   0       1.456 -11.184 -15.033  0.00  0.00     0.167 HD
ENDBRANCH  61  63
ENDBRANCH  60  61
ENDBRANCH  18  60
BRANCH  14  65
ATOM     65  C   UNK d   0       4.389 -11.527 -15.383  0.00  0.00     0.052 C 
BRANCH  65  66
ATOM     66  C   UNK d   0       3.682 -10.503 -16.199  0.00  0.00     0.115 C 
BRANCH  66  67
ATOM     67  C   UNK d   0       4.439  -9.497 -16.890  0.00  0.00     0.139 C 
ATOM     68  O   UNK d   0       5.614  -9.799 -17.317  0.00  0.00    -0.650 OA
BRANCH  67  69
ATOM     69  O   UNK d   0       4.058  -8.186 -17.171  0.00  0.00    -0.776 OA
ATOM     70  H   UNK d   0       4.789  -7.471 -17.047  0.00  0.00     0.167 HD
ENDBRANCH  67  69
ENDBRANCH  66  67
ENDBRANCH  65  66
ENDBRANCH  14  65
ENDBRANCH   6   7
ENDBRANCH   5   6
ENDBRANCH   2   5
TORSDOF 28
ENDMDL
MODEL 2
REMARK VINA RESULT:      -6.8      3.000      8.489
REMARK  28 active torsions:
REMARK  status: ('A' for Active; 'I' for Inactive)
REMARK    1  A    between atoms: C_2  and  O_3 
REMARK    2  A    between atoms: C_2  and  C_4 
REMARK    3  A    between atoms: C_4  and  C_5 
REMARK    4  A    between atoms: C_5  and  C_6 
REMARK    5  A    between atoms: C_7  and  C_8 
REMARK    6  A    between atoms: C_8  and  C_9 
REMARK    7  A    between atoms: C_9  and  O_11 
REMARK    8  A    between atoms: C_28  and  C_29 
REMARK    9  A    between atoms: C_29  and  C_30 
REMARK   10  A    between atoms: C_30  and  O_32 
REMARK   11  A    between atoms: C_33  and  C_34 
REMARK   12  A    between atoms: C_34  and  C_35 
REMARK   13  A    between atoms: C_35  and  C_36 
REMARK   14  A    between atoms: C_36  and  O_38 
REMARK   15  A    between atoms: C_39  and  C_40 
REMARK   16  A    between atoms: C_40  and  C_41 
REMARK   17  A    between atoms: C_41  and  C_42 
REMARK   18  A    between atoms: C_42  and  O_44 
REMARK   19  A    between atoms: C_45  and  C_46 
REMARK   20  A    between atoms: C_46  and  C_47 
REMARK   21  A    between atoms: C_47  and  O_49 
REMARK   22  A    between atoms: C_50  and  C_51 
REMARK   23  A    between atoms: C_51  and  C_52 
REMARK   24  A    between atoms: C_52  and  O_54 
REMARK   25  A    between atoms: C_55  and  C_56 
REMARK   26  A    between atoms: C_56  and  C_57 
REMARK   27  A    between atoms: C_57  and  C_58 
REMARK   28  A    between atoms: C_58  and  O_60 
ROOT
ATOM      1  O   UNK d   0       2.520  -7.982  -2.888  0.00  0.00    -0.650 OA
ATOM      2  C   UNK d   0       3.275  -8.703  -3.578  0.00  0.00     0.139 C 
ENDROOT
BRANCH   2   3
ATOM      3  O   UNK d   0       4.621  -8.429  -3.613  0.00  0.00    -0.776 OA
ATOM      4  H   UNK d   0       5.033  -7.912  -4.392  0.00  0.00     0.167 HD
ENDBRANCH   2   3
BRANCH   2   5
ATOM      5  C   UNK d   0       2.715  -9.847  -4.352  0.00  0.00     0.115 C 
BRANCH   5   6
ATOM      6  C   UNK d   0       3.606 -11.052  -4.213  0.00  0.00     0.052 C 
BRANCH   6   7
ATOM      7  C   UNK d   0       4.034 -11.615  -5.547  0.00  0.00    -0.020 A 
ATOM      8  C   UNK d   0       3.420 -12.520  -6.266  0.00  0.00    -0.011 A 
ATOM      9  C   UNK d   0       4.212 -12.749  -7.463  0.00  0.00     0.067 A 
ATOM     10  C   UNK d   0       4.103 -13.550  -8.610  0.00  0.00     0.062 C 
ATOM     11  N   UNK d   0       5.294 -11.946  -7.388  0.00  0.00    -0.248 NA
ATOM     12  C   UNK d   0       4.831 -13.431  -9.799  0.00  0.00     0.041 A 
ATOM     13  N   UNK d   0       6.140 -13.198 -10.018  0.00  0.00    -0.355 N 
ATOM     14  C   UNK d   0       4.147 -13.500 -11.026  0.00  0.00    -0.022 A 
ATOM     15  C   UNK d   0       6.302 -13.110 -11.351  0.00  0.00     0.042 A 
ATOM     16  H   UNK d   0       6.936 -13.117  -9.245  0.00  0.00     0.166 HD
ATOM     17  C   UNK d   0       7.462 -12.879 -12.117  0.00  0.00     0.062 C 
ATOM     18  C   UNK d   0       5.074 -13.293 -12.017  0.00  0.00    -0.013 A 
ATOM     19  C   UNK d   0       8.458 -11.958 -11.917  0.00  0.00     0.067 A 
ATOM     20  N   UNK d   0       8.460 -11.314 -10.748  0.00  0.00    -0.248 NA
ATOM     21  C   UNK d   0       9.580 -11.448 -12.689  0.00  0.00    -0.011 A 
ATOM     22  C   UNK d   0       9.501 -10.419 -10.698  0.00  0.00     0.066 A 
ATOM     23  C   UNK d   0       9.644  -9.705  -9.518  0.00  0.00     0.062 C 
ATOM     24  C   UNK d   0      10.183 -10.545 -11.971  0.00  0.00    -0.020 A 
ATOM     25  C   UNK d   0       8.910  -9.849  -8.330  0.00  0.00     0.041 A 
ATOM     26  N   UNK d   0       7.608 -10.065  -8.113  0.00  0.00    -0.355 N 
ATOM     27  C   UNK d   0       9.599  -9.784  -7.099  0.00  0.00    -0.022 A 
ATOM     28  C   UNK d   0       7.442 -10.145  -6.783  0.00  0.00     0.042 A 
ATOM     29  H   UNK d   0       6.807 -10.136  -8.889  0.00  0.00     0.166 HD
ATOM     30  C   UNK d   0       6.293 -10.365  -6.007  0.00  0.00     0.062 C 
ATOM     31  C   UNK d   0       8.678  -9.971  -6.115  0.00  0.00    -0.013 A 
ATOM     32  C   UNK d   0       5.246 -11.237  -6.259  0.00  0.00     0.066 A 
BRANCH   8  33
ATOM     33  C   UNK d   0       2.155 -13.202  -5.937  0.00  0.00     0.151 C 
BRANCH  33  34
ATOM     34  C   UNK d   0       0.985 -12.572  -6.574  0.00  0.00     0.143 C 
ATOM     35  O   UNK d   0       0.737 -12.757  -7.774  0.00  0.00    -0.650 OA
BRANCH  34  36
ATOM     36  O   UNK d   0       0.159 -11.767  -5.824  0.00  0.00    -0.776 OA
ATOM     37  H   UNK d   0      -0.391 -11.014  -6.259  0.00  0.00     0.167 HD
ENDBRANCH  34  36
ENDBRANCH  33  34
ENDBRANCH   8  33
BRANCH  31  38
ATOM     38  C   UNK d   0       8.953  -9.997  -4.630  0.00  0.00     0.151 C 
BRANCH  38  39
ATOM     39  C   UNK d   0       9.345 -11.307  -4.154  0.00  0.00     0.143 C 
ATOM     40  O   UNK d   0      10.515 -11.721  -4.234  0.00  0.00    -0.650 OA
BRANCH  39  41
ATOM     41  O   UNK d   0       8.388 -12.144  -3.582  0.00  0.00    -0.776 OA
ATOM     42  H   UNK d   0       8.600 -13.147  -3.572  0.00  0.00     0.167 HD
ENDBRANCH  39  41
ENDBRANCH  38  39
ENDBRANCH  31  38
BRANCH  27  43
ATOM     43  C   UNK d   0      11.065  -9.554  -6.832  0.00  0.00     0.052 C 
BRANCH  43  44
ATOM     44  C   UNK d   0      11.358  -8.203  -6.265  0.00  0.00     0.115 C 
BRANCH  44  45
ATOM     45  C   UNK d   0      12.471  -8.382  -5.297  0.00  0.00     0.139 C 
ATOM     46  O   UNK d   0      13.412  -7.550  -5.317  0.00  0.00    -0.650 OA
BRANCH  45  47
ATOM     47  O   UNK d   0      12.509  -9.412  -4.382  0.00  0.00    -0.776 OA
ATOM     48  H   UNK d   0      12.964 -10.318  -4.578  0.00  0.00     0.167 HD
ENDBRANCH  45  47
ENDBRANCH  44  45
ENDBRANCH  43  44
ENDBRANCH  27  43
BRANCH  24  49
ATOM     49  C   UNK d   0      11.394  -9.798 -12.354  0.00  0.00     0.052 C 
BRANCH  49  50
ATOM     50  C   UNK d   0      12.603 -10.370 -11.660  0.00  0.00     0.115 C 
BRANCH  50  51
ATOM     51  C   UNK d   0      13.797  -9.536 -11.610  0.00  0.00     0.139 C 
ATOM     52  O   UNK d   0      14.396  -9.151 -12.641  0.00  0.00    -0.650 OA
BRANCH  51  53
ATOM     53  O   UNK d   0      14.309  -9.144 -10.382  0.00  0.00    -0.776 OA
ATOM     54  H   UNK d   0      13.662  -8.912  -9.650  0.00  0.00     0.167 HD
ENDBRANCH  51  53
ENDBRANCH  50  51
ENDBRANCH  49  50
ENDBRANCH  24  49
BRANCH  21  55
ATOM     55  C   UNK d   0       9.933 -11.920 -14.060  0.00  0.00     0.151 C 
BRANCH  55  56
ATOM     56  C   UNK d   0      10.955 -12.978 -14.033  0.00  0.00     0.143 C 
ATOM     57  O   UNK d   0      12.146 -12.774 -14.341  0.00  0.00    -0.650 OA
BRANCH  56  58
ATOM     58  O   UNK d   0      10.557 -14.255 -13.643  0.00  0.00    -0.776 OA
ATOM     59  H   UNK d   0       9.767 -14.280 -12.972  0.00  0.00     0.167 HD
ENDBRANCH  56  58
ENDBRANCH  55  56
ENDBRANCH  21  55
BRANCH  18  60
ATOM     60  C   UNK d   0       4.771 -13.276 -13.495  0.00  0.00     0.151 C 
BRANCH  60  61
ATOM     61  C   UNK d   0       4.756 -14.683 -13.921  0.00  0.00     0.143 C 
ATOM     62  O   UNK d   0       5.617 -15.535 -13.699  0.00  0.00    -0.650 OA
BRANCH  61  63
ATOM     63  O   UNK d   0       3.617 -15.076 -14.664  0.00  0.00    -0.776 OA
ATOM     64  H   UNK d   0       3.066 -15.870 -14.388  0.00  0.00     0.167 HD
ENDBRANCH  61  63
ENDBRANCH  60  61
ENDBRANCH  18  60
BRANCH  14  65
ATOM     65  C   UNK d   0       2.716 -13.840 -11.334  0.00  0.00     0.052 C 
BRANCH  65  66
ATOM     66  C   UNK d   0       1.902 -12.651 -11.704  0.00  0.00     0.115 C 
BRANCH  66  67
ATOM     67  C   UNK d   0       2.115 -11.404 -11.025  0.00  0.00     0.139 C 
ATOM     68  O   UNK d   0       2.799 -10.491 -11.619  0.00  0.00    -0.650 OA
BRANCH  67  69
ATOM     69  O   UNK d   0       1.662 -11.033  -9.760  0.00  0.00    -0.776 OA
ATOM     70  H   UNK d   0       2.126 -11.495  -8.965  0.00  0.00     0.167 HD
ENDBRANCH  67  69
ENDBRANCH  66  67
ENDBRANCH  65  66
ENDBRANCH  14  65
ENDBRANCH   6   7
ENDBRANCH   5   6
ENDBRANCH   2   5
TORSDOF 28
ENDMDL
MODEL 3
REMARK VINA RESULT:      -6.7     21.507     26.398
REMARK  28 active torsions:
REMARK  status: ('A' for Active; 'I' for Inactive)
REMARK    1  A    between atoms: C_2  and  O_3 
REMARK    2  A    between atoms: C_2  and  C_4 
REMARK    3  A    between atoms: C_4  and  C_5 
REMARK    4  A    between atoms: C_5  and  C_6 
REMARK    5  A    between atoms: C_7  and  C_8 
REMARK    6  A    between atoms: C_8  and  C_9 
REMARK    7  A    between atoms: C_9  and  O_11 
REMARK    8  A    between atoms: C_28  and  C_29 
REMARK    9  A    between atoms: C_29  and  C_30 
REMARK   10  A    between atoms: C_30  and  O_32 
REMARK   11  A    between atoms: C_33  and  C_34 
REMARK   12  A    between atoms: C_34  and  C_35 
REMARK   13  A    between atoms: C_35  and  C_36 
REMARK   14  A    between atoms: C_36  and  O_38 
REMARK   15  A    between atoms: C_39  and  C_40 
REMARK   16  A    between atoms: C_40  and  C_41 
REMARK   17  A    between atoms: C_41  and  C_42 
REMARK   18  A    between atoms: C_42  and  O_44 
REMARK   19  A    between atoms: C_45  and  C_46 
REMARK   20  A    between atoms: C_46  and  C_47 
REMARK   21  A    between atoms: C_47  and  O_49 
REMARK   22  A    between atoms: C_50  and  C_51 
REMARK   23  A    between atoms: C_51  and  C_52 
REMARK   24  A    between atoms: C_52  and  O_54 
REMARK   25  A    between atoms: C_55  and  C_56 
REMARK   26  A    between atoms: C_56  and  C_57 
REMARK   27  A    between atoms: C_57  and  C_58 
REMARK   28  A    between atoms: C_58  and  O_60 
ROOT
ATOM      1  O   UNK d   0       7.516  19.378  -4.425  0.00  0.00    -0.650 OA
ATOM      2  C   UNK d   0       7.096  18.202  -4.344  0.00  0.00     0.139 C 
ENDROOT
BRANCH   2   3
ATOM      3  O   UNK d   0       6.007  17.929  -3.552  0.00  0.00    -0.776 OA
ATOM      4  H   UNK d   0       5.820  16.979  -3.223  0.00  0.00     0.167 HD
ENDBRANCH   2   3
BRANCH   2   5
ATOM      5  C   UNK d   0       7.775  17.112  -5.101  0.00  0.00     0.115 C 
BRANCH   5   6
ATOM      6  C   UNK d   0       7.532  17.277  -6.576  0.00  0.00     0.052 C 
BRANCH   6   7
ATOM      7  C   UNK d   0       8.742  16.923  -7.408  0.00  0.00    -0.020 A 
ATOM      8  C   UNK d   0       9.786  17.671  -7.656  0.00  0.00    -0.011 A 
ATOM      9  C   UNK d   0      10.686  16.911  -8.507  0.00  0.00     0.067 A 
ATOM     10  C   UNK d   0      11.943  17.121  -9.094  0.00  0.00     0.062 C 
ATOM     11  N   UNK d   0      10.107  15.713  -8.733  0.00  0.00    -0.248 NA
ATOM     12  C   UNK d   0      12.785  16.158  -9.661  0.00  0.00     0.041 A 
ATOM     13  N   UNK d   0      12.520  15.114 -10.470  0.00  0.00    -0.355 N 
ATOM     14  C   UNK d   0      14.155  16.177  -9.339  0.00  0.00    -0.022 A 
ATOM     15  C   UNK d   0      13.685  14.466 -10.663  0.00  0.00     0.042 A 
ATOM     16  H   UNK d   0      11.533  14.852 -10.911  0.00  0.00     0.166 HD
ATOM     17  C   UNK d   0      13.974  13.315 -11.422  0.00  0.00     0.062 C 
ATOM     18  C   UNK d   0      14.732  15.103  -9.970  0.00  0.00    -0.013 A 
ATOM     19  C   UNK d   0      13.284  12.132 -11.492  0.00  0.00     0.067 A 
ATOM     20  N   UNK d   0      12.071  12.106 -10.934  0.00  0.00    -0.248 NA
ATOM     21  C   UNK d   0      13.534  10.807 -12.033  0.00  0.00    -0.011 A 
ATOM     22  C   UNK d   0      11.511  10.859 -11.069  0.00  0.00     0.066 A 
ATOM     23  C   UNK d   0      10.229  10.701 -10.563  0.00  0.00     0.062 C 
ATOM     24  C   UNK d   0      12.495  10.065 -11.778  0.00  0.00    -0.020 A 
ATOM     25  C   UNK d   0       9.395  11.685 -10.010  0.00  0.00     0.041 A 
ATOM     26  N   UNK d   0       9.656  12.713  -9.194  0.00  0.00    -0.355 N 
ATOM     27  C   UNK d   0       8.022  11.667 -10.337  0.00  0.00    -0.022 A 
ATOM     28  C   UNK d   0       8.495  13.355  -8.992  0.00  0.00     0.042 A 
ATOM     29  H   UNK d   0      10.646  12.969  -8.743  0.00  0.00     0.166 HD
ATOM     30  C   UNK d   0       8.190  14.496  -8.233  0.00  0.00     0.062 C 
ATOM     31  C   UNK d   0       7.444  12.721  -9.698  0.00  0.00    -0.013 A 
ATOM     32  C   UNK d   0       8.935  15.657  -8.098  0.00  0.00     0.066 A 
BRANCH   8  33
ATOM     33  C   UNK d   0      10.026  19.044  -7.174  0.00  0.00     0.151 C 
BRANCH  33  34
ATOM     34  C   UNK d   0      10.822  19.083  -5.934  0.00  0.00     0.143 C 
ATOM     35  O   UNK d   0      11.973  18.625  -5.902  0.00  0.00    -0.650 OA
BRANCH  34  36
ATOM     36  O   UNK d   0      10.276  19.634  -4.798  0.00  0.00    -0.776 OA
ATOM     37  H   UNK d   0       9.942  19.043  -4.025  0.00  0.00     0.167 HD
ENDBRANCH  34  36
ENDBRANCH  33  34
ENDBRANCH   8  33
BRANCH  31  38
ATOM     38  C   UNK d   0       5.987  13.113  -9.762  0.00  0.00     0.151 C 
BRANCH  38  39
ATOM     39  C   UNK d   0       5.622  13.715 -11.027  0.00  0.00     0.143 C 
ATOM     40  O   UNK d   0       4.556  13.447 -11.609  0.00  0.00    -0.650 OA
BRANCH  39  41
ATOM     41  O   UNK d   0       6.487  14.630 -11.627  0.00  0.00    -0.776 OA
ATOM     42  H   UNK d   0       7.482  14.384 -11.640  0.00  0.00     0.167 HD
ENDBRANCH  39  41
ENDBRANCH  38  39
ENDBRANCH  31  38
BRANCH  27  43
ATOM     43  C   UNK d   0       7.257  10.706 -11.212  0.00  0.00     0.052 C 
BRANCH  43  44
ATOM     44  C   UNK d   0       7.324  11.048 -12.665  0.00  0.00     0.115 C 
BRANCH  44  45
ATOM     45  C   UNK d   0       6.081  10.518 -13.284  0.00  0.00     0.139 C 
ATOM     46  O   UNK d   0       6.189   9.823 -14.325  0.00  0.00    -0.650 OA
BRANCH  45  47
ATOM     47  O   UNK d   0       4.828  10.751 -12.761  0.00  0.00    -0.776 OA
ATOM     48  H   UNK d   0       4.650  11.447 -12.019  0.00  0.00     0.167 HD
ENDBRANCH  45  47
ENDBRANCH  44  45
ENDBRANCH  43  44
ENDBRANCH  27  43
BRANCH  24  49
ATOM     49  C   UNK d   0      12.310   8.661 -12.183  0.00  0.00     0.052 C 
BRANCH  49  50
ATOM     50  C   UNK d   0      12.254   7.769 -10.969  0.00  0.00     0.115 C 
BRANCH  50  51
ATOM     51  C   UNK d   0      13.253   7.993  -9.933  0.00  0.00     0.139 C 
ATOM     52  O   UNK d   0      12.966   8.466  -8.808  0.00  0.00    -0.650 OA
BRANCH  51  53
ATOM     53  O   UNK d   0      14.581   7.679 -10.180  0.00  0.00    -0.776 OA
ATOM     54  H   UNK d   0      14.793   6.770 -10.553  0.00  0.00     0.167 HD
ENDBRANCH  51  53
ENDBRANCH  50  51
ENDBRANCH  49  50
ENDBRANCH  24  49
BRANCH  21  55
ATOM     55  C   UNK d   0      14.784  10.421 -12.752  0.00  0.00     0.151 C 
BRANCH  55  56
ATOM     56  C   UNK d   0      14.896  11.084 -14.060  0.00  0.00     0.143 C 
ATOM     57  O   UNK d   0      14.113  10.854 -15.003  0.00  0.00    -0.650 OA
BRANCH  56  58
ATOM     58  O   UNK d   0      15.926  12.007 -14.234  0.00  0.00    -0.776 OA
ATOM     59  H   UNK d   0      16.800  11.616 -14.630  0.00  0.00     0.167 HD
ENDBRANCH  56  58
ENDBRANCH  55  56
ENDBRANCH  21  55
BRANCH  18  60
ATOM     60  C   UNK d   0      16.194  14.737  -9.890  0.00  0.00     0.151 C 
BRANCH  60  61
ATOM     61  C   UNK d   0      16.764  15.065 -11.205  0.00  0.00     0.143 C 
ATOM     62  O   UNK d   0      16.553  16.077 -11.874  0.00  0.00    -0.650 OA
BRANCH  61  63
ATOM     63  O   UNK d   0      17.649  14.096 -11.737  0.00  0.00    -0.776 OA
ATOM     64  H   UNK d   0      17.302  13.274 -12.196  0.00  0.00     0.167 HD
ENDBRANCH  61  63
ENDBRANCH  60  61
ENDBRANCH  18  60
BRANCH  14  65
ATOM     65  C   UNK d   0      14.967  17.179  -8.570  0.00  0.00     0.052 C 
BRANCH  65  66
ATOM     66  C   UNK d   0      15.407  18.332  -9.400  0.00  0.00     0.115 C 
BRANCH  66  67
ATOM     67  C   UNK d   0      16.798  18.684  -9.449  0.00  0.00     0.139 C 
ATOM     68  O   UNK d   0      17.296  19.357  -8.473  0.00  0.00    -0.650 OA
BRANCH  67  69
ATOM     69  O   UNK d   0      17.719  18.384 -10.452  0.00  0.00    -0.776 OA
ATOM     70  H   UNK d   0      17.327  18.252 -11.396  0.00  0.00     0.167 HD
ENDBRANCH  67  69
ENDBRANCH  66  67
ENDBRANCH  65  66
ENDBRANCH  14  65
ENDBRANCH   6   7
ENDBRANCH   5   6
ENDBRANCH   2   5
TORSDOF 28
ENDMDL
MODEL 4
REMARK VINA RESULT:      -6.7      2.442      3.204
REMARK  28 active torsions:
REMARK  status: ('A' for Active; 'I' for Inactive)
REMARK    1  A    between atoms: C_2  and  O_3 
REMARK    2  A    between atoms: C_2  and  C_4 
REMARK    3  A    between atoms: C_4  and  C_5 
REMARK    4  A    between atoms: C_5  and  C_6 
REMARK    5  A    between atoms: C_7  and  C_8 
REMARK    6  A    between atoms: C_8  and  C_9 
REMARK    7  A    between atoms: C_9  and  O_11 
REMARK    8  A    between atoms: C_28  and  C_29 
REMARK    9  A    between atoms: C_29  and  C_30 
REMARK   10  A    between atoms: C_30  and  O_32 
REMARK   11  A    between atoms: C_33  and  C_34 
REMARK   12  A    between atoms: C_34  and  C_35 
REMARK   13  A    between atoms: C_35  and  C_36 
REMARK   14  A    between atoms: C_36  and  O_38 
REMARK   15  A    between atoms: C_39  and  C_40 
REMARK   16  A    between atoms: C_40  and  C_41 
REMARK   17  A    between atoms: C_41  and  C_42 
REMARK   18  A    between atoms: C_42  and  O_44 
REMARK   19  A    between atoms: C_45  and  C_46 
REMARK   20  A    between atoms: C_46  and  C_47 
REMARK   21  A    between atoms: C_47  and  O_49 
REMARK   22  A    between atoms: C_50  and  C_51 
REMARK   23  A    between atoms: C_51  and  C_52 
REMARK   24  A    between atoms: C_52  and  O_54 
REMARK   25  A    between atoms: C_55  and  C_56 
REMARK   26  A    between atoms: C_56  and  C_57 
REMARK   27  A    between atoms: C_57  and  C_58 
REMARK   28  A    between atoms: C_58  and  O_60 
ROOT
ATOM      1  O   UNK d   0      15.203  -9.503 -11.894  0.00  0.00    -0.650 OA
ATOM      2  C   UNK d   0      14.005  -9.363 -12.226  0.00  0.00     0.139 C 
ENDROOT
BRANCH   2   3
ATOM      3  O   UNK d   0      13.703  -8.964 -13.506  0.00  0.00    -0.776 OA
ATOM      4  H   UNK d   0      12.758  -8.664 -13.755  0.00  0.00     0.167 HD
ENDBRANCH   2   3
BRANCH   2   5
ATOM      5  C   UNK d   0      12.920  -9.626 -11.239  0.00  0.00     0.115 C 
BRANCH   5   6
ATOM      6  C   UNK d   0      12.391 -11.024 -11.412  0.00  0.00     0.052 C 
BRANCH   6   7
ATOM      7  C   UNK d   0      10.886 -11.093 -11.312  0.00  0.00    -0.020 A 
ATOM      8  C   UNK d   0      10.032 -11.325 -12.276  0.00  0.00    -0.011 A 
ATOM      9  C   UNK d   0       8.696 -11.286 -11.705  0.00  0.00     0.067 A 
ATOM     10  C   UNK d   0       7.387 -11.468 -12.178  0.00  0.00     0.062 C 
ATOM     11  N   UNK d   0       8.830 -11.018 -10.389  0.00  0.00    -0.248 NA
ATOM     12  C   UNK d   0       6.230 -11.667 -11.416  0.00  0.00     0.041 A 
ATOM     13  N   UNK d   0       5.799 -11.071 -10.288  0.00  0.00    -0.355 N 
ATOM     14  C   UNK d   0       5.334 -12.683 -11.792  0.00  0.00    -0.022 A 
ATOM     15  C   UNK d   0       4.656 -11.688  -9.935  0.00  0.00     0.042 A 
ATOM     16  H   UNK d   0       6.283 -10.218  -9.763  0.00  0.00     0.166 HD
ATOM     17  C   UNK d   0       3.795 -11.461  -8.842  0.00  0.00     0.062 C 
ATOM     18  C   UNK d   0       4.332 -12.705 -10.854  0.00  0.00    -0.013 A 
ATOM     19  C   UNK d   0       4.111 -11.253  -7.524  0.00  0.00     0.067 A 
ATOM     20  N   UNK d   0       5.398 -11.037  -7.237  0.00  0.00    -0.248 NA
ATOM     21  C   UNK d   0       3.381 -11.216  -6.268  0.00  0.00    -0.011 A 
ATOM     22  C   UNK d   0       5.562 -10.862  -5.885  0.00  0.00     0.066 A 
ATOM     23  C   UNK d   0       6.851 -10.590  -5.451  0.00  0.00     0.062 C 
ATOM     24  C   UNK d   0       4.236 -10.991  -5.312  0.00  0.00    -0.020 A 
ATOM     25  C   UNK d   0       7.997 -10.381  -6.234  0.00  0.00     0.041 A 
ATOM     26  N   UNK d   0       8.433 -10.984  -7.347  0.00  0.00    -0.355 N 
ATOM     27  C   UNK d   0       8.894  -9.358  -5.858  0.00  0.00    -0.022 A 
ATOM     28  C   UNK d   0       9.578 -10.376  -7.696  0.00  0.00     0.042 A 
ATOM     29  H   UNK d   0       7.952 -11.848  -7.867  0.00  0.00     0.166 HD
ATOM     30  C   UNK d   0      10.449 -10.597  -8.775  0.00  0.00     0.062 C 
ATOM     31  C   UNK d   0       9.897  -9.347  -6.778  0.00  0.00    -0.013 A 
ATOM     32  C   UNK d   0      10.123 -10.891 -10.089  0.00  0.00     0.066 A 
BRANCH   8  33
ATOM     33  C   UNK d   0      10.345 -11.578 -13.694  0.00  0.00     0.151 C 
BRANCH  33  34
ATOM     34  C   UNK d   0      10.228 -10.369 -14.529  0.00  0.00     0.143 C 
ATOM     35  O   UNK d   0       9.656 -10.407 -15.628  0.00  0.00    -0.650 OA
BRANCH  34  36
ATOM     36  O   UNK d   0      10.762  -9.183 -14.080  0.00  0.00    -0.776 OA
ATOM     37  H   UNK d   0      11.332  -8.587 -14.695  0.00  0.00     0.167 HD
ENDBRANCH  34  36
ENDBRANCH  33  34
ENDBRANCH   8  33
BRANCH  31  38
ATOM     38  C   UNK d   0      11.081  -8.409  -6.794  0.00  0.00     0.151 C 
BRANCH  38  39
ATOM     39  C   UNK d   0      12.237  -8.952  -6.113  0.00  0.00     0.143 C 
ATOM     40  O   UNK d   0      12.158  -9.920  -5.336  0.00  0.00    -0.650 OA
BRANCH  39  41
ATOM     41  O   UNK d   0      13.491  -8.379  -6.325  0.00  0.00    -0.776 OA
ATOM     42  H   UNK d   0      13.732  -8.142  -7.293  0.00  0.00     0.167 HD
ENDBRANCH  39  41
ENDBRANCH  38  39
ENDBRANCH  31  38
BRANCH  27  43
ATOM     43  C   UNK d   0       8.834  -8.415  -4.683  0.00  0.00     0.052 C 
BRANCH  43  44
ATOM     44  C   UNK d   0       8.278  -7.072  -5.030  0.00  0.00     0.115 C 
BRANCH  44  45
ATOM     45  C   UNK d   0       6.930  -6.997  -4.409  0.00  0.00     0.139 C 
ATOM     46  O   UNK d   0       6.660  -7.802  -3.483  0.00  0.00    -0.650 OA
BRANCH  45  47
ATOM     47  O   UNK d   0       5.976  -6.084  -4.802  0.00  0.00    -0.776 OA
ATOM     48  H   UNK d   0       6.079  -5.493  -5.643  0.00  0.00     0.167 HD
ENDBRANCH  45  47
ENDBRANCH  44  45
ENDBRANCH  43  44
ENDBRANCH  27  43
BRANCH  24  49
ATOM     49  C   UNK d   0       3.920 -10.837  -3.882  0.00  0.00     0.052 C 
BRANCH  49  50
ATOM     50  C   UNK d   0       2.865  -9.777  -3.689  0.00  0.00     0.115 C 
BRANCH  50  51
ATOM     51  C   UNK d   0       3.291  -8.388  -3.793  0.00  0.00     0.139 C 
ATOM     52  O   UNK d   0       3.267  -7.599  -2.819  0.00  0.00    -0.650 OA
BRANCH  51  53
ATOM     53  O   UNK d   0       3.744  -7.898  -5.008  0.00  0.00    -0.776 OA
ATOM     54  H   UNK d   0       3.069  -7.729  -5.734  0.00  0.00     0.167 HD
ENDBRANCH  51  53
ENDBRANCH  50  51
ENDBRANCH  49  50
ENDBRANCH  24  49
BRANCH  21  55
ATOM     55  C   UNK d   0       1.905 -11.404  -6.154  0.00  0.00     0.151 C 
BRANCH  55  56
ATOM     56  C   UNK d   0       1.494 -12.770  -6.516  0.00  0.00     0.143 C 
ATOM     57  O   UNK d   0       0.498 -13.009  -7.227  0.00  0.00    -0.650 OA
BRANCH  56  58
ATOM     58  O   UNK d   0       2.262 -13.828  -6.034  0.00  0.00    -0.776 OA
ATOM     59  H   UNK d   0       2.747 -14.383  -6.762  0.00  0.00     0.167 HD
ENDBRANCH  56  58
ENDBRANCH  55  56
ENDBRANCH  21  55
BRANCH  18  60
ATOM     60  C   UNK d   0       3.158 -13.652 -10.864  0.00  0.00     0.151 C 
BRANCH  60  61
ATOM     61  C   UNK d   0       1.976 -12.828 -11.159  0.00  0.00     0.143 C 
ATOM     62  O   UNK d   0       1.811 -12.088 -12.130  0.00  0.00    -0.650 OA
BRANCH  61  63
ATOM     63  O   UNK d   0       0.930 -12.912 -10.209  0.00  0.00    -0.776 OA
ATOM     64  H   UNK d   0       1.101 -12.739  -9.234  0.00  0.00     0.167 HD
ENDBRANCH  61  63
ENDBRANCH  60  61
ENDBRANCH  18  60
BRANCH  14  65
ATOM     65  C   UNK d   0       5.300 -13.559 -13.012  0.00  0.00     0.052 C 
BRANCH  65  66
ATOM     66  C   UNK d   0       4.453 -13.006 -14.102  0.00  0.00     0.115 C 
BRANCH  66  67
ATOM     67  C   UNK d   0       3.367 -13.787 -14.625  0.00  0.00     0.139 C 
ATOM     68  O   UNK d   0       3.632 -14.921 -15.169  0.00  0.00    -0.650 OA
BRANCH  67  69
ATOM     69  O   UNK d   0       2.009 -13.468 -14.624  0.00  0.00    -0.776 OA
ATOM     70  H   UNK d   0       1.691 -12.860 -15.392  0.00  0.00     0.167 HD
ENDBRANCH  67  69
ENDBRANCH  66  67
ENDBRANCH  65  66
ENDBRANCH  14  65
ENDBRANCH   6   7
ENDBRANCH   5   6
ENDBRANCH   2   5
TORSDOF 28
ENDMDL
MODEL 5
REMARK VINA RESULT:      -6.6     21.262     25.731
REMARK  28 active torsions:
REMARK  status: ('A' for Active; 'I' for Inactive)
REMARK    1  A    between atoms: C_2  and  O_3 
REMARK    2  A    between atoms: C_2  and  C_4 
REMARK    3  A    between atoms: C_4  and  C_5 
REMARK    4  A    between atoms: C_5  and  C_6 
REMARK    5  A    between atoms: C_7  and  C_8 
REMARK    6  A    between atoms: C_8  and  C_9 
REMARK    7  A    between atoms: C_9  and  O_11 
REMARK    8  A    between atoms: C_28  and  C_29 
REMARK    9  A    between atoms: C_29  and  C_30 
REMARK   10  A    between atoms: C_30  and  O_32 
REMARK   11  A    between atoms: C_33  and  C_34 
REMARK   12  A    between atoms: C_34  and  C_35 
REMARK   13  A    between atoms: C_35  and  C_36 
REMARK   14  A    between atoms: C_36  and  O_38 
REMARK   15  A    between atoms: C_39  and  C_40 
REMARK   16  A    between atoms: C_40  and  C_41 
REMARK   17  A    between atoms: C_41  and  C_42 
REMARK   18  A    between atoms: C_42  and  O_44 
REMARK   19  A    between atoms: C_45  and  C_46 
REMARK   20  A    between atoms: C_46  and  C_47 
REMARK   21  A    between atoms: C_47  and  O_49 
REMARK   22  A    between atoms: C_50  and  C_51 
REMARK   23  A    between atoms: C_51  and  C_52 
REMARK   24  A    between atoms: C_52  and  O_54 
REMARK   25  A    between atoms: C_55  and  C_56 
REMARK   26  A    between atoms: C_56  and  C_57 
REMARK   27  A    between atoms: C_57  and  C_58 
REMARK   28  A    between atoms: C_58  and  O_60 
ROOT
ATOM      1  O   UNK d   0       8.197  18.857  -5.581  0.00  0.00    -0.650 OA
ATOM      2  C   UNK d   0       9.213  18.330  -5.074  0.00  0.00     0.139 C 
ENDROOT
BRANCH   2   3
ATOM      3  O   UNK d   0       9.067  17.464  -4.018  0.00  0.00    -0.776 OA
ATOM      4  H   UNK d   0       9.512  17.652  -3.117  0.00  0.00     0.167 HD
ENDBRANCH   2   3
BRANCH   2   5
ATOM      5  C   UNK d   0      10.566  18.643  -5.615  0.00  0.00     0.115 C 
BRANCH   5   6
ATOM      6  C   UNK d   0      10.475  18.972  -7.080  0.00  0.00     0.052 C 
BRANCH   6   7
ATOM      7  C   UNK d   0      11.123  17.923  -7.953  0.00  0.00    -0.020 A 
ATOM      8  C   UNK d   0      12.330  17.939  -8.457  0.00  0.00    -0.011 A 
ATOM      9  C   UNK d   0      12.503  16.723  -9.234  0.00  0.00     0.067 A 
ATOM     10  C   UNK d   0      13.535  16.139  -9.986  0.00  0.00     0.062 C 
ATOM     11  N   UNK d   0      11.349  16.027  -9.152  0.00  0.00    -0.248 NA
ATOM     12  C   UNK d   0      13.611  14.818 -10.439  0.00  0.00     0.041 A 
ATOM     13  N   UNK d   0      12.681  14.015 -10.990  0.00  0.00    -0.355 N 
ATOM     14  C   UNK d   0      14.817  14.112 -10.279  0.00  0.00    -0.022 A 
ATOM     15  C   UNK d   0      13.264  12.816 -11.178  0.00  0.00     0.042 A 
ATOM     16  H   UNK d   0      11.639  14.296 -11.260  0.00  0.00     0.166 HD
ATOM     17  C   UNK d   0      12.745  11.623 -11.721  0.00  0.00     0.062 C 
ATOM     18  C   UNK d   0      14.603  12.838 -10.744  0.00  0.00    -0.013 A 
ATOM     19  C   UNK d   0      11.538  11.019 -11.479  0.00  0.00     0.067 A 
ATOM     20  N   UNK d   0      10.634  11.726 -10.796  0.00  0.00    -0.248 NA
ATOM     21  C   UNK d   0      10.940   9.727 -11.770  0.00  0.00    -0.011 A 
ATOM     22  C   UNK d   0       9.488  10.990 -10.619  0.00  0.00     0.066 A 
ATOM     23  C   UNK d   0       8.446  11.621  -9.955  0.00  0.00     0.062 C 
ATOM     24  C   UNK d   0       9.742   9.715 -11.261  0.00  0.00    -0.020 A 
ATOM     25  C   UNK d   0       8.386  12.954  -9.519  0.00  0.00     0.041 A 
ATOM     26  N   UNK d   0       9.305  13.747  -8.957  0.00  0.00    -0.355 N 
ATOM     27  C   UNK d   0       7.176  13.663  -9.684  0.00  0.00    -0.022 A 
ATOM     28  C   UNK d   0       8.724  14.941  -8.761  0.00  0.00     0.042 A 
ATOM     29  H   UNK d   0      10.349  13.460  -8.677  0.00  0.00     0.166 HD
ATOM     30  C   UNK d   0       9.225  16.132  -8.214  0.00  0.00     0.062 C 
ATOM     31  C   UNK d   0       7.381  14.921  -9.207  0.00  0.00    -0.013 A 
ATOM     32  C   UNK d   0      10.478  16.696  -8.395  0.00  0.00     0.066 A 
BRANCH   8  33
ATOM     33  C   UNK d   0      13.347  18.993  -8.287  0.00  0.00     0.151 C 
BRANCH  33  34
ATOM     34  C   UNK d   0      14.527  18.530  -7.535  0.00  0.00     0.143 C 
ATOM     35  O   UNK d   0      14.406  18.008  -6.418  0.00  0.00    -0.650 OA
BRANCH  34  36
ATOM     36  O   UNK d   0      15.780  18.684  -8.084  0.00  0.00    -0.776 OA
ATOM     37  H   UNK d   0      15.998  18.331  -9.025  0.00  0.00     0.167 HD
ENDBRANCH  34  36
ENDBRANCH  33  34
ENDBRANCH   8  33
BRANCH  31  38
ATOM     38  C   UNK d   0       6.369  16.043  -9.188  0.00  0.00     0.151 C 
BRANCH  38  39
ATOM     39  C   UNK d   0       6.294  16.753 -10.447  0.00  0.00     0.143 C 
ATOM     40  O   UNK d   0       7.297  17.236 -11.000  0.00  0.00    -0.650 OA
BRANCH  39  41
ATOM     41  O   UNK d   0       5.058  16.907 -11.075  0.00  0.00    -0.776 OA
ATOM     42  H   UNK d   0       4.353  16.188 -10.888  0.00  0.00     0.167 HD
ENDBRANCH  39  41
ENDBRANCH  38  39
ENDBRANCH  31  38
BRANCH  27  43
ATOM     43  C   UNK d   0       5.863  13.197 -10.262  0.00  0.00     0.052 C 
BRANCH  43  44
ATOM     44  C   UNK d   0       5.771  13.378 -11.742  0.00  0.00     0.115 C 
BRANCH  44  45
ATOM     45  C   UNK d   0       4.364  13.752 -12.038  0.00  0.00     0.139 C 
ATOM     46  O   UNK d   0       3.972  13.685 -13.230  0.00  0.00    -0.650 OA
BRANCH  45  47
ATOM     47  O   UNK d   0       3.479  14.160 -11.064  0.00  0.00    -0.776 OA
ATOM     48  H   UNK d   0       2.662  14.759 -11.265  0.00  0.00     0.167 HD
ENDBRANCH  45  47
ENDBRANCH  44  45
ENDBRANCH  43  44
ENDBRANCH  27  43
BRANCH  24  49
ATOM     49  C   UNK d   0       8.769   8.613 -11.356  0.00  0.00     0.052 C 
BRANCH  49  50
ATOM     50  C   UNK d   0       8.229   8.509 -12.759  0.00  0.00     0.115 C 
BRANCH  50  51
ATOM     51  C   UNK d   0       7.241   9.498 -13.167  0.00  0.00     0.139 C 
ATOM     52  O   UNK d   0       6.464  10.052 -12.354  0.00  0.00    -0.650 OA
BRANCH  51  53
ATOM     53  O   UNK d   0       7.137   9.854 -14.503  0.00  0.00    -0.776 OA
ATOM     54  H   UNK d   0       6.413  10.498 -14.768  0.00  0.00     0.167 HD
ENDBRANCH  51  53
ENDBRANCH  50  51
ENDBRANCH  49  50
ENDBRANCH  24  49
BRANCH  21  55
ATOM     55  C   UNK d   0      11.626   8.641 -12.531  0.00  0.00     0.151 C 
BRANCH  55  56
ATOM     56  C   UNK d   0      12.358   7.724 -11.644  0.00  0.00     0.143 C 
ATOM     57  O   UNK d   0      11.965   6.567 -11.397  0.00  0.00    -0.650 OA
BRANCH  56  58
ATOM     58  O   UNK d   0      13.538   8.186 -11.064  0.00  0.00    -0.776 OA
ATOM     59  H   UNK d   0      13.427   8.601 -10.121  0.00  0.00     0.167 HD
ENDBRANCH  56  58
ENDBRANCH  55  56
ENDBRANCH  21  55
BRANCH  18  60
ATOM     60  C   UNK d   0      15.635  11.737 -10.754  0.00  0.00     0.151 C 
BRANCH  60  61
ATOM     61  C   UNK d   0      15.519  11.064  -9.451  0.00  0.00     0.143 C 
ATOM     62  O   UNK d   0      14.586  10.365  -9.057  0.00  0.00    -0.650 OA
BRANCH  61  63
ATOM     63  O   UNK d   0      16.614  11.257  -8.574  0.00  0.00    -0.776 OA
ATOM     64  H   UNK d   0      17.428  11.769  -8.866  0.00  0.00     0.167 HD
ENDBRANCH  61  63
ENDBRANCH  60  61
ENDBRANCH  18  60
BRANCH  14  65
ATOM     65  C   UNK d   0      16.170  14.574  -9.818  0.00  0.00     0.052 C 
BRANCH  65  66
ATOM     66  C   UNK d   0      16.876  15.407 -10.827  0.00  0.00     0.115 C 
BRANCH  66  67
ATOM     67  C   UNK d   0      18.061  14.903 -11.463  0.00  0.00     0.139 C 
ATOM     68  O   UNK d   0      19.182  15.486 -11.222  0.00  0.00    -0.650 OA
BRANCH  67  69
ATOM     69  O   UNK d   0      18.165  13.826 -12.342  0.00  0.00    -0.776 OA
ATOM     70  H   UNK d   0      17.486  13.064 -12.200  0.00  0.00     0.167 HD
ENDBRANCH  67  69
ENDBRANCH  66  67
ENDBRANCH  65  66
ENDBRANCH  14  65
ENDBRANCH   6   7
ENDBRANCH   5   6
ENDBRANCH   2   5
TORSDOF 28
ENDMDL
MODEL 6
REMARK VINA RESULT:      -6.6      2.187      2.995
REMARK  28 active torsions:
REMARK  status: ('A' for Active; 'I' for Inactive)
REMARK    1  A    between atoms: C_2  and  O_3 
REMARK    2  A    between atoms: C_2  and  C_4 
REMARK    3  A    between atoms: C_4  and  C_5 
REMARK    4  A    between atoms: C_5  and  C_6 
REMARK    5  A    between atoms: C_7  and  C_8 
REMARK    6  A    between atoms: C_8  and  C_9 
REMARK    7  A    between atoms: C_9  and  O_11 
REMARK    8  A    between atoms: C_28  and  C_29 
REMARK    9  A    between atoms: C_29  and  C_30 
REMARK   10  A    between atoms: C_30  and  O_32 
REMARK   11  A    between atoms: C_33  and  C_34 
REMARK   12  A    between atoms: C_34  and  C_35 
REMARK   13  A    between atoms: C_35  and  C_36 
REMARK   14  A    between atoms: C_36  and  O_38 
REMARK   15  A    between atoms: C_39  and  C_40 
REMARK   16  A    between atoms: C_40  and  C_41 
REMARK   17  A    between atoms: C_41  and  C_42 
REMARK   18  A    between atoms: C_42  and  O_44 
REMARK   19  A    between atoms: C_45  and  C_46 
REMARK   20  A    between atoms: C_46  and  C_47 
REMARK   21  A    between atoms: C_47  and  O_49 
REMARK   22  A    between atoms: C_50  and  C_51 
REMARK   23  A    between atoms: C_51  and  C_52 
REMARK   24  A    between atoms: C_52  and  O_54 
REMARK   25  A    between atoms: C_55  and  C_56 
REMARK   26  A    between atoms: C_56  and  C_57 
REMARK   27  A    between atoms: C_57  and  C_58 
REMARK   28  A    between atoms: C_58  and  O_60 
ROOT
ATOM      1  O   UNK d   0      16.237  -9.487 -11.911  0.00  0.00    -0.650 OA
ATOM      2  C   UNK d   0      15.307  -8.867 -11.348  0.00  0.00     0.139 C 
ENDROOT
BRANCH   2   3
ATOM      3  O   UNK d   0      15.557  -8.200 -10.173  0.00  0.00    -0.776 OA
ATOM      4  H   UNK d   0      16.429  -8.345  -9.659  0.00  0.00     0.167 HD
ENDBRANCH   2   3
BRANCH   2   5
ATOM      5  C   UNK d   0      13.943  -8.856 -11.949  0.00  0.00     0.115 C 
BRANCH   5   6
ATOM      6  C   UNK d   0      13.251 -10.166 -11.686  0.00  0.00     0.052 C 
BRANCH   6   7
ATOM      7  C   UNK d   0      11.764 -10.099 -11.940  0.00  0.00    -0.020 A 
ATOM      8  C   UNK d   0      11.156  -9.618 -12.994  0.00  0.00    -0.011 A 
ATOM      9  C   UNK d   0       9.725  -9.760 -12.785  0.00  0.00     0.067 A 
ATOM     10  C   UNK d   0       8.561  -9.473 -13.515  0.00  0.00     0.062 C 
ATOM     11  N   UNK d   0       9.552 -10.332 -11.575  0.00  0.00    -0.248 NA
ATOM     12  C   UNK d   0       7.266  -9.939 -13.264  0.00  0.00     0.041 A 
ATOM     13  N   UNK d   0       6.578 -10.069 -12.114  0.00  0.00    -0.355 N 
ATOM     14  C   UNK d   0       6.498 -10.426 -14.337  0.00  0.00    -0.022 A 
ATOM     15  C   UNK d   0       5.397 -10.634 -12.429  0.00  0.00     0.042 A 
ATOM     16  H   UNK d   0       6.913  -9.751 -11.102  0.00  0.00     0.166 HD
ATOM     17  C   UNK d   0       4.307 -10.988 -11.609  0.00  0.00     0.062 C 
ATOM     18  C   UNK d   0       5.310 -10.873 -13.814  0.00  0.00    -0.013 A 
ATOM     19  C   UNK d   0       4.312 -11.630 -10.397  0.00  0.00     0.067 A 
ATOM     20  N   UNK d   0       5.495 -11.779  -9.796  0.00  0.00    -0.248 NA
ATOM     21  C   UNK d   0       3.315 -12.247  -9.538  0.00  0.00    -0.011 A 
ATOM     22  C   UNK d   0       5.344 -12.450  -8.607  0.00  0.00     0.066 A 
ATOM     23  C   UNK d   0       6.496 -12.640  -7.857  0.00  0.00     0.062 C 
ATOM     24  C   UNK d   0       3.926 -12.729  -8.494  0.00  0.00    -0.020 A 
ATOM     25  C   UNK d   0       7.785 -12.152  -8.121  0.00  0.00     0.041 A 
ATOM     26  N   UNK d   0       8.474 -12.037  -9.262  0.00  0.00    -0.355 N 
ATOM     27  C   UNK d   0       8.553 -11.659  -7.044  0.00  0.00    -0.022 A 
ATOM     28  C   UNK d   0       9.656 -11.482  -8.950  0.00  0.00     0.042 A 
ATOM     29  H   UNK d   0       8.140 -12.367 -10.276  0.00  0.00     0.166 HD
ATOM     30  C   UNK d   0      10.753 -11.133  -9.753  0.00  0.00     0.062 C 
ATOM     31  C   UNK d   0       9.738 -11.233  -7.559  0.00  0.00    -0.013 A 
ATOM     32  C   UNK d   0      10.740 -10.561 -11.015  0.00  0.00     0.066 A 
BRANCH   8  33
ATOM     33  C   UNK d   0      11.788  -9.029 -14.189  0.00  0.00     0.151 C 
BRANCH  33  34
ATOM     34  C   UNK d   0      11.462  -7.601 -14.361  0.00  0.00     0.143 C 
ATOM     35  O   UNK d   0      11.479  -6.824 -13.396  0.00  0.00    -0.650 OA
BRANCH  34  36
ATOM     36  O   UNK d   0      11.134  -7.129 -15.611  0.00  0.00    -0.776 OA
ATOM     37  H   UNK d   0      11.857  -6.791 -16.261  0.00  0.00     0.167 HD
ENDBRANCH  34  36
ENDBRANCH  33  34
ENDBRANCH   8  33
BRANCH  31  38
ATOM     38  C   UNK d   0      10.877 -10.613  -6.783  0.00  0.00     0.151 C 
BRANCH  38  39
ATOM     39  C   UNK d   0      10.924  -9.172  -6.909  0.00  0.00     0.143 C 
ATOM     40  O   UNK d   0       9.926  -8.498  -7.222  0.00  0.00    -0.650 OA
BRANCH  39  41
ATOM     41  O   UNK d   0      12.123  -8.501  -6.673  0.00  0.00    -0.776 OA
ATOM     42  H   UNK d   0      12.973  -8.926  -7.058  0.00  0.00     0.167 HD
ENDBRANCH  39  41
ENDBRANCH  38  39
ENDBRANCH  31  38
BRANCH  27  43
ATOM     43  C   UNK d   0       8.210 -11.584  -5.577  0.00  0.00     0.052 C 
BRANCH  43  44
ATOM     44  C   UNK d   0       7.737 -10.232  -5.150  0.00  0.00     0.115 C 
BRANCH  44  45
ATOM     45  C   UNK d   0       6.289 -10.366  -4.844  0.00  0.00     0.139 C 
ATOM     46  O   UNK d   0       5.465  -9.868  -5.651  0.00  0.00    -0.650 OA
BRANCH  45  47
ATOM     47  O   UNK d   0       5.819 -11.013  -3.722  0.00  0.00    -0.776 OA
ATOM     48  H   UNK d   0       4.993 -11.634  -3.738  0.00  0.00     0.167 HD
ENDBRANCH  45  47
ENDBRANCH  44  45
ENDBRANCH  43  44
ENDBRANCH  27  43
BRANCH  24  49
ATOM     49  C   UNK d   0       3.291 -13.404  -7.350  0.00  0.00     0.052 C 
BRANCH  49  50
ATOM     50  C   UNK d   0       3.619 -12.685  -6.067  0.00  0.00     0.115 C 
BRANCH  50  51
ATOM     51  C   UNK d   0       2.571 -11.861  -5.480  0.00  0.00     0.139 C 
ATOM     52  O   UNK d   0       1.396 -11.848  -5.917  0.00  0.00    -0.650 OA
BRANCH  51  53
ATOM     53  O   UNK d   0       2.863 -11.050  -4.394  0.00  0.00    -0.776 OA
ATOM     54  H   UNK d   0       3.541 -10.318  -4.516  0.00  0.00     0.167 HD
ENDBRANCH  51  53
ENDBRANCH  50  51
ENDBRANCH  49  50
ENDBRANCH  24  49
BRANCH  21  55
ATOM     55  C   UNK d   0       1.855 -12.288  -9.848  0.00  0.00     0.151 C 
BRANCH  55  56
ATOM     56  C   UNK d   0       1.545 -13.251 -10.916  0.00  0.00     0.143 C 
ATOM     57  O   UNK d   0       2.141 -14.339 -11.038  0.00  0.00    -0.650 OA
BRANCH  56  58
ATOM     58  O   UNK d   0       0.538 -12.915 -11.820  0.00  0.00    -0.776 OA
ATOM     59  H   UNK d   0       0.673 -13.282 -12.779  0.00  0.00     0.167 HD
ENDBRANCH  56  58
ENDBRANCH  55  56
ENDBRANCH  21  55
BRANCH  18  60
ATOM     60  C   UNK d   0       4.188 -11.485 -14.615  0.00  0.00     0.151 C 
BRANCH  60  61
ATOM     61  C   UNK d   0       4.613 -12.860 -14.919  0.00  0.00     0.143 C 
ATOM     62  O   UNK d   0       4.720 -13.375 -16.032  0.00  0.00    -0.650 OA
BRANCH  61  63
ATOM     63  O   UNK d   0       4.929 -13.656 -13.792  0.00  0.00    -0.776 OA
ATOM     64  H   UNK d   0       4.646 -14.619 -13.741  0.00  0.00     0.167 HD
ENDBRANCH  61  63
ENDBRANCH  60  61
ENDBRANCH  18  60
BRANCH  14  65
ATOM     65  C   UNK d   0       6.759 -10.411 -15.817  0.00  0.00     0.052 C 
BRANCH  65  66
ATOM     66  C   UNK d   0       6.284  -9.167 -16.479  0.00  0.00     0.115 C 
BRANCH  66  67
ATOM     67  C   UNK d   0       5.030  -9.167 -17.177  0.00  0.00     0.139 C 
ATOM     68  O   UNK d   0       4.719 -10.196 -17.882  0.00  0.00    -0.650 OA
BRANCH  67  69
ATOM     69  O   UNK d   0       4.064  -8.161 -17.196  0.00  0.00    -0.776 OA
ATOM     70  H   UNK d   0       4.099  -7.491 -16.414  0.00  0.00     0.167 HD
ENDBRANCH  67  69
ENDBRANCH  66  67
ENDBRANCH  65  66
ENDBRANCH  14  65
ENDBRANCH   6   7
ENDBRANCH   5   6
ENDBRANCH   2   5
TORSDOF 28
ENDMDL
MODEL 7
REMARK VINA RESULT:      -6.6     21.807     26.226
REMARK  28 active torsions:
REMARK  status: ('A' for Active; 'I' for Inactive)
REMARK    1  A    between atoms: C_2  and  O_3 
REMARK    2  A    between atoms: C_2  and  C_4 
REMARK    3  A    between atoms: C_4  and  C_5 
REMARK    4  A    between atoms: C_5  and  C_6 
REMARK    5  A    between atoms: C_7  and  C_8 
REMARK    6  A    between atoms: C_8  and  C_9 
REMARK    7  A    between atoms: C_9  and  O_11 
REMARK    8  A    between atoms: C_28  and  C_29 
REMARK    9  A    between atoms: C_29  and  C_30 
REMARK   10  A    between atoms: C_30  and  O_32 
REMARK   11  A    between atoms: C_33  and  C_34 
REMARK   12  A    between atoms: C_34  and  C_35 
REMARK   13  A    between atoms: C_35  and  C_36 
REMARK   14  A    between atoms: C_36  and  O_38 
REMARK   15  A    between atoms: C_39  and  C_40 
REMARK   16  A    between atoms: C_40  and  C_41 
REMARK   17  A    between atoms: C_41  and  C_42 
REMARK   18  A    between atoms: C_42  and  O_44 
REMARK   19  A    between atoms: C_45  and  C_46 
REMARK   20  A    between atoms: C_46  and  C_47 
REMARK   21  A    between atoms: C_47  and  O_49 
REMARK   22  A    between atoms: C_50  and  C_51 
REMARK   23  A    between atoms: C_51  and  C_52 
REMARK   24  A    between atoms: C_52  and  O_54 
REMARK   25  A    between atoms: C_55  and  C_56 
REMARK   26  A    between atoms: C_56  and  C_57 
REMARK   27  A    between atoms: C_57  and  C_58 
REMARK   28  A    between atoms: C_58  and  O_60 
ROOT
ATOM      1  O   UNK d   0      11.087  21.577  -5.195  0.00  0.00    -0.650 OA
ATOM      2  C   UNK d   0      10.589  20.452  -4.967  0.00  0.00     0.139 C 
ENDROOT
BRANCH   2   3
ATOM      3  O   UNK d   0       9.680  20.312  -3.946  0.00  0.00    -0.776 OA
ATOM      4  H   UNK d   0       8.955  21.014  -3.786  0.00  0.00     0.167 HD
ENDBRANCH   2   3
BRANCH   2   5
ATOM      5  C   UNK d   0      10.982  19.277  -5.796  0.00  0.00     0.115 C 
BRANCH   5   6
ATOM      6  C   UNK d   0      10.070  19.157  -6.987  0.00  0.00     0.052 C 
BRANCH   6   7
ATOM      7  C   UNK d   0       9.878  17.726  -7.429  0.00  0.00    -0.020 A 
ATOM      8  C   UNK d   0       8.853  16.948  -7.194  0.00  0.00    -0.011 A 
ATOM      9  C   UNK d   0       9.121  15.659  -7.809  0.00  0.00     0.067 A 
ATOM     10  C   UNK d   0       8.441  14.438  -7.939  0.00  0.00     0.062 C 
ATOM     11  N   UNK d   0      10.335  15.739  -8.393  0.00  0.00    -0.248 NA
ATOM     12  C   UNK d   0       8.743  13.389  -8.813  0.00  0.00     0.041 A 
ATOM     13  N   UNK d   0       9.921  12.833  -9.157  0.00  0.00    -0.355 N 
ATOM     14  C   UNK d   0       7.701  12.788  -9.542  0.00  0.00    -0.022 A 
ATOM     15  C   UNK d   0       9.653  11.900 -10.091  0.00  0.00     0.042 A 
ATOM     16  H   UNK d   0      10.919  13.081  -8.734  0.00  0.00     0.166 HD
ATOM     17  C   UNK d   0      10.516  11.028 -10.784  0.00  0.00     0.062 C 
ATOM     18  C   UNK d   0       8.272  11.843 -10.359  0.00  0.00    -0.013 A 
ATOM     19  C   UNK d   0      11.723  11.299 -11.375  0.00  0.00     0.067 A 
ATOM     20  N   UNK d   0      12.274  12.486 -11.109  0.00  0.00    -0.248 NA
ATOM     21  C   UNK d   0      12.620  10.606 -12.284  0.00  0.00    -0.011 A 
ATOM     22  C   UNK d   0      13.465  12.620 -11.779  0.00  0.00     0.066 A 
ATOM     23  C   UNK d   0      14.166  13.797 -11.562  0.00  0.00     0.062 C 
ATOM     24  C   UNK d   0      13.636  11.386 -12.520  0.00  0.00    -0.020 A 
ATOM     25  C   UNK d   0      13.851  14.834 -10.669  0.00  0.00     0.041 A 
ATOM     26  N   UNK d   0      12.683  15.396 -10.339  0.00  0.00    -0.355 N 
ATOM     27  C   UNK d   0      14.898  15.433  -9.935  0.00  0.00    -0.022 A 
ATOM     28  C   UNK d   0      12.948  16.333  -9.414  0.00  0.00     0.042 A 
ATOM     29  H   UNK d   0      11.682  15.153 -10.773  0.00  0.00     0.166 HD
ATOM     30  C   UNK d   0      12.101  17.213  -8.723  0.00  0.00     0.062 C 
ATOM     31  C   UNK d   0      14.335  16.382  -9.138  0.00  0.00    -0.013 A 
ATOM     32  C   UNK d   0      10.843  16.957  -8.201  0.00  0.00     0.066 A 
BRANCH   8  33
ATOM     33  C   UNK d   0       7.635  17.294  -6.437  0.00  0.00     0.151 C 
BRANCH  33  34
ATOM     34  C   UNK d   0       7.810  17.155  -4.980  0.00  0.00     0.143 C 
ATOM     35  O   UNK d   0       7.897  18.153  -4.251  0.00  0.00    -0.650 OA
BRANCH  34  36
ATOM     36  O   UNK d   0       7.878  15.898  -4.426  0.00  0.00    -0.776 OA
ATOM     37  H   UNK d   0       7.884  15.054  -5.014  0.00  0.00     0.167 HD
ENDBRANCH  34  36
ENDBRANCH  33  34
ENDBRANCH   8  33
BRANCH  31  38
ATOM     38  C   UNK d   0      15.066  17.274  -8.162  0.00  0.00     0.151 C 
BRANCH  38  39
ATOM     39  C   UNK d   0      15.492  18.524  -8.755  0.00  0.00     0.143 C 
ATOM     40  O   UNK d   0      15.021  18.948  -9.825  0.00  0.00    -0.650 OA
BRANCH  39  41
ATOM     41  O   UNK d   0      16.465  19.291  -8.113  0.00  0.00    -0.776 OA
ATOM     42  H   UNK d   0      17.397  18.874  -8.024  0.00  0.00     0.167 HD
ENDBRANCH  39  41
ENDBRANCH  38  39
ENDBRANCH  31  38
BRANCH  27  43
ATOM     43  C   UNK d   0      16.378  15.144  -9.965  0.00  0.00     0.052 C 
BRANCH  43  44
ATOM     44  C   UNK d   0      17.130  16.013 -10.919  0.00  0.00     0.115 C 
BRANCH  44  45
ATOM     45  C   UNK d   0      17.692  15.114 -11.960  0.00  0.00     0.139 C 
ATOM     46  O   UNK d   0      17.064  14.996 -13.042  0.00  0.00    -0.650 OA
BRANCH  45  47
ATOM     47  O   UNK d   0      18.867  14.415 -11.789  0.00  0.00    -0.776 OA
ATOM     48  H   UNK d   0      19.529  14.234 -12.561  0.00  0.00     0.167 HD
ENDBRANCH  45  47
ENDBRANCH  44  45
ENDBRANCH  43  44
ENDBRANCH  27  43
BRANCH  24  49
ATOM     49  C   UNK d   0      14.802  11.063 -13.359  0.00  0.00     0.052 C 
BRANCH  49  50
ATOM     50  C   UNK d   0      16.068  11.571 -12.717  0.00  0.00     0.115 C 
BRANCH  50  51
ATOM     51  C   UNK d   0      17.329  11.175 -13.328  0.00  0.00     0.139 C 
ATOM     52  O   UNK d   0      17.565   9.999 -13.690  0.00  0.00    -0.650 OA
BRANCH  51  53
ATOM     53  O   UNK d   0      18.323  12.122 -13.524  0.00  0.00    -0.776 OA
ATOM     54  H   UNK d   0      18.793  12.492 -12.717  0.00  0.00     0.167 HD
ENDBRANCH  51  53
ENDBRANCH  50  51
ENDBRANCH  49  50
ENDBRANCH  24  49
BRANCH  21  55
ATOM     55  C   UNK d   0      12.371   9.234 -12.819  0.00  0.00     0.151 C 
BRANCH  55  56
ATOM     56  C   UNK d   0      12.364   8.220 -11.754  0.00  0.00     0.143 C 
ATOM     57  O   UNK d   0      13.369   7.959 -11.063  0.00  0.00    -0.650 OA
BRANCH  56  58
ATOM     58  O   UNK d   0      11.175   7.531 -11.521  0.00  0.00    -0.776 OA
ATOM     59  H   UNK d   0      11.245   6.501 -11.600  0.00  0.00     0.167 HD
ENDBRANCH  56  58
ENDBRANCH  55  56
ENDBRANCH  21  55
BRANCH  18  60
ATOM     60  C   UNK d   0       7.515  10.963 -11.323  0.00  0.00     0.151 C 
BRANCH  60  61
ATOM     61  C   UNK d   0       7.696  11.570 -12.650  0.00  0.00     0.143 C 
ATOM     62  O   UNK d   0       7.631  12.766 -12.935  0.00  0.00    -0.650 OA
BRANCH  61  63
ATOM     63  O   UNK d   0       7.974  10.657 -13.697  0.00  0.00    -0.776 OA
ATOM     64  H   UNK d   0       8.578   9.868 -13.550  0.00  0.00     0.167 HD
ENDBRANCH  61  63
ENDBRANCH  60  61
ENDBRANCH  18  60
BRANCH  14  65
ATOM     65  C   UNK d   0       6.212  12.968  -9.455  0.00  0.00     0.052 C 
BRANCH  65  66
ATOM     66  C   UNK d   0       5.721  14.138 -10.233  0.00  0.00     0.115 C 
BRANCH  66  67
ATOM     67  C   UNK d   0       4.717  13.950 -11.241  0.00  0.00     0.139 C 
ATOM     68  O   UNK d   0       3.480  13.996 -10.892  0.00  0.00    -0.650 OA
BRANCH  67  69
ATOM     69  O   UNK d   0       4.908  13.716 -12.603  0.00  0.00    -0.776 OA
ATOM     70  H   UNK d   0       4.852  14.544 -13.212  0.00  0.00     0.167 HD
ENDBRANCH  67  69
ENDBRANCH  66  67
ENDBRANCH  65  66
ENDBRANCH  14  65
ENDBRANCH   6   7
ENDBRANCH   5   6
ENDBRANCH   2   5
TORSDOF 28
ENDMDL
MODEL 8
REMARK VINA RESULT:      -6.5     21.275     25.601
REMARK  28 active torsions:
REMARK  status: ('A' for Active; 'I' for Inactive)
REMARK    1  A    between atoms: C_2  and  O_3 
REMARK    2  A    between atoms: C_2  and  C_4 
REMARK    3  A    between atoms: C_4  and  C_5 
REMARK    4  A    between atoms: C_5  and  C_6 
REMARK    5  A    between atoms: C_7  and  C_8 
REMARK    6  A    between atoms: C_8  and  C_9 
REMARK    7  A    between atoms: C_9  and  O_11 
REMARK    8  A    between atoms: C_28  and  C_29 
REMARK    9  A    between atoms: C_29  and  C_30 
REMARK   10  A    between atoms: C_30  and  O_32 
REMARK   11  A    between atoms: C_33  and  C_34 
REMARK   12  A    between atoms: C_34  and  C_35 
REMARK   13  A    between atoms: C_35  and  C_36 
REMARK   14  A    between atoms: C_36  and  O_38 
REMARK   15  A    between atoms: C_39  and  C_40 
REMARK   16  A    between atoms: C_40  and  C_41 
REMARK   17  A    between atoms: C_41  and  C_42 
REMARK   18  A    between atoms: C_42  and  O_44 
REMARK   19  A    between atoms: C_45  and  C_46 
REMARK   20  A    between atoms: C_46  and  C_47 
REMARK   21  A    between atoms: C_47  and  O_49 
REMARK   22  A    between atoms: C_50  and  C_51 
REMARK   23  A    between atoms: C_51  and  C_52 
REMARK   24  A    between atoms: C_52  and  O_54 
REMARK   25  A    between atoms: C_55  and  C_56 
REMARK   26  A    between atoms: C_56  and  C_57 
REMARK   27  A    between atoms: C_57  and  C_58 
REMARK   28  A    between atoms: C_58  and  O_60 
ROOT
ATOM      1  O   UNK d   0      13.249  20.116  -6.664  0.00  0.00    -0.650 OA
ATOM      2  C   UNK d   0      12.904  18.975  -6.285  0.00  0.00     0.139 C 
ENDROOT
BRANCH   2   3
ATOM      3  O   UNK d   0      13.850  17.984  -6.186  0.00  0.00    -0.776 OA
ATOM      4  H   UNK d   0      14.033  17.516  -5.296  0.00  0.00     0.167 HD
ENDBRANCH   2   3
BRANCH   2   5
ATOM      5  C   UNK d   0      11.479  18.698  -5.946  0.00  0.00     0.115 C 
BRANCH   5   6
ATOM      6  C   UNK d   0      10.634  18.740  -7.190  0.00  0.00     0.052 C 
BRANCH   6   7
ATOM      7  C   UNK d   0      10.180  17.370  -7.632  0.00  0.00    -0.020 A 
ATOM      8  C   UNK d   0       9.065  16.759  -7.321  0.00  0.00    -0.011 A 
ATOM      9  C   UNK d   0       9.073  15.460  -7.971  0.00  0.00     0.067 A 
ATOM     10  C   UNK d   0       8.198  14.366  -8.059  0.00  0.00     0.062 C 
ATOM     11  N   UNK d   0      10.233  15.360  -8.653  0.00  0.00    -0.248 NA
ATOM     12  C   UNK d   0       8.257  13.304  -8.967  0.00  0.00     0.041 A 
ATOM     13  N   UNK d   0       9.299  12.577  -9.414  0.00  0.00    -0.355 N 
ATOM     14  C   UNK d   0       7.077  12.894  -9.614  0.00  0.00    -0.022 A 
ATOM     15  C   UNK d   0       8.811  11.722 -10.333  0.00  0.00     0.042 A 
ATOM     16  H   UNK d   0      10.355  12.653  -9.073  0.00  0.00     0.166 HD
ATOM     17  C   UNK d   0       9.464  10.742 -11.107  0.00  0.00     0.062 C 
ATOM     18  C   UNK d   0       7.422  11.892 -10.486  0.00  0.00    -0.013 A 
ATOM     19  C   UNK d   0      10.648  10.832 -11.793  0.00  0.00     0.067 A 
ATOM     20  N   UNK d   0      11.402  11.910 -11.559  0.00  0.00    -0.248 NA
ATOM     21  C   UNK d   0      11.347  10.028 -12.782  0.00  0.00    -0.011 A 
ATOM     22  C   UNK d   0      12.541  11.869 -12.325  0.00  0.00     0.066 A 
ATOM     23  C   UNK d   0      13.437  12.915 -12.153  0.00  0.00     0.062 C 
ATOM     24  C   UNK d   0      12.452  10.643 -13.092  0.00  0.00    -0.020 A 
ATOM     25  C   UNK d   0      13.365  13.965 -11.225  0.00  0.00     0.041 A 
ATOM     26  N   UNK d   0      12.332  14.698 -10.792  0.00  0.00    -0.355 N 
ATOM     27  C   UNK d   0      14.549  14.373 -10.573  0.00  0.00    -0.022 A 
ATOM     28  C   UNK d   0      12.817  15.557  -9.882  0.00  0.00     0.042 A 
ATOM     29  H   UNK d   0      11.273  14.628 -11.144  0.00  0.00     0.166 HD
ATOM     30  C   UNK d   0      12.181  16.543  -9.112  0.00  0.00     0.062 C 
ATOM     31  C   UNK d   0      14.212  15.379  -9.721  0.00  0.00    -0.013 A 
ATOM     32  C   UNK d   0      10.944  16.477  -8.490  0.00  0.00     0.066 A 
BRANCH   8  33
ATOM     33  C   UNK d   0       7.984  17.275  -6.461  0.00  0.00     0.151 C 
BRANCH  33  34
ATOM     34  C   UNK d   0       8.201  16.982  -5.033  0.00  0.00     0.143 C 
ATOM     35  O   UNK d   0       8.571  17.868  -4.250  0.00  0.00    -0.650 OA
BRANCH  34  36
ATOM     36  O   UNK d   0       7.990  15.705  -4.566  0.00  0.00    -0.776 OA
ATOM     37  H   UNK d   0       7.666  14.954  -5.191  0.00  0.00     0.167 HD
ENDBRANCH  34  36
ENDBRANCH  33  34
ENDBRANCH   8  33
BRANCH  31  38
ATOM     38  C   UNK d   0      15.153  16.119  -8.799  0.00  0.00     0.151 C 
BRANCH  38  39
ATOM     39  C   UNK d   0      15.496  17.438  -9.287  0.00  0.00     0.143 C 
ATOM     40  O   UNK d   0      15.755  18.384  -8.523  0.00  0.00    -0.650 OA
BRANCH  39  41
ATOM     41  O   UNK d   0      15.541  17.670 -10.662  0.00  0.00    -0.776 OA
ATOM     42  H   UNK d   0      16.470  17.779 -11.081  0.00  0.00     0.167 HD
ENDBRANCH  39  41
ENDBRANCH  38  39
ENDBRANCH  31  38
BRANCH  27  43
ATOM     43  C   UNK d   0      15.957  13.853 -10.730  0.00  0.00     0.052 C 
BRANCH  43  44
ATOM     44  C   UNK d   0      16.744  14.584 -11.769  0.00  0.00     0.115 C 
BRANCH  44  45
ATOM     45  C   UNK d   0      17.078  13.593 -12.824  0.00  0.00     0.139 C 
ATOM     46  O   UNK d   0      17.379  14.022 -13.965  0.00  0.00    -0.650 OA
BRANCH  45  47
ATOM     47  O   UNK d   0      17.077  12.233 -12.599  0.00  0.00    -0.776 OA
ATOM     48  H   UNK d   0      16.891  11.543 -13.345  0.00  0.00     0.167 HD
ENDBRANCH  45  47
ENDBRANCH  44  45
ENDBRANCH  43  44
ENDBRANCH  27  43
BRANCH  24  49
ATOM     49  C   UNK d   0      13.481  10.160 -14.029  0.00  0.00     0.052 C 
BRANCH  49  50
ATOM     50  C   UNK d   0      13.326  10.832 -15.369  0.00  0.00     0.115 C 
BRANCH  50  51
ATOM     51  C   UNK d   0      14.332  11.819 -15.738  0.00  0.00     0.139 C 
ATOM     52  O   UNK d   0      14.138  12.686 -16.622  0.00  0.00    -0.650 OA
BRANCH  51  53
ATOM     53  O   UNK d   0      15.563  11.815 -15.100  0.00  0.00    -0.776 OA
ATOM     54  H   UNK d   0      15.606  12.134 -14.148  0.00  0.00     0.167 HD
ENDBRANCH  51  53
ENDBRANCH  50  51
ENDBRANCH  49  50
ENDBRANCH  24  49
BRANCH  21  55
ATOM     55  C   UNK d   0      10.839   8.727 -13.310  0.00  0.00     0.151 C 
BRANCH  55  56
ATOM     56  C   UNK d   0      11.086   7.619 -12.375  0.00  0.00     0.143 C 
ATOM     57  O   UNK d   0      10.573   7.566 -11.240  0.00  0.00    -0.650 OA
BRANCH  56  58
ATOM     58  O   UNK d   0      11.930   6.592 -12.795  0.00  0.00    -0.776 OA
ATOM     59  H   UNK d   0      12.933   6.734 -12.573  0.00  0.00     0.167 HD
ENDBRANCH  56  58
ENDBRANCH  55  56
ENDBRANCH  21  55
BRANCH  18  60
ATOM     60  C   UNK d   0       6.459  11.167 -11.394  0.00  0.00     0.151 C 
BRANCH  60  61
ATOM     61  C   UNK d   0       6.714  11.683 -12.748  0.00  0.00     0.143 C 
ATOM     62  O   UNK d   0       6.563  12.840 -13.142  0.00  0.00    -0.650 OA
BRANCH  61  63
ATOM     63  O   UNK d   0       7.185  10.726 -13.678  0.00  0.00    -0.776 OA
ATOM     64  H   UNK d   0       8.131  10.752 -14.015  0.00  0.00     0.167 HD
ENDBRANCH  61  63
ENDBRANCH  60  61
ENDBRANCH  18  60
BRANCH  14  65
ATOM     65  C   UNK d   0       5.648  13.307  -9.401  0.00  0.00     0.052 C 
BRANCH  65  66
ATOM     66  C   UNK d   0       5.239  14.452 -10.258  0.00  0.00     0.115 C 
BRANCH  66  67
ATOM     67  C   UNK d   0       4.067  14.343 -11.079  0.00  0.00     0.139 C 
ATOM     68  O   UNK d   0       3.012  14.992 -10.732  0.00  0.00    -0.650 OA
BRANCH  67  69
ATOM     69  O   UNK d   0       3.910  13.599 -12.248  0.00  0.00    -0.776 OA
ATOM     70  H   UNK d   0       2.998  13.133 -12.363  0.00  0.00     0.167 HD
ENDBRANCH  67  69
ENDBRANCH  66  67
ENDBRANCH  65  66
ENDBRANCH  14  65
ENDBRANCH   6   7
ENDBRANCH   5   6
ENDBRANCH   2   5
TORSDOF 28
ENDMDL
MODEL 9
REMARK VINA RESULT:      -6.5      2.677      8.384
REMARK  28 active torsions:
REMARK  status: ('A' for Active; 'I' for Inactive)
REMARK    1  A    between atoms: C_2  and  O_3 
REMARK    2  A    between atoms: C_2  and  C_4 
REMARK    3  A    between atoms: C_4  and  C_5 
REMARK    4  A    between atoms: C_5  and  C_6 
REMARK    5  A    between atoms: C_7  and  C_8 
REMARK    6  A    between atoms: C_8  and  C_9 
REMARK    7  A    between atoms: C_9  and  O_11 
REMARK    8  A    between atoms: C_28  and  C_29 
REMARK    9  A    between atoms: C_29  and  C_30 
REMARK   10  A    between atoms: C_30  and  O_32 
REMARK   11  A    between atoms: C_33  and  C_34 
REMARK   12  A    between atoms: C_34  and  C_35 
REMARK   13  A    between atoms: C_35  and  C_36 
REMARK   14  A    between atoms: C_36  and  O_38 
REMARK   15  A    between atoms: C_39  and  C_40 
REMARK   16  A    between atoms: C_40  and  C_41 
REMARK   17  A    between atoms: C_41  and  C_42 
REMARK   18  A    between atoms: C_42  and  O_44 
REMARK   19  A    between atoms: C_45  and  C_46 
REMARK   20  A    between atoms: C_46  and  C_47 
REMARK   21  A    between atoms: C_47  and  O_49 
REMARK   22  A    between atoms: C_50  and  C_51 
REMARK   23  A    between atoms: C_51  and  C_52 
REMARK   24  A    between atoms: C_52  and  O_54 
REMARK   25  A    between atoms: C_55  and  C_56 
REMARK   26  A    between atoms: C_56  and  C_57 
REMARK   27  A    between atoms: C_57  and  C_58 
REMARK   28  A    between atoms: C_58  and  O_60 
ROOT
ATOM      1  O   UNK d   0      12.884  -8.366  -4.353  0.00  0.00    -0.650 OA
ATOM      2  C   UNK d   0      12.775  -8.198  -5.587  0.00  0.00     0.139 C 
ENDROOT
BRANCH   2   3
ATOM      3  O   UNK d   0      13.721  -7.456  -6.252  0.00  0.00    -0.776 OA
ATOM      4  H   UNK d   0      14.391  -7.899  -6.884  0.00  0.00     0.167 HD
ENDBRANCH   2   3
BRANCH   2   5
ATOM      5  C   UNK d   0      11.628  -8.799  -6.326  0.00  0.00     0.115 C 
BRANCH   5   6
ATOM      6  C   UNK d   0      11.783 -10.294  -6.395  0.00  0.00     0.052 C 
BRANCH   6   7
ATOM      7  C   UNK d   0      10.517 -10.989  -6.835  0.00  0.00    -0.020 A 
ATOM      8  C   UNK d   0       9.693 -11.689  -6.098  0.00  0.00    -0.011 A 
ATOM      9  C   UNK d   0       8.624 -12.169  -6.957  0.00  0.00     0.067 A 
ATOM     10  C   UNK d   0       7.456 -12.930  -6.792  0.00  0.00     0.062 C 
ATOM     11  N   UNK d   0       8.880 -11.719  -8.204  0.00  0.00    -0.248 NA
ATOM     12  C   UNK d   0       6.394 -13.058  -7.694  0.00  0.00     0.041 A 
ATOM     13  N   UNK d   0       6.381 -13.226  -9.030  0.00  0.00    -0.355 N 
ATOM     14  C   UNK d   0       5.076 -12.950  -7.213  0.00  0.00    -0.022 A 
ATOM     15  C   UNK d   0       5.089 -13.220  -9.410  0.00  0.00     0.042 A 
ATOM     16  H   UNK d   0       7.266 -13.365  -9.689  0.00  0.00     0.166 HD
ATOM     17  C   UNK d   0       4.512 -13.359 -10.688  0.00  0.00     0.062 C 
ATOM     18  C   UNK d   0       4.241 -13.049  -8.298  0.00  0.00    -0.013 A 
ATOM     19  C   UNK d   0       4.881 -12.768 -11.870  0.00  0.00     0.067 A 
ATOM     20  N   UNK d   0       6.052 -12.126 -11.885  0.00  0.00    -0.248 NA
ATOM     21  C   UNK d   0       4.300 -12.629 -13.194  0.00  0.00    -0.011 A 
ATOM     22  C   UNK d   0       6.278 -11.576 -13.123  0.00  0.00     0.066 A 
ATOM     23  C   UNK d   0       7.482 -10.909 -13.291  0.00  0.00     0.062 C 
ATOM     24  C   UNK d   0       5.120 -11.927 -13.922  0.00  0.00    -0.020 A 
ATOM     25  C   UNK d   0       8.542 -10.803 -12.376  0.00  0.00     0.041 A 
ATOM     26  N   UNK d   0       8.555 -10.621 -11.051  0.00  0.00    -0.355 N 
ATOM     27  C   UNK d   0       9.864 -10.915 -12.859  0.00  0.00    -0.022 A 
ATOM     28  C   UNK d   0       9.843 -10.617 -10.670  0.00  0.00     0.042 A 
ATOM     29  H   UNK d   0       7.665 -10.470 -10.391  0.00  0.00     0.166 HD
ATOM     30  C   UNK d   0      10.431 -10.471  -9.404  0.00  0.00     0.062 C 
ATOM     31  C   UNK d   0      10.693 -10.799 -11.787  0.00  0.00    -0.013 A 
ATOM     32  C   UNK d   0      10.004 -11.002  -8.197  0.00  0.00     0.066 A 
BRANCH   8  33
ATOM     33  C   UNK d   0       9.812 -11.961  -4.653  0.00  0.00     0.151 C 
BRANCH  33  34
ATOM     34  C   UNK d   0       9.722 -10.739  -3.834  0.00  0.00     0.143 C 
ATOM     35  O   UNK d   0      10.591 -10.473  -2.990  0.00  0.00    -0.650 OA
BRANCH  34  36
ATOM     36  O   UNK d   0       8.658  -9.885  -4.009  0.00  0.00    -0.776 OA
ATOM     37  H   UNK d   0       8.047  -9.955  -4.833  0.00  0.00     0.167 HD
ENDBRANCH  34  36
ENDBRANCH  33  34
ENDBRANCH   8  33
BRANCH  31  38
ATOM     38  C   UNK d   0      12.202 -10.871 -11.815  0.00  0.00     0.151 C 
BRANCH  38  39
ATOM     39  C   UNK d   0      12.816  -9.624 -12.222  0.00  0.00     0.143 C 
ATOM     40  O   UNK d   0      14.046  -9.500 -12.352  0.00  0.00    -0.650 OA
BRANCH  39  41
ATOM     41  O   UNK d   0      12.010  -8.516 -12.480  0.00  0.00    -0.776 OA
ATOM     42  H   UNK d   0      11.895  -8.248 -13.463  0.00  0.00     0.167 HD
ENDBRANCH  39  41
ENDBRANCH  38  39
ENDBRANCH  31  38
BRANCH  27  43
ATOM     43  C   UNK d   0      10.354 -11.121 -14.271  0.00  0.00     0.052 C 
BRANCH  43  44
ATOM     44  C   UNK d   0      10.573 -12.558 -14.617  0.00  0.00     0.115 C 
BRANCH  44  45
ATOM     45  C   UNK d   0      12.024 -12.712 -14.895  0.00  0.00     0.139 C 
ATOM     46  O   UNK d   0      12.673 -13.542 -14.212  0.00  0.00    -0.650 OA
BRANCH  45  47
ATOM     47  O   UNK d   0      12.679 -11.990 -15.870  0.00  0.00    -0.776 OA
ATOM     48  H   UNK d   0      12.455 -11.004 -16.082  0.00  0.00     0.167 HD
ENDBRANCH  45  47
ENDBRANCH  44  45
ENDBRANCH  43  44
ENDBRANCH  27  43
BRANCH  24  49
ATOM     49  C   UNK d   0       4.941 -11.580 -15.342  0.00  0.00     0.052 C 
BRANCH  49  50
ATOM     50  C   UNK d   0       4.615 -10.115 -15.487  0.00  0.00     0.115 C 
BRANCH  50  51
ATOM     51  C   UNK d   0       4.093  -9.675 -16.773  0.00  0.00     0.139 C 
ATOM     52  O   UNK d   0       3.672 -10.474 -17.642  0.00  0.00    -0.650 OA
BRANCH  51  53
ATOM     53  O   UNK d   0       4.052  -8.321 -17.070  0.00  0.00    -0.776 OA
ATOM     54  H   UNK d   0       4.395  -8.020 -17.965  0.00  0.00     0.167 HD
ENDBRANCH  51  53
ENDBRANCH  50  51
ENDBRANCH  49  50
ENDBRANCH  24  49
BRANCH  21  55
ATOM     55  C   UNK d   0       2.987 -13.216 -13.596  0.00  0.00     0.151 C 
BRANCH  55  56
ATOM     56  C   UNK d   0       1.866 -12.621 -12.853  0.00  0.00     0.143 C 
ATOM     57  O   UNK d   0       0.903 -13.292 -12.432  0.00  0.00    -0.650 OA
BRANCH  56  58
ATOM     58  O   UNK d   0       1.900 -11.248 -12.618  0.00  0.00    -0.776 OA
ATOM     59  H   UNK d   0       2.657 -10.739 -13.109  0.00  0.00     0.167 HD
ENDBRANCH  56  58
ENDBRANCH  55  56
ENDBRANCH  21  55
BRANCH  18  60
ATOM     60  C   UNK d   0       2.736 -12.978  -8.240  0.00  0.00     0.151 C 
BRANCH  60  61
ATOM     61  C   UNK d   0       2.366 -11.715  -8.898  0.00  0.00     0.143 C 
ATOM     62  O   UNK d   0       1.441 -11.535  -9.691  0.00  0.00    -0.650 OA
BRANCH  61  63
ATOM     63  O   UNK d   0       3.175 -10.603  -8.565  0.00  0.00    -0.776 OA
ATOM     64  H   UNK d   0       3.208 -10.248  -7.626  0.00  0.00     0.167 HD
ENDBRANCH  61  63
ENDBRANCH  60  61
ENDBRANCH  18  60
BRANCH  14  65
ATOM     65  C   UNK d   0       4.549 -12.861  -5.809  0.00  0.00     0.052 C 
BRANCH  65  66
ATOM     66  C   UNK d   0       4.180 -11.476  -5.413  0.00  0.00     0.115 C 
BRANCH  66  67
ATOM     67  C   UNK d   0       5.124 -10.409  -5.593  0.00  0.00     0.139 C 
ATOM     68  O   UNK d   0       5.976 -10.179  -4.658  0.00  0.00    -0.650 OA
BRANCH  67  69
ATOM     69  O   UNK d   0       5.247  -9.554  -6.688  0.00  0.00    -0.776 OA
ATOM     70  H   UNK d   0       4.495  -8.859  -6.800  0.00  0.00     0.167 HD
ENDBRANCH  67  69
ENDBRANCH  66  67
ENDBRANCH  65  66
ENDBRANCH  14  65
ENDBRANCH   6   7
ENDBRANCH   5   6
ENDBRANCH   2   5
TORSDOF 28
ENDMDL
MODEL 10
REMARK VINA RESULT:      -6.5     16.612     20.439
REMARK  28 active torsions:
REMARK  status: ('A' for Active; 'I' for Inactive)
REMARK    1  A    between atoms: C_2  and  O_3 
REMARK    2  A    between atoms: C_2  and  C_4 
REMARK    3  A    between atoms: C_4  and  C_5 
REMARK    4  A    between atoms: C_5  and  C_6 
REMARK    5  A    between atoms: C_7  and  C_8 
REMARK    6  A    between atoms: C_8  and  C_9 
REMARK    7  A    between atoms: C_9  and  O_11 
REMARK    8  A    between atoms: C_28  and  C_29 
REMARK    9  A    between atoms: C_29  and  C_30 
REMARK   10  A    between atoms: C_30  and  O_32 
REMARK   11  A    between atoms: C_33  and  C_34 
REMARK   12  A    between atoms: C_34  and  C_35 
REMARK   13  A    between atoms: C_35  and  C_36 
REMARK   14  A    between atoms: C_36  and  O_38 
REMARK   15  A    between atoms: C_39  and  C_40 
REMARK   16  A    between atoms: C_40  and  C_41 
REMARK   17  A    between atoms: C_41  and  C_42 
REMARK   18  A    between atoms: C_42  and  O_44 
REMARK   19  A    between atoms: C_45  and  C_46 
REMARK   20  A    between atoms: C_46  and  C_47 
REMARK   21  A    between atoms: C_47  and  O_49 
REMARK   22  A    between atoms: C_50  and  C_51 
REMARK   23  A    between atoms: C_51  and  C_52 
REMARK   24  A    between atoms: C_52  and  O_54 
REMARK   25  A    between atoms: C_55  and  C_56 
REMARK   26  A    between atoms: C_56  and  C_57 
REMARK   27  A    between atoms: C_57  and  C_58 
REMARK   28  A    between atoms: C_58  and  O_60 
ROOT
ATOM      1  O   UNK d   0      14.414   5.936 -23.906  0.00  0.00    -0.650 OA
ATOM      2  C   UNK d   0      13.653   6.845 -23.505  0.00  0.00     0.139 C 
ENDROOT
BRANCH   2   3
ATOM      3  O   UNK d   0      14.195   8.016 -23.032  0.00  0.00    -0.776 OA
ATOM      4  H   UNK d   0      14.036   8.319 -22.069  0.00  0.00     0.167 HD
ENDBRANCH   2   3
BRANCH   2   5
ATOM      5  C   UNK d   0      12.176   6.655 -23.542  0.00  0.00     0.115 C 
BRANCH   5   6
ATOM      6  C   UNK d   0      11.788   5.454 -22.723  0.00  0.00     0.052 C 
BRANCH   6   7
ATOM      7  C   UNK d   0      10.733   5.771 -21.690  0.00  0.00    -0.020 A 
ATOM      8  C   UNK d   0       9.499   5.337 -21.649  0.00  0.00    -0.011 A 
ATOM      9  C   UNK d   0       8.862   5.917 -20.479  0.00  0.00     0.067 A 
ATOM     10  C   UNK d   0       7.598   5.842 -19.872  0.00  0.00     0.062 C 
ATOM     11  N   UNK d   0       9.779   6.697 -19.868  0.00  0.00    -0.248 NA
ATOM     12  C   UNK d   0       7.252   6.259 -18.582  0.00  0.00     0.041 A 
ATOM     13  N   UNK d   0       7.579   7.367 -17.891  0.00  0.00    -0.355 N 
ATOM     14  C   UNK d   0       6.472   5.407 -17.779  0.00  0.00    -0.022 A 
ATOM     15  C   UNK d   0       7.033   7.237 -16.667  0.00  0.00     0.042 A 
ATOM     16  H   UNK d   0       8.167   8.233 -18.267  0.00  0.00     0.166 HD
ATOM     17  C   UNK d   0       7.065   8.103 -15.556  0.00  0.00     0.062 C 
ATOM     18  C   UNK d   0       6.332   6.021 -16.559  0.00  0.00    -0.013 A 
ATOM     19  C   UNK d   0       8.129   8.791 -15.029  0.00  0.00     0.067 A 
ATOM     20  N   UNK d   0       9.250   8.820 -15.754  0.00  0.00    -0.248 NA
ATOM     21  C   UNK d   0       8.390   9.535 -13.808  0.00  0.00    -0.011 A 
ATOM     22  C   UNK d   0      10.225   9.527 -15.095  0.00  0.00     0.066 A 
ATOM     23  C   UNK d   0      11.437   9.668 -15.756  0.00  0.00     0.062 C 
ATOM     24  C   UNK d   0       9.620   9.960 -13.851  0.00  0.00    -0.020 A 
ATOM     25  C   UNK d   0      11.760   9.253 -17.057  0.00  0.00     0.041 A 
ATOM     26  N   UNK d   0      11.448   8.145 -17.739  0.00  0.00    -0.355 N 
ATOM     27  C   UNK d   0      12.540  10.111 -17.865  0.00  0.00    -0.022 A 
ATOM     28  C   UNK d   0      11.998   8.268 -18.957  0.00  0.00     0.042 A 
ATOM     29  H   UNK d   0      10.866   7.271 -17.356  0.00  0.00     0.166 HD
ATOM     30  C   UNK d   0      11.982   7.410 -20.068  0.00  0.00     0.062 C 
ATOM     31  C   UNK d   0      12.694   9.495 -19.069  0.00  0.00    -0.013 A 
ATOM     32  C   UNK d   0      10.926   6.651 -20.547  0.00  0.00     0.066 A 
BRANCH   8  33
ATOM     33  C   UNK d   0       8.849   4.427 -22.610  0.00  0.00     0.151 C 
BRANCH  33  34
ATOM     34  C   UNK d   0       8.246   5.138 -23.752  0.00  0.00     0.143 C 
ATOM     35  O   UNK d   0       8.819   5.181 -24.850  0.00  0.00    -0.650 OA
BRANCH  34  36
ATOM     36  O   UNK d   0       7.031   5.764 -23.592  0.00  0.00    -0.776 OA
ATOM     37  H   UNK d   0       6.942   6.786 -23.675  0.00  0.00     0.167 HD
ENDBRANCH  34  36
ENDBRANCH  33  34
ENDBRANCH   8  33
BRANCH  31  38
ATOM     38  C   UNK d   0      13.446  10.043 -20.260  0.00  0.00     0.151 C 
BRANCH  38  39
ATOM     39  C   UNK d   0      12.575  10.659 -21.238  0.00  0.00     0.143 C 
ATOM     40  O   UNK d   0      12.145  10.043 -22.228  0.00  0.00    -0.650 OA
BRANCH  39  41
ATOM     41  O   UNK d   0      12.196  11.992 -21.077  0.00  0.00    -0.776 OA
ATOM     42  H   UNK d   0      11.616  12.400 -21.816  0.00  0.00     0.167 HD
ENDBRANCH  39  41
ENDBRANCH  38  39
ENDBRANCH  31  38
BRANCH  27  43
ATOM     43  C   UNK d   0      13.130  11.460 -17.539  0.00  0.00     0.052 C 
BRANCH  43  44
ATOM     44  C   UNK d   0      12.158  12.584 -17.698  0.00  0.00     0.115 C 
BRANCH  44  45
ATOM     45  C   UNK d   0      12.941  13.761 -18.154  0.00  0.00     0.139 C 
ATOM     46  O   UNK d   0      12.886  14.075 -19.369  0.00  0.00    -0.650 OA
BRANCH  45  47
ATOM     47  O   UNK d   0      13.715  14.519 -17.302  0.00  0.00    -0.776 OA
ATOM     48  H   UNK d   0      13.799  14.317 -16.292  0.00  0.00     0.167 HD
ENDBRANCH  45  47
ENDBRANCH  44  45
ENDBRANCH  43  44
ENDBRANCH  27  43
BRANCH  24  49
ATOM     49  C   UNK d   0      10.288  10.789 -12.834  0.00  0.00     0.052 C 
BRANCH  49  50
ATOM     50  C   UNK d   0      11.387  10.008 -12.160  0.00  0.00     0.115 C 
BRANCH  50  51
ATOM     51  C   UNK d   0      11.523  10.162 -10.718  0.00  0.00     0.139 C 
ATOM     52  O   UNK d   0      12.367  10.929 -10.196  0.00  0.00    -0.650 OA
BRANCH  51  53
ATOM     53  O   UNK d   0      10.699   9.439  -9.869  0.00  0.00    -0.776 OA
ATOM     54  H   UNK d   0      10.296   9.913  -9.080  0.00  0.00     0.167 HD
ENDBRANCH  51  53
ENDBRANCH  50  51
ENDBRANCH  49  50
ENDBRANCH  24  49
BRANCH  21  55
ATOM     55  C   UNK d   0       7.382   9.748 -12.728  0.00  0.00     0.151 C 
BRANCH  55  56
ATOM     56  C   UNK d   0       7.864   9.273 -11.422  0.00  0.00     0.143 C 
ATOM     57  O   UNK d   0       8.367   8.144 -11.258  0.00  0.00    -0.650 OA
BRANCH  56  58
ATOM     58  O   UNK d   0       7.745  10.135 -10.333  0.00  0.00    -0.776 OA
ATOM     59  H   UNK d   0       7.737   9.670  -9.407  0.00  0.00     0.167 HD
ENDBRANCH  56  58
ENDBRANCH  55  56
ENDBRANCH  21  55
BRANCH  18  60
ATOM     60  C   UNK d   0       5.572   5.451 -15.387  0.00  0.00     0.151 C 
BRANCH  60  61
ATOM     61  C   UNK d   0       4.152   5.729 -15.652  0.00  0.00     0.143 C 
ATOM     62  O   UNK d   0       3.642   6.824 -15.890  0.00  0.00    -0.650 OA
BRANCH  61  63
ATOM     63  O   UNK d   0       3.301   4.598 -15.625  0.00  0.00    -0.776 OA
ATOM     64  H   UNK d   0       3.480   3.829 -15.004  0.00  0.00     0.167 HD
ENDBRANCH  61  63
ENDBRANCH  60  61
ENDBRANCH  18  60
BRANCH  14  65
ATOM     65  C   UNK d   0       5.774   4.117 -18.105  0.00  0.00     0.052 C 
BRANCH  65  66
ATOM     66  C   UNK d   0       6.388   2.939 -17.437  0.00  0.00     0.115 C 
BRANCH  66  67
ATOM     67  C   UNK d   0       5.555   1.853 -17.003  0.00  0.00     0.139 C 
ATOM     68  O   UNK d   0       4.854   2.005 -15.936  0.00  0.00    -0.650 OA
BRANCH  67  69
ATOM     69  O   UNK d   0       5.397   0.605 -17.607  0.00  0.00    -0.776 OA
ATOM     70  H   UNK d   0       5.422   0.599 -18.636  0.00  0.00     0.167 HD
ENDBRANCH  67  69
ENDBRANCH  66  67
ENDBRANCH  65  66
ENDBRANCH  14  65
ENDBRANCH   6   7
ENDBRANCH   5   6
ENDBRANCH   2   5
TORSDOF 28
ENDMDL
MODEL 11
REMARK VINA RESULT:      -6.5     21.648     26.475
REMARK  28 active torsions:
REMARK  status: ('A' for Active; 'I' for Inactive)
REMARK    1  A    between atoms: C_2  and  O_3 
REMARK    2  A    between atoms: C_2  and  C_4 
REMARK    3  A    between atoms: C_4  and  C_5 
REMARK    4  A    between atoms: C_5  and  C_6 
REMARK    5  A    between atoms: C_7  and  C_8 
REMARK    6  A    between atoms: C_8  and  C_9 
REMARK    7  A    between atoms: C_9  and  O_11 
REMARK    8  A    between atoms: C_28  and  C_29 
REMARK    9  A    between atoms: C_29  and  C_30 
REMARK   10  A    between atoms: C_30  and  O_32 
REMARK   11  A    between atoms: C_33  and  C_34 
REMARK   12  A    between atoms: C_34  and  C_35 
REMARK   13  A    between atoms: C_35  and  C_36 
REMARK   14  A    between atoms: C_36  and  O_38 
REMARK   15  A    between atoms: C_39  and  C_40 
REMARK   16  A    between atoms: C_40  and  C_41 
REMARK   17  A    between atoms: C_41  and  C_42 
REMARK   18  A    between atoms: C_42  and  O_44 
REMARK   19  A    between atoms: C_45  and  C_46 
REMARK   20  A    between atoms: C_46  and  C_47 
REMARK   21  A    between atoms: C_47  and  O_49 
REMARK   22  A    between atoms: C_50  and  C_51 
REMARK   23  A    between atoms: C_51  and  C_52 
REMARK   24  A    between atoms: C_52  and  O_54 
REMARK   25  A    between atoms: C_55  and  C_56 
REMARK   26  A    between atoms: C_56  and  C_57 
REMARK   27  A    between atoms: C_57  and  C_58 
REMARK   28  A    between atoms: C_58  and  O_60 
ROOT
ATOM      1  O   UNK d   0       7.887  19.303  -4.620  0.00  0.00    -0.650 OA
ATOM      2  C   UNK d   0       8.146  18.086  -4.750  0.00  0.00     0.139 C 
ENDROOT
BRANCH   2   3
ATOM      3  O   UNK d   0       9.132  17.520  -3.979  0.00  0.00    -0.776 OA
ATOM      4  H   UNK d   0       9.288  17.824  -3.016  0.00  0.00     0.167 HD
ENDBRANCH   2   3
BRANCH   2   5
ATOM      5  C   UNK d   0       7.389  17.261  -5.735  0.00  0.00     0.115 C 
BRANCH   5   6
ATOM      6  C   UNK d   0       7.397  17.928  -7.083  0.00  0.00     0.052 C 
BRANCH   6   7
ATOM      7  C   UNK d   0       8.583  17.523  -7.925  0.00  0.00    -0.020 A 
ATOM      8  C   UNK d   0       9.584  18.274  -8.309  0.00  0.00    -0.011 A 
ATOM      9  C   UNK d   0      10.477  17.451  -9.107  0.00  0.00     0.067 A 
ATOM     10  C   UNK d   0      11.698  17.635  -9.775  0.00  0.00     0.062 C 
ATOM     11  N   UNK d   0       9.940  16.214  -9.163  0.00  0.00    -0.248 NA
ATOM     12  C   UNK d   0      12.554  16.643 -10.264  0.00  0.00     0.041 A 
ATOM     13  N   UNK d   0      12.298  15.502 -10.932  0.00  0.00    -0.355 N 
ATOM     14  C   UNK d   0      13.934  16.750 -10.013  0.00  0.00    -0.022 A 
ATOM     15  C   UNK d   0      13.479  14.878 -11.104  0.00  0.00     0.042 A 
ATOM     16  H   UNK d   0      11.305  15.153 -11.292  0.00  0.00     0.166 HD
ATOM     17  C   UNK d   0      13.783  13.656 -11.737  0.00  0.00     0.062 C 
ATOM     18  C   UNK d   0      14.528  15.630 -10.541  0.00  0.00    -0.013 A 
ATOM     19  C   UNK d   0      13.140  12.449 -11.635  0.00  0.00     0.067 A 
ATOM     20  N   UNK d   0      11.955  12.445 -11.020  0.00  0.00    -0.248 NA
ATOM     21  C   UNK d   0      13.422  11.079 -12.029  0.00  0.00    -0.011 A 
ATOM     22  C   UNK d   0      11.442  11.172 -10.981  0.00  0.00     0.066 A 
ATOM     23  C   UNK d   0      10.191  11.028 -10.400  0.00  0.00     0.062 C 
ATOM     24  C   UNK d   0      12.427  10.336 -11.640  0.00  0.00    -0.020 A 
ATOM     25  C   UNK d   0       9.342  12.040  -9.926  0.00  0.00     0.041 A 
ATOM     26  N   UNK d   0       9.594  13.166  -9.249  0.00  0.00    -0.355 N 
ATOM     27  C   UNK d   0       7.957  11.934 -10.183  0.00  0.00    -0.022 A 
ATOM     28  C   UNK d   0       8.417  13.786  -9.069  0.00  0.00     0.042 A 
ATOM     29  H   UNK d   0      10.592  13.510  -8.879  0.00  0.00     0.166 HD
ATOM     30  C   UNK d   0       8.099  14.996  -8.433  0.00  0.00     0.062 C 
ATOM     31  C   UNK d   0       7.365  13.034  -9.644  0.00  0.00    -0.013 A 
ATOM     32  C   UNK d   0       8.800  16.191  -8.471  0.00  0.00     0.066 A 
BRANCH   8  33
ATOM     33  C   UNK d   0       9.787  19.702  -8.003  0.00  0.00     0.151 C 
BRANCH  33  34
ATOM     34  C   UNK d   0      10.880  19.929  -7.041  0.00  0.00     0.143 C 
ATOM     35  O   UNK d   0      11.875  20.599  -7.354  0.00  0.00    -0.650 OA
BRANCH  34  36
ATOM     36  O   UNK d   0      10.793  19.389  -5.779  0.00  0.00    -0.776 OA
ATOM     37  H   UNK d   0      11.436  19.677  -5.028  0.00  0.00     0.167 HD
ENDBRANCH  34  36
ENDBRANCH  33  34
ENDBRANCH   8  33
BRANCH  31  38
ATOM     38  C   UNK d   0       5.891  13.363  -9.684  0.00  0.00     0.151 C 
BRANCH  38  39
ATOM     39  C   UNK d   0       5.483  13.964 -10.936  0.00  0.00     0.143 C 
ATOM     40  O   UNK d   0       6.191  14.789 -11.539  0.00  0.00    -0.650 OA
BRANCH  39  41
ATOM     41  O   UNK d   0       4.255  13.615 -11.497  0.00  0.00    -0.776 OA
ATOM     42  H   UNK d   0       3.650  14.385 -11.799  0.00  0.00     0.167 HD
ENDBRANCH  39  41
ENDBRANCH  38  39
ENDBRANCH  31  38
BRANCH  27  43
ATOM     43  C   UNK d   0       7.196  10.848 -10.902  0.00  0.00     0.052 C 
BRANCH  43  44
ATOM     44  C   UNK d   0       7.365  10.893 -12.386  0.00  0.00     0.115 C 
BRANCH  44  45
ATOM     45  C   UNK d   0       6.005  11.064 -12.962  0.00  0.00     0.139 C 
ATOM     46  O   UNK d   0       5.017  10.770 -12.245  0.00  0.00    -0.650 OA
BRANCH  45  47
ATOM     47  O   UNK d   0       5.789  11.535 -14.239  0.00  0.00    -0.776 OA
ATOM     48  H   UNK d   0       5.946  12.520 -14.508  0.00  0.00     0.167 HD
ENDBRANCH  45  47
ENDBRANCH  44  45
ENDBRANCH  43  44
ENDBRANCH  27  43
BRANCH  24  49
ATOM     49  C   UNK d   0      12.283   8.888 -11.868  0.00  0.00     0.052 C 
BRANCH  49  50
ATOM     50  C   UNK d   0      12.544   8.127 -10.593  0.00  0.00     0.115 C 
BRANCH  50  51
ATOM     51  C   UNK d   0      11.390   7.556  -9.912  0.00  0.00     0.139 C 
ATOM     52  O   UNK d   0      11.493   6.867  -8.870  0.00  0.00    -0.650 OA
BRANCH  51  53
ATOM     53  O   UNK d   0      10.118   7.769 -10.420  0.00  0.00    -0.776 OA
ATOM     54  H   UNK d   0       9.885   8.690 -10.747  0.00  0.00     0.167 HD
ENDBRANCH  51  53
ENDBRANCH  50  51
ENDBRANCH  49  50
ENDBRANCH  24  49
BRANCH  21  55
ATOM     55  C   UNK d   0      14.655  10.656 -12.757  0.00  0.00     0.151 C 
BRANCH  55  56
ATOM     56  C   UNK d   0      15.775  10.395 -11.840  0.00  0.00     0.143 C 
ATOM     57  O   UNK d   0      15.668  10.483 -10.601  0.00  0.00    -0.650 OA
BRANCH  56  58
ATOM     58  O   UNK d   0      17.000  10.034 -12.398  0.00  0.00    -0.776 OA
ATOM     59  H   UNK d   0      17.011   9.110 -12.867  0.00  0.00     0.167 HD
ENDBRANCH  56  58
ENDBRANCH  55  56
ENDBRANCH  21  55
BRANCH  18  60
ATOM     60  C   UNK d   0      16.006  15.330 -10.489  0.00  0.00     0.151 C 
BRANCH  60  61
ATOM     61  C   UNK d   0      16.208  14.506  -9.287  0.00  0.00     0.143 C 
ATOM     62  O   UNK d   0      16.255  14.895  -8.120  0.00  0.00    -0.650 OA
BRANCH  61  63
ATOM     63  O   UNK d   0      16.363  13.119  -9.527  0.00  0.00    -0.776 OA
ATOM     64  H   UNK d   0      15.617  12.474  -9.335  0.00  0.00     0.167 HD
ENDBRANCH  61  63
ENDBRANCH  60  61
ENDBRANCH  18  60
BRANCH  14  65
ATOM     65  C   UNK d   0      14.737  17.865  -9.405  0.00  0.00     0.052 C 
BRANCH  65  66
ATOM     66  C   UNK d   0      14.456  18.062  -7.958  0.00  0.00     0.115 C 
BRANCH  66  67
ATOM     67  C   UNK d   0      15.017  19.191  -7.272  0.00  0.00     0.139 C 
ATOM     68  O   UNK d   0      16.190  19.594  -7.610  0.00  0.00    -0.650 OA
BRANCH  67  69
ATOM     69  O   UNK d   0      14.440  19.940  -6.246  0.00  0.00    -0.776 OA
ATOM     70  H   UNK d   0      14.876  19.839  -5.318  0.00  0.00     0.167 HD
ENDBRANCH  67  69
ENDBRANCH  66  67
ENDBRANCH  65  66
ENDBRANCH  14  65
ENDBRANCH   6   7
ENDBRANCH   5   6
ENDBRANCH   2   5
TORSDOF 28
ENDMDL
MODEL 12
REMARK VINA RESULT:      -6.4      2.888      3.616
REMARK  28 active torsions:
REMARK  status: ('A' for Active; 'I' for Inactive)
REMARK    1  A    between atoms: C_2  and  O_3 
REMARK    2  A    between atoms: C_2  and  C_4 
REMARK    3  A    between atoms: C_4  and  C_5 
REMARK    4  A    between atoms: C_5  and  C_6 
REMARK    5  A    between atoms: C_7  and  C_8 
REMARK    6  A    between atoms: C_8  and  C_9 
REMARK    7  A    between atoms: C_9  and  O_11 
REMARK    8  A    between atoms: C_28  and  C_29 
REMARK    9  A    between atoms: C_29  and  C_30 
REMARK   10  A    between atoms: C_30  and  O_32 
REMARK   11  A    between atoms: C_33  and  C_34 
REMARK   12  A    between atoms: C_34  and  C_35 
REMARK   13  A    between atoms: C_35  and  C_36 
REMARK   14  A    between atoms: C_36  and  O_38 
REMARK   15  A    between atoms: C_39  and  C_40 
REMARK   16  A    between atoms: C_40  and  C_41 
REMARK   17  A    between atoms: C_41  and  C_42 
REMARK   18  A    between atoms: C_42  and  O_44 
REMARK   19  A    between atoms: C_45  and  C_46 
REMARK   20  A    between atoms: C_46  and  C_47 
REMARK   21  A    between atoms: C_47  and  O_49 
REMARK   22  A    between atoms: C_50  and  C_51 
REMARK   23  A    between atoms: C_51  and  C_52 
REMARK   24  A    between atoms: C_52  and  O_54 
REMARK   25  A    between atoms: C_55  and  C_56 
REMARK   26  A    between atoms: C_56  and  C_57 
REMARK   27  A    between atoms: C_57  and  C_58 
REMARK   28  A    between atoms: C_58  and  O_60 
ROOT
ATOM      1  O   UNK d   0      16.085  -9.479 -11.890  0.00  0.00    -0.650 OA
ATOM      2  C   UNK d   0      15.163  -8.710 -11.539  0.00  0.00     0.139 C 
ENDROOT
BRANCH   2   3
ATOM      3  O   UNK d   0      15.462  -7.598 -10.789  0.00  0.00    -0.776 OA
ATOM      4  H   UNK d   0      14.764  -7.171 -10.176  0.00  0.00     0.167 HD
ENDBRANCH   2   3
BRANCH   2   5
ATOM      5  C   UNK d   0      13.755  -9.001 -11.932  0.00  0.00     0.115 C 
BRANCH   5   6
ATOM      6  C   UNK d   0      13.287 -10.272 -11.276  0.00  0.00     0.052 C 
BRANCH   6   7
ATOM      7  C   UNK d   0      11.787 -10.438 -11.335  0.00  0.00    -0.020 A 
ATOM      8  C   UNK d   0      11.048 -10.641 -12.395  0.00  0.00    -0.011 A 
ATOM      9  C   UNK d   0       9.664 -10.729 -11.962  0.00  0.00     0.067 A 
ATOM     10  C   UNK d   0       8.422 -10.950 -12.578  0.00  0.00     0.062 C 
ATOM     11  N   UNK d   0       9.651 -10.562 -10.623  0.00  0.00    -0.248 NA
ATOM     12  C   UNK d   0       7.213 -11.279 -11.955  0.00  0.00     0.041 A 
ATOM     13  N   UNK d   0       6.636 -10.804 -10.835  0.00  0.00    -0.355 N 
ATOM     14  C   UNK d   0       6.428 -12.313 -12.496  0.00  0.00    -0.022 A 
ATOM     15  C   UNK d   0       5.508 -11.516 -10.648  0.00  0.00     0.042 A 
ATOM     16  H   UNK d   0       7.007  -9.970 -10.200  0.00  0.00     0.166 HD
ATOM     17  C   UNK d   0       4.532 -11.431  -9.634  0.00  0.00     0.062 C 
ATOM     18  C   UNK d   0       5.344 -12.471 -11.669  0.00  0.00    -0.013 A 
ATOM     19  C   UNK d   0       4.705 -11.313  -8.279  0.00  0.00     0.067 A 
ATOM     20  N   UNK d   0       5.940 -11.045  -7.847  0.00  0.00    -0.248 NA
ATOM     21  C   UNK d   0       3.856 -11.423  -7.104  0.00  0.00    -0.011 A 
ATOM     22  C   UNK d   0       5.960 -10.972  -6.476  0.00  0.00     0.066 A 
ATOM     23  C   UNK d   0       7.180 -10.660  -5.894  0.00  0.00     0.062 C 
ATOM     24  C   UNK d   0       4.597 -11.226  -6.052  0.00  0.00    -0.020 A 
ATOM     25  C   UNK d   0       8.379 -10.320  -6.538  0.00  0.00     0.041 A 
ATOM     26  N   UNK d   0       8.961 -10.801  -7.643  0.00  0.00    -0.355 N 
ATOM     27  C   UNK d   0       9.165  -9.279  -5.996  0.00  0.00    -0.022 A 
ATOM     28  C   UNK d   0      10.090 -10.099  -7.827  0.00  0.00     0.042 A 
ATOM     29  H   UNK d   0       8.592 -11.647  -8.274  0.00  0.00     0.166 HD
ATOM     30  C   UNK d   0      11.074 -10.179  -8.825  0.00  0.00     0.062 C 
ATOM     31  C   UNK d   0      10.249  -9.132  -6.806  0.00  0.00    -0.013 A 
ATOM     32  C   UNK d   0      10.898 -10.384 -10.184  0.00  0.00     0.066 A 
BRANCH   8  33
ATOM     33  C   UNK d   0      11.514 -10.758 -13.790  0.00  0.00     0.151 C 
BRANCH  33  34
ATOM     34  C   UNK d   0      11.029  -9.661 -14.647  0.00  0.00     0.143 C 
ATOM     35  O   UNK d   0      11.381  -8.490 -14.442  0.00  0.00    -0.650 OA
BRANCH  34  36
ATOM     36  O   UNK d   0      10.172  -9.943 -15.686  0.00  0.00    -0.776 OA
ATOM     37  H   UNK d   0      10.114  -9.332 -16.511  0.00  0.00     0.167 HD
ENDBRANCH  34  36
ENDBRANCH  33  34
ENDBRANCH   8  33
BRANCH  31  38
ATOM     38  C   UNK d   0      11.363  -8.127  -6.631  0.00  0.00     0.151 C 
BRANCH  38  39
ATOM     39  C   UNK d   0      12.534  -8.692  -5.994  0.00  0.00     0.143 C 
ATOM     40  O   UNK d   0      12.469  -9.668  -5.227  0.00  0.00    -0.650 OA
BRANCH  39  41
ATOM     41  O   UNK d   0      13.787  -8.131  -6.241  0.00  0.00    -0.776 OA
ATOM     42  H   UNK d   0      14.147  -7.478  -5.539  0.00  0.00     0.167 HD
ENDBRANCH  39  41
ENDBRANCH  38  39
ENDBRANCH  31  38
BRANCH  27  43
ATOM     43  C   UNK d   0       8.928  -8.441  -4.765  0.00  0.00     0.052 C 
BRANCH  43  44
ATOM     44  C   UNK d   0       8.273  -7.130  -5.059  0.00  0.00     0.115 C 
BRANCH  44  45
ATOM     45  C   UNK d   0       6.991  -7.117  -4.308  0.00  0.00     0.139 C 
ATOM     46  O   UNK d   0       6.848  -7.940  -3.370  0.00  0.00    -0.650 OA
BRANCH  45  47
ATOM     47  O   UNK d   0       5.966  -6.242  -4.593  0.00  0.00    -0.776 OA
ATOM     48  H   UNK d   0       5.335  -6.363  -5.403  0.00  0.00     0.167 HD
ENDBRANCH  45  47
ENDBRANCH  44  45
ENDBRANCH  43  44
ENDBRANCH  27  43
BRANCH  24  49
ATOM     49  C   UNK d   0       4.134 -11.209  -4.654  0.00  0.00     0.052 C 
BRANCH  49  50
ATOM     50  C   UNK d   0       3.113 -10.119  -4.453  0.00  0.00     0.115 C 
BRANCH  50  51
ATOM     51  C   UNK d   0       3.610  -8.753  -4.349  0.00  0.00     0.139 C 
ATOM     52  O   UNK d   0       3.702  -7.990  -5.339  0.00  0.00    -0.650 OA
BRANCH  51  53
ATOM     53  O   UNK d   0       4.006  -8.259  -3.115  0.00  0.00    -0.776 OA
ATOM     54  H   UNK d   0       4.576  -7.432  -3.095  0.00  0.00     0.167 HD
ENDBRANCH  51  53
ENDBRANCH  50  51
ENDBRANCH  49  50
ENDBRANCH  24  49
BRANCH  21  55
ATOM     55  C   UNK d   0       2.391 -11.708  -7.156  0.00  0.00     0.151 C 
BRANCH  55  56
ATOM     56  C   UNK d   0       2.114 -13.145  -7.298  0.00  0.00     0.143 C 
ATOM     57  O   UNK d   0       2.005 -13.912  -6.321  0.00  0.00    -0.650 OA
BRANCH  56  58
ATOM     58  O   UNK d   0       1.970 -13.654  -8.588  0.00  0.00    -0.776 OA
ATOM     59  H   UNK d   0       2.839 -13.666  -9.152  0.00  0.00     0.167 HD
ENDBRANCH  56  58
ENDBRANCH  55  56
ENDBRANCH  21  55
BRANCH  18  60
ATOM     60  C   UNK d   0       4.243 -13.483 -11.871  0.00  0.00     0.151 C 
BRANCH  60  61
ATOM     61  C   UNK d   0       4.715 -14.725 -11.239  0.00  0.00     0.143 C 
ATOM     62  O   UNK d   0       5.240 -14.841 -10.131  0.00  0.00    -0.650 OA
BRANCH  61  63
ATOM     63  O   UNK d   0       4.535 -15.899 -12.009  0.00  0.00    -0.776 OA
ATOM     64  H   UNK d   0       5.267 -16.581 -12.094  0.00  0.00     0.167 HD
ENDBRANCH  61  63
ENDBRANCH  60  61
ENDBRANCH  18  60
BRANCH  14  65
ATOM     65  C   UNK d   0       6.572 -13.086 -13.776  0.00  0.00     0.052 C 
BRANCH  65  66
ATOM     66  C   UNK d   0       7.378 -14.327 -13.618  0.00  0.00     0.115 C 
BRANCH  66  67
ATOM     67  C   UNK d   0       8.664 -14.425 -14.249  0.00  0.00     0.139 C 
ATOM     68  O   UNK d   0       8.758 -15.079 -15.352  0.00  0.00    -0.650 OA
BRANCH  67  69
ATOM     69  O   UNK d   0       9.873 -13.886 -13.810  0.00  0.00    -0.776 OA
ATOM     70  H   UNK d   0      10.723 -14.334 -14.181  0.00  0.00     0.167 HD
ENDBRANCH  67  69
ENDBRANCH  66  67
ENDBRANCH  65  66
ENDBRANCH  14  65
ENDBRANCH   6   7
ENDBRANCH   5   6
ENDBRANCH   2   5
TORSDOF 28
ENDMDL
MODEL 13
REMARK VINA RESULT:      -6.4     16.525     20.136
REMARK  28 active torsions:
REMARK  status: ('A' for Active; 'I' for Inactive)
REMARK    1  A    between atoms: C_2  and  O_3 
REMARK    2  A    between atoms: C_2  and  C_4 
REMARK    3  A    between atoms: C_4  and  C_5 
REMARK    4  A    between atoms: C_5  and  C_6 
REMARK    5  A    between atoms: C_7  and  C_8 
REMARK    6  A    between atoms: C_8  and  C_9 
REMARK    7  A    between atoms: C_9  and  O_11 
REMARK    8  A    between atoms: C_28  and  C_29 
REMARK    9  A    between atoms: C_29  and  C_30 
REMARK   10  A    between atoms: C_30  and  O_32 
REMARK   11  A    between atoms: C_33  and  C_34 
REMARK   12  A    between atoms: C_34  and  C_35 
REMARK   13  A    between atoms: C_35  and  C_36 
REMARK   14  A    between atoms: C_36  and  O_38 
REMARK   15  A    between atoms: C_39  and  C_40 
REMARK   16  A    between atoms: C_40  and  C_41 
REMARK   17  A    between atoms: C_41  and  C_42 
REMARK   18  A    between atoms: C_42  and  O_44 
REMARK   19  A    between atoms: C_45  and  C_46 
REMARK   20  A    between atoms: C_46  and  C_47 
REMARK   21  A    between atoms: C_47  and  O_49 
REMARK   22  A    between atoms: C_50  and  C_51 
REMARK   23  A    between atoms: C_51  and  C_52 
REMARK   24  A    between atoms: C_52  and  O_54 
REMARK   25  A    between atoms: C_55  and  C_56 
REMARK   26  A    between atoms: C_56  and  C_57 
REMARK   27  A    between atoms: C_57  and  C_58 
REMARK   28  A    between atoms: C_58  and  O_60 
ROOT
ATOM      1  O   UNK d   0      -1.454   0.999 -21.792  0.00  0.00    -0.650 OA
ATOM      2  C   UNK d   0      -0.442   0.269 -21.889  0.00  0.00     0.139 C 
ENDROOT
BRANCH   2   3
ATOM      3  O   UNK d   0      -0.461  -0.798 -22.754  0.00  0.00    -0.776 OA
ATOM      4  H   UNK d   0       0.198  -1.572 -22.651  0.00  0.00     0.167 HD
ENDBRANCH   2   3
BRANCH   2   5
ATOM      5  C   UNK d   0       0.769   0.559 -21.070  0.00  0.00     0.115 C 
BRANCH   5   6
ATOM      6  C   UNK d   0       1.499   1.750 -21.629  0.00  0.00     0.052 C 
BRANCH   6   7
ATOM      7  C   UNK d   0       1.752   2.816 -20.590  0.00  0.00    -0.020 A 
ATOM      8  C   UNK d   0       2.875   3.077 -19.971  0.00  0.00    -0.011 A 
ATOM      9  C   UNK d   0       2.633   4.180 -19.056  0.00  0.00     0.067 A 
ATOM     10  C   UNK d   0       3.398   4.928 -18.147  0.00  0.00     0.062 C 
ATOM     11  N   UNK d   0       1.334   4.526 -19.180  0.00  0.00    -0.248 NA
ATOM     12  C   UNK d   0       3.053   6.147 -17.552  0.00  0.00     0.041 A 
ATOM     13  N   UNK d   0       1.895   6.575 -17.015  0.00  0.00    -0.355 N 
ATOM     14  C   UNK d   0       4.008   7.179 -17.514  0.00  0.00    -0.022 A 
ATOM     15  C   UNK d   0       2.088   7.855 -16.644  0.00  0.00     0.042 A 
ATOM     16  H   UNK d   0       0.966   5.978 -16.883  0.00  0.00     0.166 HD
ATOM     17  C   UNK d   0       1.208   8.771 -16.033  0.00  0.00     0.062 C 
ATOM     18  C   UNK d   0       3.400   8.269 -16.941  0.00  0.00    -0.013 A 
ATOM     19  C   UNK d   0      -0.104   9.036 -16.330  0.00  0.00     0.067 A 
ATOM     20  N   UNK d   0      -0.715   8.197 -17.171  0.00  0.00    -0.248 NA
ATOM     21  C   UNK d   0      -1.072  10.056 -15.965  0.00  0.00    -0.011 A 
ATOM     22  C   UNK d   0      -2.012   8.596 -17.384  0.00  0.00     0.066 A 
ATOM     23  C   UNK d   0      -2.777   7.788 -18.212  0.00  0.00     0.062 C 
ATOM     24  C   UNK d   0      -2.185   9.796 -16.589  0.00  0.00    -0.020 A 
ATOM     25  C   UNK d   0      -2.417   6.561 -18.790  0.00  0.00     0.041 A 
ATOM     26  N   UNK d   0      -1.270   6.141 -19.337  0.00  0.00    -0.355 N 
ATOM     27  C   UNK d   0      -3.374   5.524 -18.824  0.00  0.00    -0.022 A 
ATOM     28  C   UNK d   0      -1.462   4.867 -19.716  0.00  0.00     0.042 A 
ATOM     29  H   UNK d   0      -0.340   6.745 -19.479  0.00  0.00     0.166 HD
ATOM     30  C   UNK d   0      -0.600   3.948 -20.333  0.00  0.00     0.062 C 
ATOM     31  C   UNK d   0      -2.778   4.448 -19.407  0.00  0.00    -0.013 A 
ATOM     32  C   UNK d   0       0.749   3.743 -20.087  0.00  0.00     0.066 A 
BRANCH   8  33
ATOM     33  C   UNK d   0       4.165   2.385 -20.148  0.00  0.00     0.151 C 
BRANCH  33  34
ATOM     34  C   UNK d   0       4.598   1.666 -18.937  0.00  0.00     0.143 C 
ATOM     35  O   UNK d   0       4.018   0.636 -18.565  0.00  0.00    -0.650 OA
BRANCH  34  36
ATOM     36  O   UNK d   0       5.661   2.149 -18.209  0.00  0.00    -0.776 OA
ATOM     37  H   UNK d   0       5.879   1.782 -17.273  0.00  0.00     0.167 HD
ENDBRANCH  34  36
ENDBRANCH  33  34
ENDBRANCH   8  33
BRANCH  31  38
ATOM     38  C   UNK d   0      -3.414   3.099 -19.647  0.00  0.00     0.151 C 
BRANCH  38  39
ATOM     39  C   UNK d   0      -3.101   2.139 -18.610  0.00  0.00     0.143 C 
ATOM     40  O   UNK d   0      -3.605   2.197 -17.475  0.00  0.00    -0.650 OA
BRANCH  39  41
ATOM     41  O   UNK d   0      -2.204   1.105 -18.880  0.00  0.00    -0.776 OA
ATOM     42  H   UNK d   0      -1.222   1.368 -19.010  0.00  0.00     0.167 HD
ENDBRANCH  39  41
ENDBRANCH  38  39
ENDBRANCH  31  38
BRANCH  27  43
ATOM     43  C   UNK d   0      -4.801   5.520 -18.335  0.00  0.00     0.052 C 
BRANCH  43  44
ATOM     44  C   UNK d   0      -4.918   5.353 -16.855  0.00  0.00     0.115 C 
BRANCH  44  45
ATOM     45  C   UNK d   0      -5.854   6.405 -16.381  0.00  0.00     0.139 C 
ATOM     46  O   UNK d   0      -6.156   6.423 -15.162  0.00  0.00    -0.650 OA
BRANCH  45  47
ATOM     47  O   UNK d   0      -6.394   7.357 -17.218  0.00  0.00    -0.776 OA
ATOM     48  H   UNK d   0      -7.381   7.340 -17.523  0.00  0.00     0.167 HD
ENDBRANCH  45  47
ENDBRANCH  44  45
ENDBRANCH  43  44
ENDBRANCH  27  43
BRANCH  24  49
ATOM     49  C   UNK d   0      -3.442  10.556 -16.476  0.00  0.00     0.052 C 
BRANCH  49  50
ATOM     50  C   UNK d   0      -4.517   9.703 -15.852  0.00  0.00     0.115 C 
BRANCH  50  51
ATOM     51  C   UNK d   0      -4.365   9.368 -14.443  0.00  0.00     0.139 C 
ATOM     52  O   UNK d   0      -4.735  10.134 -13.522  0.00  0.00    -0.650 OA
BRANCH  51  53
ATOM     53  O   UNK d   0      -3.790   8.159 -14.083  0.00  0.00    -0.776 OA
ATOM     54  H   UNK d   0      -3.034   7.807 -14.644  0.00  0.00     0.167 HD
ENDBRANCH  51  53
ENDBRANCH  50  51
ENDBRANCH  49  50
ENDBRANCH  24  49
BRANCH  21  55
ATOM     55  C   UNK d   0      -0.786  11.183 -15.029  0.00  0.00     0.151 C 
BRANCH  55  56
ATOM     56  C   UNK d   0      -1.250  10.897 -13.663  0.00  0.00     0.143 C 
ATOM     57  O   UNK d   0      -1.756  11.766 -12.927  0.00  0.00    -0.650 OA
BRANCH  56  58
ATOM     58  O   UNK d   0      -1.111   9.593 -13.190  0.00  0.00    -0.776 OA
ATOM     59  H   UNK d   0      -1.619   9.392 -12.310  0.00  0.00     0.167 HD
ENDBRANCH  56  58
ENDBRANCH  55  56
ENDBRANCH  21  55
BRANCH  18  60
ATOM     60  C   UNK d   0       4.061   9.606 -16.711  0.00  0.00     0.151 C 
BRANCH  60  61
ATOM     61  C   UNK d   0       4.350   9.671 -15.270  0.00  0.00     0.143 C 
ATOM     62  O   UNK d   0       3.585  10.033 -14.376  0.00  0.00    -0.650 OA
BRANCH  61  63
ATOM     63  O   UNK d   0       5.655   9.267 -14.898  0.00  0.00    -0.776 OA
ATOM     64  H   UNK d   0       5.853   8.312 -14.659  0.00  0.00     0.167 HD
ENDBRANCH  61  63
ENDBRANCH  60  61
ENDBRANCH  18  60
BRANCH  14  65
ATOM     65  C   UNK d   0       5.464   7.183 -17.883  0.00  0.00     0.052 C 
BRANCH  65  66
ATOM     66  C   UNK d   0       6.354   6.832 -16.744  0.00  0.00     0.115 C 
BRANCH  66  67
ATOM     67  C   UNK d   0       6.211   5.560 -16.095  0.00  0.00     0.139 C 
ATOM     68  O   UNK d   0       6.709   4.520 -16.665  0.00  0.00    -0.650 OA
BRANCH  67  69
ATOM     69  O   UNK d   0       5.579   5.287 -14.882  0.00  0.00    -0.776 OA
ATOM     70  H   UNK d   0       5.169   4.346 -14.792  0.00  0.00     0.167 HD
ENDBRANCH  67  69
ENDBRANCH  66  67
ENDBRANCH  65  66
ENDBRANCH  14  65
ENDBRANCH   6   7
ENDBRANCH   5   6
ENDBRANCH   2   5
TORSDOF 28
ENDMDL
MODEL 14
REMARK VINA RESULT:      -6.3     16.362     18.855
REMARK  28 active torsions:
REMARK  status: ('A' for Active; 'I' for Inactive)
REMARK    1  A    between atoms: C_2  and  O_3 
REMARK    2  A    between atoms: C_2  and  C_4 
REMARK    3  A    between atoms: C_4  and  C_5 
REMARK    4  A    between atoms: C_5  and  C_6 
REMARK    5  A    between atoms: C_7  and  C_8 
REMARK    6  A    between atoms: C_8  and  C_9 
REMARK    7  A    between atoms: C_9  and  O_11 
REMARK    8  A    between atoms: C_28  and  C_29 
REMARK    9  A    between atoms: C_29  and  C_30 
REMARK   10  A    between atoms: C_30  and  O_32 
REMARK   11  A    between atoms: C_33  and  C_34 
REMARK   12  A    between atoms: C_34  and  C_35 
REMARK   13  A    between atoms: C_35  and  C_36 
REMARK   14  A    between atoms: C_36  and  O_38 
REMARK   15  A    between atoms: C_39  and  C_40 
REMARK   16  A    between atoms: C_40  and  C_41 
REMARK   17  A    between atoms: C_41  and  C_42 
REMARK   18  A    between atoms: C_42  and  O_44 
REMARK   19  A    between atoms: C_45  and  C_46 
REMARK   20  A    between atoms: C_46  and  C_47 
REMARK   21  A    between atoms: C_47  and  O_49 
REMARK   22  A    between atoms: C_50  and  C_51 
REMARK   23  A    between atoms: C_51  and  C_52 
REMARK   24  A    between atoms: C_52  and  O_54 
REMARK   25  A    between atoms: C_55  and  C_56 
REMARK   26  A    between atoms: C_56  and  C_57 
REMARK   27  A    between atoms: C_57  and  C_58 
REMARK   28  A    between atoms: C_58  and  O_60 
ROOT
ATOM      1  O   UNK d   0       6.946   5.063 -16.816  0.00  0.00    -0.650 OA
ATOM      2  C   UNK d   0       6.520   3.904 -16.615  0.00  0.00     0.139 C 
ENDROOT
BRANCH   2   3
ATOM      3  O   UNK d   0       6.524   3.397 -15.338  0.00  0.00    -0.776 OA
ATOM      4  H   UNK d   0       7.322   2.865 -14.984  0.00  0.00     0.167 HD
ENDBRANCH   2   3
BRANCH   2   5
ATOM      5  C   UNK d   0       6.016   3.084 -17.753  0.00  0.00     0.115 C 
BRANCH   5   6
ATOM      6  C   UNK d   0       5.710   3.968 -18.932  0.00  0.00     0.052 C 
BRANCH   6   7
ATOM      7  C   UNK d   0       4.228   4.099 -19.192  0.00  0.00    -0.020 A 
ATOM      8  C   UNK d   0       3.510   3.441 -20.065  0.00  0.00    -0.011 A 
ATOM      9  C   UNK d   0       2.139   3.910 -19.958  0.00  0.00     0.067 A 
ATOM     10  C   UNK d   0       0.914   3.609 -20.573  0.00  0.00     0.062 C 
ATOM     11  N   UNK d   0       2.114   4.858 -18.997  0.00  0.00    -0.248 NA
ATOM     12  C   UNK d   0      -0.365   3.974 -20.139  0.00  0.00     0.041 A 
ATOM     13  N   UNK d   0      -0.836   5.136 -19.646  0.00  0.00    -0.355 N 
ATOM     14  C   UNK d   0      -1.385   3.005 -20.133  0.00  0.00    -0.022 A 
ATOM     15  C   UNK d   0      -2.125   4.926 -19.320  0.00  0.00     0.042 A 
ATOM     16  H   UNK d   0      -0.273   6.090 -19.549  0.00  0.00     0.166 HD
ATOM     17  C   UNK d   0      -3.082   5.801 -18.769  0.00  0.00     0.062 C 
ATOM     18  C   UNK d   0      -2.505   3.601 -19.611  0.00  0.00    -0.013 A 
ATOM     19  C   UNK d   0      -2.944   6.685 -17.729  0.00  0.00     0.067 A 
ATOM     20  N   UNK d   0      -1.704   6.912 -17.289  0.00  0.00    -0.248 NA
ATOM     21  C   UNK d   0      -3.841   7.485 -16.912  0.00  0.00    -0.011 A 
ATOM     22  C   UNK d   0      -1.725   7.801 -16.242  0.00  0.00     0.066 A 
ATOM     23  C   UNK d   0      -0.494   8.157 -15.710  0.00  0.00     0.062 C 
ATOM     24  C   UNK d   0      -3.122   8.133 -16.041  0.00  0.00    -0.020 A 
ATOM     25  C   UNK d   0       0.780   7.788 -16.169  0.00  0.00     0.041 A 
ATOM     26  N   UNK d   0       1.252   6.630 -16.645  0.00  0.00    -0.355 N 
ATOM     27  C   UNK d   0       1.801   8.763 -16.179  0.00  0.00    -0.022 A 
ATOM     28  C   UNK d   0       2.540   6.834 -16.963  0.00  0.00     0.042 A 
ATOM     29  H   UNK d   0       0.688   5.669 -16.732  0.00  0.00     0.166 HD
ATOM     30  C   UNK d   0       3.505   5.970 -17.503  0.00  0.00     0.062 C 
ATOM     31  C   UNK d   0       2.918   8.168 -16.680  0.00  0.00    -0.013 A 
ATOM     32  C   UNK d   0       3.340   5.018 -18.497  0.00  0.00     0.066 A 
BRANCH   8  33
ATOM     33  C   UNK d   0       3.986   2.409 -21.005  0.00  0.00     0.151 C 
BRANCH  33  34
ATOM     34  C   UNK d   0       3.946   1.052 -20.430  0.00  0.00     0.143 C 
ATOM     35  O   UNK d   0       4.280   0.066 -21.102  0.00  0.00    -0.650 OA
BRANCH  34  36
ATOM     36  O   UNK d   0       3.532   0.882 -19.129  0.00  0.00    -0.776 OA
ATOM     37  H   UNK d   0       2.559   0.629 -18.908  0.00  0.00     0.167 HD
ENDBRANCH  34  36
ENDBRANCH  33  34
ENDBRANCH   8  33
BRANCH  31  38
ATOM     38  C   UNK d   0       4.261   8.828 -16.892  0.00  0.00     0.151 C 
BRANCH  38  39
ATOM     39  C   UNK d   0       5.101   8.782 -15.714  0.00  0.00     0.143 C 
ATOM     40  O   UNK d   0       5.737   7.764 -15.389  0.00  0.00    -0.650 OA
BRANCH  39  41
ATOM     41  O   UNK d   0       5.210   9.913 -14.905  0.00  0.00    -0.776 OA
ATOM     42  H   UNK d   0       5.410  10.800 -15.378  0.00  0.00     0.167 HD
ENDBRANCH  39  41
ENDBRANCH  38  39
ENDBRANCH  31  38
BRANCH  27  43
ATOM     43  C   UNK d   0       1.755  10.205 -15.737  0.00  0.00     0.052 C 
BRANCH  43  44
ATOM     44  C   UNK d   0       1.254  11.132 -16.797  0.00  0.00     0.115 C 
BRANCH  44  45
ATOM     45  C   UNK d   0       0.288  12.048 -16.138  0.00  0.00     0.139 C 
ATOM     46  O   UNK d   0      -0.700  12.446 -16.804  0.00  0.00    -0.650 OA
BRANCH  45  47
ATOM     47  O   UNK d   0       0.430  12.471 -14.834  0.00  0.00    -0.776 OA
ATOM     48  H   UNK d   0       0.956  13.320 -14.574  0.00  0.00     0.167 HD
ENDBRANCH  45  47
ENDBRANCH  44  45
ENDBRANCH  43  44
ENDBRANCH  27  43
BRANCH  24  49
ATOM     49  C   UNK d   0      -3.624   9.090 -15.041  0.00  0.00     0.052 C 
BRANCH  49  50
ATOM     50  C   UNK d   0      -2.577  10.132 -14.741  0.00  0.00     0.115 C 
BRANCH  50  51
ATOM     51  C   UNK d   0      -2.323  10.435 -13.339  0.00  0.00     0.139 C 
ATOM     52  O   UNK d   0      -1.331  11.102 -12.960  0.00  0.00    -0.650 OA
BRANCH  51  53
ATOM     53  O   UNK d   0      -3.198   9.974 -12.368  0.00  0.00    -0.776 OA
ATOM     54  H   UNK d   0      -3.821  10.635 -11.937  0.00  0.00     0.167 HD
ENDBRANCH  51  53
ENDBRANCH  50  51
ENDBRANCH  49  50
ENDBRANCH  24  49
BRANCH  21  55
ATOM     55  C   UNK d   0      -5.323   7.523 -17.090  0.00  0.00     0.151 C 
BRANCH  55  56
ATOM     56  C   UNK d   0      -6.027   6.840 -15.994  0.00  0.00     0.143 C 
ATOM     57  O   UNK d   0      -6.962   7.368 -15.360  0.00  0.00    -0.650 OA
BRANCH  56  58
ATOM     58  O   UNK d   0      -5.620   5.548 -15.666  0.00  0.00    -0.776 OA
ATOM     59  H   UNK d   0      -5.590   4.885 -16.461  0.00  0.00     0.167 HD
ENDBRANCH  56  58
ENDBRANCH  55  56
ENDBRANCH  21  55
BRANCH  18  60
ATOM     60  C   UNK d   0      -3.836   2.918 -19.414  0.00  0.00     0.151 C 
BRANCH  60  61
ATOM     61  C   UNK d   0      -3.927   2.618 -17.977  0.00  0.00     0.143 C 
ATOM     62  O   UNK d   0      -4.434   3.322 -17.102  0.00  0.00    -0.650 OA
BRANCH  61  63
ATOM     63  O   UNK d   0      -3.363   1.381 -17.582  0.00  0.00    -0.776 OA
ATOM     64  H   UNK d   0      -2.654   0.934 -18.137  0.00  0.00     0.167 HD
ENDBRANCH  61  63
ENDBRANCH  60  61
ENDBRANCH  18  60
BRANCH  14  65
ATOM     65  C   UNK d   0      -1.407   1.602 -20.669  0.00  0.00     0.052 C 
BRANCH  65  66
ATOM     66  C   UNK d   0      -1.838   1.529 -22.091  0.00  0.00     0.115 C 
BRANCH  66  67
ATOM     67  C   UNK d   0      -1.825   0.267 -22.775  0.00  0.00     0.139 C 
ATOM     68  O   UNK d   0      -0.784  -0.480 -22.665  0.00  0.00    -0.650 OA
BRANCH  67  69
ATOM     69  O   UNK d   0      -2.828  -0.281 -23.575  0.00  0.00    -0.776 OA
ATOM     70  H   UNK d   0      -3.465  -0.940 -23.106  0.00  0.00     0.167 HD
ENDBRANCH  67  69
ENDBRANCH  66  67
ENDBRANCH  65  66
ENDBRANCH  14  65
ENDBRANCH   6   7
ENDBRANCH   5   6
ENDBRANCH   2   5
TORSDOF 28
ENDMDL
MODEL 15
REMARK VINA RESULT:      -6.3     15.944     20.396
REMARK  28 active torsions:
REMARK  status: ('A' for Active; 'I' for Inactive)
REMARK    1  A    between atoms: C_2  and  O_3 
REMARK    2  A    between atoms: C_2  and  C_4 
REMARK    3  A    between atoms: C_4  and  C_5 
REMARK    4  A    between atoms: C_5  and  C_6 
REMARK    5  A    between atoms: C_7  and  C_8 
REMARK    6  A    between atoms: C_8  and  C_9 
REMARK    7  A    between atoms: C_9  and  O_11 
REMARK    8  A    between atoms: C_28  and  C_29 
REMARK    9  A    between atoms: C_29  and  C_30 
REMARK   10  A    between atoms: C_30  and  O_32 
REMARK   11  A    between atoms: C_33  and  C_34 
REMARK   12  A    between atoms: C_34  and  C_35 
REMARK   13  A    between atoms: C_35  and  C_36 
REMARK   14  A    between atoms: C_36  and  O_38 
REMARK   15  A    between atoms: C_39  and  C_40 
REMARK   16  A    between atoms: C_40  and  C_41 
REMARK   17  A    between atoms: C_41  and  C_42 
REMARK   18  A    between atoms: C_42  and  O_44 
REMARK   19  A    between atoms: C_45  and  C_46 
REMARK   20  A    between atoms: C_46  and  C_47 
REMARK   21  A    between atoms: C_47  and  O_49 
REMARK   22  A    between atoms: C_50  and  C_51 
REMARK   23  A    between atoms: C_51  and  C_52 
REMARK   24  A    between atoms: C_52  and  O_54 
REMARK   25  A    between atoms: C_55  and  C_56 
REMARK   26  A    between atoms: C_56  and  C_57 
REMARK   27  A    between atoms: C_57  and  C_58 
REMARK   28  A    between atoms: C_58  and  O_60 
ROOT
ATOM      1  O   UNK d   0       4.428   5.462 -23.980  0.00  0.00    -0.650 OA
ATOM      2  C   UNK d   0       5.215   4.580 -23.569  0.00  0.00     0.139 C 
ENDROOT
BRANCH   2   3
ATOM      3  O   UNK d   0       4.812   3.733 -22.565  0.00  0.00    -0.776 OA
ATOM      4  H   UNK d   0       4.699   2.731 -22.734  0.00  0.00     0.167 HD
ENDBRANCH   2   3
BRANCH   2   5
ATOM      5  C   UNK d   0       6.575   4.454 -24.164  0.00  0.00     0.115 C 
BRANCH   5   6
ATOM      6  C   UNK d   0       7.477   3.686 -23.237  0.00  0.00     0.052 C 
BRANCH   6   7
ATOM      7  C   UNK d   0       8.377   4.586 -22.423  0.00  0.00    -0.020 A 
ATOM      8  C   UNK d   0       9.528   5.095 -22.778  0.00  0.00    -0.011 A 
ATOM      9  C   UNK d   0      10.027   5.886 -21.665  0.00  0.00     0.067 A 
ATOM     10  C   UNK d   0      11.156   6.681 -21.414  0.00  0.00     0.062 C 
ATOM     11  N   UNK d   0       9.117   5.799 -20.672  0.00  0.00    -0.248 NA
ATOM     12  C   UNK d   0      11.330   7.599 -20.372  0.00  0.00     0.041 A 
ATOM     13  N   UNK d   0      11.023   7.524 -19.063  0.00  0.00    -0.355 N 
ATOM     14  C   UNK d   0      11.864   8.868 -20.666  0.00  0.00    -0.022 A 
ATOM     15  C   UNK d   0      11.341   8.714 -18.520  0.00  0.00     0.042 A 
ATOM     16  H   UNK d   0      10.608   6.641 -18.530  0.00  0.00     0.166 HD
ATOM     17  C   UNK d   0      11.226   9.172 -17.193  0.00  0.00     0.062 C 
ATOM     18  C   UNK d   0      11.871   9.583 -19.494  0.00  0.00    -0.013 A 
ATOM     19  C   UNK d   0      10.176   9.034 -16.321  0.00  0.00     0.067 A 
ATOM     20  N   UNK d   0       9.201   8.194 -16.676  0.00  0.00    -0.248 NA
ATOM     21  C   UNK d   0       9.805   9.601 -15.035  0.00  0.00    -0.011 A 
ATOM     22  C   UNK d   0       8.218   8.172 -15.718  0.00  0.00     0.066 A 
ATOM     23  C   UNK d   0       7.156   7.308 -15.943  0.00  0.00     0.062 C 
ATOM     24  C   UNK d   0       8.656   9.096 -14.690  0.00  0.00    -0.020 A 
ATOM     25  C   UNK d   0       7.006   6.385 -16.989  0.00  0.00     0.041 A 
ATOM     26  N   UNK d   0       7.297   6.465 -18.293  0.00  0.00    -0.355 N 
ATOM     27  C   UNK d   0       6.474   5.110 -16.693  0.00  0.00    -0.022 A 
ATOM     28  C   UNK d   0       6.973   5.282 -18.839  0.00  0.00     0.042 A 
ATOM     29  H   UNK d   0       7.704   7.357 -18.829  0.00  0.00     0.166 HD
ATOM     30  C   UNK d   0       7.074   4.816 -20.159  0.00  0.00     0.062 C 
ATOM     31  C   UNK d   0       6.451   4.406 -17.858  0.00  0.00    -0.013 A 
ATOM     32  C   UNK d   0       8.100   5.031 -21.065  0.00  0.00     0.066 A 
BRANCH   8  33
ATOM     33  C   UNK d   0      10.219   4.908 -24.067  0.00  0.00     0.151 C 
BRANCH  33  34
ATOM     34  C   UNK d   0      10.202   6.121 -24.905  0.00  0.00     0.143 C 
ATOM     35  O   UNK d   0      11.169   6.896 -24.923  0.00  0.00    -0.650 OA
BRANCH  34  36
ATOM     36  O   UNK d   0       9.095   6.394 -25.675  0.00  0.00    -0.776 OA
ATOM     37  H   UNK d   0       9.182   6.850 -26.593  0.00  0.00     0.167 HD
ENDBRANCH  34  36
ENDBRANCH  33  34
ENDBRANCH   8  33
BRANCH  31  38
ATOM     38  C   UNK d   0       5.974   2.983 -18.029  0.00  0.00     0.151 C 
BRANCH  38  39
ATOM     39  C   UNK d   0       4.676   2.898 -18.665  0.00  0.00     0.143 C 
ATOM     40  O   UNK d   0       3.622   3.171 -18.065  0.00  0.00    -0.650 OA
BRANCH  39  41
ATOM     41  O   UNK d   0       4.591   2.497 -19.998  0.00  0.00    -0.776 OA
ATOM     42  H   UNK d   0       4.156   3.157 -20.651  0.00  0.00     0.167 HD
ENDBRANCH  39  41
ENDBRANCH  38  39
ENDBRANCH  31  38
BRANCH  27  43
ATOM     43  C   UNK d   0       5.997   4.554 -15.375  0.00  0.00     0.052 C 
BRANCH  43  44
ATOM     44  C   UNK d   0       4.515   4.632 -15.202  0.00  0.00     0.115 C 
BRANCH  44  45
ATOM     45  C   UNK d   0       4.086   3.332 -14.624  0.00  0.00     0.139 C 
ATOM     46  O   UNK d   0       4.627   2.952 -13.556  0.00  0.00    -0.650 OA
BRANCH  45  47
ATOM     47  O   UNK d   0       3.122   2.537 -15.205  0.00  0.00    -0.776 OA
ATOM     48  H   UNK d   0       2.740   2.719 -16.147  0.00  0.00     0.167 HD
ENDBRANCH  45  47
ENDBRANCH  44  45
ENDBRANCH  43  44
ENDBRANCH  27  43
BRANCH  24  49
ATOM     49  C   UNK d   0       7.928   9.368 -13.438  0.00  0.00     0.052 C 
BRANCH  49  50
ATOM     50  C   UNK d   0       8.191   8.277 -12.431  0.00  0.00     0.115 C 
BRANCH  50  51
ATOM     51  C   UNK d   0       8.536   8.691 -11.078  0.00  0.00     0.139 C 
ATOM     52  O   UNK d   0       9.525   8.231 -10.461  0.00  0.00    -0.650 OA
BRANCH  51  53
ATOM     53  O   UNK d   0       7.749   9.629 -10.426  0.00  0.00    -0.776 OA
ATOM     54  H   UNK d   0       8.188  10.232  -9.753  0.00  0.00     0.167 HD
ENDBRANCH  51  53
ENDBRANCH  50  51
ENDBRANCH  49  50
ENDBRANCH  24  49
BRANCH  21  55
ATOM     55  C   UNK d   0      10.639  10.586 -14.284  0.00  0.00     0.151 C 
BRANCH  55  56
ATOM     56  C   UNK d   0      11.418   9.945 -13.214  0.00  0.00     0.143 C 
ATOM     57  O   UNK d   0      12.146   8.952 -13.410  0.00  0.00    -0.650 OA
BRANCH  56  58
ATOM     58  O   UNK d   0      11.327  10.485 -11.932  0.00  0.00    -0.776 OA
ATOM     59  H   UNK d   0      11.466  11.510 -11.880  0.00  0.00     0.167 HD
ENDBRANCH  56  58
ENDBRANCH  55  56
ENDBRANCH  21  55
BRANCH  18  60
ATOM     60  C   UNK d   0      12.357  11.004 -19.352  0.00  0.00     0.151 C 
BRANCH  60  61
ATOM     61  C   UNK d   0      13.732  10.911 -18.840  0.00  0.00     0.143 C 
ATOM     62  O   UNK d   0      14.722  10.494 -19.443  0.00  0.00    -0.650 OA
BRANCH  61  63
ATOM     63  O   UNK d   0      13.911  11.357 -17.508  0.00  0.00    -0.776 OA
ATOM     64  H   UNK d   0      14.799  11.267 -17.046  0.00  0.00     0.167 HD
ENDBRANCH  61  63
ENDBRANCH  60  61
ENDBRANCH  18  60
BRANCH  14  65
ATOM     65  C   UNK d   0      12.453   9.414 -21.935  0.00  0.00     0.052 C 
BRANCH  65  66
ATOM     66  C   UNK d   0      13.814   8.884 -22.220  0.00  0.00     0.115 C 
BRANCH  66  67
ATOM     67  C   UNK d   0      14.093   8.293 -23.498  0.00  0.00     0.139 C 
ATOM     68  O   UNK d   0      14.806   7.223 -23.537  0.00  0.00    -0.650 OA
BRANCH  67  69
ATOM     69  O   UNK d   0      13.682   8.740 -24.754  0.00  0.00    -0.776 OA
ATOM     70  H   UNK d   0      14.062   9.650 -25.052  0.00  0.00     0.167 HD
ENDBRANCH  67  69
ENDBRANCH  66  67
ENDBRANCH  65  66
ENDBRANCH  14  65
ENDBRANCH   6   7
ENDBRANCH   5   6
ENDBRANCH   2   5
TORSDOF 28
ENDMDL
MODEL 16
REMARK VINA RESULT:      -6.3      4.688      9.425
REMARK  28 active torsions:
REMARK  status: ('A' for Active; 'I' for Inactive)
REMARK    1  A    between atoms: C_2  and  O_3 
REMARK    2  A    between atoms: C_2  and  C_4 
REMARK    3  A    between atoms: C_4  and  C_5 
REMARK    4  A    between atoms: C_5  and  C_6 
REMARK    5  A    between atoms: C_7  and  C_8 
REMARK    6  A    between atoms: C_8  and  C_9 
REMARK    7  A    between atoms: C_9  and  O_11 
REMARK    8  A    between atoms: C_28  and  C_29 
REMARK    9  A    between atoms: C_29  and  C_30 
REMARK   10  A    between atoms: C_30  and  O_32 
REMARK   11  A    between atoms: C_33  and  C_34 
REMARK   12  A    between atoms: C_34  and  C_35 
REMARK   13  A    between atoms: C_35  and  C_36 
REMARK   14  A    between atoms: C_36  and  O_38 
REMARK   15  A    between atoms: C_39  and  C_40 
REMARK   16  A    between atoms: C_40  and  C_41 
REMARK   17  A    between atoms: C_41  and  C_42 
REMARK   18  A    between atoms: C_42  and  O_44 
REMARK   19  A    between atoms: C_45  and  C_46 
REMARK   20  A    between atoms: C_46  and  C_47 
REMARK   21  A    between atoms: C_47  and  O_49 
REMARK   22  A    between atoms: C_50  and  C_51 
REMARK   23  A    between atoms: C_51  and  C_52 
REMARK   24  A    between atoms: C_52  and  O_54 
REMARK   25  A    between atoms: C_55  and  C_56 
REMARK   26  A    between atoms: C_56  and  C_57 
REMARK   27  A    between atoms: C_57  and  C_58 
REMARK   28  A    between atoms: C_58  and  O_60 
ROOT
ATOM      1  O   UNK d   0      14.643  -8.720 -12.609  0.00  0.00    -0.650 OA
ATOM      2  C   UNK d   0      14.325  -7.513 -12.702  0.00  0.00     0.139 C 
ENDROOT
BRANCH   2   3
ATOM      3  O   UNK d   0      14.749  -6.628 -11.740  0.00  0.00    -0.776 OA
ATOM      4  H   UNK d   0      14.529  -5.632 -11.805  0.00  0.00     0.167 HD
ENDBRANCH   2   3
BRANCH   2   5
ATOM      5  C   UNK d   0      13.495  -7.044 -13.848  0.00  0.00     0.115 C 
BRANCH   5   6
ATOM      6  C   UNK d   0      12.413  -6.120 -13.359  0.00  0.00     0.052 C 
BRANCH   6   7
ATOM      7  C   UNK d   0      11.371  -5.836 -14.414  0.00  0.00    -0.020 A 
ATOM      8  C   UNK d   0      11.238  -4.752 -15.134  0.00  0.00    -0.011 A 
ATOM      9  C   UNK d   0      10.089  -4.935 -16.006  0.00  0.00     0.067 A 
ATOM     10  C   UNK d   0       9.445  -4.185 -17.002  0.00  0.00     0.062 C 
ATOM     11  N   UNK d   0       9.579  -6.157 -15.745  0.00  0.00    -0.248 NA
ATOM     12  C   UNK d   0       8.510  -4.643 -17.936  0.00  0.00     0.041 A 
ATOM     13  N   UNK d   0       7.458  -5.474 -17.803  0.00  0.00    -0.355 N 
ATOM     14  C   UNK d   0       8.650  -4.262 -19.283  0.00  0.00    -0.022 A 
ATOM     15  C   UNK d   0       6.932  -5.635 -19.032  0.00  0.00     0.042 A 
ATOM     16  H   UNK d   0       7.083  -5.921 -16.856  0.00  0.00     0.166 HD
ATOM     17  C   UNK d   0       5.825  -6.396 -19.459  0.00  0.00     0.062 C 
ATOM     18  C   UNK d   0       7.653  -4.892 -19.986  0.00  0.00    -0.013 A 
ATOM     19  C   UNK d   0       5.480  -7.680 -19.122  0.00  0.00     0.067 A 
ATOM     20  N   UNK d   0       6.148  -8.241 -18.111  0.00  0.00    -0.248 NA
ATOM     21  C   UNK d   0       4.530  -8.667 -19.607  0.00  0.00    -0.011 A 
ATOM     22  C   UNK d   0       5.706  -9.524 -17.901  0.00  0.00     0.066 A 
ATOM     23  C   UNK d   0       6.292 -10.214 -16.850  0.00  0.00     0.062 C 
ATOM     24  C   UNK d   0       4.670  -9.746 -18.891  0.00  0.00    -0.020 A 
ATOM     25  C   UNK d   0       7.221  -9.730 -15.916  0.00  0.00     0.041 A 
ATOM     26  N   UNK d   0       8.275  -8.917 -16.050  0.00  0.00    -0.355 N 
ATOM     27  C   UNK d   0       7.077 -10.110 -14.563  0.00  0.00    -0.022 A 
ATOM     28  C   UNK d   0       8.807  -8.761 -14.827  0.00  0.00     0.042 A 
ATOM     29  H   UNK d   0       8.657  -8.477 -17.004  0.00  0.00     0.166 HD
ATOM     30  C   UNK d   0       9.912  -8.016 -14.390  0.00  0.00     0.062 C 
ATOM     31  C   UNK d   0       8.075  -9.501 -13.868  0.00  0.00    -0.013 A 
ATOM     32  C   UNK d   0      10.305  -6.750 -14.797  0.00  0.00     0.066 A 
BRANCH   8  33
ATOM     33  C   UNK d   0      12.086  -3.546 -15.083  0.00  0.00     0.151 C 
BRANCH  33  34
ATOM     34  C   UNK d   0      11.492  -2.465 -14.277  0.00  0.00     0.143 C 
ATOM     35  O   UNK d   0      11.023  -2.693 -13.152  0.00  0.00    -0.650 OA
BRANCH  34  36
ATOM     36  O   UNK d   0      11.458  -1.186 -14.782  0.00  0.00    -0.776 OA
ATOM     37  H   UNK d   0      11.114  -0.397 -14.218  0.00  0.00     0.167 HD
ENDBRANCH  34  36
ENDBRANCH  33  34
ENDBRANCH   8  33
BRANCH  31  38
ATOM     38  C   UNK d   0       8.316  -9.602 -12.379  0.00  0.00     0.151 C 
BRANCH  38  39
ATOM     39  C   UNK d   0       7.774  -8.478 -11.645  0.00  0.00     0.143 C 
ATOM     40  O   UNK d   0       6.556  -8.230 -11.612  0.00  0.00    -0.650 OA
BRANCH  39  41
ATOM     41  O   UNK d   0       8.638  -7.635 -10.946  0.00  0.00    -0.776 OA
ATOM     42  H   UNK d   0       8.305  -7.278 -10.045  0.00  0.00     0.167 HD
ENDBRANCH  39  41
ENDBRANCH  38  39
ENDBRANCH  31  38
BRANCH  27  43
ATOM     43  C   UNK d   0       6.049 -11.011 -13.925  0.00  0.00     0.052 C 
BRANCH  43  44
ATOM     44  C   UNK d   0       4.700 -10.379 -13.807  0.00  0.00     0.115 C 
BRANCH  44  45
ATOM     45  C   UNK d   0       4.114 -10.865 -12.531  0.00  0.00     0.139 C 
ATOM     46  O   UNK d   0       3.536 -10.032 -11.790  0.00  0.00    -0.650 OA
BRANCH  45  47
ATOM     47  O   UNK d   0       4.173 -12.184 -12.136  0.00  0.00    -0.776 OA
ATOM     48  H   UNK d   0       4.663 -12.490 -11.280  0.00  0.00     0.167 HD
ENDBRANCH  45  47
ENDBRANCH  44  45
ENDBRANCH  43  44
ENDBRANCH  27  43
BRANCH  24  49
ATOM     49  C   UNK d   0       3.879 -10.982 -19.019  0.00  0.00     0.052 C 
BRANCH  49  50
ATOM     50  C   UNK d   0       2.742 -10.981 -18.029  0.00  0.00     0.115 C 
BRANCH  50  51
ATOM     51  C   UNK d   0       1.524 -11.680 -18.415  0.00  0.00     0.139 C 
ATOM     52  O   UNK d   0       1.426 -12.929 -18.394  0.00  0.00    -0.650 OA
BRANCH  51  53
ATOM     53  O   UNK d   0       0.418 -10.954 -18.828  0.00  0.00    -0.776 OA
ATOM     54  H   UNK d   0       0.554  -9.998 -19.109  0.00  0.00     0.167 HD
ENDBRANCH  51  53
ENDBRANCH  50  51
ENDBRANCH  49  50
ENDBRANCH  24  49
BRANCH  21  55
ATOM     55  C   UNK d   0       3.579  -8.429 -20.733  0.00  0.00     0.151 C 
BRANCH  55  56
ATOM     56  C   UNK d   0       2.284  -7.913 -20.260  0.00  0.00     0.143 C 
ATOM     57  O   UNK d   0       1.236  -8.586 -20.298  0.00  0.00    -0.650 OA
BRANCH  56  58
ATOM     58  O   UNK d   0       2.249  -6.615 -19.754  0.00  0.00    -0.776 OA
ATOM     59  H   UNK d   0       3.134  -6.290 -19.324  0.00  0.00     0.167 HD
ENDBRANCH  56  58
ENDBRANCH  55  56
ENDBRANCH  21  55
BRANCH  18  60
ATOM     60  C   UNK d   0       7.435  -4.769 -21.474  0.00  0.00     0.151 C 
BRANCH  60  61
ATOM     61  C   UNK d   0       6.284  -3.869 -21.641  0.00  0.00     0.143 C 
ATOM     62  O   UNK d   0       5.993  -2.899 -20.941  0.00  0.00    -0.650 OA
BRANCH  61  63
ATOM     63  O   UNK d   0       5.434  -4.174 -22.731  0.00  0.00    -0.776 OA
ATOM     64  H   UNK d   0       5.024  -3.445 -23.288  0.00  0.00     0.167 HD
ENDBRANCH  61  63
ENDBRANCH  60  61
ENDBRANCH  18  60
BRANCH  14  65
ATOM     65  C   UNK d   0       9.584  -3.282 -19.933  0.00  0.00     0.052 C 
BRANCH  65  66
ATOM     66  C   UNK d   0      10.812  -3.921 -20.477  0.00  0.00     0.115 C 
BRANCH  66  67
ATOM     67  C   UNK d   0      11.973  -4.059 -19.643  0.00  0.00     0.139 C 
ATOM     68  O   UNK d   0      12.842  -3.111 -19.640  0.00  0.00    -0.650 OA
BRANCH  67  69
ATOM     69  O   UNK d   0      12.299  -5.123 -18.804  0.00  0.00    -0.776 OA
ATOM     70  H   UNK d   0      13.134  -5.664 -19.071  0.00  0.00     0.167 HD
ENDBRANCH  67  69
ENDBRANCH  66  67
ENDBRANCH  65  66
ENDBRANCH  14  65
ENDBRANCH   6   7
ENDBRANCH   5   6
ENDBRANCH   2   5
TORSDOF 28
ENDMDL
MODEL 17
REMARK VINA RESULT:      -6.3      2.996      5.056
REMARK  28 active torsions:
REMARK  status: ('A' for Active; 'I' for Inactive)
REMARK    1  A    between atoms: C_2  and  O_3 
REMARK    2  A    between atoms: C_2  and  C_4 
REMARK    3  A    between atoms: C_4  and  C_5 
REMARK    4  A    between atoms: C_5  and  C_6 
REMARK    5  A    between atoms: C_7  and  C_8 
REMARK    6  A    between atoms: C_8  and  C_9 
REMARK    7  A    between atoms: C_9  and  O_11 
REMARK    8  A    between atoms: C_28  and  C_29 
REMARK    9  A    between atoms: C_29  and  C_30 
REMARK   10  A    between atoms: C_30  and  O_32 
REMARK   11  A    between atoms: C_33  and  C_34 
REMARK   12  A    between atoms: C_34  and  C_35 
REMARK   13  A    between atoms: C_35  and  C_36 
REMARK   14  A    between atoms: C_36  and  O_38 
REMARK   15  A    between atoms: C_39  and  C_40 
REMARK   16  A    between atoms: C_40  and  C_41 
REMARK   17  A    between atoms: C_41  and  C_42 
REMARK   18  A    between atoms: C_42  and  O_44 
REMARK   19  A    between atoms: C_45  and  C_46 
REMARK   20  A    between atoms: C_46  and  C_47 
REMARK   21  A    between atoms: C_47  and  O_49 
REMARK   22  A    between atoms: C_50  and  C_51 
REMARK   23  A    between atoms: C_51  and  C_52 
REMARK   24  A    between atoms: C_52  and  O_54 
REMARK   25  A    between atoms: C_55  and  C_56 
REMARK   26  A    between atoms: C_56  and  C_57 
REMARK   27  A    between atoms: C_57  and  C_58 
REMARK   28  A    between atoms: C_58  and  O_60 
ROOT
ATOM      1  O   UNK d   0      11.722 -13.514 -13.239  0.00  0.00    -0.650 OA
ATOM      2  C   UNK d   0      11.339 -13.046 -14.334  0.00  0.00     0.139 C 
ENDROOT
BRANCH   2   3
ATOM      3  O   UNK d   0      12.125 -12.126 -14.985  0.00  0.00    -0.776 OA
ATOM      4  H   UNK d   0      13.123 -12.292 -15.129  0.00  0.00     0.167 HD
ENDBRANCH   2   3
BRANCH   2   5
ATOM      5  C   UNK d   0      10.042 -13.485 -14.923  0.00  0.00     0.115 C 
BRANCH   5   6
ATOM      6  C   UNK d   0       9.316 -14.386 -13.961  0.00  0.00     0.052 C 
BRANCH   6   7
ATOM      7  C   UNK d   0       8.156 -13.697 -13.283  0.00  0.00    -0.020 A 
ATOM      8  C   UNK d   0       6.932 -13.568 -13.729  0.00  0.00    -0.011 A 
ATOM      9  C   UNK d   0       6.173 -12.825 -12.737  0.00  0.00     0.067 A 
ATOM     10  C   UNK d   0       4.848 -12.384 -12.598  0.00  0.00     0.062 C 
ATOM     11  N   UNK d   0       7.015 -12.536 -11.723  0.00  0.00    -0.248 NA
ATOM     12  C   UNK d   0       4.228 -11.917 -11.434  0.00  0.00     0.041 A 
ATOM     13  N   UNK d   0       4.664 -11.084 -10.471  0.00  0.00    -0.355 N 
ATOM     14  C   UNK d   0       2.944 -12.392 -11.109  0.00  0.00    -0.022 A 
ATOM     15  C   UNK d   0       3.694 -11.024  -9.539  0.00  0.00     0.042 A 
ATOM     16  H   UNK d   0       5.631 -10.533 -10.459  0.00  0.00     0.166 HD
ATOM     17  C   UNK d   0       3.632 -10.302  -8.330  0.00  0.00     0.062 C 
ATOM     18  C   UNK d   0       2.600 -11.831  -9.904  0.00  0.00    -0.013 A 
ATOM     19  C   UNK d   0       4.594 -10.154  -7.364  0.00  0.00     0.067 A 
ATOM     20  N   UNK d   0       5.825 -10.572  -7.668  0.00  0.00    -0.248 NA
ATOM     21  C   UNK d   0       4.638  -9.645  -6.003  0.00  0.00    -0.011 A 
ATOM     22  C   UNK d   0       6.671 -10.374  -6.604  0.00  0.00     0.066 A 
ATOM     23  C   UNK d   0       7.998 -10.731  -6.797  0.00  0.00     0.062 C 
ATOM     24  C   UNK d   0       5.855  -9.781  -5.563  0.00  0.00    -0.020 A 
ATOM     25  C   UNK d   0       8.603 -11.186  -7.978  0.00  0.00     0.041 A 
ATOM     26  N   UNK d   0       8.175 -12.026  -8.928  0.00  0.00    -0.355 N 
ATOM     27  C   UNK d   0       9.890 -10.706  -8.306  0.00  0.00    -0.022 A 
ATOM     28  C   UNK d   0       9.145 -12.095  -9.854  0.00  0.00     0.042 A 
ATOM     29  H   UNK d   0       7.208 -12.587  -8.933  0.00  0.00     0.166 HD
ATOM     30  C   UNK d   0       9.224 -12.815 -11.056  0.00  0.00     0.062 C 
ATOM     31  C   UNK d   0      10.240 -11.275  -9.492  0.00  0.00    -0.013 A 
ATOM     32  C   UNK d   0       8.223 -13.033 -11.990  0.00  0.00     0.066 A 
BRANCH   8  33
ATOM     33  C   UNK d   0       6.398 -14.074 -15.007  0.00  0.00     0.151 C 
BRANCH  33  34
ATOM     34  C   UNK d   0       5.627 -15.320 -14.850  0.00  0.00     0.143 C 
ATOM     35  O   UNK d   0       6.182 -16.426 -14.922  0.00  0.00    -0.650 OA
BRANCH  34  36
ATOM     36  O   UNK d   0       4.272 -15.252 -14.622  0.00  0.00    -0.776 OA
ATOM     37  H   UNK d   0       3.792 -15.954 -14.044  0.00  0.00     0.167 HD
ENDBRANCH  34  36
ENDBRANCH  33  34
ENDBRANCH   8  33
BRANCH  31  38
ATOM     38  C   UNK d   0      11.530 -11.045 -10.244  0.00  0.00     0.151 C 
BRANCH  38  39
ATOM     39  C   UNK d   0      11.327 -10.402 -11.524  0.00  0.00     0.143 C 
ATOM     40  O   UNK d   0      10.300  -9.750 -11.786  0.00  0.00    -0.650 OA
BRANCH  39  41
ATOM     41  O   UNK d   0      12.309 -10.507 -12.509  0.00  0.00    -0.776 OA
ATOM     42  H   UNK d   0      12.281  -9.815 -13.264  0.00  0.00     0.167 HD
ENDBRANCH  39  41
ENDBRANCH  38  39
ENDBRANCH  31  38
BRANCH  27  43
ATOM     43  C   UNK d   0      10.777  -9.749  -7.549  0.00  0.00     0.052 C 
BRANCH  43  44
ATOM     44  C   UNK d   0      11.272 -10.303  -6.252  0.00  0.00     0.115 C 
BRANCH  44  45
ATOM     45  C   UNK d   0      12.189  -9.284  -5.678  0.00  0.00     0.139 C 
ATOM     46  O   UNK d   0      12.600  -9.454  -4.503  0.00  0.00    -0.650 OA
BRANCH  45  47
ATOM     47  O   UNK d   0      12.606  -8.174  -6.379  0.00  0.00    -0.776 OA
ATOM     48  H   UNK d   0      12.454  -8.063  -7.395  0.00  0.00     0.167 HD
ENDBRANCH  45  47
ENDBRANCH  44  45
ENDBRANCH  43  44
ENDBRANCH  27  43
BRANCH  24  49
ATOM     49  C   UNK d   0       6.353  -9.359  -4.242  0.00  0.00     0.052 C 
BRANCH  49  50
ATOM     50  C   UNK d   0       6.571  -7.867  -4.217  0.00  0.00     0.115 C 
BRANCH  50  51
ATOM     51  C   UNK d   0       7.474  -7.310  -5.214  0.00  0.00     0.139 C 
ATOM     52  O   UNK d   0       8.706  -7.544  -5.218  0.00  0.00    -0.650 OA
BRANCH  51  53
ATOM     53  O   UNK d   0       6.973  -6.483  -6.208  0.00  0.00    -0.776 OA
ATOM     54  H   UNK d   0       7.358  -6.564  -7.133  0.00  0.00     0.167 HD
ENDBRANCH  51  53
ENDBRANCH  50  51
ENDBRANCH  49  50
ENDBRANCH  24  49
BRANCH  21  55
ATOM     55  C   UNK d   0       3.460  -9.073  -5.287  0.00  0.00     0.151 C 
BRANCH  55  56
ATOM     56  C   UNK d   0       2.652 -10.115  -4.634  0.00  0.00     0.143 C 
ATOM     57  O   UNK d   0       1.685 -10.668  -5.194  0.00  0.00    -0.650 OA
BRANCH  56  58
ATOM     58  O   UNK d   0       2.997 -10.485  -3.336  0.00  0.00    -0.776 OA
ATOM     59  H   UNK d   0       2.671 -11.427  -3.050  0.00  0.00     0.167 HD
ENDBRANCH  56  58
ENDBRANCH  55  56
ENDBRANCH  21  55
BRANCH  18  60
ATOM     60  C   UNK d   0       1.301 -12.076  -9.177  0.00  0.00     0.151 C 
BRANCH  60  61
ATOM     61  C   UNK d   0       1.638 -12.926  -8.024  0.00  0.00     0.143 C 
ATOM     62  O   UNK d   0       2.581 -13.713  -7.933  0.00  0.00    -0.650 OA
BRANCH  61  63
ATOM     63  O   UNK d   0       0.769 -12.806  -6.913  0.00  0.00    -0.776 OA
ATOM     64  H   UNK d   0       0.511 -11.905  -6.551  0.00  0.00     0.167 HD
ENDBRANCH  61  63
ENDBRANCH  60  61
ENDBRANCH  18  60
BRANCH  14  65
ATOM     65  C   UNK d   0       1.988 -13.249 -11.890  0.00  0.00     0.052 C 
BRANCH  65  66
ATOM     66  C   UNK d   0       1.096 -12.461 -12.782  0.00  0.00     0.115 C 
BRANCH  66  67
ATOM     67  C   UNK d   0       1.254 -12.552 -14.206  0.00  0.00     0.139 C 
ATOM     68  O   UNK d   0       1.959 -13.514 -14.686  0.00  0.00    -0.650 OA
BRANCH  67  69
ATOM     69  O   UNK d   0       0.725 -11.704 -15.179  0.00  0.00    -0.776 OA
ATOM     70  H   UNK d   0       1.199 -11.721 -16.094  0.00  0.00     0.167 HD
ENDBRANCH  67  69
ENDBRANCH  66  67
ENDBRANCH  65  66
ENDBRANCH  14  65
ENDBRANCH   6   7
ENDBRANCH   5   6
ENDBRANCH   2   5
TORSDOF 28
ENDMDL
MODEL 18
REMARK VINA RESULT:      -6.2     17.461     21.593
REMARK  28 active torsions:
REMARK  status: ('A' for Active; 'I' for Inactive)
REMARK    1  A    between atoms: C_2  and  O_3 
REMARK    2  A    between atoms: C_2  and  C_4 
REMARK    3  A    between atoms: C_4  and  C_5 
REMARK    4  A    between atoms: C_5  and  C_6 
REMARK    5  A    between atoms: C_7  and  C_8 
REMARK    6  A    between atoms: C_8  and  C_9 
REMARK    7  A    between atoms: C_9  and  O_11 
REMARK    8  A    between atoms: C_28  and  C_29 
REMARK    9  A    between atoms: C_29  and  C_30 
REMARK   10  A    between atoms: C_30  and  O_32 
REMARK   11  A    between atoms: C_33  and  C_34 
REMARK   12  A    between atoms: C_34  and  C_35 
REMARK   13  A    between atoms: C_35  and  C_36 
REMARK   14  A    between atoms: C_36  and  O_38 
REMARK   15  A    between atoms: C_39  and  C_40 
REMARK   16  A    between atoms: C_40  and  C_41 
REMARK   17  A    between atoms: C_41  and  C_42 
REMARK   18  A    between atoms: C_42  and  O_44 
REMARK   19  A    between atoms: C_45  and  C_46 
REMARK   20  A    between atoms: C_46  and  C_47 
REMARK   21  A    between atoms: C_47  and  O_49 
REMARK   22  A    between atoms: C_50  and  C_51 
REMARK   23  A    between atoms: C_51  and  C_52 
REMARK   24  A    between atoms: C_52  and  O_54 
REMARK   25  A    between atoms: C_55  and  C_56 
REMARK   26  A    between atoms: C_56  and  C_57 
REMARK   27  A    between atoms: C_57  and  C_58 
REMARK   28  A    between atoms: C_58  and  O_60 
ROOT
ATOM      1  O   UNK d   0      -4.494  11.420 -16.505  0.00  0.00    -0.650 OA
ATOM      2  C   UNK d   0      -5.054  10.714 -15.637  0.00  0.00     0.139 C 
ENDROOT
BRANCH   2   3
ATOM      3  O   UNK d   0      -6.159   9.973 -15.981  0.00  0.00    -0.776 OA
ATOM      4  H   UNK d   0      -6.460   9.897 -16.955  0.00  0.00     0.167 HD
ENDBRANCH   2   3
BRANCH   2   5
ATOM      5  C   UNK d   0      -4.525  10.680 -14.244  0.00  0.00     0.115 C 
BRANCH   5   6
ATOM      6  C   UNK d   0      -4.020   9.301 -13.915  0.00  0.00     0.052 C 
BRANCH   6   7
ATOM      7  C   UNK d   0      -2.897   8.861 -14.824  0.00  0.00    -0.020 A 
ATOM      8  C   UNK d   0      -1.656   9.274 -14.816  0.00  0.00    -0.011 A 
ATOM      9  C   UNK d   0      -0.948   8.576 -15.876  0.00  0.00     0.067 A 
ATOM     10  C   UNK d   0       0.367   8.547 -16.367  0.00  0.00     0.062 C 
ATOM     11  N   UNK d   0      -1.837   7.761 -16.482  0.00  0.00    -0.248 NA
ATOM     12  C   UNK d   0       0.930   7.596 -17.226  0.00  0.00     0.041 A 
ATOM     13  N   UNK d   0       0.444   7.003 -18.333  0.00  0.00    -0.355 N 
ATOM     14  C   UNK d   0       2.201   7.074 -16.923  0.00  0.00    -0.022 A 
ATOM     15  C   UNK d   0       1.370   6.114 -18.736  0.00  0.00     0.042 A 
ATOM     16  H   UNK d   0      -0.526   7.224 -18.831  0.00  0.00     0.166 HD
ATOM     17  C   UNK d   0       1.373   5.232 -19.836  0.00  0.00     0.062 C 
ATOM     18  C   UNK d   0       2.486   6.129 -17.877  0.00  0.00    -0.013 A 
ATOM     19  C   UNK d   0       0.367   4.418 -20.290  0.00  0.00     0.067 A 
ATOM     20  N   UNK d   0      -0.847   4.605 -19.765  0.00  0.00    -0.248 NA
ATOM     21  C   UNK d   0       0.257   3.324 -21.241  0.00  0.00    -0.011 A 
ATOM     22  C   UNK d   0      -1.742   3.713 -20.302  0.00  0.00     0.066 A 
ATOM     23  C   UNK d   0      -3.055   3.822 -19.871  0.00  0.00     0.062 C 
ATOM     24  C   UNK d   0      -0.978   2.913 -21.240  0.00  0.00    -0.020 A 
ATOM     25  C   UNK d   0      -3.603   4.792 -19.018  0.00  0.00     0.041 A 
ATOM     26  N   UNK d   0      -3.127   5.370 -17.909  0.00  0.00    -0.355 N 
ATOM     27  C   UNK d   0      -4.877   5.319 -19.325  0.00  0.00    -0.022 A 
ATOM     28  C   UNK d   0      -4.053   6.252 -17.500  0.00  0.00     0.042 A 
ATOM     29  H   UNK d   0      -2.157   5.140 -17.404  0.00  0.00     0.166 HD
ATOM     30  C   UNK d   0      -4.072   7.128 -16.403  0.00  0.00     0.062 C 
ATOM     31  C   UNK d   0      -5.169   6.243 -18.370  0.00  0.00    -0.013 A 
ATOM     32  C   UNK d   0      -3.028   7.885 -15.896  0.00  0.00     0.066 A 
BRANCH   8  33
ATOM     33  C   UNK d   0      -1.061  10.272 -13.908  0.00  0.00     0.151 C 
BRANCH  33  34
ATOM     34  C   UNK d   0      -0.737  11.540 -14.587  0.00  0.00     0.143 C 
ATOM     35  O   UNK d   0      -1.623  12.365 -14.852  0.00  0.00    -0.650 OA
BRANCH  34  36
ATOM     36  O   UNK d   0       0.568  11.807 -14.932  0.00  0.00    -0.776 OA
ATOM     37  H   UNK d   0       0.798  12.320 -15.794  0.00  0.00     0.167 HD
ENDBRANCH  34  36
ENDBRANCH  33  34
ENDBRANCH   8  33
BRANCH  31  38
ATOM     38  C   UNK d   0      -6.425   7.079 -18.293  0.00  0.00     0.151 C 
BRANCH  38  39
ATOM     39  C   UNK d   0      -6.319   8.322 -19.027  0.00  0.00     0.143 C 
ATOM     40  O   UNK d   0      -5.391   9.129 -18.839  0.00  0.00    -0.650 OA
BRANCH  39  41
ATOM     41  O   UNK d   0      -7.283   8.639 -19.983  0.00  0.00    -0.776 OA
ATOM     42  H   UNK d   0      -7.165   9.527 -20.481  0.00  0.00     0.167 HD
ENDBRANCH  39  41
ENDBRANCH  38  39
ENDBRANCH  31  38
BRANCH  27  43
ATOM     43  C   UNK d   0      -5.805   4.980 -20.465  0.00  0.00     0.052 C 
BRANCH  43  44
ATOM     44  C   UNK d   0      -5.596   5.837 -21.671  0.00  0.00     0.115 C 
BRANCH  44  45
ATOM     45  C   UNK d   0      -6.941   6.089 -22.251  0.00  0.00     0.139 C 
ATOM     46  O   UNK d   0      -7.207   7.251 -22.645  0.00  0.00    -0.650 OA
BRANCH  45  47
ATOM     47  O   UNK d   0      -7.897   5.104 -22.376  0.00  0.00    -0.776 OA
ATOM     48  H   UNK d   0      -8.732   5.207 -22.975  0.00  0.00     0.167 HD
ENDBRANCH  45  47
ENDBRANCH  44  45
ENDBRANCH  43  44
ENDBRANCH  27  43
BRANCH  24  49
ATOM     49  C   UNK d   0      -1.539   1.845 -22.086  0.00  0.00     0.052 C 
BRANCH  49  50
ATOM     50  C   UNK d   0      -1.740   0.588 -21.278  0.00  0.00     0.115 C 
BRANCH  50  51
ATOM     51  C   UNK d   0      -3.111   0.229 -20.939  0.00  0.00     0.139 C 
ATOM     52  O   UNK d   0      -3.590   0.398 -19.792  0.00  0.00    -0.650 OA
BRANCH  51  53
ATOM     53  O   UNK d   0      -3.935  -0.325 -21.906  0.00  0.00    -0.776 OA
ATOM     54  H   UNK d   0      -4.686   0.235 -22.268  0.00  0.00     0.167 HD
ENDBRANCH  51  53
ENDBRANCH  50  51
ENDBRANCH  49  50
ENDBRANCH  24  49
BRANCH  21  55
ATOM     55  C   UNK d   0       1.397   2.807 -22.054  0.00  0.00     0.151 C 
BRANCH  55  56
ATOM     56  C   UNK d   0       2.401   2.123 -21.224  0.00  0.00     0.143 C 
ATOM     57  O   UNK d   0       3.627   2.230 -21.422  0.00  0.00    -0.650 OA
BRANCH  56  58
ATOM     58  O   UNK d   0       1.943   1.327 -20.176  0.00  0.00    -0.776 OA
ATOM     59  H   UNK d   0       2.579   0.556 -19.903  0.00  0.00     0.167 HD
ENDBRANCH  56  58
ENDBRANCH  55  56
ENDBRANCH  21  55
BRANCH  18  60
ATOM     60  C   UNK d   0       3.752   5.310 -17.931  0.00  0.00     0.151 C 
BRANCH  60  61
ATOM     61  C   UNK d   0       3.415   4.006 -17.341  0.00  0.00     0.143 C 
ATOM     62  O   UNK d   0       3.337   2.925 -17.925  0.00  0.00    -0.650 OA
BRANCH  61  63
ATOM     63  O   UNK d   0       3.156   4.023 -15.949  0.00  0.00    -0.776 OA
ATOM     64  H   UNK d   0       3.907   4.050 -15.283  0.00  0.00     0.167 HD
ENDBRANCH  61  63
ENDBRANCH  60  61
ENDBRANCH  18  60
BRANCH  14  65
ATOM     65  C   UNK d   0       3.197   7.467 -15.870  0.00  0.00     0.052 C 
BRANCH  65  66
ATOM     66  C   UNK d   0       3.919   8.727 -16.193  0.00  0.00     0.115 C 
BRANCH  66  67
ATOM     67  C   UNK d   0       4.050   9.749 -15.193  0.00  0.00     0.139 C 
ATOM     68  O   UNK d   0       5.226  10.190 -14.916  0.00  0.00    -0.650 OA
BRANCH  67  69
ATOM     69  O   UNK d   0       3.034  10.352 -14.452  0.00  0.00    -0.776 OA
ATOM     70  H   UNK d   0       3.032  10.144 -13.443  0.00  0.00     0.167 HD
ENDBRANCH  67  69
ENDBRANCH  66  67
ENDBRANCH  65  66
ENDBRANCH  14  65
ENDBRANCH   6   7
ENDBRANCH   5   6
ENDBRANCH   2   5
TORSDOF 28
ENDMDL
MODEL 19
REMARK VINA RESULT:      -6.2     22.776     27.432
REMARK  28 active torsions:
REMARK  status: ('A' for Active; 'I' for Inactive)
REMARK    1  A    between atoms: C_2  and  O_3 
REMARK    2  A    between atoms: C_2  and  C_4 
REMARK    3  A    between atoms: C_4  and  C_5 
REMARK    4  A    between atoms: C_5  and  C_6 
REMARK    5  A    between atoms: C_7  and  C_8 
REMARK    6  A    between atoms: C_8  and  C_9 
REMARK    7  A    between atoms: C_9  and  O_11 
REMARK    8  A    between atoms: C_28  and  C_29 
REMARK    9  A    between atoms: C_29  and  C_30 
REMARK   10  A    between atoms: C_30  and  O_32 
REMARK   11  A    between atoms: C_33  and  C_34 
REMARK   12  A    between atoms: C_34  and  C_35 
REMARK   13  A    between atoms: C_35  and  C_36 
REMARK   14  A    between atoms: C_36  and  O_38 
REMARK   15  A    between atoms: C_39  and  C_40 
REMARK   16  A    between atoms: C_40  and  C_41 
REMARK   17  A    between atoms: C_41  and  C_42 
REMARK   18  A    between atoms: C_42  and  O_44 
REMARK   19  A    between atoms: C_45  and  C_46 
REMARK   20  A    between atoms: C_46  and  C_47 
REMARK   21  A    between atoms: C_47  and  O_49 
REMARK   22  A    between atoms: C_50  and  C_51 
REMARK   23  A    between atoms: C_51  and  C_52 
REMARK   24  A    between atoms: C_52  and  O_54 
REMARK   25  A    between atoms: C_55  and  C_56 
REMARK   26  A    between atoms: C_56  and  C_57 
REMARK   27  A    between atoms: C_57  and  C_58 
REMARK   28  A    between atoms: C_58  and  O_60 
ROOT
ATOM      1  O   UNK d   0       6.746  14.080  -9.926  0.00  0.00    -0.650 OA
ATOM      2  C   UNK d   0       6.620  12.895 -10.306  0.00  0.00     0.139 C 
ENDROOT
BRANCH   2   3
ATOM      3  O   UNK d   0       5.434  12.238 -10.080  0.00  0.00    -0.776 OA
ATOM      4  H   UNK d   0       5.326  11.600  -9.288  0.00  0.00     0.167 HD
ENDBRANCH   2   3
BRANCH   2   5
ATOM      5  C   UNK d   0       7.747  12.205 -10.995  0.00  0.00     0.115 C 
BRANCH   5   6
ATOM      6  C   UNK d   0       8.617  11.502  -9.988  0.00  0.00     0.052 C 
BRANCH   6   7
ATOM      7  C   UNK d   0      10.080  11.839 -10.148  0.00  0.00    -0.020 A 
ATOM      8  C   UNK d   0      11.027  11.075 -10.629  0.00  0.00    -0.011 A 
ATOM      9  C   UNK d   0      12.272  11.823 -10.578  0.00  0.00     0.067 A 
ATOM     10  C   UNK d   0      13.606  11.594 -10.948  0.00  0.00     0.062 C 
ATOM     11  N   UNK d   0      11.991  13.031 -10.047  0.00  0.00    -0.248 NA
ATOM     12  C   UNK d   0      14.624  12.546 -11.078  0.00  0.00     0.041 A 
ATOM     13  N   UNK d   0      14.960  13.596 -10.305  0.00  0.00    -0.355 N 
ATOM     14  C   UNK d   0      15.454  12.503 -12.213  0.00  0.00    -0.022 A 
ATOM     15  C   UNK d   0      15.977  14.225 -10.925  0.00  0.00     0.042 A 
ATOM     16  H   UNK d   0      14.501  13.876  -9.332  0.00  0.00     0.166 HD
ATOM     17  C   UNK d   0      16.702  15.374 -10.552  0.00  0.00     0.062 C 
ATOM     18  C   UNK d   0      16.314  13.569 -12.124  0.00  0.00    -0.013 A 
ATOM     19  C   UNK d   0      16.236  16.568 -10.065  0.00  0.00     0.067 A 
ATOM     20  N   UNK d   0      14.952  16.613  -9.700  0.00  0.00    -0.248 NA
ATOM     21  C   UNK d   0      16.792  17.891  -9.834  0.00  0.00    -0.011 A 
ATOM     22  C   UNK d   0      14.628  17.869  -9.250  0.00  0.00     0.066 A 
ATOM     23  C   UNK d   0      13.327  18.046  -8.801  0.00  0.00     0.062 C 
ATOM     24  C   UNK d   0      15.845  18.649  -9.361  0.00  0.00    -0.020 A 
ATOM     25  C   UNK d   0      12.323  17.075  -8.666  0.00  0.00     0.041 A 
ATOM     26  N   UNK d   0      11.980  16.039  -9.442  0.00  0.00    -0.355 N 
ATOM     27  C   UNK d   0      11.494  17.116  -7.525  0.00  0.00    -0.022 A 
ATOM     28  C   UNK d   0      10.960  15.415  -8.831  0.00  0.00     0.042 A 
ATOM     29  H   UNK d   0      12.435  15.766 -10.425  0.00  0.00     0.166 HD
ATOM     30  C   UNK d   0      10.223  14.278  -9.195  0.00  0.00     0.062 C 
ATOM     31  C   UNK d   0      10.629  16.069  -7.620  0.00  0.00    -0.013 A 
ATOM     32  C   UNK d   0      10.689  13.104  -9.767  0.00  0.00     0.066 A 
BRANCH   8  33
ATOM     33  C   UNK d   0      10.881   9.696 -11.133  0.00  0.00     0.151 C 
BRANCH  33  34
ATOM     34  C   UNK d   0      10.805   8.698 -10.051  0.00  0.00     0.143 C 
ATOM     35  O   UNK d   0       9.952   7.799 -10.073  0.00  0.00    -0.650 OA
BRANCH  34  36
ATOM     36  O   UNK d   0      11.692   8.769  -9.002  0.00  0.00    -0.776 OA
ATOM     37  H   UNK d   0      11.388   8.608  -8.033  0.00  0.00     0.167 HD
ENDBRANCH  34  36
ENDBRANCH  33  34
ENDBRANCH   8  33
BRANCH  31  38
ATOM     38  C   UNK d   0       9.560  15.701  -6.618  0.00  0.00     0.151 C 
BRANCH  38  39
ATOM     39  C   UNK d   0       8.322  16.422  -6.827  0.00  0.00     0.143 C 
ATOM     40  O   UNK d   0       7.799  17.118  -5.939  0.00  0.00    -0.650 OA
BRANCH  39  41
ATOM     41  O   UNK d   0       7.683  16.343  -8.064  0.00  0.00    -0.776 OA
ATOM     42  H   UNK d   0       6.933  17.020  -8.240  0.00  0.00     0.167 HD
ENDBRANCH  39  41
ENDBRANCH  38  39
ENDBRANCH  31  38
BRANCH  27  43
ATOM     43  C   UNK d   0      11.493  18.092  -6.375  0.00  0.00     0.052 C 
BRANCH  43  44
ATOM     44  C   UNK d   0      10.640  19.294  -6.622  0.00  0.00     0.115 C 
BRANCH  44  45
ATOM     45  C   UNK d   0      10.148  19.745  -5.294  0.00  0.00     0.139 C 
ATOM     46  O   UNK d   0      10.399  20.924  -4.939  0.00  0.00    -0.650 OA
BRANCH  45  47
ATOM     47  O   UNK d   0       9.429  18.930  -4.448  0.00  0.00    -0.776 OA
ATOM     48  H   UNK d   0       8.860  19.296  -3.666  0.00  0.00     0.167 HD
ENDBRANCH  45  47
ENDBRANCH  44  45
ENDBRANCH  43  44
ENDBRANCH  27  43
BRANCH  24  49
ATOM     49  C   UNK d   0      15.981  20.057  -8.952  0.00  0.00     0.052 C 
BRANCH  49  50
ATOM     50  C   UNK d   0      16.015  20.166  -7.450  0.00  0.00     0.115 C 
BRANCH  50  51
ATOM     51  C   UNK d   0      17.136  20.884  -6.860  0.00  0.00     0.139 C 
ATOM     52  O   UNK d   0      18.039  21.413  -7.550  0.00  0.00    -0.650 OA
BRANCH  51  53
ATOM     53  O   UNK d   0      17.230  20.997  -5.481  0.00  0.00    -0.776 OA
ATOM     54  H   UNK d   0      17.444  20.171  -4.950  0.00  0.00     0.167 HD
ENDBRANCH  51  53
ENDBRANCH  50  51
ENDBRANCH  49  50
ENDBRANCH  24  49
BRANCH  21  55
ATOM     55  C   UNK d   0      18.213  18.259 -10.107  0.00  0.00     0.151 C 
BRANCH  55  56
ATOM     56  C   UNK d   0      18.467  18.452 -11.543  0.00  0.00     0.143 C 
ATOM     57  O   UNK d   0      18.149  19.493 -12.151  0.00  0.00    -0.650 OA
BRANCH  56  58
ATOM     58  O   UNK d   0      19.090  17.416 -12.237  0.00  0.00    -0.776 OA
ATOM     59  H   UNK d   0      18.451  16.682 -12.591  0.00  0.00     0.167 HD
ENDBRANCH  56  58
ENDBRANCH  55  56
ENDBRANCH  21  55
BRANCH  18  60
ATOM     60  C   UNK d   0      17.375  13.911 -13.141  0.00  0.00     0.151 C 
BRANCH  60  61
ATOM     61  C   UNK d   0      16.804  14.976 -13.979  0.00  0.00     0.143 C 
ATOM     62  O   UNK d   0      16.819  16.186 -13.753  0.00  0.00    -0.650 OA
BRANCH  61  63
ATOM     63  O   UNK d   0      16.176  14.535 -15.168  0.00  0.00    -0.776 OA
ATOM     64  H   UNK d   0      16.236  15.071 -16.016  0.00  0.00     0.167 HD
ENDBRANCH  61  63
ENDBRANCH  60  61
ENDBRANCH  18  60
BRANCH  14  65
ATOM     65  C   UNK d   0      15.560  11.485 -13.313  0.00  0.00     0.052 C 
BRANCH  65  66
ATOM     66  C   UNK d   0      14.608  11.733 -14.429  0.00  0.00     0.115 C 
BRANCH  66  67
ATOM     67  C   UNK d   0      13.684  10.706 -14.818  0.00  0.00     0.139 C 
ATOM     68  O   UNK d   0      13.112  10.014 -13.897  0.00  0.00    -0.650 OA
BRANCH  67  69
ATOM     69  O   UNK d   0      13.307  10.341 -16.110  0.00  0.00    -0.776 OA
ATOM     70  H   UNK d   0      12.692   9.517 -16.182  0.00  0.00     0.167 HD
ENDBRANCH  67  69
ENDBRANCH  66  67
ENDBRANCH  65  66
ENDBRANCH  14  65
ENDBRANCH   6   7
ENDBRANCH   5   6
ENDBRANCH   2   5
TORSDOF 28
ENDMDL
MODEL 20
REMARK VINA RESULT:      -6.2     21.856     26.001
REMARK  28 active torsions:
REMARK  status: ('A' for Active; 'I' for Inactive)
REMARK    1  A    between atoms: C_2  and  O_3 
REMARK    2  A    between atoms: C_2  and  C_4 
REMARK    3  A    between atoms: C_4  and  C_5 
REMARK    4  A    between atoms: C_5  and  C_6 
REMARK    5  A    between atoms: C_7  and  C_8 
REMARK    6  A    between atoms: C_8  and  C_9 
REMARK    7  A    between atoms: C_9  and  O_11 
REMARK    8  A    between atoms: C_28  and  C_29 
REMARK    9  A    between atoms: C_29  and  C_30 
REMARK   10  A    between atoms: C_30  and  O_32 
REMARK   11  A    between atoms: C_33  and  C_34 
REMARK   12  A    between atoms: C_34  and  C_35 
REMARK   13  A    between atoms: C_35  and  C_36 
REMARK   14  A    between atoms: C_36  and  O_38 
REMARK   15  A    between atoms: C_39  and  C_40 
REMARK   16  A    between atoms: C_40  and  C_41 
REMARK   17  A    between atoms: C_41  and  C_42 
REMARK   18  A    between atoms: C_42  and  O_44 
REMARK   19  A    between atoms: C_45  and  C_46 
REMARK   20  A    between atoms: C_46  and  C_47 
REMARK   21  A    between atoms: C_47  and  O_49 
REMARK   22  A    between atoms: C_50  and  C_51 
REMARK   23  A    between atoms: C_51  and  C_52 
REMARK   24  A    between atoms: C_52  and  O_54 
REMARK   25  A    between atoms: C_55  and  C_56 
REMARK   26  A    between atoms: C_56  and  C_57 
REMARK   27  A    between atoms: C_57  and  C_58 
REMARK   28  A    between atoms: C_58  and  O_60 
ROOT
ATOM      1  O   UNK d   0      17.496  17.150 -13.270  0.00  0.00    -0.650 OA
ATOM      2  C   UNK d   0      17.386  16.875 -12.054  0.00  0.00     0.139 C 
ENDROOT
BRANCH   2   3
ATOM      3  O   UNK d   0      17.925  15.705 -11.576  0.00  0.00    -0.776 OA
ATOM      4  H   UNK d   0      17.336  14.988 -11.148  0.00  0.00     0.167 HD
ENDBRANCH   2   3
BRANCH   2   5
ATOM      5  C   UNK d   0      16.673  17.810 -11.138  0.00  0.00     0.115 C 
BRANCH   5   6
ATOM      6  C   UNK d   0      16.510  17.181  -9.781  0.00  0.00     0.052 C 
BRANCH   6   7
ATOM      7  C   UNK d   0      15.062  16.963  -9.412  0.00  0.00    -0.020 A 
ATOM      8  C   UNK d   0      14.324  17.690  -8.613  0.00  0.00    -0.011 A 
ATOM      9  C   UNK d   0      13.002  17.088  -8.558  0.00  0.00     0.067 A 
ATOM     10  C   UNK d   0      11.783  17.377  -7.924  0.00  0.00     0.062 C 
ATOM     11  N   UNK d   0      13.026  15.995  -9.348  0.00  0.00    -0.248 NA
ATOM     12  C   UNK d   0      10.528  16.831  -8.212  0.00  0.00     0.041 A 
ATOM     13  N   UNK d   0      10.152  15.566  -8.480  0.00  0.00    -0.355 N 
ATOM     14  C   UNK d   0       9.419  17.691  -8.312  0.00  0.00    -0.022 A 
ATOM     15  C   UNK d   0       8.834  15.602  -8.755  0.00  0.00     0.042 A 
ATOM     16  H   UNK d   0      10.801  14.663  -8.456  0.00  0.00     0.166 HD
ATOM     17  C   UNK d   0       7.944  14.565  -9.097  0.00  0.00     0.062 C 
ATOM     18  C   UNK d   0       8.339  16.917  -8.660  0.00  0.00    -0.013 A 
ATOM     19  C   UNK d   0       8.120  13.535  -9.986  0.00  0.00     0.067 A 
ATOM     20  N   UNK d   0       9.354  13.350 -10.460  0.00  0.00    -0.248 NA
ATOM     21  C   UNK d   0       7.269  12.533 -10.605  0.00  0.00    -0.011 A 
ATOM     22  C   UNK d   0       9.372  12.300 -11.345  0.00  0.00     0.066 A 
ATOM     23  C   UNK d   0      10.606  11.973 -11.888  0.00  0.00     0.062 C 
ATOM     24  C   UNK d   0       8.007  11.816 -11.402  0.00  0.00    -0.020 A 
ATOM     25  C   UNK d   0      11.858  12.525 -11.575  0.00  0.00     0.041 A 
ATOM     26  N   UNK d   0      12.234  13.784 -11.324  0.00  0.00    -0.355 N 
ATOM     27  C   UNK d   0      12.970  11.661 -11.471  0.00  0.00    -0.022 A 
ATOM     28  C   UNK d   0      13.550  13.753 -11.058  0.00  0.00     0.042 A 
ATOM     29  H   UNK d   0      11.583  14.692 -11.358  0.00  0.00     0.166 HD
ATOM     30  C   UNK d   0      14.449  14.778 -10.726  0.00  0.00     0.062 C 
ATOM     31  C   UNK d   0      14.044  12.430 -11.144  0.00  0.00    -0.013 A 
ATOM     32  C   UNK d   0      14.237  15.864  -9.892  0.00  0.00     0.066 A 
BRANCH   8  33
ATOM     33  C   UNK d   0      14.739  18.903  -7.885  0.00  0.00     0.151 C 
BRANCH  33  34
ATOM     34  C   UNK d   0      14.163  18.980  -6.530  0.00  0.00     0.143 C 
ATOM     35  O   UNK d   0      14.465  18.148  -5.662  0.00  0.00    -0.650 OA
BRANCH  34  36
ATOM     36  O   UNK d   0      13.279  19.990  -6.228  0.00  0.00    -0.776 OA
ATOM     37  H   UNK d   0      13.404  20.578  -5.393  0.00  0.00     0.167 HD
ENDBRANCH  34  36
ENDBRANCH  33  34
ENDBRANCH   8  33
BRANCH  31  38
ATOM     38  C   UNK d   0      15.454  11.938 -10.912  0.00  0.00     0.151 C 
BRANCH  38  39
ATOM     39  C   UNK d   0      15.755  11.736  -9.511  0.00  0.00     0.143 C 
ATOM     40  O   UNK d   0      15.222  10.836  -8.838  0.00  0.00    -0.650 OA
BRANCH  39  41
ATOM     41  O   UNK d   0      16.675  12.573  -8.879  0.00  0.00    -0.776 OA
ATOM     42  H   UNK d   0      17.498  12.126  -8.465  0.00  0.00     0.167 HD
ENDBRANCH  39  41
ENDBRANCH  38  39
ENDBRANCH  31  38
BRANCH  27  43
ATOM     43  C   UNK d   0      13.045  10.168 -11.669  0.00  0.00     0.052 C 
BRANCH  43  44
ATOM     44  C   UNK d   0      12.459   9.391 -10.535  0.00  0.00     0.115 C 
BRANCH  44  45
ATOM     45  C   UNK d   0      12.880   7.979 -10.727  0.00  0.00     0.139 C 
ATOM     46  O   UNK d   0      14.068   7.673 -10.456  0.00  0.00    -0.650 OA
BRANCH  45  47
ATOM     47  O   UNK d   0      12.024   6.999 -11.180  0.00  0.00    -0.776 OA
ATOM     48  H   UNK d   0      12.096   6.584 -12.124  0.00  0.00     0.167 HD
ENDBRANCH  45  47
ENDBRANCH  44  45
ENDBRANCH  43  44
ENDBRANCH  27  43
BRANCH  24  49
ATOM     49  C   UNK d   0       7.556  10.663 -12.201  0.00  0.00     0.052 C 
BRANCH  49  50
ATOM     50  C   UNK d   0       7.610   9.402 -11.378  0.00  0.00     0.115 C 
BRANCH  50  51
ATOM     51  C   UNK d   0       8.852   8.641 -11.407  0.00  0.00     0.139 C 
ATOM     52  O   UNK d   0       9.273   7.996 -10.419  0.00  0.00    -0.650 OA
BRANCH  51  53
ATOM     53  O   UNK d   0       9.616   8.619 -12.564  0.00  0.00    -0.776 OA
ATOM     54  H   UNK d   0       9.195   8.940 -13.418  0.00  0.00     0.167 HD
ENDBRANCH  51  53
ENDBRANCH  50  51
ENDBRANCH  49  50
ENDBRANCH  24  49
BRANCH  21  55
ATOM     55  C   UNK d   0       5.808  12.393 -10.331  0.00  0.00     0.151 C 
BRANCH  55  56
ATOM     56  C   UNK d   0       5.015  13.411 -11.036  0.00  0.00     0.143 C 
ATOM     57  O   UNK d   0       3.885  13.773 -10.651  0.00  0.00    -0.650 OA
BRANCH  56  58
ATOM     58  O   UNK d   0       5.566  13.986 -12.180  0.00  0.00    -0.776 OA
ATOM     59  H   UNK d   0       5.406  15.005 -12.277  0.00  0.00     0.167 HD
ENDBRANCH  56  58
ENDBRANCH  55  56
ENDBRANCH  21  55
BRANCH  18  60
ATOM     60  C   UNK d   0       6.940  17.436  -8.882  0.00  0.00     0.151 C 
BRANCH  60  61
ATOM     61  C   UNK d   0       6.820  17.667 -10.329  0.00  0.00     0.143 C 
ATOM     62  O   UNK d   0       7.373  18.549 -10.988  0.00  0.00    -0.650 OA
BRANCH  61  63
ATOM     63  O   UNK d   0       5.972  16.766 -11.016  0.00  0.00    -0.776 OA
ATOM     64  H   UNK d   0       5.006  16.664 -10.758  0.00  0.00     0.167 HD
ENDBRANCH  61  63
ENDBRANCH  60  61
ENDBRANCH  18  60
BRANCH  14  65
ATOM     65  C   UNK d   0       9.283  19.156  -8.010  0.00  0.00     0.052 C 
BRANCH  65  66
ATOM     66  C   UNK d   0       8.866  19.425  -6.608  0.00  0.00     0.115 C 
BRANCH  66  67
ATOM     67  C   UNK d   0       9.742  19.077  -5.525  0.00  0.00     0.139 C 
ATOM     68  O   UNK d   0      10.624  19.934  -5.149  0.00  0.00    -0.650 OA
BRANCH  67  69
ATOM     69  O   UNK d   0       9.769  17.888  -4.798  0.00  0.00    -0.776 OA
ATOM     70  H   UNK d   0       8.853  17.450  -4.621  0.00  0.00     0.167 HD
ENDBRANCH  67  69
ENDBRANCH  66  67
ENDBRANCH  65  66
ENDBRANCH  14  65
ENDBRANCH   6   7
ENDBRANCH   5   6
ENDBRANCH   2   5
TORSDOF 28
ENDMDL
