MODEL 1
REMARK VINA RESULT:     -10.1      0.000      0.000
REMARK  16 active torsions:
REMARK  status: ('A' for Active; 'I' for Inactive)
REMARK    1  A    between atoms: C_6  and  C_7 
REMARK    2  A    between atoms: C_7  and  C_8 
REMARK    3  A    between atoms: C_8  and  C_9 
REMARK    4  A    between atoms: C_9  and  O_11 
REMARK    5  A    between atoms: C_16  and  C_17 
REMARK    6  A    between atoms: C_17  and  C_18 
REMARK    7  A    between atoms: C_18  and  C_19 
REMARK    8  A    between atoms: C_19  and  O_21 
REMARK    9  A    between atoms: C_28  and  C_29 
REMARK   10  A    between atoms: C_29  and  C_30 
REMARK   11  A    between atoms: C_30  and  C_31 
REMARK   12  A    between atoms: C_31  and  O_33 
REMARK   13  A    between atoms: C_42  and  C_43 
REMARK   14  A    between atoms: C_43  and  C_44 
REMARK   15  A    between atoms: C_44  and  C_45 
REMARK   16  A    between atoms: C_45  and  O_47 
ROOT
HETATM    1  C   UNK     0     -22.600 -11.243 -30.983  0.00  0.00     0.051 C 
HETATM    2  C   UNK     0     -22.214 -10.656 -29.640  0.00  0.00    -0.031 A 
HETATM    3  C   UNK     0     -20.974 -10.616 -29.022  0.00  0.00     0.021 A 
HETATM    4  N   UNK     0     -21.103 -10.020 -27.813  0.00  0.00    -0.361 N 
HETATM    5  C   UNK     0     -22.396  -9.671 -27.651  0.00  0.00     0.022 A 
HETATM    6  C   UNK     0     -23.120 -10.057 -28.775  0.00  0.00    -0.027 A 
HETATM    7  C   UNK     0     -23.045  -8.907 -26.539  0.00  0.00     0.115 C 
HETATM    8  C   UNK     0     -22.293  -7.696 -26.016  0.00  0.00     0.021 A 
HETATM    9  N   UNK     0     -21.537  -6.821 -26.699  0.00  0.00    -0.361 N 
HETATM   10  C   UNK     0     -20.989  -5.961 -25.815  0.00  0.00     0.022 A 
HETATM   11  C   UNK     0     -21.410  -6.285 -24.528  0.00  0.00    -0.027 A 
HETATM   12  C   UNK     0     -22.232  -7.376 -24.648  0.00  0.00    -0.031 A 
HETATM   13  C   UNK     0     -22.929  -8.075 -23.502  0.00  0.00     0.051 C 
HETATM   14  C   UNK     0     -20.008  -4.838 -26.139  0.00  0.00     0.115 C 
HETATM   15  C   UNK     0     -18.707  -5.318 -26.763  0.00  0.00     0.021 A 
HETATM   16  N   UNK     0     -18.552  -6.022 -27.900  0.00  0.00    -0.361 N 
HETATM   17  C   UNK     0     -17.259  -6.307 -28.066  0.00  0.00     0.022 A 
HETATM   18  C   UNK     0     -16.535  -5.755 -26.991  0.00  0.00    -0.027 A 
HETATM   19  C   UNK     0     -17.454  -5.137 -26.182  0.00  0.00    -0.031 A 
HETATM   20  C   UNK     0     -17.091  -4.378 -24.919  0.00  0.00     0.051 C 
HETATM   21  C   UNK     0     -16.574  -7.129 -29.135  0.00  0.00     0.115 C 
HETATM   22  C   UNK     0     -17.329  -8.311 -29.696  0.00  0.00     0.022 A 
HETATM   23  N   UNK     0     -18.092  -9.195 -29.041  0.00  0.00    -0.361 N 
HETATM   24  C   UNK     0     -18.689  -9.994 -29.948  0.00  0.00     0.021 A 
HETATM   25  C   UNK     0     -18.293  -9.621 -31.218  0.00  0.00    -0.031 A 
HETATM   26  C   UNK     0     -18.661 -10.239 -32.551  0.00  0.00     0.051 C 
HETATM   27  C   UNK     0     -17.422  -8.546 -31.083  0.00  0.00    -0.027 A 
HETATM   28  C   UNK     0     -19.715 -11.085 -29.694  0.00  0.00     0.115 C 
HETATM   29  H   UNK     0     -20.287  -9.885 -27.065  0.00  0.00     0.165 HD
HETATM   30  H   UNK     0     -21.429  -6.778 -27.810  0.00  0.00     0.165 HD
HETATM   31  H   UNK     0     -19.366  -6.282 -28.626  0.00  0.00     0.165 HD
HETATM   32  H   UNK     0     -18.182  -9.292 -27.927  0.00  0.00     0.165 HD
ENDROOT
BRANCH   6  33
HETATM   33  C   UNK     0     -24.587  -9.903 -29.083  0.00  0.00     0.051 C 
BRANCH  33  34
HETATM   34  C   UNK     0     -24.981  -8.445 -29.102  0.00  0.00     0.114 C 
BRANCH  34  35
HETATM   35  C   UNK     0     -25.245  -8.072 -30.521  0.00  0.00     0.139 C 
HETATM   36  O   UNK     0     -24.726  -8.740 -31.463  0.00  0.00    -0.650 OA
BRANCH  35  37
HETATM   37  O   UNK     0     -26.055  -7.000 -30.876  0.00  0.00    -0.776 OA
HETATM   38  H   UNK     0     -26.863  -7.114 -31.466  0.00  0.00     0.167 HD
ENDBRANCH  35  37
ENDBRANCH  34  35
ENDBRANCH  33  34
ENDBRANCH   6  33
BRANCH  27  39
HETATM   39  C   UNK     0     -16.729  -7.914 -32.238  0.00  0.00     0.051 C 
BRANCH  39  40
HETATM   40  C   UNK     0     -17.494  -7.008 -33.095  0.00  0.00     0.114 C 
BRANCH  40  41
HETATM   41  C   UNK     0     -18.835  -6.583 -32.764  0.00  0.00     0.139 C 
HETATM   42  O   UNK     0     -19.098  -5.814 -31.829  0.00  0.00    -0.650 OA
BRANCH  41  43
HETATM   43  O   UNK     0     -19.925  -7.064 -33.544  0.00  0.00    -0.776 OA
HETATM   44  H   UNK     0     -20.668  -7.494 -33.006  0.00  0.00     0.167 HD
ENDBRANCH  41  43
ENDBRANCH  40  41
ENDBRANCH  39  40
ENDBRANCH  27  39
BRANCH  11  45
HETATM   45  C   UNK     0     -21.069  -5.608 -23.228  0.00  0.00     0.051 C 
BRANCH  45  46
HETATM   46  C   UNK     0     -21.772  -4.317 -23.014  0.00  0.00     0.114 C 
BRANCH  46  47
HETATM   47  C   UNK     0     -22.438  -4.392 -21.682  0.00  0.00     0.139 C 
HETATM   48  O   UNK     0     -21.805  -4.867 -20.729  0.00  0.00    -0.650 OA
BRANCH  47  49
HETATM   49  O   UNK     0     -23.725  -3.946 -21.515  0.00  0.00    -0.776 OA
HETATM   50  H   UNK     0     -24.137  -3.227 -22.122  0.00  0.00     0.167 HD
ENDBRANCH  47  49
ENDBRANCH  46  47
ENDBRANCH  45  46
ENDBRANCH  11  45
BRANCH  18  51
HETATM   51  C   UNK     0     -15.047  -5.795 -26.757  0.00  0.00     0.051 C 
BRANCH  51  52
HETATM   52  C   UNK     0     -14.850  -6.379 -25.366  0.00  0.00     0.114 C 
BRANCH  52  53
HETATM   53  C   UNK     0     -13.766  -5.697 -24.633  0.00  0.00     0.139 C 
HETATM   54  O   UNK     0     -13.034  -6.342 -23.865  0.00  0.00    -0.650 OA
BRANCH  53  55
HETATM   55  O   UNK     0     -13.575  -4.348 -24.803  0.00  0.00    -0.776 OA
HETATM   56  H   UNK     0     -12.713  -3.864 -24.710  0.00  0.00     0.167 HD
ENDBRANCH  53  55
ENDBRANCH  52  53
ENDBRANCH  51  52
ENDBRANCH  18  51
TORSDOF 16
ENDMDL
MODEL 2
REMARK VINA RESULT:      -9.7     30.024     34.030
REMARK  16 active torsions:
REMARK  status: ('A' for Active; 'I' for Inactive)
REMARK    1  A    between atoms: C_6  and  C_7 
REMARK    2  A    between atoms: C_7  and  C_8 
REMARK    3  A    between atoms: C_8  and  C_9 
REMARK    4  A    between atoms: C_9  and  O_11 
REMARK    5  A    between atoms: C_16  and  C_17 
REMARK    6  A    between atoms: C_17  and  C_18 
REMARK    7  A    between atoms: C_18  and  C_19 
REMARK    8  A    between atoms: C_19  and  O_21 
REMARK    9  A    between atoms: C_28  and  C_29 
REMARK   10  A    between atoms: C_29  and  C_30 
REMARK   11  A    between atoms: C_30  and  C_31 
REMARK   12  A    between atoms: C_31  and  O_33 
REMARK   13  A    between atoms: C_42  and  C_43 
REMARK   14  A    between atoms: C_43  and  C_44 
REMARK   15  A    between atoms: C_44  and  C_45 
REMARK   16  A    between atoms: C_45  and  O_47 
ROOT
HETATM    1  C   UNK     0      -6.428 -25.087  -6.790  0.00  0.00     0.051 C 
HETATM    2  C   UNK     0      -6.013 -23.894  -5.953  0.00  0.00    -0.031 A 
HETATM    3  C   UNK     0      -6.712 -23.233  -4.956  0.00  0.00     0.021 A 
HETATM    4  N   UNK     0      -5.963 -22.200  -4.503  0.00  0.00    -0.361 N 
HETATM    5  C   UNK     0      -4.798 -22.194  -5.183  0.00  0.00     0.022 A 
HETATM    6  C   UNK     0      -4.797 -23.239  -6.101  0.00  0.00    -0.027 A 
HETATM    7  C   UNK     0      -3.595 -21.322  -5.003  0.00  0.00     0.115 C 
HETATM    8  C   UNK     0      -3.160 -21.047  -3.574  0.00  0.00     0.021 A 
HETATM    9  N   UNK     0      -3.207 -21.867  -2.513  0.00  0.00    -0.361 N 
HETATM   10  C   UNK     0      -2.805 -21.172  -1.428  0.00  0.00     0.022 A 
HETATM   11  C   UNK     0      -2.481 -19.871  -1.802  0.00  0.00    -0.027 A 
HETATM   12  C   UNK     0      -2.703 -19.785  -3.153  0.00  0.00    -0.031 A 
HETATM   13  C   UNK     0      -2.480 -18.552  -3.999  0.00  0.00     0.051 C 
HETATM   14  C   UNK     0      -2.761 -21.688   0.007  0.00  0.00     0.115 C 
HETATM   15  C   UNK     0      -4.116 -22.114   0.550  0.00  0.00     0.021 A 
HETATM   16  N   UNK     0      -4.943 -23.051   0.051  0.00  0.00    -0.361 N 
HETATM   17  C   UNK     0      -6.064 -23.077   0.775  0.00  0.00     0.022 A 
HETATM   18  C   UNK     0      -5.959 -22.116   1.801  0.00  0.00    -0.027 A 
HETATM   19  C   UNK     0      -4.733 -21.521   1.650  0.00  0.00    -0.031 A 
HETATM   20  C   UNK     0      -4.198 -20.445   2.576  0.00  0.00     0.051 C 
HETATM   21  C   UNK     0      -7.324 -23.891   0.587  0.00  0.00     0.115 C 
HETATM   22  C   UNK     0      -7.744 -24.210  -0.828  0.00  0.00     0.022 A 
HETATM   23  N   UNK     0      -7.705 -23.414  -1.905  0.00  0.00    -0.361 N 
HETATM   24  C   UNK     0      -8.034 -24.149  -2.987  0.00  0.00     0.021 A 
HETATM   25  C   UNK     0      -8.303 -25.447  -2.595  0.00  0.00    -0.031 A 
HETATM   26  C   UNK     0      -8.751 -26.623  -3.438  0.00  0.00     0.051 C 
HETATM   27  C   UNK     0      -8.124 -25.510  -1.218  0.00  0.00    -0.027 A 
HETATM   28  C   UNK     0      -8.040 -23.711  -4.441  0.00  0.00     0.115 C 
HETATM   29  H   UNK     0      -6.278 -21.458  -3.732  0.00  0.00     0.165 HD
HETATM   30  H   UNK     0      -3.476 -22.951  -2.536  0.00  0.00     0.165 HD
HETATM   31  H   UNK     0      -4.712 -23.743  -0.800  0.00  0.00     0.165 HD
HETATM   32  H   UNK     0      -7.485 -22.315  -1.906  0.00  0.00     0.165 HD
ENDROOT
BRANCH   6  33
HETATM   33  C   UNK     0      -3.744 -23.655  -7.096  0.00  0.00     0.051 C 
BRANCH  33  34
HETATM   34  C   UNK     0      -3.988 -23.005  -8.438  0.00  0.00     0.114 C 
BRANCH  34  35
HETATM   35  C   UNK     0      -2.927 -21.976  -8.635  0.00  0.00     0.139 C 
HETATM   36  O   UNK     0      -1.723 -22.328  -8.806  0.00  0.00    -0.650 OA
BRANCH  35  37
HETATM   37  O   UNK     0      -3.196 -20.613  -8.644  0.00  0.00    -0.776 OA
HETATM   38  H   UNK     0      -3.275 -20.090  -9.501  0.00  0.00     0.167 HD
ENDBRANCH  35  37
ENDBRANCH  34  35
ENDBRANCH  33  34
ENDBRANCH   6  33
BRANCH  27  39
HETATM   39  C   UNK     0      -8.392 -26.739  -0.422  0.00  0.00     0.051 C 
BRANCH  39  40
HETATM   40  C   UNK     0      -7.435 -27.114   0.618  0.00  0.00     0.114 C 
BRANCH  40  41
HETATM   41  C   UNK     0      -6.062 -27.452   0.317  0.00  0.00     0.139 C 
HETATM   42  O   UNK     0      -5.094 -26.994   0.938  0.00  0.00    -0.650 OA
BRANCH  41  43
HETATM   43  O   UNK     0      -5.791 -28.357  -0.748  0.00  0.00    -0.776 OA
HETATM   44  H   UNK     0      -4.965 -28.133  -1.289  0.00  0.00     0.167 HD
ENDBRANCH  41  43
ENDBRANCH  40  41
ENDBRANCH  39  40
ENDBRANCH  27  39
BRANCH  11  45
HETATM   45  C   UNK     0      -1.981 -18.741  -0.943  0.00  0.00     0.051 C 
BRANCH  45  46
HETATM   46  C   UNK     0      -3.053 -18.001  -0.230  0.00  0.00     0.114 C 
BRANCH  46  47
HETATM   47  C   UNK     0      -2.395 -17.184   0.830  0.00  0.00     0.139 C 
HETATM   48  O   UNK     0      -2.966 -17.063   1.924  0.00  0.00    -0.650 OA
BRANCH  47  49
HETATM   49  O   UNK     0      -1.186 -16.578   0.602  0.00  0.00    -0.776 OA
HETATM   50  H   UNK     0      -1.015 -15.999  -0.229  0.00  0.00     0.167 HD
ENDBRANCH  47  49
ENDBRANCH  46  47
ENDBRANCH  45  46
ENDBRANCH  11  45
BRANCH  18  51
HETATM   51  C   UNK     0      -6.962 -21.798   2.878  0.00  0.00     0.051 C 
BRANCH  51  52
HETATM   52  C   UNK     0      -7.543 -20.435   2.531  0.00  0.00     0.114 C 
BRANCH  52  53
HETATM   53  C   UNK     0      -7.759 -19.607   3.733  0.00  0.00     0.139 C 
HETATM   54  O   UNK     0      -8.752 -19.803   4.452  0.00  0.00    -0.650 OA
BRANCH  53  55
HETATM   55  O   UNK     0      -6.859 -18.618   4.048  0.00  0.00    -0.776 OA
HETATM   56  H   UNK     0      -6.957 -17.949   4.775  0.00  0.00     0.167 HD
ENDBRANCH  53  55
ENDBRANCH  52  53
ENDBRANCH  51  52
ENDBRANCH  18  51
TORSDOF 16
ENDMDL
MODEL 3
REMARK VINA RESULT:      -9.7     30.101     33.826
REMARK  16 active torsions:
REMARK  status: ('A' for Active; 'I' for Inactive)
REMARK    1  A    between atoms: C_6  and  C_7 
REMARK    2  A    between atoms: C_7  and  C_8 
REMARK    3  A    between atoms: C_8  and  C_9 
REMARK    4  A    between atoms: C_9  and  O_11 
REMARK    5  A    between atoms: C_16  and  C_17 
REMARK    6  A    between atoms: C_17  and  C_18 
REMARK    7  A    between atoms: C_18  and  C_19 
REMARK    8  A    between atoms: C_19  and  O_21 
REMARK    9  A    between atoms: C_28  and  C_29 
REMARK   10  A    between atoms: C_29  and  C_30 
REMARK   11  A    between atoms: C_30  and  C_31 
REMARK   12  A    between atoms: C_31  and  O_33 
REMARK   13  A    between atoms: C_42  and  C_43 
REMARK   14  A    between atoms: C_43  and  C_44 
REMARK   15  A    between atoms: C_44  and  C_45 
REMARK   16  A    between atoms: C_45  and  O_47 
ROOT
HETATM    1  C   UNK     0      -5.999 -20.883   3.037  0.00  0.00     0.051 C 
HETATM    2  C   UNK     0      -5.389 -21.542   1.816  0.00  0.00    -0.031 A 
HETATM    3  C   UNK     0      -5.641 -22.791   1.273  0.00  0.00     0.021 A 
HETATM    4  N   UNK     0      -4.841 -22.974   0.196  0.00  0.00    -0.361 N 
HETATM    5  C   UNK     0      -4.090 -21.864   0.036  0.00  0.00     0.022 A 
HETATM    6  C   UNK     0      -4.406 -20.949   1.035  0.00  0.00    -0.027 A 
HETATM    7  C   UNK     0      -3.120 -21.519  -1.050  0.00  0.00     0.115 C 
HETATM    8  C   UNK     0      -3.537 -21.861  -2.470  0.00  0.00     0.021 A 
HETATM    9  N   UNK     0      -4.762 -21.815  -3.016  0.00  0.00    -0.361 N 
HETATM   10  C   UNK     0      -4.678 -22.293  -4.275  0.00  0.00     0.022 A 
HETATM   11  C   UNK     0      -3.360 -22.647  -4.552  0.00  0.00    -0.027 A 
HETATM   12  C   UNK     0      -2.636 -22.377  -3.419  0.00  0.00    -0.031 A 
HETATM   13  C   UNK     0      -1.149 -22.600  -3.258  0.00  0.00     0.051 C 
HETATM   14  C   UNK     0      -5.839 -22.485  -5.246  0.00  0.00     0.115 C 
HETATM   15  C   UNK     0      -6.903 -23.452  -4.751  0.00  0.00     0.021 A 
HETATM   16  N   UNK     0      -7.630 -23.365  -3.621  0.00  0.00    -0.361 N 
HETATM   17  C   UNK     0      -8.404 -24.447  -3.514  0.00  0.00     0.022 A 
HETATM   18  C   UNK     0      -8.178 -25.274  -4.632  0.00  0.00    -0.027 A 
HETATM   19  C   UNK     0      -7.236 -24.639  -5.400  0.00  0.00    -0.031 A 
HETATM   20  C   UNK     0      -6.727 -25.174  -6.726  0.00  0.00     0.051 C 
HETATM   21  C   UNK     0      -9.344 -24.863  -2.406  0.00  0.00     0.115 C 
HETATM   22  C   UNK     0      -8.964 -24.491  -0.992  0.00  0.00     0.022 A 
HETATM   23  N   UNK     0      -7.752 -24.523  -0.423  0.00  0.00    -0.361 N 
HETATM   24  C   UNK     0      -7.845 -23.970   0.803  0.00  0.00     0.021 A 
HETATM   25  C   UNK     0      -9.151 -23.582   1.034  0.00  0.00    -0.031 A 
HETATM   26  C   UNK     0      -9.755 -22.956   2.273  0.00  0.00     0.051 C 
HETATM   27  C   UNK     0      -9.886 -23.906  -0.101  0.00  0.00    -0.027 A 
HETATM   28  C   UNK     0      -6.721 -23.699   1.789  0.00  0.00     0.115 C 
HETATM   29  H   UNK     0      -4.783 -23.901  -0.420  0.00  0.00     0.165 HD
HETATM   30  H   UNK     0      -5.679 -21.400  -2.531  0.00  0.00     0.165 HD
HETATM   31  H   UNK     0      -7.633 -22.500  -2.908  0.00  0.00     0.165 HD
HETATM   32  H   UNK     0      -6.826 -24.975  -0.865  0.00  0.00     0.165 HD
ENDROOT
BRANCH   6  33
HETATM   33  C   UNK     0      -3.850 -19.573   1.301  0.00  0.00     0.051 C 
BRANCH  33  34
HETATM   34  C   UNK     0      -4.710 -18.514   0.653  0.00  0.00     0.114 C 
BRANCH  34  35
HETATM   35  C   UNK     0      -4.385 -17.213   1.306  0.00  0.00     0.139 C 
HETATM   36  O   UNK     0      -5.298 -16.364   1.525  0.00  0.00    -0.650 OA
BRANCH  35  37
HETATM   37  O   UNK     0      -3.097 -16.875   1.702  0.00  0.00    -0.776 OA
HETATM   38  H   UNK     0      -2.376 -17.568   1.825  0.00  0.00     0.167 HD
ENDBRANCH  35  37
ENDBRANCH  34  35
ENDBRANCH  33  34
ENDBRANCH   6  33
BRANCH  27  39
HETATM   39  C   UNK     0     -11.357 -23.702  -0.199  0.00  0.00     0.051 C 
BRANCH  39  40
HETATM   40  C   UNK     0     -11.857 -22.689  -1.128  0.00  0.00     0.114 C 
BRANCH  40  41
HETATM   41  C   UNK     0     -12.912 -22.966  -2.076  0.00  0.00     0.139 C 
HETATM   42  O   UNK     0     -13.590 -22.085  -2.621  0.00  0.00    -0.650 OA
BRANCH  41  43
HETATM   43  O   UNK     0     -13.200 -24.319  -2.413  0.00  0.00    -0.776 OA
HETATM   44  H   UNK     0     -12.862 -24.605  -3.324  0.00  0.00     0.167 HD
ENDBRANCH  41  43
ENDBRANCH  40  41
ENDBRANCH  39  40
ENDBRANCH  27  39
BRANCH  11  45
HETATM   45  C   UNK     0      -2.784 -23.215  -5.821  0.00  0.00     0.051 C 
BRANCH  45  46
HETATM   46  C   UNK     0      -2.765 -22.259  -6.958  0.00  0.00     0.114 C 
BRANCH  46  47
HETATM   47  C   UNK     0      -3.455 -22.921  -8.103  0.00  0.00     0.139 C 
HETATM   48  O   UNK     0      -3.658 -24.142  -8.046  0.00  0.00    -0.650 OA
BRANCH  47  49
HETATM   49  O   UNK     0      -3.854 -22.195  -9.196  0.00  0.00    -0.776 OA
HETATM   50  H   UNK     0      -3.680 -21.187  -9.275  0.00  0.00     0.167 HD
ENDBRANCH  47  49
ENDBRANCH  46  47
ENDBRANCH  45  46
ENDBRANCH  11  45
BRANCH  18  51
HETATM   51  C   UNK     0      -8.838 -26.588  -4.962  0.00  0.00     0.051 C 
BRANCH  51  52
HETATM   52  C   UNK     0     -10.077 -26.249  -5.777  0.00  0.00     0.114 C 
BRANCH  52  53
HETATM   53  C   UNK     0     -11.314 -26.695  -5.107  0.00  0.00     0.139 C 
HETATM   54  O   UNK     0     -11.933 -25.918  -4.363  0.00  0.00    -0.650 OA
BRANCH  53  55
HETATM   55  O   UNK     0     -11.774 -27.974  -5.310  0.00  0.00    -0.776 OA
HETATM   56  H   UNK     0     -11.913 -28.411  -6.191  0.00  0.00     0.167 HD
ENDBRANCH  53  55
ENDBRANCH  52  53
ENDBRANCH  51  52
ENDBRANCH  18  51
TORSDOF 16
ENDMDL
MODEL 4
REMARK VINA RESULT:      -9.6     29.648     34.062
REMARK  16 active torsions:
REMARK  status: ('A' for Active; 'I' for Inactive)
REMARK    1  A    between atoms: C_6  and  C_7 
REMARK    2  A    between atoms: C_7  and  C_8 
REMARK    3  A    between atoms: C_8  and  C_9 
REMARK    4  A    between atoms: C_9  and  O_11 
REMARK    5  A    between atoms: C_16  and  C_17 
REMARK    6  A    between atoms: C_17  and  C_18 
REMARK    7  A    between atoms: C_18  and  C_19 
REMARK    8  A    between atoms: C_19  and  O_21 
REMARK    9  A    between atoms: C_28  and  C_29 
REMARK   10  A    between atoms: C_29  and  C_30 
REMARK   11  A    between atoms: C_30  and  C_31 
REMARK   12  A    between atoms: C_31  and  O_33 
REMARK   13  A    between atoms: C_42  and  C_43 
REMARK   14  A    between atoms: C_43  and  C_44 
REMARK   15  A    between atoms: C_44  and  C_45 
REMARK   16  A    between atoms: C_45  and  O_47 
ROOT
HETATM    1  C   UNK     0      -1.578 -18.443  -2.614  0.00  0.00     0.051 C 
HETATM    2  C   UNK     0      -2.173 -19.743  -3.115  0.00  0.00    -0.031 A 
HETATM    3  C   UNK     0      -2.293 -20.963  -2.468  0.00  0.00     0.021 A 
HETATM    4  N   UNK     0      -2.862 -21.856  -3.312  0.00  0.00    -0.361 N 
HETATM    5  C   UNK     0      -3.115 -21.230  -4.480  0.00  0.00     0.022 A 
HETATM    6  C   UNK     0      -2.694 -19.908  -4.392  0.00  0.00    -0.027 A 
HETATM    7  C   UNK     0      -3.815 -21.740  -5.701  0.00  0.00     0.115 C 
HETATM    8  C   UNK     0      -5.070 -22.564  -5.472  0.00  0.00     0.021 A 
HETATM    9  N   UNK     0      -6.005 -22.418  -4.521  0.00  0.00    -0.361 N 
HETATM   10  C   UNK     0      -6.890 -23.430  -4.644  0.00  0.00     0.022 A 
HETATM   11  C   UNK     0      -6.519 -24.245  -5.709  0.00  0.00    -0.027 A 
HETATM   12  C   UNK     0      -5.374 -23.706  -6.236  0.00  0.00    -0.031 A 
HETATM   13  C   UNK     0      -4.611 -24.258  -7.419  0.00  0.00     0.051 C 
HETATM   14  C   UNK     0      -8.085 -23.698  -3.733  0.00  0.00     0.115 C 
HETATM   15  C   UNK     0      -7.708 -23.955  -2.283  0.00  0.00     0.021 A 
HETATM   16  N   UNK     0      -7.033 -23.138  -1.453  0.00  0.00    -0.361 N 
HETATM   17  C   UNK     0      -6.844 -23.759  -0.286  0.00  0.00     0.022 A 
HETATM   18  C   UNK     0      -7.431 -25.038  -0.357  0.00  0.00    -0.027 A 
HETATM   19  C   UNK     0      -7.971 -25.147  -1.612  0.00  0.00    -0.031 A 
HETATM   20  C   UNK     0      -8.736 -26.365  -2.098  0.00  0.00     0.051 C 
HETATM   21  C   UNK     0      -6.088 -23.307   0.943  0.00  0.00     0.115 C 
HETATM   22  C   UNK     0      -4.862 -22.450   0.733  0.00  0.00     0.022 A 
HETATM   23  N   UNK     0      -3.917 -22.570  -0.208  0.00  0.00    -0.361 N 
HETATM   24  C   UNK     0      -3.090 -21.508  -0.116  0.00  0.00     0.021 A 
HETATM   25  C   UNK     0      -3.508 -20.690   0.916  0.00  0.00    -0.031 A 
HETATM   26  C   UNK     0      -2.884 -19.409   1.429  0.00  0.00     0.051 C 
HETATM   27  C   UNK     0      -4.641 -21.272   1.475  0.00  0.00    -0.027 A 
HETATM   28  C   UNK     0      -1.925 -21.156  -1.024  0.00  0.00     0.115 C 
HETATM   29  H   UNK     0      -3.044 -22.933  -3.090  0.00  0.00     0.165 HD
HETATM   30  H   UNK     0      -6.072 -21.573  -3.793  0.00  0.00     0.165 HD
HETATM   31  H   UNK     0      -6.725 -22.084  -1.677  0.00  0.00     0.165 HD
HETATM   32  H   UNK     0      -3.798 -23.429  -0.919  0.00  0.00     0.165 HD
ENDROOT
BRANCH   6  33
HETATM   33  C   UNK     0      -2.746 -18.803  -5.417  0.00  0.00     0.051 C 
BRANCH  33  34
HETATM   34  C   UNK     0      -1.678 -18.997  -6.468  0.00  0.00     0.114 C 
BRANCH  34  35
HETATM   35  C   UNK     0      -0.713 -17.868  -6.338  0.00  0.00     0.139 C 
HETATM   36  O   UNK     0       0.433 -17.945  -6.869  0.00  0.00    -0.650 OA
BRANCH  35  37
HETATM   37  O   UNK     0      -1.014 -16.701  -5.647  0.00  0.00    -0.776 OA
HETATM   38  H   UNK     0      -0.370 -16.284  -4.995  0.00  0.00     0.167 HD
ENDBRANCH  35  37
ENDBRANCH  34  35
ENDBRANCH  33  34
ENDBRANCH   6  33
BRANCH  27  39
HETATM   39  C   UNK     0      -5.337 -20.711   2.664  0.00  0.00     0.051 C 
BRANCH  39  40
HETATM   40  C   UNK     0      -6.512 -19.868   2.447  0.00  0.00     0.114 C 
BRANCH  40  41
HETATM   41  C   UNK     0      -6.408 -18.444   2.220  0.00  0.00     0.139 C 
HETATM   42  O   UNK     0      -7.088 -17.833   1.384  0.00  0.00    -0.650 OA
BRANCH  41  43
HETATM   43  O   UNK     0      -5.479 -17.688   2.990  0.00  0.00    -0.776 OA
HETATM   44  H   UNK     0      -5.866 -16.853   3.412  0.00  0.00     0.167 HD
ENDBRANCH  41  43
ENDBRANCH  40  41
ENDBRANCH  39  40
ENDBRANCH  27  39
BRANCH  11  45
HETATM   45  C   UNK     0      -7.201 -25.483  -6.229  0.00  0.00     0.051 C 
BRANCH  45  46
HETATM   46  C   UNK     0      -8.448 -25.214  -6.990  0.00  0.00     0.114 C 
BRANCH  46  47
HETATM   47  C   UNK     0      -8.291 -25.844  -8.332  0.00  0.00     0.139 C 
HETATM   48  O   UNK     0      -9.054 -26.769  -8.644  0.00  0.00    -0.650 OA
BRANCH  47  49
HETATM   49  O   UNK     0      -7.323 -25.412  -9.203  0.00  0.00    -0.776 OA
HETATM   50  H   UNK     0      -6.392 -25.843  -9.241  0.00  0.00     0.167 HD
ENDBRANCH  47  49
ENDBRANCH  46  47
ENDBRANCH  45  46
ENDBRANCH  11  45
BRANCH  18  51
HETATM   51  C   UNK     0      -7.494 -26.089   0.721  0.00  0.00     0.051 C 
BRANCH  51  52
HETATM   52  C   UNK     0      -6.054 -26.384   1.113  0.00  0.00     0.114 C 
BRANCH  52  53
HETATM   53  C   UNK     0      -5.566 -27.639   0.508  0.00  0.00     0.139 C 
HETATM   54  O   UNK     0      -6.008 -28.013  -0.590  0.00  0.00    -0.650 OA
BRANCH  53  55
HETATM   55  O   UNK     0      -4.625 -28.390   1.169  0.00  0.00    -0.776 OA
HETATM   56  H   UNK     0      -4.527 -28.470   2.154  0.00  0.00     0.167 HD
ENDBRANCH  53  55
ENDBRANCH  52  53
ENDBRANCH  51  52
ENDBRANCH  18  51
TORSDOF 16
ENDMDL
MODEL 5
REMARK VINA RESULT:      -9.3     32.044     34.147
REMARK  16 active torsions:
REMARK  status: ('A' for Active; 'I' for Inactive)
REMARK    1  A    between atoms: C_6  and  C_7 
REMARK    2  A    between atoms: C_7  and  C_8 
REMARK    3  A    between atoms: C_8  and  C_9 
REMARK    4  A    between atoms: C_9  and  O_11 
REMARK    5  A    between atoms: C_16  and  C_17 
REMARK    6  A    between atoms: C_17  and  C_18 
REMARK    7  A    between atoms: C_18  and  C_19 
REMARK    8  A    between atoms: C_19  and  O_21 
REMARK    9  A    between atoms: C_28  and  C_29 
REMARK   10  A    between atoms: C_29  and  C_30 
REMARK   11  A    between atoms: C_30  and  C_31 
REMARK   12  A    between atoms: C_31  and  O_33 
REMARK   13  A    between atoms: C_42  and  C_43 
REMARK   14  A    between atoms: C_43  and  C_44 
REMARK   15  A    between atoms: C_44  and  C_45 
REMARK   16  A    between atoms: C_45  and  O_47 
ROOT
HETATM    1  C   UNK     0      -7.019 -24.438   0.033  0.00  0.00     0.051 C 
HETATM    2  C   UNK     0      -8.210 -23.810   0.727  0.00  0.00    -0.031 A 
HETATM    3  C   UNK     0      -8.266 -23.123   1.929  0.00  0.00     0.021 A 
HETATM    4  N   UNK     0      -9.549 -22.766   2.174  0.00  0.00    -0.361 N 
HETATM    5  C   UNK     0     -10.311 -23.203   1.150  0.00  0.00     0.022 A 
HETATM    6  C   UNK     0      -9.505 -23.863   0.228  0.00  0.00    -0.027 A 
HETATM    7  C   UNK     0     -11.769 -22.989   0.889  0.00  0.00     0.115 C 
HETATM    8  C   UNK     0     -12.311 -21.595   1.152  0.00  0.00     0.021 A 
HETATM    9  N   UNK     0     -11.706 -20.413   0.961  0.00  0.00    -0.361 N 
HETATM   10  C   UNK     0     -12.526 -19.443   1.417  0.00  0.00     0.022 A 
HETATM   11  C   UNK     0     -13.696 -20.016   1.907  0.00  0.00    -0.027 A 
HETATM   12  C   UNK     0     -13.568 -21.371   1.743  0.00  0.00    -0.031 A 
HETATM   13  C   UNK     0     -14.605 -22.401   2.130  0.00  0.00     0.051 C 
HETATM   14  C   UNK     0     -12.220 -17.949   1.459  0.00  0.00     0.115 C 
HETATM   15  C   UNK     0     -11.015 -17.591   2.314  0.00  0.00     0.021 A 
HETATM   16  N   UNK     0      -9.749 -18.026   2.174  0.00  0.00    -0.361 N 
HETATM   17  C   UNK     0      -9.004 -17.536   3.167  0.00  0.00     0.022 A 
HETATM   18  C   UNK     0      -9.821 -16.735   3.988  0.00  0.00    -0.027 A 
HETATM   19  C   UNK     0     -11.078 -16.776   3.443  0.00  0.00    -0.031 A 
HETATM   20  C   UNK     0     -12.266 -16.014   4.002  0.00  0.00     0.051 C 
HETATM   21  C   UNK     0      -7.550 -17.780   3.502  0.00  0.00     0.115 C 
HETATM   22  C   UNK     0      -6.986 -19.149   3.205  0.00  0.00     0.022 A 
HETATM   23  N   UNK     0      -7.567 -20.343   3.381  0.00  0.00    -0.361 N 
HETATM   24  C   UNK     0      -6.766 -21.287   2.849  0.00  0.00     0.021 A 
HETATM   25  C   UNK     0      -5.636 -20.688   2.326  0.00  0.00    -0.031 A 
HETATM   26  C   UNK     0      -4.435 -21.332   1.665  0.00  0.00     0.051 C 
HETATM   27  C   UNK     0      -5.753 -19.320   2.542  0.00  0.00    -0.027 A 
HETATM   28  C   UNK     0      -7.039 -22.776   2.725  0.00  0.00     0.115 C 
HETATM   29  H   UNK     0      -9.914 -22.242   3.088  0.00  0.00     0.165 HD
HETATM   30  H   UNK     0     -10.720 -20.256   0.458  0.00  0.00     0.165 HD
HETATM   31  H   UNK     0      -9.362 -18.654   1.329  0.00  0.00     0.165 HD
HETATM   32  H   UNK     0      -8.530 -20.534   3.923  0.00  0.00     0.165 HD
ENDROOT
BRANCH   6  33
HETATM   33  C   UNK     0      -9.868 -24.533  -1.073  0.00  0.00     0.051 C 
BRANCH  33  34
HETATM   34  C   UNK     0     -10.067 -26.017  -0.873  0.00  0.00     0.114 C 
BRANCH  34  35
HETATM   35  C   UNK     0      -9.542 -26.706  -2.087  0.00  0.00     0.139 C 
HETATM   36  O   UNK     0      -8.357 -26.493  -2.477  0.00  0.00    -0.650 OA
BRANCH  35  37
HETATM   37  O   UNK     0     -10.305 -27.595  -2.833  0.00  0.00    -0.776 OA
HETATM   38  H   UNK     0     -11.048 -28.137  -2.422  0.00  0.00     0.167 HD
ENDBRANCH  35  37
ENDBRANCH  34  35
ENDBRANCH  33  34
ENDBRANCH   6  33
BRANCH  27  39
HETATM   39  C   UNK     0      -4.688 -18.347   2.177  0.00  0.00     0.051 C 
BRANCH  39  40
HETATM   40  C   UNK     0      -4.582 -17.927   0.780  0.00  0.00     0.114 C 
BRANCH  40  41
HETATM   41  C   UNK     0      -5.469 -16.942   0.203  0.00  0.00     0.139 C 
HETATM   42  O   UNK     0      -6.512 -17.231  -0.400  0.00  0.00    -0.650 OA
BRANCH  41  43
HETATM   43  O   UNK     0      -5.142 -15.561   0.324  0.00  0.00    -0.776 OA
HETATM   44  H   UNK     0      -5.942 -14.946   0.402  0.00  0.00     0.167 HD
ENDBRANCH  41  43
ENDBRANCH  40  41
ENDBRANCH  39  40
ENDBRANCH  27  39
BRANCH  11  45
HETATM   45  C   UNK     0     -14.899 -19.336   2.506  0.00  0.00     0.051 C 
BRANCH  45  46
HETATM   46  C   UNK     0     -15.913 -18.909   1.508  0.00  0.00     0.114 C 
BRANCH  46  47
HETATM   47  C   UNK     0     -17.171 -19.648   1.814  0.00  0.00     0.139 C 
HETATM   48  O   UNK     0     -17.445 -20.654   1.144  0.00  0.00    -0.650 OA
BRANCH  47  49
HETATM   49  O   UNK     0     -18.010 -19.224   2.813  0.00  0.00    -0.776 OA
HETATM   50  H   UNK     0     -17.669 -18.691   3.622  0.00  0.00     0.167 HD
ENDBRANCH  47  49
ENDBRANCH  46  47
ENDBRANCH  45  46
ENDBRANCH  11  45
BRANCH  18  51
HETATM   51  C   UNK     0      -9.422 -15.956   5.214  0.00  0.00     0.051 C 
BRANCH  51  52
HETATM   52  C   UNK     0      -8.850 -14.638   4.713  0.00  0.00     0.114 C 
BRANCH  52  53
HETATM   53  C   UNK     0      -7.435 -14.470   5.099  0.00  0.00     0.139 C 
HETATM   54  O   UNK     0      -6.865 -15.348   5.766  0.00  0.00    -0.650 OA
BRANCH  53  55
HETATM   55  O   UNK     0      -6.757 -13.338   4.720  0.00  0.00    -0.776 OA
HETATM   56  H   UNK     0      -5.774 -13.256   4.608  0.00  0.00     0.167 HD
ENDBRANCH  53  55
ENDBRANCH  52  53
ENDBRANCH  51  52
ENDBRANCH  18  51
TORSDOF 16
ENDMDL
MODEL 6
REMARK VINA RESULT:      -9.2     31.627     34.832
REMARK  16 active torsions:
REMARK  status: ('A' for Active; 'I' for Inactive)
REMARK    1  A    between atoms: C_6  and  C_7 
REMARK    2  A    between atoms: C_7  and  C_8 
REMARK    3  A    between atoms: C_8  and  C_9 
REMARK    4  A    between atoms: C_9  and  O_11 
REMARK    5  A    between atoms: C_16  and  C_17 
REMARK    6  A    between atoms: C_17  and  C_18 
REMARK    7  A    between atoms: C_18  and  C_19 
REMARK    8  A    between atoms: C_19  and  O_21 
REMARK    9  A    between atoms: C_28  and  C_29 
REMARK   10  A    between atoms: C_29  and  C_30 
REMARK   11  A    between atoms: C_30  and  C_31 
REMARK   12  A    between atoms: C_31  and  O_33 
REMARK   13  A    between atoms: C_42  and  C_43 
REMARK   14  A    between atoms: C_43  and  C_44 
REMARK   15  A    between atoms: C_44  and  C_45 
REMARK   16  A    between atoms: C_45  and  O_47 
ROOT
HETATM    1  C   UNK     0     -14.727 -18.651   3.004  0.00  0.00     0.051 C 
HETATM    2  C   UNK     0     -13.717 -19.338   2.107  0.00  0.00    -0.031 A 
HETATM    3  C   UNK     0     -12.473 -18.898   1.684  0.00  0.00     0.021 A 
HETATM    4  N   UNK     0     -11.931 -19.828   0.863  0.00  0.00    -0.361 N 
HETATM    5  C   UNK     0     -12.799 -20.856   0.761  0.00  0.00     0.022 A 
HETATM    6  C   UNK     0     -13.929 -20.581   1.524  0.00  0.00    -0.027 A 
HETATM    7  C   UNK     0     -12.643 -22.167   0.055  0.00  0.00     0.115 C 
HETATM    8  C   UNK     0     -11.301 -22.863   0.198  0.00  0.00     0.021 A 
HETATM    9  N   UNK     0     -10.486 -22.896   1.264  0.00  0.00    -0.361 N 
HETATM   10  C   UNK     0      -9.360 -23.553   0.911  0.00  0.00     0.022 A 
HETATM   11  C   UNK     0      -9.457 -23.961  -0.416  0.00  0.00    -0.027 A 
HETATM   12  C   UNK     0     -10.677 -23.530  -0.871  0.00  0.00    -0.031 A 
HETATM   13  C   UNK     0     -11.218 -23.753  -2.265  0.00  0.00     0.051 C 
HETATM   14  C   UNK     0      -8.132 -23.774   1.790  0.00  0.00     0.115 C 
HETATM   15  C   UNK     0      -7.462 -22.488   2.246  0.00  0.00     0.021 A 
HETATM   16  N   UNK     0      -8.009 -21.484   2.957  0.00  0.00    -0.361 N 
HETATM   17  C   UNK     0      -7.113 -20.504   3.093  0.00  0.00     0.022 A 
HETATM   18  C   UNK     0      -5.922 -20.891   2.447  0.00  0.00    -0.027 A 
HETATM   19  C   UNK     0      -6.154 -22.136   1.922  0.00  0.00    -0.031 A 
HETATM   20  C   UNK     0      -5.110 -22.942   1.170  0.00  0.00     0.051 C 
HETATM   21  C   UNK     0      -7.252 -19.143   3.737  0.00  0.00     0.115 C 
HETATM   22  C   UNK     0      -8.595 -18.459   3.640  0.00  0.00     0.022 A 
HETATM   23  N   UNK     0      -9.429 -18.412   2.594  0.00  0.00    -0.361 N 
HETATM   24  C   UNK     0     -10.575 -17.823   2.991  0.00  0.00     0.021 A 
HETATM   25  C   UNK     0     -10.472 -17.472   4.323  0.00  0.00    -0.031 A 
HETATM   26  C   UNK     0     -11.476 -16.754   5.200  0.00  0.00     0.051 C 
HETATM   27  C   UNK     0      -9.213 -17.868   4.761  0.00  0.00    -0.027 A 
HETATM   28  C   UNK     0     -11.847 -17.626   2.185  0.00  0.00     0.115 C 
HETATM   29  H   UNK     0     -10.956 -19.735   0.331  0.00  0.00     0.165 HD
HETATM   30  H   UNK     0     -10.723 -22.501   2.282  0.00  0.00     0.165 HD
HETATM   31  H   UNK     0      -9.033 -21.487   3.414  0.00  0.00     0.165 HD
HETATM   32  H   UNK     0      -9.201 -18.757   1.551  0.00  0.00     0.165 HD
ENDROOT
BRANCH   6  33
HETATM   33  C   UNK     0     -15.178 -21.397   1.736  0.00  0.00     0.051 C 
BRANCH  33  34
HETATM   34  C   UNK     0     -16.110 -21.266   0.555  0.00  0.00     0.114 C 
BRANCH  34  35
HETATM   35  C   UNK     0     -17.223 -20.360   0.963  0.00  0.00     0.139 C 
HETATM   36  O   UNK     0     -17.211 -19.142   0.621  0.00  0.00    -0.650 OA
BRANCH  35  37
HETATM   37  O   UNK     0     -18.305 -20.796   1.717  0.00  0.00    -0.776 OA
HETATM   38  H   UNK     0     -18.362 -20.638   2.711  0.00  0.00     0.167 HD
ENDBRANCH  35  37
ENDBRANCH  34  35
ENDBRANCH  33  34
ENDBRANCH   6  33
BRANCH  27  39
HETATM   39  C   UNK     0      -8.709 -17.593   6.134  0.00  0.00     0.051 C 
BRANCH  39  40
HETATM   40  C   UNK     0      -8.282 -16.232   6.456  0.00  0.00     0.114 C 
BRANCH  40  41
HETATM   41  C   UNK     0      -7.735 -15.339   5.460  0.00  0.00     0.139 C 
HETATM   42  O   UNK     0      -6.747 -15.613   4.765  0.00  0.00    -0.650 OA
BRANCH  41  43
HETATM   43  O   UNK     0      -8.352 -14.073   5.252  0.00  0.00    -0.776 OA
HETATM   44  H   UNK     0      -7.839 -13.289   5.636  0.00  0.00     0.167 HD
ENDBRANCH  41  43
ENDBRANCH  40  41
ENDBRANCH  39  40
ENDBRANCH  27  39
BRANCH  11  45
HETATM   45  C   UNK     0      -8.458 -24.728  -1.240  0.00  0.00     0.051 C 
BRANCH  45  46
HETATM   46  C   UNK     0      -8.515 -26.199  -1.048  0.00  0.00     0.114 C 
BRANCH  46  47
HETATM   47  C   UNK     0      -8.993 -26.794  -2.330  0.00  0.00     0.139 C 
HETATM   48  O   UNK     0      -8.270 -26.699  -3.332  0.00  0.00    -0.650 OA
BRANCH  47  49
HETATM   49  O   UNK     0     -10.206 -27.431  -2.400  0.00  0.00    -0.776 OA
HETATM   50  H   UNK     0     -10.759 -27.645  -1.561  0.00  0.00     0.167 HD
ENDBRANCH  47  49
ENDBRANCH  46  47
ENDBRANCH  45  46
ENDBRANCH  11  45
BRANCH  18  51
HETATM   51  C   UNK     0      -4.628 -20.126   2.354  0.00  0.00     0.051 C 
BRANCH  51  52
HETATM   52  C   UNK     0      -3.766 -20.605   3.512  0.00  0.00     0.114 C 
BRANCH  52  53
HETATM   53  C   UNK     0      -2.327 -20.550   3.186  0.00  0.00     0.139 C 
HETATM   54  O   UNK     0      -1.940 -20.821   2.038  0.00  0.00    -0.650 OA
BRANCH  53  55
HETATM   55  O   UNK     0      -1.423 -20.202   4.159  0.00  0.00    -0.776 OA
HETATM   56  H   UNK     0      -1.575 -19.551   4.892  0.00  0.00     0.167 HD
ENDBRANCH  53  55
ENDBRANCH  52  53
ENDBRANCH  51  52
ENDBRANCH  18  51
TORSDOF 16
ENDMDL
MODEL 7
REMARK VINA RESULT:      -9.1     32.748     35.106
REMARK  16 active torsions:
REMARK  status: ('A' for Active; 'I' for Inactive)
REMARK    1  A    between atoms: C_6  and  C_7 
REMARK    2  A    between atoms: C_7  and  C_8 
REMARK    3  A    between atoms: C_8  and  C_9 
REMARK    4  A    between atoms: C_9  and  O_11 
REMARK    5  A    between atoms: C_16  and  C_17 
REMARK    6  A    between atoms: C_17  and  C_18 
REMARK    7  A    between atoms: C_18  and  C_19 
REMARK    8  A    between atoms: C_19  and  O_21 
REMARK    9  A    between atoms: C_28  and  C_29 
REMARK   10  A    between atoms: C_29  and  C_30 
REMARK   11  A    between atoms: C_30  and  C_31 
REMARK   12  A    between atoms: C_31  and  O_33 
REMARK   13  A    between atoms: C_42  and  C_43 
REMARK   14  A    between atoms: C_43  and  C_44 
REMARK   15  A    between atoms: C_44  and  C_45 
REMARK   16  A    between atoms: C_45  and  O_47 
ROOT
HETATM    1  C   UNK     0      -5.693 -24.007   0.465  0.00  0.00     0.051 C 
HETATM    2  C   UNK     0      -6.827 -23.458   1.306  0.00  0.00    -0.031 A 
HETATM    3  C   UNK     0      -6.777 -22.655   2.434  0.00  0.00     0.021 A 
HETATM    4  N   UNK     0      -8.039 -22.434   2.875  0.00  0.00    -0.361 N 
HETATM    5  C   UNK     0      -8.892 -23.072   2.047  0.00  0.00     0.022 A 
HETATM    6  C   UNK     0      -8.167 -23.725   1.056  0.00  0.00    -0.027 A 
HETATM    7  C   UNK     0     -10.389 -23.071   2.037  0.00  0.00     0.115 C 
HETATM    8  C   UNK     0     -11.070 -21.734   2.271  0.00  0.00     0.021 A 
HETATM    9  N   UNK     0     -10.678 -20.514   1.871  0.00  0.00    -0.361 N 
HETATM   10  C   UNK     0     -11.539 -19.609   2.383  0.00  0.00     0.022 A 
HETATM   11  C   UNK     0     -12.518 -20.264   3.124  0.00  0.00    -0.027 A 
HETATM   12  C   UNK     0     -12.229 -21.603   3.057  0.00  0.00    -0.031 A 
HETATM   13  C   UNK     0     -13.031 -22.704   3.714  0.00  0.00     0.051 C 
HETATM   14  C   UNK     0     -11.444 -18.093   2.238  0.00  0.00     0.115 C 
HETATM   15  C   UNK     0     -10.176 -17.496   2.827  0.00  0.00     0.021 A 
HETATM   16  N   UNK     0      -8.903 -17.785   2.498  0.00  0.00    -0.361 N 
HETATM   17  C   UNK     0      -8.078 -17.100   3.294  0.00  0.00     0.022 A 
HETATM   18  C   UNK     0      -8.851 -16.320   4.177  0.00  0.00    -0.027 A 
HETATM   19  C   UNK     0     -10.163 -16.577   3.873  0.00  0.00    -0.031 A 
HETATM   20  C   UNK     0     -11.336 -15.910   4.569  0.00  0.00     0.051 C 
HETATM   21  C   UNK     0      -6.569 -17.123   3.381  0.00  0.00     0.115 C 
HETATM   22  C   UNK     0      -5.875 -18.437   3.107  0.00  0.00     0.022 A 
HETATM   23  N   UNK     0      -6.245 -19.666   3.489  0.00  0.00    -0.361 N 
HETATM   24  C   UNK     0      -5.419 -20.558   2.904  0.00  0.00     0.021 A 
HETATM   25  C   UNK     0      -4.488 -19.885   2.136  0.00  0.00    -0.031 A 
HETATM   26  C   UNK     0      -3.336 -20.445   1.327  0.00  0.00     0.051 C 
HETATM   27  C   UNK     0      -4.759 -18.526   2.250  0.00  0.00    -0.027 A 
HETATM   28  C   UNK     0      -5.496 -22.073   2.962  0.00  0.00     0.115 C 
HETATM   29  H   UNK     0      -8.315 -21.862   3.791  0.00  0.00     0.165 HD
HETATM   30  H   UNK     0      -9.823 -20.293   1.187  0.00  0.00     0.165 HD
HETATM   31  H   UNK     0      -8.578 -18.450   1.656  0.00  0.00     0.165 HD
HETATM   32  H   UNK     0      -7.066 -19.915   4.210  0.00  0.00     0.165 HD
ENDROOT
BRANCH   6  33
HETATM   33  C   UNK     0      -8.645 -24.575  -0.094  0.00  0.00     0.051 C 
BRANCH  33  34
HETATM   34  C   UNK     0      -8.773 -26.021   0.325  0.00  0.00     0.114 C 
BRANCH  34  35
HETATM   35  C   UNK     0     -10.105 -26.504  -0.139  0.00  0.00     0.139 C 
HETATM   36  O   UNK     0     -11.015 -25.677  -0.436  0.00  0.00    -0.650 OA
BRANCH  35  37
HETATM   37  O   UNK     0     -10.408 -27.854  -0.270  0.00  0.00    -0.776 OA
HETATM   38  H   UNK     0     -10.286 -28.505   0.488  0.00  0.00     0.167 HD
ENDBRANCH  35  37
ENDBRANCH  34  35
ENDBRANCH  33  34
ENDBRANCH   6  33
BRANCH  27  39
HETATM   39  C   UNK     0      -3.919 -17.476   1.615  0.00  0.00     0.051 C 
BRANCH  39  40
HETATM   40  C   UNK     0      -4.136 -17.174   0.200  0.00  0.00     0.114 C 
BRANCH  40  41
HETATM   41  C   UNK     0      -5.249 -16.370  -0.254  0.00  0.00     0.139 C 
HETATM   42  O   UNK     0      -6.342 -16.845  -0.591  0.00  0.00    -0.650 OA
BRANCH  41  43
HETATM   43  O   UNK     0      -5.098 -14.956  -0.323  0.00  0.00    -0.776 OA
HETATM   44  H   UNK     0      -5.672 -14.440   0.332  0.00  0.00     0.167 HD
ENDBRANCH  41  43
ENDBRANCH  40  41
ENDBRANCH  39  40
ENDBRANCH  27  39
BRANCH  11  45
HETATM   45  C   UNK     0     -13.687 -19.677   3.869  0.00  0.00     0.051 C 
BRANCH  45  46
HETATM   46  C   UNK     0     -13.368 -19.248   5.254  0.00  0.00     0.114 C 
BRANCH  46  47
HETATM   47  C   UNK     0     -14.433 -18.292   5.676  0.00  0.00     0.139 C 
HETATM   48  O   UNK     0     -15.494 -18.269   5.038  0.00  0.00    -0.650 OA
BRANCH  47  49
HETATM   49  O   UNK     0     -14.242 -17.456   6.747  0.00  0.00    -0.776 OA
HETATM   50  H   UNK     0     -13.436 -17.551   7.377  0.00  0.00     0.167 HD
ENDBRANCH  47  49
ENDBRANCH  46  47
ENDBRANCH  45  46
ENDBRANCH  11  45
BRANCH  18  51
HETATM   51  C   UNK     0      -8.366 -15.367   5.238  0.00  0.00     0.051 C 
BRANCH  51  52
HETATM   52  C   UNK     0      -8.344 -16.154   6.540  0.00  0.00     0.114 C 
BRANCH  52  53
HETATM   53  C   UNK     0      -9.008 -15.421   7.636  0.00  0.00     0.139 C 
HETATM   54  O   UNK     0      -9.145 -15.956   8.747  0.00  0.00    -0.650 OA
BRANCH  53  55
HETATM   55  O   UNK     0      -9.475 -14.148   7.417  0.00  0.00    -0.776 OA
HETATM   56  H   UNK     0      -9.442 -13.395   8.063  0.00  0.00     0.167 HD
ENDBRANCH  53  55
ENDBRANCH  52  53
ENDBRANCH  51  52
ENDBRANCH  18  51
TORSDOF 16
ENDMDL
MODEL 8
REMARK VINA RESULT:      -9.1     31.692     34.680
REMARK  16 active torsions:
REMARK  status: ('A' for Active; 'I' for Inactive)
REMARK    1  A    between atoms: C_6  and  C_7 
REMARK    2  A    between atoms: C_7  and  C_8 
REMARK    3  A    between atoms: C_8  and  C_9 
REMARK    4  A    between atoms: C_9  and  O_11 
REMARK    5  A    between atoms: C_16  and  C_17 
REMARK    6  A    between atoms: C_17  and  C_18 
REMARK    7  A    between atoms: C_18  and  C_19 
REMARK    8  A    between atoms: C_19  and  O_21 
REMARK    9  A    between atoms: C_28  and  C_29 
REMARK   10  A    between atoms: C_29  and  C_30 
REMARK   11  A    between atoms: C_30  and  C_31 
REMARK   12  A    between atoms: C_31  and  O_33 
REMARK   13  A    between atoms: C_42  and  C_43 
REMARK   14  A    between atoms: C_43  and  C_44 
REMARK   15  A    between atoms: C_44  and  C_45 
REMARK   16  A    between atoms: C_45  and  O_47 
ROOT
HETATM    1  C   UNK     0     -15.100 -17.956   2.861  0.00  0.00     0.051 C 
HETATM    2  C   UNK     0     -14.071 -18.723   2.056  0.00  0.00    -0.031 A 
HETATM    3  C   UNK     0     -12.784 -18.354   1.695  0.00  0.00     0.021 A 
HETATM    4  N   UNK     0     -12.236 -19.340   0.947  0.00  0.00    -0.361 N 
HETATM    5  C   UNK     0     -13.142 -20.333   0.830  0.00  0.00     0.022 A 
HETATM    6  C   UNK     0     -14.302 -19.978   1.510  0.00  0.00    -0.027 A 
HETATM    7  C   UNK     0     -13.003 -21.678   0.187  0.00  0.00     0.115 C 
HETATM    8  C   UNK     0     -11.705 -22.424   0.441  0.00  0.00     0.021 A 
HETATM    9  N   UNK     0     -10.958 -22.448   1.556  0.00  0.00    -0.361 N 
HETATM   10  C   UNK     0      -9.844 -23.166   1.299  0.00  0.00     0.022 A 
HETATM   11  C   UNK     0      -9.878 -23.625  -0.014  0.00  0.00    -0.027 A 
HETATM   12  C   UNK     0     -11.048 -23.161  -0.561  0.00  0.00    -0.031 A 
HETATM   13  C   UNK     0     -11.514 -23.418  -1.976  0.00  0.00     0.051 C 
HETATM   14  C   UNK     0      -8.683 -23.402   2.261  0.00  0.00     0.115 C 
HETATM   15  C   UNK     0      -7.984 -22.128   2.708  0.00  0.00     0.021 A 
HETATM   16  N   UNK     0      -8.527 -21.074   3.344  0.00  0.00    -0.361 N 
HETATM   17  C   UNK     0      -7.598 -20.128   3.496  0.00  0.00     0.022 A 
HETATM   18  C   UNK     0      -6.389 -20.592   2.942  0.00  0.00    -0.027 A 
HETATM   19  C   UNK     0      -6.644 -21.847   2.453  0.00  0.00    -0.031 A 
HETATM   20  C   UNK     0      -5.594 -22.727   1.799  0.00  0.00     0.051 C 
HETATM   21  C   UNK     0      -7.714 -18.737   4.078  0.00  0.00     0.115 C 
HETATM   22  C   UNK     0      -9.016 -18.000   3.871  0.00  0.00     0.022 A 
HETATM   23  N   UNK     0      -9.782 -17.961   2.773  0.00  0.00    -0.361 N 
HETATM   24  C   UNK     0     -10.922 -17.307   3.075  0.00  0.00     0.021 A 
HETATM   25  C   UNK     0     -10.884 -16.906   4.396  0.00  0.00    -0.031 A 
HETATM   26  C   UNK     0     -11.907 -16.110   5.180  0.00  0.00     0.051 C 
HETATM   27  C   UNK     0      -9.674 -17.338   4.927  0.00  0.00    -0.027 A 
HETATM   28  C   UNK     0     -12.133 -17.091   2.184  0.00  0.00     0.115 C 
HETATM   29  H   UNK     0     -11.227 -19.311   0.473  0.00  0.00     0.165 HD
HETATM   30  H   UNK     0     -11.239 -22.001   2.541  0.00  0.00     0.165 HD
HETATM   31  H   UNK     0      -9.576 -21.013   3.736  0.00  0.00     0.165 HD
HETATM   32  H   UNK     0      -9.507 -18.358   1.761  0.00  0.00     0.165 HD
ENDROOT
BRANCH   6  33
HETATM   33  C   UNK     0     -15.598 -20.731   1.675  0.00  0.00     0.051 C 
BRANCH  33  34
HETATM   34  C   UNK     0     -16.626 -20.254   0.677  0.00  0.00     0.114 C 
BRANCH  34  35
HETATM   35  C   UNK     0     -17.927 -20.140   1.395  0.00  0.00     0.139 C 
HETATM   36  O   UNK     0     -18.952 -20.737   0.955  0.00  0.00    -0.650 OA
BRANCH  35  37
HETATM   37  O   UNK     0     -18.079 -19.392   2.557  0.00  0.00    -0.776 OA
HETATM   38  H   UNK     0     -18.856 -19.529   3.182  0.00  0.00     0.167 HD
ENDBRANCH  35  37
ENDBRANCH  34  35
ENDBRANCH  33  34
ENDBRANCH   6  33
BRANCH  27  39
HETATM   39  C   UNK     0      -9.241 -17.027   6.316  0.00  0.00     0.051 C 
BRANCH  39  40
HETATM   40  C   UNK     0      -8.230 -15.989   6.513  0.00  0.00     0.114 C 
BRANCH  40  41
HETATM   41  C   UNK     0      -7.876 -15.051   5.472  0.00  0.00     0.139 C 
HETATM   42  O   UNK     0      -6.924 -15.216   4.697  0.00  0.00    -0.650 OA
BRANCH  41  43
HETATM   43  O   UNK     0      -8.654 -13.868   5.315  0.00  0.00    -0.776 OA
HETATM   44  H   UNK     0      -8.137 -13.071   4.963  0.00  0.00     0.167 HD
ENDBRANCH  41  43
ENDBRANCH  40  41
ENDBRANCH  39  40
ENDBRANCH  27  39
BRANCH  11  45
HETATM   45  C   UNK     0      -8.867 -24.467  -0.744  0.00  0.00     0.051 C 
BRANCH  45  46
HETATM   46  C   UNK     0      -8.993 -25.924  -0.487  0.00  0.00     0.114 C 
BRANCH  46  47
HETATM   47  C   UNK     0      -7.625 -26.440  -0.192  0.00  0.00     0.139 C 
HETATM   48  O   UNK     0      -6.870 -25.751   0.508  0.00  0.00    -0.650 OA
BRANCH  47  49
HETATM   49  O   UNK     0      -7.210 -27.651  -0.686  0.00  0.00    -0.776 OA
HETATM   50  H   UNK     0      -7.835 -28.265  -1.221  0.00  0.00     0.167 HD
ENDBRANCH  47  49
ENDBRANCH  46  47
ENDBRANCH  45  46
ENDBRANCH  11  45
BRANCH  18  51
HETATM   51  C   UNK     0      -5.058 -19.887   2.900  0.00  0.00     0.051 C 
BRANCH  51  52
HETATM   52  C   UNK     0      -5.093 -18.983   1.677  0.00  0.00     0.114 C 
BRANCH  52  53
HETATM   53  C   UNK     0      -4.756 -17.587   2.015  0.00  0.00     0.139 C 
HETATM   54  O   UNK     0      -3.569 -17.225   2.048  0.00  0.00    -0.650 OA
BRANCH  53  55
HETATM   55  O   UNK     0      -5.761 -16.694   2.297  0.00  0.00    -0.776 OA
HETATM   56  H   UNK     0      -6.358 -16.258   1.634  0.00  0.00     0.167 HD
ENDBRANCH  53  55
ENDBRANCH  52  53
ENDBRANCH  51  52
ENDBRANCH  18  51
TORSDOF 16
ENDMDL
MODEL 9
REMARK VINA RESULT:      -9.0     29.673     34.148
REMARK  16 active torsions:
REMARK  status: ('A' for Active; 'I' for Inactive)
REMARK    1  A    between atoms: C_6  and  C_7 
REMARK    2  A    between atoms: C_7  and  C_8 
REMARK    3  A    between atoms: C_8  and  C_9 
REMARK    4  A    between atoms: C_9  and  O_11 
REMARK    5  A    between atoms: C_16  and  C_17 
REMARK    6  A    between atoms: C_17  and  C_18 
REMARK    7  A    between atoms: C_18  and  C_19 
REMARK    8  A    between atoms: C_19  and  O_21 
REMARK    9  A    between atoms: C_28  and  C_29 
REMARK   10  A    between atoms: C_29  and  C_30 
REMARK   11  A    between atoms: C_30  and  C_31 
REMARK   12  A    between atoms: C_31  and  O_33 
REMARK   13  A    between atoms: C_42  and  C_43 
REMARK   14  A    between atoms: C_43  and  C_44 
REMARK   15  A    between atoms: C_44  and  C_45 
REMARK   16  A    between atoms: C_45  and  O_47 
ROOT
HETATM    1  C   UNK     0      -2.117 -18.534  -0.908  0.00  0.00     0.051 C 
HETATM    2  C   UNK     0      -2.517 -19.747  -1.724  0.00  0.00    -0.031 A 
HETATM    3  C   UNK     0      -2.705 -21.058  -1.316  0.00  0.00     0.021 A 
HETATM    4  N   UNK     0      -3.029 -21.813  -2.393  0.00  0.00    -0.361 N 
HETATM    5  C   UNK     0      -3.059 -21.009  -3.476  0.00  0.00     0.022 A 
HETATM    6  C   UNK     0      -2.741 -19.711  -3.094  0.00  0.00    -0.027 A 
HETATM    7  C   UNK     0      -3.452 -21.326  -4.886  0.00  0.00     0.115 C 
HETATM    8  C   UNK     0      -4.678 -22.202  -5.071  0.00  0.00     0.021 A 
HETATM    9  N   UNK     0      -5.803 -22.231  -4.340  0.00  0.00    -0.361 N 
HETATM   10  C   UNK     0      -6.584 -23.227  -4.810  0.00  0.00     0.022 A 
HETATM   11  C   UNK     0      -5.948 -23.850  -5.881  0.00  0.00    -0.027 A 
HETATM   12  C   UNK     0      -4.748 -23.209  -6.050  0.00  0.00    -0.031 A 
HETATM   13  C   UNK     0      -3.719 -23.545  -7.106  0.00  0.00     0.051 C 
HETATM   14  C   UNK     0      -7.930 -23.664  -4.239  0.00  0.00     0.115 C 
HETATM   15  C   UNK     0      -7.860 -24.147  -2.799  0.00  0.00     0.021 A 
HETATM   16  N   UNK     0      -7.426 -23.464  -1.724  0.00  0.00    -0.361 N 
HETATM   17  C   UNK     0      -7.457 -24.263  -0.655  0.00  0.00     0.022 A 
HETATM   18  C   UNK     0      -7.944 -25.524  -1.051  0.00  0.00    -0.027 A 
HETATM   19  C   UNK     0      -8.194 -25.438  -2.396  0.00  0.00    -0.031 A 
HETATM   20  C   UNK     0      -8.769 -26.575  -3.222  0.00  0.00     0.051 C 
HETATM   21  C   UNK     0      -7.010 -24.003   0.766  0.00  0.00     0.115 C 
HETATM   22  C   UNK     0      -5.817 -23.098   0.967  0.00  0.00     0.022 A 
HETATM   23  N   UNK     0      -4.686 -23.045   0.252  0.00  0.00    -0.361 N 
HETATM   24  C   UNK     0      -3.958 -21.996   0.688  0.00  0.00     0.021 A 
HETATM   25  C   UNK     0      -4.633 -21.366   1.716  0.00  0.00    -0.031 A 
HETATM   26  C   UNK     0      -4.205 -20.174   2.547  0.00  0.00     0.051 C 
HETATM   27  C   UNK     0      -5.825 -22.053   1.913  0.00  0.00    -0.027 A 
HETATM   28  C   UNK     0      -2.646 -21.477   0.126  0.00  0.00     0.115 C 
HETATM   29  H   UNK     0      -3.195 -22.915  -2.387  0.00  0.00     0.165 HD
HETATM   30  H   UNK     0      -6.071 -21.518  -3.522  0.00  0.00     0.165 HD
HETATM   31  H   UNK     0      -7.135 -22.381  -1.708  0.00  0.00     0.165 HD
HETATM   32  H   UNK     0      -4.370 -23.773  -0.540  0.00  0.00     0.165 HD
ENDROOT
BRANCH   6  33
HETATM   33  C   UNK     0      -2.632 -18.455  -3.921  0.00  0.00     0.051 C 
BRANCH  33  34
HETATM   34  C   UNK     0      -1.185 -18.105  -4.176  0.00  0.00     0.114 C 
BRANCH  34  35
HETATM   35  C   UNK     0      -1.017 -17.947  -5.649  0.00  0.00     0.139 C 
HETATM   36  O   UNK     0      -1.770 -17.161  -6.295  0.00  0.00    -0.650 OA
BRANCH  35  37
HETATM   37  O   UNK     0      -0.048 -18.633  -6.371  0.00  0.00    -0.776 OA
HETATM   38  H   UNK     0       0.241 -19.566  -6.125  0.00  0.00     0.167 HD
ENDBRANCH  35  37
ENDBRANCH  34  35
ENDBRANCH  33  34
ENDBRANCH   6  33
BRANCH  27  39
HETATM   39  C   UNK     0      -6.791 -21.708   2.991  0.00  0.00     0.051 C 
BRANCH  39  40
HETATM   40  C   UNK     0      -7.938 -20.867   2.652  0.00  0.00     0.114 C 
BRANCH  40  41
HETATM   41  C   UNK     0      -8.064 -19.508   3.127  0.00  0.00     0.139 C 
HETATM   42  O   UNK     0      -7.352 -18.576   2.730  0.00  0.00    -0.650 OA
BRANCH  41  43
HETATM   43  O   UNK     0      -9.055 -19.206   4.105  0.00  0.00    -0.776 OA
HETATM   44  H   UNK     0      -9.120 -18.224   4.346  0.00  0.00     0.167 HD
ENDBRANCH  41  43
ENDBRANCH  40  41
ENDBRANCH  39  40
ENDBRANCH  27  39
BRANCH  11  45
HETATM   45  C   UNK     0      -6.432 -24.999  -6.724  0.00  0.00     0.051 C 
BRANCH  45  46
HETATM   46  C   UNK     0      -7.124 -24.586  -7.972  0.00  0.00     0.114 C 
BRANCH  46  47
HETATM   47  C   UNK     0      -8.009 -25.714  -8.380  0.00  0.00     0.139 C 
HETATM   48  O   UNK     0      -7.600 -26.506  -9.241  0.00  0.00    -0.650 OA
BRANCH  47  49
HETATM   49  O   UNK     0      -9.250 -25.872  -7.817  0.00  0.00    -0.776 OA
HETATM   50  H   UNK     0     -10.073 -25.362  -8.160  0.00  0.00     0.167 HD
ENDBRANCH  47  49
ENDBRANCH  46  47
ENDBRANCH  45  46
ENDBRANCH  11  45
BRANCH  18  51
HETATM   51  C   UNK     0      -8.179 -26.738  -0.191  0.00  0.00     0.051 C 
BRANCH  51  52
HETATM   52  C   UNK     0      -9.382 -26.415   0.683  0.00  0.00     0.114 C 
BRANCH  52  53
HETATM   53  C   UNK     0     -10.655 -26.652  -0.024  0.00  0.00     0.139 C 
HETATM   54  O   UNK     0     -11.058 -27.812  -0.207  0.00  0.00    -0.650 OA
BRANCH  53  55
HETATM   55  O   UNK     0     -11.388 -25.583  -0.481  0.00  0.00    -0.776 OA
HETATM   56  H   UNK     0     -11.879 -24.929   0.081  0.00  0.00     0.167 HD
ENDBRANCH  53  55
ENDBRANCH  52  53
ENDBRANCH  51  52
ENDBRANCH  18  51
TORSDOF 16
ENDMDL
MODEL 10
REMARK VINA RESULT:      -8.9     31.824     34.603
REMARK  16 active torsions:
REMARK  status: ('A' for Active; 'I' for Inactive)
REMARK    1  A    between atoms: C_6  and  C_7 
REMARK    2  A    between atoms: C_7  and  C_8 
REMARK    3  A    between atoms: C_8  and  C_9 
REMARK    4  A    between atoms: C_9  and  O_11 
REMARK    5  A    between atoms: C_16  and  C_17 
REMARK    6  A    between atoms: C_17  and  C_18 
REMARK    7  A    between atoms: C_18  and  C_19 
REMARK    8  A    between atoms: C_19  and  O_21 
REMARK    9  A    between atoms: C_28  and  C_29 
REMARK   10  A    between atoms: C_29  and  C_30 
REMARK   11  A    between atoms: C_30  and  C_31 
REMARK   12  A    between atoms: C_31  and  O_33 
REMARK   13  A    between atoms: C_42  and  C_43 
REMARK   14  A    between atoms: C_43  and  C_44 
REMARK   15  A    between atoms: C_44  and  C_45 
REMARK   16  A    between atoms: C_45  and  O_47 
ROOT
HETATM    1  C   UNK     0      -6.677 -24.023  -0.132  0.00  0.00     0.051 C 
HETATM    2  C   UNK     0      -8.090 -23.858   0.389  0.00  0.00    -0.031 A 
HETATM    3  C   UNK     0      -8.525 -23.512   1.658  0.00  0.00     0.021 A 
HETATM    4  N   UNK     0      -9.879 -23.515   1.677  0.00  0.00    -0.361 N 
HETATM    5  C   UNK     0     -10.316 -23.846   0.445  0.00  0.00     0.022 A 
HETATM    6  C   UNK     0      -9.223 -24.071  -0.386  0.00  0.00    -0.027 A 
HETATM    7  C   UNK     0     -11.715 -23.900  -0.086  0.00  0.00     0.115 C 
HETATM    8  C   UNK     0     -12.640 -22.765   0.314  0.00  0.00     0.021 A 
HETATM    9  N   UNK     0     -12.343 -21.469   0.495  0.00  0.00    -0.361 N 
HETATM   10  C   UNK     0     -13.454 -20.842   0.937  0.00  0.00     0.022 A 
HETATM   11  C   UNK     0     -14.498 -21.758   1.035  0.00  0.00    -0.027 A 
HETATM   12  C   UNK     0     -13.992 -22.971   0.644  0.00  0.00    -0.031 A 
HETATM   13  C   UNK     0     -14.771 -24.266   0.585  0.00  0.00     0.051 C 
HETATM   14  C   UNK     0     -13.563 -19.373   1.334  0.00  0.00     0.115 C 
HETATM   15  C   UNK     0     -12.655 -18.978   2.488  0.00  0.00     0.021 A 
HETATM   16  N   UNK     0     -11.314 -19.079   2.550  0.00  0.00    -0.361 N 
HETATM   17  C   UNK     0     -10.901 -18.693   3.759  0.00  0.00     0.022 A 
HETATM   18  C   UNK     0     -12.026 -18.314   4.519  0.00  0.00    -0.027 A 
HETATM   19  C   UNK     0     -13.118 -18.496   3.711  0.00  0.00    -0.031 A 
HETATM   20  C   UNK     0     -14.540 -18.170   4.129  0.00  0.00     0.051 C 
HETATM   21  C   UNK     0      -9.511 -18.686   4.355  0.00  0.00     0.115 C 
HETATM   22  C   UNK     0      -8.566 -19.785   3.931  0.00  0.00     0.022 A 
HETATM   23  N   UNK     0      -8.834 -21.084   3.740  0.00  0.00    -0.361 N 
HETATM   24  C   UNK     0      -7.735 -21.672   3.226  0.00  0.00     0.021 A 
HETATM   25  C   UNK     0      -6.731 -20.732   3.093  0.00  0.00    -0.031 A 
HETATM   26  C   UNK     0      -5.311 -20.918   2.602  0.00  0.00     0.051 C 
HETATM   27  C   UNK     0      -7.239 -19.517   3.538  0.00  0.00    -0.027 A 
HETATM   28  C   UNK     0      -7.583 -23.109   2.758  0.00  0.00     0.115 C 
HETATM   29  H   UNK     0     -10.516 -23.321   2.571  0.00  0.00     0.165 HD
HETATM   30  H   UNK     0     -11.364 -20.983   0.264  0.00  0.00     0.165 HD
HETATM   31  H   UNK     0     -10.640 -19.383   1.708  0.00  0.00     0.165 HD
HETATM   32  H   UNK     0      -9.789 -21.606   4.006  0.00  0.00     0.165 HD
ENDROOT
BRANCH   6  33
HETATM   33  C   UNK     0      -9.174 -24.469  -1.839  0.00  0.00     0.051 C 
BRANCH  33  34
HETATM   34  C   UNK     0      -8.728 -25.904  -1.986  0.00  0.00     0.114 C 
BRANCH  34  35
HETATM   35  C   UNK     0      -9.955 -26.749  -2.048  0.00  0.00     0.139 C 
HETATM   36  O   UNK     0     -10.670 -26.758  -3.092  0.00  0.00    -0.650 OA
BRANCH  35  37
HETATM   37  O   UNK     0     -10.366 -27.553  -0.992  0.00  0.00    -0.776 OA
HETATM   38  H   UNK     0      -9.825 -28.342  -0.679  0.00  0.00     0.167 HD
ENDBRANCH  35  37
ENDBRANCH  34  35
ENDBRANCH  33  34
ENDBRANCH   6  33
BRANCH  27  39
HETATM   39  C   UNK     0      -6.421 -18.276   3.614  0.00  0.00     0.051 C 
BRANCH  39  40
HETATM   40  C   UNK     0      -6.672 -17.219   2.634  0.00  0.00     0.114 C 
BRANCH  40  41
HETATM   41  C   UNK     0      -5.882 -17.078   1.432  0.00  0.00     0.139 C 
HETATM   42  O   UNK     0      -6.333 -17.257   0.293  0.00  0.00    -0.650 OA
BRANCH  41  43
HETATM   43  O   UNK     0      -4.510 -16.715   1.546  0.00  0.00    -0.776 OA
HETATM   44  H   UNK     0      -3.861 -17.477   1.393  0.00  0.00     0.167 HD
ENDBRANCH  41  43
ENDBRANCH  40  41
ENDBRANCH  39  40
ENDBRANCH  27  39
BRANCH  11  45
HETATM   45  C   UNK     0     -15.919 -21.524   1.472  0.00  0.00     0.051 C 
BRANCH  45  46
HETATM   46  C   UNK     0     -16.720 -20.713   0.520  0.00  0.00     0.114 C 
BRANCH  46  47
HETATM   47  C   UNK     0     -17.935 -20.248   1.249  0.00  0.00     0.139 C 
HETATM   48  O   UNK     0     -19.048 -20.558   0.802  0.00  0.00    -0.650 OA
BRANCH  47  49
HETATM   49  O   UNK     0     -17.824 -19.493   2.389  0.00  0.00    -0.776 OA
HETATM   50  H   UNK     0     -18.639 -19.055   2.834  0.00  0.00     0.167 HD
ENDBRANCH  47  49
ENDBRANCH  46  47
ENDBRANCH  45  46
ENDBRANCH  11  45
BRANCH  18  51
HETATM   51  C   UNK     0     -12.056 -17.787   5.930  0.00  0.00     0.051 C 
BRANCH  51  52
HETATM   52  C   UNK     0     -11.894 -18.995   6.840  0.00  0.00     0.114 C 
BRANCH  52  53
HETATM   53  C   UNK     0     -13.022 -19.128   7.782  0.00  0.00     0.139 C 
HETATM   54  O   UNK     0     -14.147 -19.445   7.364  0.00  0.00    -0.650 OA
BRANCH  53  55
HETATM   55  O   UNK     0     -12.819 -18.897   9.121  0.00  0.00    -0.776 OA
HETATM   56  H   UNK     0     -12.614 -19.584   9.808  0.00  0.00     0.167 HD
ENDBRANCH  53  55
ENDBRANCH  52  53
ENDBRANCH  51  52
ENDBRANCH  18  51
TORSDOF 16
ENDMDL
MODEL 11
REMARK VINA RESULT:      -8.8     32.362     35.132
REMARK  16 active torsions:
REMARK  status: ('A' for Active; 'I' for Inactive)
REMARK    1  A    between atoms: C_6  and  C_7 
REMARK    2  A    between atoms: C_7  and  C_8 
REMARK    3  A    between atoms: C_8  and  C_9 
REMARK    4  A    between atoms: C_9  and  O_11 
REMARK    5  A    between atoms: C_16  and  C_17 
REMARK    6  A    between atoms: C_17  and  C_18 
REMARK    7  A    between atoms: C_18  and  C_19 
REMARK    8  A    between atoms: C_19  and  O_21 
REMARK    9  A    between atoms: C_28  and  C_29 
REMARK   10  A    between atoms: C_29  and  C_30 
REMARK   11  A    between atoms: C_30  and  C_31 
REMARK   12  A    between atoms: C_31  and  O_33 
REMARK   13  A    between atoms: C_42  and  C_43 
REMARK   14  A    between atoms: C_43  and  C_44 
REMARK   15  A    between atoms: C_44  and  C_45 
REMARK   16  A    between atoms: C_45  and  O_47 
ROOT
HETATM    1  C   UNK     0     -14.407 -19.396   3.134  0.00  0.00     0.051 C 
HETATM    2  C   UNK     0     -13.264 -20.046   2.382  0.00  0.00    -0.031 A 
HETATM    3  C   UNK     0     -12.210 -19.456   1.702  0.00  0.00     0.021 A 
HETATM    4  N   UNK     0     -11.441 -20.426   1.152  0.00  0.00    -0.361 N 
HETATM    5  C   UNK     0     -11.978 -21.622   1.474  0.00  0.00     0.022 A 
HETATM    6  C   UNK     0     -13.121 -21.420   2.240  0.00  0.00    -0.027 A 
HETATM    7  C   UNK     0     -11.466 -23.001   1.195  0.00  0.00     0.115 C 
HETATM    8  C   UNK     0      -9.977 -23.227   1.389  0.00  0.00     0.021 A 
HETATM    9  N   UNK     0      -9.163 -22.690   2.311  0.00  0.00    -0.361 N 
HETATM   10  C   UNK     0      -7.904 -23.103   2.049  0.00  0.00     0.022 A 
HETATM   11  C   UNK     0      -7.910 -23.936   0.934  0.00  0.00    -0.027 A 
HETATM   12  C   UNK     0      -9.213 -24.019   0.514  0.00  0.00    -0.031 A 
HETATM   13  C   UNK     0      -9.699 -24.824  -0.670  0.00  0.00     0.051 C 
HETATM   14  C   UNK     0      -6.645 -22.687   2.804  0.00  0.00     0.115 C 
HETATM   15  C   UNK     0      -6.364 -21.194   2.759  0.00  0.00     0.021 A 
HETATM   16  N   UNK     0      -7.161 -20.195   3.183  0.00  0.00    -0.361 N 
HETATM   17  C   UNK     0      -6.584 -19.025   2.904  0.00  0.00     0.022 A 
HETATM   18  C   UNK     0      -5.347 -19.272   2.275  0.00  0.00    -0.027 A 
HETATM   19  C   UNK     0      -5.221 -20.635   2.192  0.00  0.00    -0.031 A 
HETATM   20  C   UNK     0      -4.007 -21.336   1.610  0.00  0.00     0.051 C 
HETATM   21  C   UNK     0      -7.094 -17.616   3.107  0.00  0.00     0.115 C 
HETATM   22  C   UNK     0      -8.580 -17.384   2.961  0.00  0.00     0.022 A 
HETATM   23  N   UNK     0      -9.416 -17.909   2.055  0.00  0.00    -0.361 N 
HETATM   24  C   UNK     0     -10.673 -17.548   2.381  0.00  0.00     0.021 A 
HETATM   25  C   UNK     0     -10.645 -16.763   3.518  0.00  0.00    -0.031 A 
HETATM   26  C   UNK     0     -11.794 -16.090   4.241  0.00  0.00     0.051 C 
HETATM   27  C   UNK     0      -9.316 -16.644   3.908  0.00  0.00    -0.027 A 
HETATM   28  C   UNK     0     -11.967 -17.974   1.708  0.00  0.00     0.115 C 
HETATM   29  H   UNK     0     -10.548 -20.259   0.507  0.00  0.00     0.165 HD
HETATM   30  H   UNK     0      -9.480 -22.060   3.177  0.00  0.00     0.165 HD
HETATM   31  H   UNK     0      -8.129 -20.319   3.735  0.00  0.00     0.165 HD
HETATM   32  H   UNK     0      -9.122 -18.504   1.152  0.00  0.00     0.165 HD
ENDROOT
BRANCH   6  33
HETATM   33  C   UNK     0     -14.076 -22.422   2.839  0.00  0.00     0.051 C 
BRANCH  33  34
HETATM   34  C   UNK     0     -14.765 -23.217   1.756  0.00  0.00     0.114 C 
BRANCH  34  35
HETATM   35  C   UNK     0     -15.462 -22.247   0.864  0.00  0.00     0.139 C 
HETATM   36  O   UNK     0     -15.098 -22.115  -0.341  0.00  0.00    -0.650 OA
BRANCH  35  37
HETATM   37  O   UNK     0     -16.521 -21.459   1.296  0.00  0.00    -0.776 OA
HETATM   38  H   UNK     0     -17.063 -20.896   0.660  0.00  0.00     0.167 HD
ENDBRANCH  35  37
ENDBRANCH  34  35
ENDBRANCH  33  34
ENDBRANCH   6  33
BRANCH  27  39
HETATM   39  C   UNK     0      -8.880 -15.808   5.059  0.00  0.00     0.051 C 
BRANCH  39  40
HETATM   40  C   UNK     0      -8.899 -16.404   6.395  0.00  0.00     0.114 C 
BRANCH  40  41
HETATM   41  C   UNK     0      -8.144 -15.850   7.496  0.00  0.00     0.139 C 
HETATM   42  O   UNK     0      -8.484 -15.959   8.682  0.00  0.00    -0.650 OA
BRANCH  41  43
HETATM   43  O   UNK     0      -6.942 -15.138   7.221  0.00  0.00    -0.776 OA
HETATM   44  H   UNK     0      -6.759 -14.989   6.236  0.00  0.00     0.167 HD
ENDBRANCH  41  43
ENDBRANCH  40  41
ENDBRANCH  39  40
ENDBRANCH  27  39
BRANCH  11  45
HETATM   45  C   UNK     0      -6.751 -24.637   0.277  0.00  0.00     0.051 C 
BRANCH  45  46
HETATM   46  C   UNK     0      -6.027 -25.578   1.170  0.00  0.00     0.114 C 
BRANCH  46  47
HETATM   47  C   UNK     0      -6.045 -26.915   0.510  0.00  0.00     0.139 C 
HETATM   48  O   UNK     0      -6.920 -27.145  -0.337  0.00  0.00    -0.650 OA
BRANCH  47  49
HETATM   49  O   UNK     0      -5.115 -27.870   0.832  0.00  0.00    -0.776 OA
HETATM   50  H   UNK     0      -4.494 -27.774   1.644  0.00  0.00     0.167 HD
ENDBRANCH  47  49
ENDBRANCH  46  47
ENDBRANCH  45  46
ENDBRANCH  11  45
BRANCH  18  51
HETATM   51  C   UNK     0      -4.332 -18.266   1.800  0.00  0.00     0.051 C 
BRANCH  51  52
HETATM   52  C   UNK     0      -4.539 -18.128   0.299  0.00  0.00     0.114 C 
BRANCH  52  53
HETATM   53  C   UNK     0      -5.431 -17.000  -0.032  0.00  0.00     0.139 C 
HETATM   54  O   UNK     0      -6.546 -17.216  -0.532  0.00  0.00    -0.650 OA
BRANCH  53  55
HETATM   55  O   UNK     0      -5.018 -15.713   0.214  0.00  0.00    -0.776 OA
HETATM   56  H   UNK     0      -5.260 -14.911  -0.319  0.00  0.00     0.167 HD
ENDBRANCH  53  55
ENDBRANCH  52  53
ENDBRANCH  51  52
ENDBRANCH  18  51
TORSDOF 16
ENDMDL
MODEL 12
REMARK VINA RESULT:      -8.7     30.905     34.335
REMARK  16 active torsions:
REMARK  status: ('A' for Active; 'I' for Inactive)
REMARK    1  A    between atoms: C_6  and  C_7 
REMARK    2  A    between atoms: C_7  and  C_8 
REMARK    3  A    between atoms: C_8  and  C_9 
REMARK    4  A    between atoms: C_9  and  O_11 
REMARK    5  A    between atoms: C_16  and  C_17 
REMARK    6  A    between atoms: C_17  and  C_18 
REMARK    7  A    between atoms: C_18  and  C_19 
REMARK    8  A    between atoms: C_19  and  O_21 
REMARK    9  A    between atoms: C_28  and  C_29 
REMARK   10  A    between atoms: C_29  and  C_30 
REMARK   11  A    between atoms: C_30  and  C_31 
REMARK   12  A    between atoms: C_31  and  O_33 
REMARK   13  A    between atoms: C_42  and  C_43 
REMARK   14  A    between atoms: C_43  and  C_44 
REMARK   15  A    between atoms: C_44  and  C_45 
REMARK   16  A    between atoms: C_45  and  O_47 
ROOT
HETATM    1  C   UNK     0      -8.099 -24.911  -1.305  0.00  0.00     0.051 C 
HETATM    2  C   UNK     0      -9.159 -24.282  -0.424  0.00  0.00    -0.031 A 
HETATM    3  C   UNK     0      -9.091 -23.922   0.913  0.00  0.00     0.021 A 
HETATM    4  N   UNK     0     -10.290 -23.422   1.297  0.00  0.00    -0.361 N 
HETATM    5  C   UNK     0     -11.117 -23.448   0.231  0.00  0.00     0.022 A 
HETATM    6  C   UNK     0     -10.442 -23.982  -0.861  0.00  0.00    -0.027 A 
HETATM    7  C   UNK     0     -12.514 -22.926   0.097  0.00  0.00     0.115 C 
HETATM    8  C   UNK     0     -12.798 -21.571   0.722  0.00  0.00     0.021 A 
HETATM    9  N   UNK     0     -11.991 -20.503   0.805  0.00  0.00    -0.361 N 
HETATM   10  C   UNK     0     -12.625 -19.553   1.524  0.00  0.00     0.022 A 
HETATM   11  C   UNK     0     -13.879 -20.019   1.908  0.00  0.00    -0.027 A 
HETATM   12  C   UNK     0     -13.994 -21.290   1.406  0.00  0.00    -0.031 A 
HETATM   13  C   UNK     0     -15.199 -22.189   1.571  0.00  0.00     0.051 C 
HETATM   14  C   UNK     0     -12.056 -18.194   1.923  0.00  0.00     0.115 C 
HETATM   15  C   UNK     0     -10.807 -18.278   2.786  0.00  0.00     0.021 A 
HETATM   16  N   UNK     0      -9.640 -18.876   2.484  0.00  0.00    -0.361 N 
HETATM   17  C   UNK     0      -8.819 -18.790   3.534  0.00  0.00     0.022 A 
HETATM   18  C   UNK     0      -9.481 -18.093   4.565  0.00  0.00    -0.027 A 
HETATM   19  C   UNK     0     -10.724 -17.777   4.083  0.00  0.00    -0.031 A 
HETATM   20  C   UNK     0     -11.757 -16.987   4.866  0.00  0.00     0.051 C 
HETATM   21  C   UNK     0      -7.432 -19.358   3.732  0.00  0.00     0.115 C 
HETATM   22  C   UNK     0      -7.122 -20.684   3.079  0.00  0.00     0.022 A 
HETATM   23  N   UNK     0      -7.907 -21.764   2.979  0.00  0.00    -0.361 N 
HETATM   24  C   UNK     0      -7.288 -22.667   2.193  0.00  0.00     0.021 A 
HETATM   25  C   UNK     0      -6.068 -22.161   1.785  0.00  0.00    -0.031 A 
HETATM   26  C   UNK     0      -5.002 -22.814   0.931  0.00  0.00     0.051 C 
HETATM   27  C   UNK     0      -5.940 -20.893   2.340  0.00  0.00    -0.027 A 
HETATM   28  C   UNK     0      -7.823 -24.006   1.714  0.00  0.00     0.115 C 
HETATM   29  H   UNK     0     -10.556 -23.092   2.328  0.00  0.00     0.165 HD
HETATM   30  H   UNK     0     -10.993 -20.396   0.313  0.00  0.00     0.165 HD
HETATM   31  H   UNK     0      -9.371 -19.327   1.494  0.00  0.00     0.165 HD
HETATM   32  H   UNK     0      -8.889 -21.917   3.498  0.00  0.00     0.165 HD
ENDROOT
BRANCH   6  33
HETATM   33  C   UNK     0     -10.919 -24.229  -2.270  0.00  0.00     0.051 C 
BRANCH  33  34
HETATM   34  C   UNK     0     -10.692 -23.010  -3.133  0.00  0.00     0.114 C 
BRANCH  34  35
HETATM   35  C   UNK     0      -9.896 -23.443  -4.317  0.00  0.00     0.139 C 
HETATM   36  O   UNK     0      -9.656 -24.670  -4.509  0.00  0.00    -0.650 OA
BRANCH  35  37
HETATM   37  O   UNK     0      -9.390 -22.545  -5.249  0.00  0.00    -0.776 OA
HETATM   38  H   UNK     0      -8.424 -22.260  -5.248  0.00  0.00     0.167 HD
ENDBRANCH  35  37
ENDBRANCH  34  35
ENDBRANCH  33  34
ENDBRANCH   6  33
BRANCH  27  39
HETATM   39  C   UNK     0      -4.717 -20.058   2.181  0.00  0.00     0.051 C 
BRANCH  39  40
HETATM   40  C   UNK     0      -3.664 -20.171   3.190  0.00  0.00     0.114 C 
BRANCH  40  41
HETATM   41  C   UNK     0      -2.296 -20.484   2.844  0.00  0.00     0.139 C 
HETATM   42  O   UNK     0      -1.953 -20.913   1.733  0.00  0.00    -0.650 OA
BRANCH  41  43
HETATM   43  O   UNK     0      -1.276 -20.296   3.819  0.00  0.00    -0.776 OA
HETATM   44  H   UNK     0      -0.673 -21.098   3.955  0.00  0.00     0.167 HD
ENDBRANCH  41  43
ENDBRANCH  40  41
ENDBRANCH  39  40
ENDBRANCH  27  39
BRANCH  11  45
HETATM   45  C   UNK     0     -14.940 -19.316   2.710  0.00  0.00     0.051 C 
BRANCH  45  46
HETATM   46  C   UNK     0     -16.048 -18.758   1.893  0.00  0.00     0.114 C 
BRANCH  46  47
HETATM   47  C   UNK     0     -17.325 -19.131   2.566  0.00  0.00     0.139 C 
HETATM   48  O   UNK     0     -17.547 -18.689   3.702  0.00  0.00    -0.650 OA
BRANCH  47  49
HETATM   49  O   UNK     0     -18.235 -19.947   1.942  0.00  0.00    -0.776 OA
HETATM   50  H   UNK     0     -18.270 -20.958   2.118  0.00  0.00     0.167 HD
ENDBRANCH  47  49
ENDBRANCH  46  47
ENDBRANCH  45  46
ENDBRANCH  11  45
BRANCH  18  51
HETATM   51  C   UNK     0      -8.948 -17.731   5.927  0.00  0.00     0.051 C 
BRANCH  51  52
HETATM   52  C   UNK     0      -8.888 -16.211   5.970  0.00  0.00     0.114 C 
BRANCH  52  53
HETATM   53  C   UNK     0      -7.519 -15.708   5.744  0.00  0.00     0.139 C 
HETATM   54  O   UNK     0      -6.970 -15.876   4.643  0.00  0.00    -0.650 OA
BRANCH  53  55
HETATM   55  O   UNK     0      -6.858 -15.059   6.757  0.00  0.00    -0.776 OA
HETATM   56  H   UNK     0      -6.107 -14.419   6.648  0.00  0.00     0.167 HD
ENDBRANCH  53  55
ENDBRANCH  52  53
ENDBRANCH  51  52
ENDBRANCH  18  51
TORSDOF 16
ENDMDL
MODEL 13
REMARK VINA RESULT:      -8.7     29.518     33.626
REMARK  16 active torsions:
REMARK  status: ('A' for Active; 'I' for Inactive)
REMARK    1  A    between atoms: C_6  and  C_7 
REMARK    2  A    between atoms: C_7  and  C_8 
REMARK    3  A    between atoms: C_8  and  C_9 
REMARK    4  A    between atoms: C_9  and  O_11 
REMARK    5  A    between atoms: C_16  and  C_17 
REMARK    6  A    between atoms: C_17  and  C_18 
REMARK    7  A    between atoms: C_18  and  C_19 
REMARK    8  A    between atoms: C_19  and  O_21 
REMARK    9  A    between atoms: C_28  and  C_29 
REMARK   10  A    between atoms: C_29  and  C_30 
REMARK   11  A    between atoms: C_30  and  C_31 
REMARK   12  A    between atoms: C_31  and  O_33 
REMARK   13  A    between atoms: C_42  and  C_43 
REMARK   14  A    between atoms: C_43  and  C_44 
REMARK   15  A    between atoms: C_44  and  C_45 
REMARK   16  A    between atoms: C_45  and  O_47 
ROOT
HETATM    1  C   UNK     0      -7.553 -21.585   3.036  0.00  0.00     0.051 C 
HETATM    2  C   UNK     0      -6.350 -21.652   2.117  0.00  0.00    -0.031 A 
HETATM    3  C   UNK     0      -5.984 -22.641   1.217  0.00  0.00     0.021 A 
HETATM    4  N   UNK     0      -4.814 -22.293   0.631  0.00  0.00    -0.361 N 
HETATM    5  C   UNK     0      -4.430 -21.100   1.131  0.00  0.00     0.022 A 
HETATM    6  C   UNK     0      -5.367 -20.671   2.065  0.00  0.00    -0.027 A 
HETATM    7  C   UNK     0      -3.266 -20.239   0.752  0.00  0.00     0.115 C 
HETATM    8  C   UNK     0      -2.976 -20.100  -0.732  0.00  0.00     0.021 A 
HETATM    9  N   UNK     0      -3.846 -20.048  -1.753  0.00  0.00    -0.361 N 
HETATM   10  C   UNK     0      -3.140 -20.016  -2.903  0.00  0.00     0.022 A 
HETATM   11  C   UNK     0      -1.779 -20.038  -2.615  0.00  0.00    -0.027 A 
HETATM   12  C   UNK     0      -1.668 -20.091  -1.249  0.00  0.00    -0.031 A 
HETATM   13  C   UNK     0      -0.368 -20.125  -0.477  0.00  0.00     0.051 C 
HETATM   14  C   UNK     0      -3.718 -20.017  -4.315  0.00  0.00     0.115 C 
HETATM   15  C   UNK     0      -4.547 -21.249  -4.640  0.00  0.00     0.021 A 
HETATM   16  N   UNK     0      -5.645 -21.692  -4.000  0.00  0.00    -0.361 N 
HETATM   17  C   UNK     0      -6.037 -22.844  -4.548  0.00  0.00     0.022 A 
HETATM   18  C   UNK     0      -5.158 -23.162  -5.603  0.00  0.00    -0.027 A 
HETATM   19  C   UNK     0      -4.230 -22.155  -5.651  0.00  0.00    -0.031 A 
HETATM   20  C   UNK     0      -3.112 -22.086  -6.674  0.00  0.00     0.051 C 
HETATM   21  C   UNK     0      -7.162 -23.775  -4.155  0.00  0.00     0.115 C 
HETATM   22  C   UNK     0      -7.491 -23.889  -2.685  0.00  0.00     0.022 A 
HETATM   23  N   UNK     0      -6.646 -23.939  -1.647  0.00  0.00    -0.361 N 
HETATM   24  C   UNK     0      -7.369 -23.892  -0.510  0.00  0.00     0.021 A 
HETATM   25  C   UNK     0      -8.713 -23.820  -0.823  0.00  0.00    -0.031 A 
HETATM   26  C   UNK     0      -9.908 -23.789   0.106  0.00  0.00     0.051 C 
HETATM   27  C   UNK     0      -8.816 -23.818  -2.210  0.00  0.00    -0.027 A 
HETATM   28  C   UNK     0      -6.854 -23.829   0.918  0.00  0.00     0.115 C 
HETATM   29  H   UNK     0      -4.246 -22.912  -0.102  0.00  0.00     0.165 HD
HETATM   30  H   UNK     0      -4.958 -19.984  -1.663  0.00  0.00     0.165 HD
HETATM   31  H   UNK     0      -6.184 -21.158  -3.175  0.00  0.00     0.165 HD
HETATM   32  H   UNK     0      -5.532 -24.051  -1.707  0.00  0.00     0.165 HD
ENDROOT
BRANCH   6  33
HETATM   33  C   UNK     0      -5.398 -19.419   2.904  0.00  0.00     0.051 C 
BRANCH  33  34
HETATM   34  C   UNK     0      -6.070 -18.291   2.156  0.00  0.00     0.114 C 
BRANCH  34  35
HETATM   35  C   UNK     0      -5.049 -17.225   1.944  0.00  0.00     0.139 C 
HETATM   36  O   UNK     0      -3.880 -17.362   2.408  0.00  0.00    -0.650 OA
BRANCH  35  37
HETATM   37  O   UNK     0      -5.320 -16.058   1.241  0.00  0.00    -0.776 OA
HETATM   38  H   UNK     0      -5.075 -15.149   1.599  0.00  0.00     0.167 HD
ENDBRANCH  35  37
ENDBRANCH  34  35
ENDBRANCH  33  34
ENDBRANCH   6  33
BRANCH  27  39
HETATM   39  C   UNK     0     -10.121 -23.821  -2.925  0.00  0.00     0.051 C 
BRANCH  39  40
HETATM   40  C   UNK     0     -10.837 -25.090  -3.056  0.00  0.00     0.114 C 
BRANCH  40  41
HETATM   41  C   UNK     0     -10.182 -26.304  -3.487  0.00  0.00     0.139 C 
HETATM   42  O   UNK     0      -9.519 -26.390  -4.530  0.00  0.00    -0.650 OA
BRANCH  41  43
HETATM   43  O   UNK     0     -10.294 -27.473  -2.682  0.00  0.00    -0.776 OA
HETATM   44  H   UNK     0      -9.999 -28.327  -3.139  0.00  0.00     0.167 HD
ENDBRANCH  41  43
ENDBRANCH  40  41
ENDBRANCH  39  40
ENDBRANCH  27  39
BRANCH  11  45
HETATM   45  C   UNK     0      -0.614 -20.008  -3.567  0.00  0.00     0.051 C 
BRANCH  45  46
HETATM   46  C   UNK     0      -0.004 -18.665  -3.739  0.00  0.00     0.114 C 
BRANCH  46  47
HETATM   47  C   UNK     0      -0.469 -18.133  -5.052  0.00  0.00     0.139 C 
HETATM   48  O   UNK     0      -1.248 -17.170  -5.059  0.00  0.00    -0.650 OA
BRANCH  47  49
HETATM   49  O   UNK     0      -0.045 -18.699  -6.228  0.00  0.00    -0.776 OA
HETATM   50  H   UNK     0       0.445 -19.601  -6.254  0.00  0.00     0.167 HD
ENDBRANCH  47  49
ENDBRANCH  46  47
ENDBRANCH  45  46
ENDBRANCH  11  45
BRANCH  18  51
HETATM   51  C   UNK     0      -5.212 -24.351  -6.527  0.00  0.00     0.051 C 
BRANCH  51  52
HETATM   52  C   UNK     0      -6.623 -24.385  -7.095  0.00  0.00     0.114 C 
BRANCH  52  53
HETATM   53  C   UNK     0      -6.621 -24.544  -8.562  0.00  0.00     0.139 C 
HETATM   54  O   UNK     0      -5.779 -23.946  -9.251  0.00  0.00    -0.650 OA
BRANCH  53  55
HETATM   55  O   UNK     0      -7.557 -25.353  -9.159  0.00  0.00    -0.776 OA
HETATM   56  H   UNK     0      -7.438 -26.311  -9.391  0.00  0.00     0.167 HD
ENDBRANCH  53  55
ENDBRANCH  52  53
ENDBRANCH  51  52
ENDBRANCH  18  51
TORSDOF 16
ENDMDL
MODEL 14
REMARK VINA RESULT:      -8.7     30.859     34.101
REMARK  16 active torsions:
REMARK  status: ('A' for Active; 'I' for Inactive)
REMARK    1  A    between atoms: C_6  and  C_7 
REMARK    2  A    between atoms: C_7  and  C_8 
REMARK    3  A    between atoms: C_8  and  C_9 
REMARK    4  A    between atoms: C_9  and  O_11 
REMARK    5  A    between atoms: C_16  and  C_17 
REMARK    6  A    between atoms: C_17  and  C_18 
REMARK    7  A    between atoms: C_18  and  C_19 
REMARK    8  A    between atoms: C_19  and  O_21 
REMARK    9  A    between atoms: C_28  and  C_29 
REMARK   10  A    between atoms: C_29  and  C_30 
REMARK   11  A    between atoms: C_30  and  C_31 
REMARK   12  A    between atoms: C_31  and  O_33 
REMARK   13  A    between atoms: C_42  and  C_43 
REMARK   14  A    between atoms: C_43  and  C_44 
REMARK   15  A    between atoms: C_44  and  C_45 
REMARK   16  A    between atoms: C_45  and  O_47 
ROOT
HETATM    1  C   UNK     0      -7.274 -24.698  -0.508  0.00  0.00     0.051 C 
HETATM    2  C   UNK     0      -8.440 -24.119   0.266  0.00  0.00    -0.031 A 
HETATM    3  C   UNK     0      -8.475 -23.610   1.554  0.00  0.00     0.021 A 
HETATM    4  N   UNK     0      -9.742 -23.230   1.845  0.00  0.00    -0.361 N 
HETATM    5  C   UNK     0     -10.514 -23.478   0.766  0.00  0.00     0.022 A 
HETATM    6  C   UNK     0      -9.732 -24.037  -0.239  0.00  0.00    -0.027 A 
HETATM    7  C   UNK     0     -11.958 -23.159   0.535  0.00  0.00     0.115 C 
HETATM    8  C   UNK     0     -12.436 -21.793   0.994  0.00  0.00     0.021 A 
HETATM    9  N   UNK     0     -11.773 -20.626   0.977  0.00  0.00    -0.361 N 
HETATM   10  C   UNK     0     -12.551 -19.693   1.566  0.00  0.00     0.022 A 
HETATM   11  C   UNK     0     -13.752 -20.273   1.965  0.00  0.00    -0.027 A 
HETATM   12  C   UNK     0     -13.686 -21.596   1.608  0.00  0.00    -0.031 A 
HETATM   13  C   UNK     0     -14.774 -22.619   1.840  0.00  0.00     0.051 C 
HETATM   14  C   UNK     0     -12.175 -18.237   1.823  0.00  0.00     0.115 C 
HETATM   15  C   UNK     0     -10.963 -18.064   2.725  0.00  0.00     0.021 A 
HETATM   16  N   UNK     0      -9.717 -18.536   2.526  0.00  0.00    -0.361 N 
HETATM   17  C   UNK     0      -8.959 -18.230   3.581  0.00  0.00     0.022 A 
HETATM   18  C   UNK     0      -9.746 -17.517   4.508  0.00  0.00    -0.027 A 
HETATM   19  C   UNK     0     -10.998 -17.419   3.959  0.00  0.00    -0.031 A 
HETATM   20  C   UNK     0     -12.153 -16.688   4.618  0.00  0.00     0.051 C 
HETATM   21  C   UNK     0      -7.522 -18.589   3.882  0.00  0.00     0.115 C 
HETATM   22  C   UNK     0      -7.020 -19.927   3.393  0.00  0.00     0.022 A 
HETATM   23  N   UNK     0      -7.660 -21.104   3.394  0.00  0.00    -0.361 N 
HETATM   24  C   UNK     0      -6.899 -22.000   2.733  0.00  0.00     0.021 A 
HETATM   25  C   UNK     0      -5.736 -21.388   2.305  0.00  0.00    -0.031 A 
HETATM   26  C   UNK     0      -4.561 -21.987   1.561  0.00  0.00     0.051 C 
HETATM   27  C   UNK     0      -5.791 -20.061   2.715  0.00  0.00    -0.027 A 
HETATM   28  C   UNK     0      -7.241 -23.441   2.395  0.00  0.00     0.115 C 
HETATM   29  H   UNK     0     -10.090 -22.826   2.824  0.00  0.00     0.165 HD
HETATM   30  H   UNK     0     -10.776 -20.446   0.505  0.00  0.00     0.165 HD
HETATM   31  H   UNK     0      -9.352 -19.054   1.601  0.00  0.00     0.165 HD
HETATM   32  H   UNK     0      -8.636 -21.325   3.899  0.00  0.00     0.165 HD
ENDROOT
BRANCH   6  33
HETATM   33  C   UNK     0     -10.114 -24.495  -1.624  0.00  0.00     0.051 C 
BRANCH  33  34
HETATM   34  C   UNK     0     -10.116 -23.334  -2.590  0.00  0.00     0.114 C 
BRANCH  34  35
HETATM   35  C   UNK     0     -11.499 -23.209  -3.134  0.00  0.00     0.139 C 
HETATM   36  O   UNK     0     -11.877 -22.127  -3.670  0.00  0.00    -0.650 OA
BRANCH  35  37
HETATM   37  O   UNK     0     -12.420 -24.248  -3.085  0.00  0.00    -0.776 OA
HETATM   38  H   UNK     0     -12.877 -24.517  -2.228  0.00  0.00     0.167 HD
ENDBRANCH  35  37
ENDBRANCH  34  35
ENDBRANCH  33  34
ENDBRANCH   6  33
BRANCH  27  39
HETATM   39  C   UNK     0      -4.677 -19.098   2.497  0.00  0.00     0.051 C 
BRANCH  39  40
HETATM   40  C   UNK     0      -4.665 -18.321   1.258  0.00  0.00     0.114 C 
BRANCH  40  41
HETATM   41  C   UNK     0      -5.544 -17.192   1.047  0.00  0.00     0.139 C 
HETATM   42  O   UNK     0      -5.243 -16.028   1.343  0.00  0.00    -0.650 OA
BRANCH  41  43
HETATM   43  O   UNK     0      -6.827 -17.413   0.470  0.00  0.00    -0.776 OA
HETATM   44  H   UNK     0      -6.812 -17.938  -0.396  0.00  0.00     0.167 HD
ENDBRANCH  41  43
ENDBRANCH  40  41
ENDBRANCH  39  40
ENDBRANCH  27  39
BRANCH  11  45
HETATM   45  C   UNK     0     -14.926 -19.629   2.652  0.00  0.00     0.051 C 
BRANCH  45  46
HETATM   46  C   UNK     0     -15.870 -18.948   1.730  0.00  0.00     0.114 C 
BRANCH  46  47
HETATM   47  C   UNK     0     -17.191 -19.625   1.870  0.00  0.00     0.139 C 
HETATM   48  O   UNK     0     -17.417 -20.630   1.183  0.00  0.00    -0.650 OA
BRANCH  47  49
HETATM   49  O   UNK     0     -18.137 -19.145   2.741  0.00  0.00    -0.776 OA
HETATM   50  H   UNK     0     -19.004 -18.702   2.414  0.00  0.00     0.167 HD
ENDBRANCH  47  49
ENDBRANCH  46  47
ENDBRANCH  45  46
ENDBRANCH  11  45
BRANCH  18  51
HETATM   51  C   UNK     0      -9.321 -16.942   5.834  0.00  0.00     0.051 C 
BRANCH  51  52
HETATM   52  C   UNK     0      -9.007 -15.475   5.582  0.00  0.00     0.114 C 
BRANCH  52  53
HETATM   53  C   UNK     0      -7.556 -15.210   5.614  0.00  0.00     0.139 C 
HETATM   54  O   UNK     0      -6.922 -15.089   4.553  0.00  0.00    -0.650 OA
BRANCH  53  55
HETATM   55  O   UNK     0      -6.911 -15.102   6.822  0.00  0.00    -0.776 OA
HETATM   56  H   UNK     0      -6.397 -15.820   7.276  0.00  0.00     0.167 HD
ENDBRANCH  53  55
ENDBRANCH  52  53
ENDBRANCH  51  52
ENDBRANCH  18  51
TORSDOF 16
ENDMDL
MODEL 15
REMARK VINA RESULT:      -8.6     31.770     34.769
REMARK  16 active torsions:
REMARK  status: ('A' for Active; 'I' for Inactive)
REMARK    1  A    between atoms: C_6  and  C_7 
REMARK    2  A    between atoms: C_7  and  C_8 
REMARK    3  A    between atoms: C_8  and  C_9 
REMARK    4  A    between atoms: C_9  and  O_11 
REMARK    5  A    between atoms: C_16  and  C_17 
REMARK    6  A    between atoms: C_17  and  C_18 
REMARK    7  A    between atoms: C_18  and  C_19 
REMARK    8  A    between atoms: C_19  and  O_21 
REMARK    9  A    between atoms: C_28  and  C_29 
REMARK   10  A    between atoms: C_29  and  C_30 
REMARK   11  A    between atoms: C_30  and  C_31 
REMARK   12  A    between atoms: C_31  and  O_33 
REMARK   13  A    between atoms: C_42  and  C_43 
REMARK   14  A    between atoms: C_43  and  C_44 
REMARK   15  A    between atoms: C_44  and  C_45 
REMARK   16  A    between atoms: C_45  and  O_47 
ROOT
HETATM    1  C   UNK     0     -15.678 -18.569   1.491  0.00  0.00     0.051 C 
HETATM    2  C   UNK     0     -14.468 -19.238   0.871  0.00  0.00    -0.031 A 
HETATM    3  C   UNK     0     -13.162 -18.784   0.782  0.00  0.00     0.021 A 
HETATM    4  N   UNK     0     -12.421 -19.700   0.116  0.00  0.00    -0.361 N 
HETATM    5  C   UNK     0     -13.224 -20.732  -0.215  0.00  0.00     0.022 A 
HETATM    6  C   UNK     0     -14.513 -20.474   0.241  0.00  0.00    -0.027 A 
HETATM    7  C   UNK     0     -12.882 -22.033  -0.872  0.00  0.00     0.115 C 
HETATM    8  C   UNK     0     -11.613 -22.721  -0.401  0.00  0.00     0.021 A 
HETATM    9  N   UNK     0     -11.094 -22.763   0.836  0.00  0.00    -0.361 N 
HETATM   10  C   UNK     0      -9.910 -23.408   0.772  0.00  0.00     0.022 A 
HETATM   11  C   UNK     0      -9.663 -23.800  -0.540  0.00  0.00    -0.027 A 
HETATM   12  C   UNK     0     -10.733 -23.371  -1.284  0.00  0.00    -0.031 A 
HETATM   13  C   UNK     0     -10.902 -23.579  -2.773  0.00  0.00     0.051 C 
HETATM   14  C   UNK     0      -8.942 -23.632   1.931  0.00  0.00     0.115 C 
HETATM   15  C   UNK     0      -8.422 -22.347   2.556  0.00  0.00     0.021 A 
HETATM   16  N   UNK     0      -9.141 -21.357   3.116  0.00  0.00    -0.361 N 
HETATM   17  C   UNK     0      -8.318 -20.372   3.484  0.00  0.00     0.022 A 
HETATM   18  C   UNK     0      -6.998 -20.743   3.157  0.00  0.00    -0.027 A 
HETATM   19  C   UNK     0      -7.077 -21.983   2.577  0.00  0.00    -0.031 A 
HETATM   20  C   UNK     0      -5.870 -22.772   2.105  0.00  0.00     0.051 C 
HETATM   21  C   UNK     0      -8.628 -19.021   4.087  0.00  0.00     0.115 C 
HETATM   22  C   UNK     0      -9.909 -18.344   3.661  0.00  0.00     0.022 A 
HETATM   23  N   UNK     0     -10.452 -18.290   2.438  0.00  0.00    -0.361 N 
HETATM   24  C   UNK     0     -11.667 -17.713   2.538  0.00  0.00     0.021 A 
HETATM   25  C   UNK     0     -11.908 -17.378   3.857  0.00  0.00    -0.031 A 
HETATM   26  C   UNK     0     -13.108 -16.679   4.459  0.00  0.00     0.051 C 
HETATM   27  C   UNK     0     -10.797 -17.772   4.595  0.00  0.00    -0.027 A 
HETATM   28  C   UNK     0     -12.696 -17.515   1.439  0.00  0.00     0.115 C 
HETATM   29  H   UNK     0     -11.344 -19.594  -0.152  0.00  0.00     0.165 HD
HETATM   30  H   UNK     0     -11.585 -22.383   1.765  0.00  0.00     0.165 HD
HETATM   31  H   UNK     0     -10.247 -21.372   3.299  0.00  0.00     0.165 HD
HETATM   32  H   UNK     0      -9.964 -18.619   1.484  0.00  0.00     0.165 HD
ENDROOT
BRANCH   6  33
HETATM   33  C   UNK     0     -15.768 -21.302   0.121  0.00  0.00     0.051 C 
BRANCH  33  34
HETATM   34  C   UNK     0     -16.062 -22.018   1.418  0.00  0.00     0.114 C 
BRANCH  34  35
HETATM   35  C   UNK     0     -15.065 -23.117   1.557  0.00  0.00     0.139 C 
HETATM   36  O   UNK     0     -15.193 -24.182   0.886  0.00  0.00    -0.650 OA
BRANCH  35  37
HETATM   37  O   UNK     0     -13.969 -23.031   2.408  0.00  0.00    -0.776 OA
HETATM   38  H   UNK     0     -13.383 -23.826   2.606  0.00  0.00     0.167 HD
ENDBRANCH  35  37
ENDBRANCH  34  35
ENDBRANCH  33  34
ENDBRANCH   6  33
BRANCH  27  39
HETATM   39  C   UNK     0     -10.659 -17.511   6.053  0.00  0.00     0.051 C 
BRANCH  39  40
HETATM   40  C   UNK     0      -9.915 -16.326   6.479  0.00  0.00     0.114 C 
BRANCH  40  41
HETATM   41  C   UNK     0      -8.859 -16.391   7.463  0.00  0.00     0.139 C 
HETATM   42  O   UNK     0      -8.549 -17.427   8.066  0.00  0.00    -0.650 OA
BRANCH  41  43
HETATM   43  O   UNK     0      -8.124 -15.210   7.768  0.00  0.00    -0.776 OA
HETATM   44  H   UNK     0      -8.698 -14.406   7.994  0.00  0.00     0.167 HD
ENDBRANCH  41  43
ENDBRANCH  40  41
ENDBRANCH  39  40
ENDBRANCH  27  39
BRANCH  11  45
HETATM   45  C   UNK     0      -8.481 -24.549  -1.093  0.00  0.00     0.051 C 
BRANCH  45  46
HETATM   46  C   UNK     0      -8.742 -25.988  -1.351  0.00  0.00     0.114 C 
BRANCH  46  47
HETATM   47  C   UNK     0      -7.998 -26.764  -0.318  0.00  0.00     0.139 C 
HETATM   48  O   UNK     0      -8.480 -26.848   0.820  0.00  0.00    -0.650 OA
BRANCH  47  49
HETATM   49  O   UNK     0      -6.805 -27.372  -0.619  0.00  0.00    -0.776 OA
HETATM   50  H   UNK     0      -6.607 -27.750  -1.553  0.00  0.00     0.167 HD
ENDBRANCH  47  49
ENDBRANCH  46  47
ENDBRANCH  45  46
ENDBRANCH  11  45
BRANCH  18  51
HETATM   51  C   UNK     0      -5.730 -19.968   3.403  0.00  0.00     0.051 C 
BRANCH  51  52
HETATM   52  C   UNK     0      -5.494 -19.131   2.154  0.00  0.00     0.114 C 
BRANCH  52  53
HETATM   53  C   UNK     0      -5.177 -17.728   2.485  0.00  0.00     0.139 C 
HETATM   54  O   UNK     0      -5.955 -17.066   3.191  0.00  0.00    -0.650 OA
BRANCH  53  55
HETATM   55  O   UNK     0      -4.022 -17.161   2.006  0.00  0.00    -0.776 OA
HETATM   56  H   UNK     0      -3.927 -16.660   1.154  0.00  0.00     0.167 HD
ENDBRANCH  53  55
ENDBRANCH  52  53
ENDBRANCH  51  52
ENDBRANCH  18  51
TORSDOF 16
ENDMDL
MODEL 16
REMARK VINA RESULT:      -8.6     30.343     33.755
REMARK  16 active torsions:
REMARK  status: ('A' for Active; 'I' for Inactive)
REMARK    1  A    between atoms: C_6  and  C_7 
REMARK    2  A    between atoms: C_7  and  C_8 
REMARK    3  A    between atoms: C_8  and  C_9 
REMARK    4  A    between atoms: C_9  and  O_11 
REMARK    5  A    between atoms: C_16  and  C_17 
REMARK    6  A    between atoms: C_17  and  C_18 
REMARK    7  A    between atoms: C_18  and  C_19 
REMARK    8  A    between atoms: C_19  and  O_21 
REMARK    9  A    between atoms: C_28  and  C_29 
REMARK   10  A    between atoms: C_29  and  C_30 
REMARK   11  A    between atoms: C_30  and  C_31 
REMARK   12  A    between atoms: C_31  and  O_33 
REMARK   13  A    between atoms: C_42  and  C_43 
REMARK   14  A    between atoms: C_43  and  C_44 
REMARK   15  A    between atoms: C_44  and  C_45 
REMARK   16  A    between atoms: C_45  and  O_47 
ROOT
HETATM    1  C   UNK     0      -8.006 -24.548  -0.264  0.00  0.00     0.051 C 
HETATM    2  C   UNK     0      -9.150 -23.793   0.381  0.00  0.00    -0.031 A 
HETATM    3  C   UNK     0      -9.215 -23.192   1.628  0.00  0.00     0.021 A 
HETATM    4  N   UNK     0     -10.448 -22.658   1.797  0.00  0.00    -0.361 N 
HETATM    5  C   UNK     0     -11.168 -22.898   0.682  0.00  0.00     0.022 A 
HETATM    6  C   UNK     0     -10.387 -23.609  -0.224  0.00  0.00    -0.027 A 
HETATM    7  C   UNK     0     -12.548 -22.443   0.322  0.00  0.00     0.115 C 
HETATM    8  C   UNK     0     -12.899 -21.004   0.655  0.00  0.00     0.021 A 
HETATM    9  N   UNK     0     -12.109 -19.919   0.614  0.00  0.00    -0.361 N 
HETATM   10  C   UNK     0     -12.816 -18.868   1.082  0.00  0.00     0.022 A 
HETATM   11  C   UNK     0     -14.098 -19.286   1.425  0.00  0.00    -0.027 A 
HETATM   12  C   UNK     0     -14.158 -20.630   1.159  0.00  0.00    -0.031 A 
HETATM   13  C   UNK     0     -15.368 -21.511   1.374  0.00  0.00     0.051 C 
HETATM   14  C   UNK     0     -12.296 -17.446   1.273  0.00  0.00     0.115 C 
HETATM   15  C   UNK     0     -11.137 -17.341   2.250  0.00  0.00     0.021 A 
HETATM   16  N   UNK     0      -9.942 -17.957   2.177  0.00  0.00    -0.361 N 
HETATM   17  C   UNK     0      -9.228 -17.659   3.265  0.00  0.00     0.022 A 
HETATM   18  C   UNK     0      -9.990 -16.801   4.082  0.00  0.00    -0.027 A 
HETATM   19  C   UNK     0     -11.183 -16.608   3.434  0.00  0.00    -0.031 A 
HETATM   20  C   UNK     0     -12.291 -15.712   3.956  0.00  0.00     0.051 C 
HETATM   21  C   UNK     0      -7.864 -18.148   3.696  0.00  0.00     0.115 C 
HETATM   22  C   UNK     0      -7.484 -19.564   3.332  0.00  0.00     0.022 A 
HETATM   23  N   UNK     0      -8.250 -20.663   3.360  0.00  0.00    -0.361 N 
HETATM   24  C   UNK     0      -7.551 -21.680   2.817  0.00  0.00     0.021 A 
HETATM   25  C   UNK     0      -6.301 -21.229   2.440  0.00  0.00    -0.031 A 
HETATM   26  C   UNK     0      -5.153 -22.003   1.827  0.00  0.00     0.051 C 
HETATM   27  C   UNK     0      -6.234 -19.878   2.760  0.00  0.00    -0.027 A 
HETATM   28  C   UNK     0      -8.030 -23.096   2.547  0.00  0.00     0.115 C 
HETATM   29  H   UNK     0     -10.815 -22.150   2.719  0.00  0.00     0.165 HD
HETATM   30  H   UNK     0     -11.069 -19.882   0.208  0.00  0.00     0.165 HD
HETATM   31  H   UNK     0      -9.575 -18.576   1.317  0.00  0.00     0.165 HD
HETATM   32  H   UNK     0      -9.277 -20.740   3.803  0.00  0.00     0.165 HD
ENDROOT
BRANCH   6  33
HETATM   33  C   UNK     0     -10.723 -24.122  -1.601  0.00  0.00     0.051 C 
BRANCH  33  34
HETATM   34  C   UNK     0     -10.290 -23.135  -2.660  0.00  0.00     0.114 C 
BRANCH  34  35
HETATM   35  C   UNK     0     -11.505 -22.750  -3.434  0.00  0.00     0.139 C 
HETATM   36  O   UNK     0     -12.634 -23.235  -3.131  0.00  0.00    -0.650 OA
BRANCH  35  37
HETATM   37  O   UNK     0     -11.463 -21.860  -4.500  0.00  0.00    -0.776 OA
HETATM   38  H   UNK     0     -12.149 -21.131  -4.615  0.00  0.00     0.167 HD
ENDBRANCH  35  37
ENDBRANCH  34  35
ENDBRANCH  33  34
ENDBRANCH   6  33
BRANCH  27  39
HETATM   39  C   UNK     0      -5.007 -19.059   2.565  0.00  0.00     0.051 C 
BRANCH  39  40
HETATM   40  C   UNK     0      -4.810 -18.400   1.274  0.00  0.00     0.114 C 
BRANCH  40  41
HETATM   41  C   UNK     0      -5.617 -17.278   0.850  0.00  0.00     0.139 C 
HETATM   42  O   UNK     0      -6.691 -17.398   0.245  0.00  0.00    -0.650 OA
BRANCH  41  43
HETATM   43  O   UNK     0      -5.169 -15.957   1.136  0.00  0.00    -0.776 OA
HETATM   44  H   UNK     0      -4.274 -15.720   0.724  0.00  0.00     0.167 HD
ENDBRANCH  41  43
ENDBRANCH  40  41
ENDBRANCH  39  40
ENDBRANCH  27  39
BRANCH  11  45
HETATM   45  C   UNK     0     -15.237 -18.471   1.979  0.00  0.00     0.051 C 
BRANCH  45  46
HETATM   46  C   UNK     0     -15.233 -18.352   3.459  0.00  0.00     0.114 C 
BRANCH  46  47
HETATM   47  C   UNK     0     -16.645 -18.488   3.917  0.00  0.00     0.139 C 
HETATM   48  O   UNK     0     -17.472 -18.992   3.145  0.00  0.00    -0.650 OA
BRANCH  47  49
HETATM   49  O   UNK     0     -17.022 -18.064   5.167  0.00  0.00    -0.776 OA
HETATM   50  H   UNK     0     -17.075 -18.705   5.967  0.00  0.00     0.167 HD
ENDBRANCH  47  49
ENDBRANCH  46  47
ENDBRANCH  45  46
ENDBRANCH  11  45
BRANCH  18  51
HETATM   51  C   UNK     0      -9.595 -16.181   5.397  0.00  0.00     0.051 C 
BRANCH  51  52
HETATM   52  C   UNK     0      -9.063 -14.793   5.071  0.00  0.00     0.114 C 
BRANCH  52  53
HETATM   53  C   UNK     0      -7.602 -14.707   5.257  0.00  0.00     0.139 C 
HETATM   54  O   UNK     0      -6.880 -14.308   4.329  0.00  0.00    -0.650 OA
BRANCH  53  55
HETATM   55  O   UNK     0      -7.047 -15.073   6.459  0.00  0.00    -0.776 OA
HETATM   56  H   UNK     0      -6.966 -15.999   6.807  0.00  0.00     0.167 HD
ENDBRANCH  53  55
ENDBRANCH  52  53
ENDBRANCH  51  52
ENDBRANCH  18  51
TORSDOF 16
ENDMDL
MODEL 17
REMARK VINA RESULT:      -8.4     31.283     34.655
REMARK  16 active torsions:
REMARK  status: ('A' for Active; 'I' for Inactive)
REMARK    1  A    between atoms: C_6  and  C_7 
REMARK    2  A    between atoms: C_7  and  C_8 
REMARK    3  A    between atoms: C_8  and  C_9 
REMARK    4  A    between atoms: C_9  and  O_11 
REMARK    5  A    between atoms: C_16  and  C_17 
REMARK    6  A    between atoms: C_17  and  C_18 
REMARK    7  A    between atoms: C_18  and  C_19 
REMARK    8  A    between atoms: C_19  and  O_21 
REMARK    9  A    between atoms: C_28  and  C_29 
REMARK   10  A    between atoms: C_29  and  C_30 
REMARK   11  A    between atoms: C_30  and  C_31 
REMARK   12  A    between atoms: C_31  and  O_33 
REMARK   13  A    between atoms: C_42  and  C_43 
REMARK   14  A    between atoms: C_43  and  C_44 
REMARK   15  A    between atoms: C_44  and  C_45 
REMARK   16  A    between atoms: C_45  and  O_47 
ROOT
HETATM    1  C   UNK     0     -15.820 -18.063   2.570  0.00  0.00     0.051 C 
HETATM    2  C   UNK     0     -14.716 -18.789   1.827  0.00  0.00    -0.031 A 
HETATM    3  C   UNK     0     -13.419 -18.380   1.560  0.00  0.00     0.021 A 
HETATM    4  N   UNK     0     -12.794 -19.340   0.838  0.00  0.00    -0.361 N 
HETATM    5  C   UNK     0     -13.662 -20.355   0.646  0.00  0.00     0.022 A 
HETATM    6  C   UNK     0     -14.875 -20.042   1.250  0.00  0.00    -0.027 A 
HETATM    7  C   UNK     0     -13.442 -21.686  -0.003  0.00  0.00     0.115 C 
HETATM    8  C   UNK     0     -12.144 -22.400   0.329  0.00  0.00     0.021 A 
HETATM    9  N   UNK     0     -11.475 -22.421   1.492  0.00  0.00    -0.361 N 
HETATM   10  C   UNK     0     -10.326 -23.105   1.303  0.00  0.00     0.022 A 
HETATM   11  C   UNK     0     -10.258 -23.545  -0.016  0.00  0.00    -0.027 A 
HETATM   12  C   UNK     0     -11.400 -23.104  -0.635  0.00  0.00    -0.031 A 
HETATM   13  C   UNK     0     -11.761 -23.353  -2.082  0.00  0.00     0.051 C 
HETATM   14  C   UNK     0      -9.227 -23.324   2.339  0.00  0.00     0.115 C 
HETATM   15  C   UNK     0      -8.596 -22.039   2.849  0.00  0.00     0.021 A 
HETATM   16  N   UNK     0      -9.210 -21.008   3.460  0.00  0.00    -0.361 N 
HETATM   17  C   UNK     0      -8.320 -20.040   3.688  0.00  0.00     0.022 A 
HETATM   18  C   UNK     0      -7.064 -20.464   3.212  0.00  0.00    -0.027 A 
HETATM   19  C   UNK     0      -7.250 -21.717   2.690  0.00  0.00    -0.031 A 
HETATM   20  C   UNK     0      -6.134 -22.559   2.098  0.00  0.00     0.051 C 
HETATM   21  C   UNK     0      -8.514 -18.662   4.278  0.00  0.00     0.115 C 
HETATM   22  C   UNK     0      -9.819 -17.957   3.992  0.00  0.00     0.022 A 
HETATM   23  N   UNK     0     -10.510 -17.923   2.845  0.00  0.00    -0.361 N 
HETATM   24  C   UNK     0     -11.685 -17.305   3.077  0.00  0.00     0.021 A 
HETATM   25  C   UNK     0     -11.749 -16.922   4.403  0.00  0.00    -0.031 A 
HETATM   26  C   UNK     0     -12.844 -16.166   5.126  0.00  0.00     0.051 C 
HETATM   27  C   UNK     0     -10.566 -17.329   5.010  0.00  0.00    -0.027 A 
HETATM   28  C   UNK     0     -12.839 -17.108   2.109  0.00  0.00     0.115 C 
HETATM   29  H   UNK     0     -11.757 -19.277   0.434  0.00  0.00     0.165 HD
HETATM   30  H   UNK     0     -11.834 -21.997   2.462  0.00  0.00     0.165 HD
HETATM   31  H   UNK     0     -10.284 -20.982   3.780  0.00  0.00     0.165 HD
HETATM   32  H   UNK     0     -10.155 -18.297   1.850  0.00  0.00     0.165 HD
ENDROOT
BRANCH   6  33
HETATM   33  C   UNK     0     -16.158 -20.832   1.316  0.00  0.00     0.051 C 
BRANCH  33  34
HETATM   34  C   UNK     0     -17.059 -20.488   0.154  0.00  0.00     0.114 C 
BRANCH  34  35
HETATM   35  C   UNK     0     -18.447 -20.369   0.685  0.00  0.00     0.139 C 
HETATM   36  O   UNK     0     -19.439 -20.561  -0.077  0.00  0.00    -0.650 OA
BRANCH  35  37
HETATM   37  O   UNK     0     -18.718 -20.052   2.010  0.00  0.00    -0.776 OA
HETATM   38  H   UNK     0     -19.310 -19.278   2.265  0.00  0.00     0.167 HD
ENDBRANCH  35  37
ENDBRANCH  34  35
ENDBRANCH  33  34
ENDBRANCH   6  33
BRANCH  27  39
HETATM   39  C   UNK     0     -10.238 -17.028   6.430  0.00  0.00     0.051 C 
BRANCH  39  40
HETATM   40  C   UNK     0     -10.779 -17.905   7.468  0.00  0.00     0.114 C 
BRANCH  40  41
HETATM   41  C   UNK     0     -11.629 -17.411   8.527  0.00  0.00     0.139 C 
HETATM   42  O   UNK     0     -11.984 -16.228   8.624  0.00  0.00    -0.650 OA
BRANCH  41  43
HETATM   43  O   UNK     0     -12.092 -18.319   9.521  0.00  0.00    -0.776 OA
HETATM   44  H   UNK     0     -11.381 -18.943   9.883  0.00  0.00     0.167 HD
ENDBRANCH  41  43
ENDBRANCH  40  41
ENDBRANCH  39  40
ENDBRANCH  27  39
BRANCH  11  45
HETATM   45  C   UNK     0      -9.176 -24.348  -0.686  0.00  0.00     0.051 C 
BRANCH  45  46
HETATM   46  C   UNK     0      -9.237 -25.804  -0.399  0.00  0.00     0.114 C 
BRANCH  46  47
HETATM   47  C   UNK     0      -9.223 -26.514  -1.710  0.00  0.00     0.139 C 
HETATM   48  O   UNK     0      -8.284 -26.300  -2.490  0.00  0.00    -0.650 OA
BRANCH  47  49
HETATM   49  O   UNK     0     -10.229 -27.384  -2.049  0.00  0.00    -0.776 OA
HETATM   50  H   UNK     0     -10.055 -28.224  -2.613  0.00  0.00     0.167 HD
ENDBRANCH  47  49
ENDBRANCH  46  47
ENDBRANCH  45  46
ENDBRANCH  11  45
BRANCH  18  51
HETATM   51  C   UNK     0      -5.753 -19.723   3.270  0.00  0.00     0.051 C 
BRANCH  51  52
HETATM   52  C   UNK     0      -5.652 -18.933   1.974  0.00  0.00     0.114 C 
BRANCH  52  53
HETATM   53  C   UNK     0      -5.296 -17.522   2.216  0.00  0.00     0.139 C 
HETATM   54  O   UNK     0      -4.229 -17.065   1.777  0.00  0.00    -0.650 OA
BRANCH  53  55
HETATM   55  O   UNK     0      -6.150 -16.719   2.932  0.00  0.00    -0.776 OA
HETATM   56  H   UNK     0      -6.067 -16.490   3.895  0.00  0.00     0.167 HD
ENDBRANCH  53  55
ENDBRANCH  52  53
ENDBRANCH  51  52
ENDBRANCH  18  51
TORSDOF 16
ENDMDL
MODEL 18
REMARK VINA RESULT:      -8.3     31.036     34.215
REMARK  16 active torsions:
REMARK  status: ('A' for Active; 'I' for Inactive)
REMARK    1  A    between atoms: C_6  and  C_7 
REMARK    2  A    between atoms: C_7  and  C_8 
REMARK    3  A    between atoms: C_8  and  C_9 
REMARK    4  A    between atoms: C_9  and  O_11 
REMARK    5  A    between atoms: C_16  and  C_17 
REMARK    6  A    between atoms: C_17  and  C_18 
REMARK    7  A    between atoms: C_18  and  C_19 
REMARK    8  A    between atoms: C_19  and  O_21 
REMARK    9  A    between atoms: C_28  and  C_29 
REMARK   10  A    between atoms: C_29  and  C_30 
REMARK   11  A    between atoms: C_30  and  C_31 
REMARK   12  A    between atoms: C_31  and  O_33 
REMARK   13  A    between atoms: C_42  and  C_43 
REMARK   14  A    between atoms: C_43  and  C_44 
REMARK   15  A    between atoms: C_44  and  C_45 
REMARK   16  A    between atoms: C_45  and  O_47 
ROOT
HETATM    1  C   UNK     0      -8.994 -24.106  -1.108  0.00  0.00     0.051 C 
HETATM    2  C   UNK     0     -10.169 -23.438  -0.423  0.00  0.00    -0.031 A 
HETATM    3  C   UNK     0     -10.402 -23.239   0.929  0.00  0.00     0.021 A 
HETATM    4  N   UNK     0     -11.599 -22.625   1.084  0.00  0.00    -0.361 N 
HETATM    5  C   UNK     0     -12.129 -22.420  -0.139  0.00  0.00     0.022 A 
HETATM    6  C   UNK     0     -11.262 -22.920  -1.105  0.00  0.00    -0.027 A 
HETATM    7  C   UNK     0     -13.385 -21.701  -0.524  0.00  0.00     0.115 C 
HETATM    8  C   UNK     0     -13.672 -20.397   0.199  0.00  0.00     0.021 A 
HETATM    9  N   UNK     0     -12.803 -19.464   0.617  0.00  0.00    -0.361 N 
HETATM   10  C   UNK     0     -13.493 -18.520   1.292  0.00  0.00     0.022 A 
HETATM   11  C   UNK     0     -14.845 -18.850   1.301  0.00  0.00    -0.027 A 
HETATM   12  C   UNK     0     -14.965 -20.031   0.614  0.00  0.00    -0.031 A 
HETATM   13  C   UNK     0     -16.261 -20.769   0.364  0.00  0.00     0.051 C 
HETATM   14  C   UNK     0     -12.902 -17.303   1.999  0.00  0.00     0.115 C 
HETATM   15  C   UNK     0     -11.926 -17.651   3.111  0.00  0.00     0.021 A 
HETATM   16  N   UNK     0     -10.790 -18.367   3.013  0.00  0.00    -0.361 N 
HETATM   17  C   UNK     0     -10.255 -18.508   4.228  0.00  0.00     0.022 A 
HETATM   18  C   UNK     0     -11.077 -17.845   5.161  0.00  0.00    -0.027 A 
HETATM   19  C   UNK     0     -12.119 -17.311   4.449  0.00  0.00    -0.031 A 
HETATM   20  C   UNK     0     -13.226 -16.478   5.069  0.00  0.00     0.051 C 
HETATM   21  C   UNK     0      -9.031 -19.279   4.667  0.00  0.00     0.115 C 
HETATM   22  C   UNK     0      -8.708 -20.556   3.927  0.00  0.00     0.022 A 
HETATM   23  N   UNK     0      -9.553 -21.501   3.495  0.00  0.00    -0.361 N 
HETATM   24  C   UNK     0      -8.855 -22.389   2.759  0.00  0.00     0.021 A 
HETATM   25  C   UNK     0      -7.526 -22.013   2.725  0.00  0.00    -0.031 A 
HETATM   26  C   UNK     0      -6.354 -22.709   2.064  0.00  0.00     0.051 C 
HETATM   27  C   UNK     0      -7.407 -20.842   3.466  0.00  0.00    -0.027 A 
HETATM   28  C   UNK     0      -9.391 -23.582   1.986  0.00  0.00     0.115 C 
HETATM   29  H   UNK     0     -12.078 -22.376   2.059  0.00  0.00     0.165 HD
HETATM   30  H   UNK     0     -11.708 -19.442   0.395  0.00  0.00     0.165 HD
HETATM   31  H   UNK     0     -10.330 -18.740   2.061  0.00  0.00     0.165 HD
HETATM   32  H   UNK     0     -10.644 -21.574   3.742  0.00  0.00     0.165 HD
ENDROOT
BRANCH   6  33
HETATM   33  C   UNK     0     -11.393 -22.943  -2.607  0.00  0.00     0.051 C 
BRANCH  33  34
HETATM   34  C   UNK     0     -12.279 -24.084  -3.049  0.00  0.00     0.114 C 
BRANCH  34  35
HETATM   35  C   UNK     0     -11.432 -25.029  -3.832  0.00  0.00     0.139 C 
HETATM   36  O   UNK     0     -11.210 -24.819  -5.060  0.00  0.00    -0.650 OA
BRANCH  35  37
HETATM   37  O   UNK     0     -10.854 -26.161  -3.268  0.00  0.00    -0.776 OA
HETATM   38  H   UNK     0     -10.553 -26.185  -2.307  0.00  0.00     0.167 HD
ENDBRANCH  35  37
ENDBRANCH  34  35
ENDBRANCH  33  34
ENDBRANCH   6  33
BRANCH  27  39
HETATM   39  C   UNK     0      -6.103 -20.171   3.717  0.00  0.00     0.051 C 
BRANCH  39  40
HETATM   40  C   UNK     0      -5.621 -19.202   2.733  0.00  0.00     0.114 C 
BRANCH  40  41
HETATM   41  C   UNK     0      -5.744 -17.775   2.932  0.00  0.00     0.139 C 
HETATM   42  O   UNK     0      -6.295 -17.268   3.918  0.00  0.00    -0.650 OA
BRANCH  41  43
HETATM   43  O   UNK     0      -5.210 -16.892   1.951  0.00  0.00    -0.776 OA
HETATM   44  H   UNK     0      -5.884 -16.245   1.559  0.00  0.00     0.167 HD
ENDBRANCH  41  43
ENDBRANCH  40  41
ENDBRANCH  39  40
ENDBRANCH  27  39
BRANCH  11  45
HETATM   45  C   UNK     0     -15.994 -18.100   1.920  0.00  0.00     0.051 C 
BRANCH  45  46
HETATM   46  C   UNK     0     -16.037 -18.174   3.403  0.00  0.00     0.114 C 
BRANCH  46  47
HETATM   47  C   UNK     0     -17.427 -18.554   3.786  0.00  0.00     0.139 C 
HETATM   48  O   UNK     0     -17.758 -18.466   4.977  0.00  0.00    -0.650 OA
BRANCH  47  49
HETATM   49  O   UNK     0     -18.321 -18.991   2.842  0.00  0.00    -0.776 OA
HETATM   50  H   UNK     0     -18.018 -19.343   1.926  0.00  0.00     0.167 HD
ENDBRANCH  47  49
ENDBRANCH  46  47
ENDBRANCH  45  46
ENDBRANCH  11  45
BRANCH  18  51
HETATM   51  C   UNK     0     -10.868 -17.709   6.647  0.00  0.00     0.051 C 
BRANCH  51  52
HETATM   52  C   UNK     0     -11.839 -18.679   7.304  0.00  0.00     0.114 C 
BRANCH  52  53
HETATM   53  C   UNK     0     -12.314 -18.181   8.609  0.00  0.00     0.139 C 
HETATM   54  O   UNK     0     -11.723 -17.245   9.170  0.00  0.00    -0.650 OA
BRANCH  53  55
HETATM   55  O   UNK     0     -13.411 -18.761   9.200  0.00  0.00    -0.776 OA
HETATM   56  H   UNK     0     -13.546 -18.897  10.174  0.00  0.00     0.167 HD
ENDBRANCH  53  55
ENDBRANCH  52  53
ENDBRANCH  51  52
ENDBRANCH  18  51
TORSDOF 16
ENDMDL
MODEL 19
REMARK VINA RESULT:      -8.3     31.447     34.800
REMARK  16 active torsions:
REMARK  status: ('A' for Active; 'I' for Inactive)
REMARK    1  A    between atoms: C_6  and  C_7 
REMARK    2  A    between atoms: C_7  and  C_8 
REMARK    3  A    between atoms: C_8  and  C_9 
REMARK    4  A    between atoms: C_9  and  O_11 
REMARK    5  A    between atoms: C_16  and  C_17 
REMARK    6  A    between atoms: C_17  and  C_18 
REMARK    7  A    between atoms: C_18  and  C_19 
REMARK    8  A    between atoms: C_19  and  O_21 
REMARK    9  A    between atoms: C_28  and  C_29 
REMARK   10  A    between atoms: C_29  and  C_30 
REMARK   11  A    between atoms: C_30  and  C_31 
REMARK   12  A    between atoms: C_31  and  O_33 
REMARK   13  A    between atoms: C_42  and  C_43 
REMARK   14  A    between atoms: C_43  and  C_44 
REMARK   15  A    between atoms: C_44  and  C_45 
REMARK   16  A    between atoms: C_45  and  O_47 
ROOT
HETATM    1  C   UNK     0      -6.944 -23.338   1.344  0.00  0.00     0.051 C 
HETATM    2  C   UNK     0      -8.419 -23.183   1.653  0.00  0.00    -0.031 A 
HETATM    3  C   UNK     0      -9.032 -22.658   2.780  0.00  0.00     0.021 A 
HETATM    4  N   UNK     0     -10.375 -22.750   2.635  0.00  0.00    -0.361 N 
HETATM    5  C   UNK     0     -10.632 -23.314   1.437  0.00  0.00     0.022 A 
HETATM    6  C   UNK     0      -9.431 -23.601   0.798  0.00  0.00    -0.027 A 
HETATM    7  C   UNK     0     -11.945 -23.553   0.760  0.00  0.00     0.115 C 
HETATM    8  C   UNK     0     -12.967 -22.431   0.839  0.00  0.00     0.021 A 
HETATM    9  N   UNK     0     -12.756 -21.106   0.822  0.00  0.00    -0.361 N 
HETATM   10  C   UNK     0     -13.943 -20.491   1.009  0.00  0.00     0.022 A 
HETATM   11  C   UNK     0     -14.947 -21.446   1.140  0.00  0.00    -0.027 A 
HETATM   12  C   UNK     0     -14.339 -22.671   1.034  0.00  0.00    -0.031 A 
HETATM   13  C   UNK     0     -15.043 -24.006   1.111  0.00  0.00     0.051 C 
HETATM   14  C   UNK     0     -14.170 -18.986   1.124  0.00  0.00     0.115 C 
HETATM   15  C   UNK     0     -13.440 -18.341   2.291  0.00  0.00     0.021 A 
HETATM   16  N   UNK     0     -12.116 -18.338   2.531  0.00  0.00    -0.361 N 
HETATM   17  C   UNK     0     -11.882 -17.726   3.694  0.00  0.00     0.022 A 
HETATM   18  C   UNK     0     -13.113 -17.301   4.233  0.00  0.00    -0.027 A 
HETATM   19  C   UNK     0     -14.081 -17.691   3.344  0.00  0.00    -0.031 A 
HETATM   20  C   UNK     0     -15.559 -17.397   3.524  0.00  0.00     0.051 C 
HETATM   21  C   UNK     0     -10.584 -17.524   4.442  0.00  0.00     0.115 C 
HETATM   22  C   UNK     0      -9.541 -18.611   4.336  0.00  0.00     0.022 A 
HETATM   23  N   UNK     0      -9.722 -19.938   4.346  0.00  0.00    -0.361 N 
HETATM   24  C   UNK     0      -8.540 -20.529   4.081  0.00  0.00     0.021 A 
HETATM   25  C   UNK     0      -7.572 -19.559   3.906  0.00  0.00    -0.031 A 
HETATM   26  C   UNK     0      -6.092 -19.728   3.631  0.00  0.00     0.051 C 
HETATM   27  C   UNK     0      -8.188 -18.323   4.065  0.00  0.00    -0.027 A 
HETATM   28  C   UNK     0      -8.262 -22.011   3.896  0.00  0.00     0.115 C 
HETATM   29  H   UNK     0     -11.132 -22.451   3.398  0.00  0.00     0.165 HD
HETATM   30  H   UNK     0     -11.779 -20.601   0.628  0.00  0.00     0.165 HD
HETATM   31  H   UNK     0     -11.324 -18.734   1.843  0.00  0.00     0.165 HD
HETATM   32  H   UNK     0     -10.679 -20.472   4.584  0.00  0.00     0.165 HD
ENDROOT
BRANCH   6  33
HETATM   33  C   UNK     0      -9.175 -24.235  -0.546  0.00  0.00     0.051 C 
BRANCH  33  34
HETATM   34  C   UNK     0      -9.265 -25.740  -0.453  0.00  0.00     0.114 C 
BRANCH  34  35
HETATM   35  C   UNK     0      -8.209 -26.306  -1.341  0.00  0.00     0.139 C 
HETATM   36  O   UNK     0      -8.108 -25.914  -2.540  0.00  0.00    -0.650 OA
BRANCH  35  37
HETATM   37  O   UNK     0      -7.302 -27.266  -0.909  0.00  0.00    -0.776 OA
HETATM   38  H   UNK     0      -6.313 -27.083  -0.859  0.00  0.00     0.167 HD
ENDBRANCH  35  37
ENDBRANCH  34  35
ENDBRANCH  33  34
ENDBRANCH   6  33
BRANCH  27  39
HETATM   39  C   UNK     0      -7.446 -17.035   4.018  0.00  0.00     0.051 C 
BRANCH  39  40
HETATM   40  C   UNK     0      -7.508 -16.155   5.184  0.00  0.00     0.114 C 
BRANCH  40  41
HETATM   41  C   UNK     0      -7.888 -14.763   5.080  0.00  0.00     0.139 C 
HETATM   42  O   UNK     0      -9.064 -14.377   5.036  0.00  0.00    -0.650 OA
BRANCH  41  43
HETATM   43  O   UNK     0      -6.868 -13.771   5.025  0.00  0.00    -0.776 OA
HETATM   44  H   UNK     0      -6.003 -14.034   5.482  0.00  0.00     0.167 HD
ENDBRANCH  41  43
ENDBRANCH  40  41
ENDBRANCH  39  40
ENDBRANCH  27  39
BRANCH  11  45
HETATM   45  C   UNK     0     -16.422 -21.239   1.355  0.00  0.00     0.051 C 
BRANCH  45  46
HETATM   46  C   UNK     0     -17.065 -20.364   0.341  0.00  0.00     0.114 C 
BRANCH  46  47
HETATM   47  C   UNK     0     -17.870 -19.349   1.079  0.00  0.00     0.139 C 
HETATM   48  O   UNK     0     -18.467 -19.700   2.107  0.00  0.00    -0.650 OA
BRANCH  47  49
HETATM   49  O   UNK     0     -17.950 -18.055   0.631  0.00  0.00    -0.776 OA
HETATM   50  H   UNK     0     -18.276 -17.825  -0.315  0.00  0.00     0.167 HD
ENDBRANCH  47  49
ENDBRANCH  46  47
ENDBRANCH  45  46
ENDBRANCH  11  45
BRANCH  18  51
HETATM   51  C   UNK     0     -13.351 -16.545   5.515  0.00  0.00     0.051 C 
BRANCH  51  52
HETATM   52  C   UNK     0     -14.008 -17.528   6.473  0.00  0.00     0.114 C 
BRANCH  52  53
HETATM   53  C   UNK     0     -13.117 -17.881   7.594  0.00  0.00     0.139 C 
HETATM   54  O   UNK     0     -13.500 -18.678   8.466  0.00  0.00    -0.650 OA
BRANCH  53  55
HETATM   55  O   UNK     0     -11.864 -17.321   7.670  0.00  0.00    -0.776 OA
HETATM   56  H   UNK     0     -11.084 -17.558   7.104  0.00  0.00     0.167 HD
ENDBRANCH  53  55
ENDBRANCH  52  53
ENDBRANCH  51  52
ENDBRANCH  18  51
TORSDOF 16
ENDMDL
MODEL 20
REMARK VINA RESULT:      -8.3     28.354     32.232
REMARK  16 active torsions:
REMARK  status: ('A' for Active; 'I' for Inactive)
REMARK    1  A    between atoms: C_6  and  C_7 
REMARK    2  A    between atoms: C_7  and  C_8 
REMARK    3  A    between atoms: C_8  and  C_9 
REMARK    4  A    between atoms: C_9  and  O_11 
REMARK    5  A    between atoms: C_16  and  C_17 
REMARK    6  A    between atoms: C_17  and  C_18 
REMARK    7  A    between atoms: C_18  and  C_19 
REMARK    8  A    between atoms: C_19  and  O_21 
REMARK    9  A    between atoms: C_28  and  C_29 
REMARK   10  A    between atoms: C_29  and  C_30 
REMARK   11  A    between atoms: C_30  and  C_31 
REMARK   12  A    between atoms: C_31  and  O_33 
REMARK   13  A    between atoms: C_42  and  C_43 
REMARK   14  A    between atoms: C_43  and  C_44 
REMARK   15  A    between atoms: C_44  and  C_45 
REMARK   16  A    between atoms: C_45  and  O_47 
ROOT
HETATM    1  C   UNK     0       7.571  -2.316 -25.128  0.00  0.00     0.051 C 
HETATM    2  C   UNK     0       8.467  -2.656 -23.955  0.00  0.00    -0.031 A 
HETATM    3  C   UNK     0       8.592  -3.849 -23.259  0.00  0.00     0.021 A 
HETATM    4  N   UNK     0       9.494  -3.686 -22.263  0.00  0.00    -0.361 N 
HETATM    5  C   UNK     0       9.954  -2.419 -22.313  0.00  0.00     0.022 A 
HETATM    6  C   UNK     0       9.330  -1.746 -23.359  0.00  0.00    -0.027 A 
HETATM    7  C   UNK     0      11.025  -1.761 -21.500  0.00  0.00     0.115 C 
HETATM    8  C   UNK     0      12.282  -2.574 -21.244  0.00  0.00     0.021 A 
HETATM    9  N   UNK     0      12.894  -3.446 -22.059  0.00  0.00    -0.361 N 
HETATM   10  C   UNK     0      13.922  -4.002 -21.383  0.00  0.00     0.022 A 
HETATM   11  C   UNK     0      13.978  -3.466 -20.100  0.00  0.00    -0.027 A 
HETATM   12  C   UNK     0      12.948  -2.566 -20.005  0.00  0.00    -0.031 A 
HETATM   13  C   UNK     0      12.623  -1.734 -18.785  0.00  0.00     0.051 C 
HETATM   14  C   UNK     0      14.855  -5.094 -21.899  0.00  0.00     0.115 C 
HETATM   15  C   UNK     0      14.146  -6.390 -22.258  0.00  0.00     0.021 A 
HETATM   16  N   UNK     0      13.158  -6.564 -23.156  0.00  0.00    -0.361 N 
HETATM   17  C   UNK     0      12.758  -7.837 -23.126  0.00  0.00     0.022 A 
HETATM   18  C   UNK     0      13.529  -8.528 -22.170  0.00  0.00    -0.027 A 
HETATM   19  C   UNK     0      14.396  -7.610 -21.635  0.00  0.00    -0.031 A 
HETATM   20  C   UNK     0      15.438  -7.947 -20.584  0.00  0.00     0.051 C 
HETATM   21  C   UNK     0      11.641  -8.523 -23.880  0.00  0.00     0.115 C 
HETATM   22  C   UNK     0      10.402  -7.713 -24.180  0.00  0.00     0.022 A 
HETATM   23  N   UNK     0       9.773  -6.834 -23.389  0.00  0.00    -0.361 N 
HETATM   24  C   UNK     0       8.802  -6.236 -24.108  0.00  0.00     0.021 A 
HETATM   25  C   UNK     0       8.799  -6.750 -25.391  0.00  0.00    -0.031 A 
HETATM   26  C   UNK     0       7.874  -6.425 -26.545  0.00  0.00     0.051 C 
HETATM   27  C   UNK     0       9.814  -7.697 -25.461  0.00  0.00    -0.027 A 
HETATM   28  C   UNK     0       7.883  -5.108 -23.672  0.00  0.00     0.115 C 
HETATM   29  H   UNK     0       9.771  -4.456 -21.506  0.00  0.00     0.165 HD
HETATM   30  H   UNK     0      12.635  -3.635 -23.130  0.00  0.00     0.165 HD
HETATM   31  H   UNK     0      12.766  -5.784 -23.859  0.00  0.00     0.165 HD
HETATM   32  H   UNK     0       9.981  -6.659 -22.301  0.00  0.00     0.165 HD
ENDROOT
BRANCH   6  33
HETATM   33  C   UNK     0       9.488  -0.321 -23.826  0.00  0.00     0.051 C 
BRANCH  33  34
HETATM   34  C   UNK     0       8.459   0.573 -23.175  0.00  0.00     0.114 C 
BRANCH  34  35
HETATM   35  C   UNK     0       7.590   1.116 -24.258  0.00  0.00     0.139 C 
HETATM   36  O   UNK     0       6.347   1.254 -24.069  0.00  0.00    -0.650 OA
BRANCH  35  37
HETATM   37  O   UNK     0       8.088   1.493 -25.500  0.00  0.00    -0.776 OA
HETATM   38  H   UNK     0       7.929   2.411 -25.883  0.00  0.00     0.167 HD
ENDBRANCH  35  37
ENDBRANCH  34  35
ENDBRANCH  33  34
ENDBRANCH   6  33
BRANCH  27  39
HETATM   39  C   UNK     0      10.073  -8.519 -26.674  0.00  0.00     0.051 C 
BRANCH  39  40
HETATM   40  C   UNK     0      10.952  -7.973 -27.708  0.00  0.00     0.114 C 
BRANCH  40  41
HETATM   41  C   UNK     0      10.575  -7.945 -29.103  0.00  0.00     0.139 C 
HETATM   42  O   UNK     0       9.741  -7.158 -29.570  0.00  0.00    -0.650 OA
BRANCH  41  43
HETATM   43  O   UNK     0      11.186  -8.864 -30.003  0.00  0.00    -0.776 OA
HETATM   44  H   UNK     0      10.615  -9.670 -30.231  0.00  0.00     0.167 HD
ENDBRANCH  41  43
ENDBRANCH  40  41
ENDBRANCH  39  40
ENDBRANCH  27  39
BRANCH  11  45
HETATM   45  C   UNK     0      14.953  -3.771 -18.994  0.00  0.00     0.051 C 
BRANCH  45  46
HETATM   46  C   UNK     0      14.661  -5.028 -18.258  0.00  0.00     0.114 C 
BRANCH  46  47
HETATM   47  C   UNK     0      13.912  -4.654 -17.025  0.00  0.00     0.139 C 
HETATM   48  O   UNK     0      14.555  -4.330 -16.016  0.00  0.00    -0.650 OA
BRANCH  47  49
HETATM   49  O   UNK     0      12.540  -4.669 -17.004  0.00  0.00    -0.776 OA
HETATM   50  H   UNK     0      11.979  -3.991 -17.534  0.00  0.00     0.167 HD
ENDBRANCH  47  49
ENDBRANCH  46  47
ENDBRANCH  45  46
ENDBRANCH  11  45
BRANCH  18  51
HETATM   51  C   UNK     0      13.459  -9.987 -21.802  0.00  0.00     0.051 C 
BRANCH  51  52
HETATM   52  C   UNK     0      13.855 -10.761 -23.051  0.00  0.00     0.114 C 
BRANCH  52  53
HETATM   53  C   UNK     0      12.967 -11.916 -23.286  0.00  0.00     0.139 C 
HETATM   54  O   UNK     0      12.524 -12.138 -24.425  0.00  0.00    -0.650 OA
BRANCH  53  55
HETATM   55  O   UNK     0      12.631 -12.739 -22.239  0.00  0.00    -0.776 OA
HETATM   56  H   UNK     0      13.130 -12.832 -21.386  0.00  0.00     0.167 HD
ENDBRANCH  53  55
ENDBRANCH  52  53
ENDBRANCH  51  52
ENDBRANCH  18  51
TORSDOF 16
ENDMDL
