MODEL 1
REMARK VINA RESULT:      -9.8      0.000      0.000
REMARK  16 active torsions:
REMARK  status: ('A' for Active; 'I' for Inactive)
REMARK    1  A    between atoms: C_6  and  C_7 
REMARK    2  A    between atoms: C_7  and  C_8 
REMARK    3  A    between atoms: C_8  and  C_9 
REMARK    4  A    between atoms: C_9  and  O_11 
REMARK    5  A    between atoms: C_16  and  C_17 
REMARK    6  A    between atoms: C_17  and  C_18 
REMARK    7  A    between atoms: C_18  and  C_19 
REMARK    8  A    between atoms: C_19  and  O_21 
REMARK    9  A    between atoms: C_28  and  C_29 
REMARK   10  A    between atoms: C_29  and  C_30 
REMARK   11  A    between atoms: C_30  and  C_31 
REMARK   12  A    between atoms: C_31  and  O_33 
REMARK   13  A    between atoms: C_42  and  C_43 
REMARK   14  A    between atoms: C_43  and  C_44 
REMARK   15  A    between atoms: C_44  and  C_45 
REMARK   16  A    between atoms: C_45  and  O_47 
ROOT
HETATM    1  C   UNK     0     -17.578  -7.500 -29.415  0.00  0.00     0.051 C 
HETATM    2  C   UNK     0     -18.718  -8.486 -29.263  0.00  0.00    -0.031 A 
HETATM    3  C   UNK     0     -19.253  -9.041 -28.112  0.00  0.00     0.021 A 
HETATM    4  N   UNK     0     -20.243  -9.900 -28.454  0.00  0.00    -0.361 N 
HETATM    5  C   UNK     0     -20.357  -9.896 -29.798  0.00  0.00     0.022 A 
HETATM    6  C   UNK     0     -19.416  -9.025 -30.337  0.00  0.00    -0.027 A 
HETATM    7  C   UNK     0     -21.353 -10.594 -30.671  0.00  0.00     0.115 C 
HETATM    8  C   UNK     0     -22.798 -10.579 -30.203  0.00  0.00     0.021 A 
HETATM    9  N   UNK     0     -23.459  -9.603 -29.563  0.00  0.00    -0.361 N 
HETATM   10  C   UNK     0     -24.693 -10.061 -29.262  0.00  0.00     0.022 A 
HETATM   11  C   UNK     0     -24.833 -11.364 -29.729  0.00  0.00    -0.027 A 
HETATM   12  C   UNK     0     -23.643 -11.697 -30.323  0.00  0.00    -0.031 A 
HETATM   13  C   UNK     0     -23.334 -13.024 -30.980  0.00  0.00     0.051 C 
HETATM   14  C   UNK     0     -25.766  -9.310 -28.479  0.00  0.00     0.115 C 
HETATM   15  C   UNK     0     -25.352  -8.945 -27.062  0.00  0.00     0.021 A 
HETATM   16  N   UNK     0     -24.300  -8.197 -26.681  0.00  0.00    -0.361 N 
HETATM   17  C   UNK     0     -24.242  -8.170 -25.347  0.00  0.00     0.022 A 
HETATM   18  C   UNK     0     -25.313  -8.929 -24.835  0.00  0.00    -0.027 A 
HETATM   19  C   UNK     0     -26.001  -9.408 -25.919  0.00  0.00    -0.031 A 
HETATM   20  C   UNK     0     -27.259 -10.252 -25.815  0.00  0.00     0.051 C 
HETATM   21  C   UNK     0     -23.219  -7.535 -24.432  0.00  0.00     0.115 C 
HETATM   22  C   UNK     0     -21.785  -7.503 -24.905  0.00  0.00     0.022 A 
HETATM   23  N   UNK     0     -21.101  -8.459 -25.548  0.00  0.00    -0.361 N 
HETATM   24  C   UNK     0     -19.903  -7.955 -25.907  0.00  0.00     0.021 A 
HETATM   25  C   UNK     0     -19.809  -6.646 -25.475  0.00  0.00    -0.031 A 
HETATM   26  C   UNK     0     -18.649  -5.680 -25.604  0.00  0.00     0.051 C 
HETATM   27  C   UNK     0     -21.001  -6.334 -24.831  0.00  0.00    -0.027 A 
HETATM   28  C   UNK     0     -18.821  -8.627 -26.733  0.00  0.00     0.115 C 
HETATM   29  H   UNK     0     -20.828 -10.531 -27.746  0.00  0.00     0.165 HD
HETATM   30  H   UNK     0     -23.076  -8.572 -29.367  0.00  0.00     0.165 HD
HETATM   31  H   UNK     0     -23.612  -7.636 -27.366  0.00  0.00     0.165 HD
HETATM   32  H   UNK     0     -21.442  -9.514 -25.717  0.00  0.00     0.165 HD
ENDROOT
BRANCH   6  33
HETATM   33  C   UNK     0     -19.131  -8.672 -31.775  0.00  0.00     0.051 C 
BRANCH  33  34
HETATM   34  C   UNK     0     -20.115  -7.642 -32.278  0.00  0.00     0.114 C 
BRANCH  34  35
HETATM   35  C   UNK     0     -19.366  -6.368 -32.474  0.00  0.00     0.139 C 
HETATM   36  O   UNK     0     -19.259  -5.539 -31.524  0.00  0.00    -0.650 OA
BRANCH  35  37
HETATM   37  O   UNK     0     -18.759  -6.034 -33.679  0.00  0.00    -0.776 OA
HETATM   38  H   UNK     0     -17.933  -5.459 -33.720  0.00  0.00     0.167 HD
ENDBRANCH  35  37
ENDBRANCH  34  35
ENDBRANCH  33  34
ENDBRANCH   6  33
BRANCH  27  39
HETATM   39  C   UNK     0     -21.245  -5.025 -24.166  0.00  0.00     0.051 C 
BRANCH  39  40
HETATM   40  C   UNK     0     -20.950  -4.906 -22.738  0.00  0.00     0.114 C 
BRANCH  40  41
HETATM   41  C   UNK     0     -21.935  -5.194 -21.721  0.00  0.00     0.139 C 
HETATM   42  O   UNK     0     -21.717  -5.926 -20.746  0.00  0.00    -0.650 OA
BRANCH  41  43
HETATM   43  O   UNK     0     -23.231  -4.614 -21.829  0.00  0.00    -0.776 OA
HETATM   44  H   UNK     0     -23.968  -5.273 -22.048  0.00  0.00     0.167 HD
ENDBRANCH  41  43
ENDBRANCH  40  41
ENDBRANCH  39  40
ENDBRANCH  27  39
BRANCH  11  45
HETATM   45  C   UNK     0     -26.027 -12.276 -29.634  0.00  0.00     0.051 C 
BRANCH  45  46
HETATM   46  C   UNK     0     -26.272 -12.813 -28.272  0.00  0.00     0.114 C 
BRANCH  46  47
HETATM   47  C   UNK     0     -25.697 -14.188 -28.230  0.00  0.00     0.139 C 
HETATM   48  O   UNK     0     -25.644 -14.775 -27.140  0.00  0.00    -0.650 OA
BRANCH  47  49
HETATM   49  O   UNK     0     -25.235 -14.792 -29.372  0.00  0.00    -0.776 OA
HETATM   50  H   UNK     0     -25.861 -15.289 -30.017  0.00  0.00     0.167 HD
ENDBRANCH  47  49
ENDBRANCH  46  47
ENDBRANCH  45  46
ENDBRANCH  11  45
BRANCH  18  51
HETATM   51  C   UNK     0     -25.672  -9.167 -23.392  0.00  0.00     0.051 C 
BRANCH  51  52
HETATM   52  C   UNK     0     -26.464  -7.948 -22.943  0.00  0.00     0.114 C 
BRANCH  52  53
HETATM   53  C   UNK     0     -26.108  -7.535 -21.572  0.00  0.00     0.139 C 
HETATM   54  O   UNK     0     -26.123  -8.366 -20.649  0.00  0.00    -0.650 OA
BRANCH  53  55
HETATM   55  O   UNK     0     -25.763  -6.229 -21.323  0.00  0.00    -0.776 OA
HETATM   56  H   UNK     0     -25.952  -5.453 -21.913  0.00  0.00     0.167 HD
ENDBRANCH  53  55
ENDBRANCH  52  53
ENDBRANCH  51  52
ENDBRANCH  18  51
TORSDOF 16
ENDMDL
MODEL 2
REMARK VINA RESULT:      -9.7      1.906      7.373
REMARK  16 active torsions:
REMARK  status: ('A' for Active; 'I' for Inactive)
REMARK    1  A    between atoms: C_6  and  C_7 
REMARK    2  A    between atoms: C_7  and  C_8 
REMARK    3  A    between atoms: C_8  and  C_9 
REMARK    4  A    between atoms: C_9  and  O_11 
REMARK    5  A    between atoms: C_16  and  C_17 
REMARK    6  A    between atoms: C_17  and  C_18 
REMARK    7  A    between atoms: C_18  and  C_19 
REMARK    8  A    between atoms: C_19  and  O_21 
REMARK    9  A    between atoms: C_28  and  C_29 
REMARK   10  A    between atoms: C_29  and  C_30 
REMARK   11  A    between atoms: C_30  and  C_31 
REMARK   12  A    between atoms: C_31  and  O_33 
REMARK   13  A    between atoms: C_42  and  C_43 
REMARK   14  A    between atoms: C_43  and  C_44 
REMARK   15  A    between atoms: C_44  and  C_45 
REMARK   16  A    between atoms: C_45  and  O_47 
ROOT
HETATM    1  C   UNK     0     -26.898 -11.027 -27.009  0.00  0.00     0.051 C 
HETATM    2  C   UNK     0     -25.832 -10.411 -27.892  0.00  0.00    -0.031 A 
HETATM    3  C   UNK     0     -25.213  -9.175 -27.792  0.00  0.00     0.021 A 
HETATM    4  N   UNK     0     -24.343  -9.033 -28.820  0.00  0.00    -0.361 N 
HETATM    5  C   UNK     0     -24.387 -10.154 -29.567  0.00  0.00     0.022 A 
HETATM    6  C   UNK     0     -25.311 -11.037 -29.017  0.00  0.00    -0.027 A 
HETATM    7  C   UNK     0     -23.560 -10.541 -30.754  0.00  0.00     0.115 C 
HETATM    8  C   UNK     0     -22.074 -10.237 -30.677  0.00  0.00     0.021 A 
HETATM    9  N   UNK     0     -21.265 -10.285 -29.607  0.00  0.00    -0.361 N 
HETATM   10  C   UNK     0     -20.046  -9.844 -29.984  0.00  0.00     0.022 A 
HETATM   11  C   UNK     0     -20.068  -9.513 -31.336  0.00  0.00    -0.027 A 
HETATM   12  C   UNK     0     -21.343  -9.758 -31.778  0.00  0.00    -0.031 A 
HETATM   13  C   UNK     0     -21.833  -9.546 -33.193  0.00  0.00     0.051 C 
HETATM   14  C   UNK     0     -18.831  -9.669 -29.077  0.00  0.00     0.115 C 
HETATM   15  C   UNK     0     -19.046  -8.676 -27.946  0.00  0.00     0.021 A 
HETATM   16  N   UNK     0     -19.982  -8.722 -26.979  0.00  0.00    -0.361 N 
HETATM   17  C   UNK     0     -19.882  -7.629 -26.220  0.00  0.00     0.022 A 
HETATM   18  C   UNK     0     -18.824  -6.838 -26.709  0.00  0.00    -0.027 A 
HETATM   19  C   UNK     0     -18.308  -7.505 -27.789  0.00  0.00    -0.031 A 
HETATM   20  C   UNK     0     -17.119  -7.014 -28.596  0.00  0.00     0.051 C 
HETATM   21  C   UNK     0     -20.736  -7.171 -25.059  0.00  0.00     0.115 C 
HETATM   22  C   UNK     0     -22.208  -7.506 -25.101  0.00  0.00     0.022 A 
HETATM   23  N   UNK     0     -23.037  -7.471 -26.153  0.00  0.00    -0.361 N 
HETATM   24  C   UNK     0     -24.224  -7.987 -25.773  0.00  0.00     0.021 A 
HETATM   25  C   UNK     0     -24.160  -8.353 -24.443  0.00  0.00    -0.031 A 
HETATM   26  C   UNK     0     -25.245  -8.937 -23.562  0.00  0.00     0.051 C 
HETATM   27  C   UNK     0     -22.880  -8.055 -23.991  0.00  0.00    -0.027 A 
HETATM   28  C   UNK     0     -25.446  -8.241 -26.638  0.00  0.00     0.115 C 
HETATM   29  H   UNK     0     -23.733  -8.124 -29.032  0.00  0.00     0.165 HD
HETATM   30  H   UNK     0     -21.538 -10.676 -28.597  0.00  0.00     0.165 HD
HETATM   31  H   UNK     0     -20.698  -9.566 -26.800  0.00  0.00     0.165 HD
HETATM   32  H   UNK     0     -22.806  -7.041 -27.162  0.00  0.00     0.165 HD
ENDROOT
BRANCH   6  33
HETATM   33  C   UNK     0     -25.732 -12.411 -29.474  0.00  0.00     0.051 C 
BRANCH  33  34
HETATM   34  C   UNK     0     -24.758 -13.458 -28.989  0.00  0.00     0.114 C 
BRANCH  34  35
HETATM   35  C   UNK     0     -25.473 -14.303 -27.989  0.00  0.00     0.139 C 
HETATM   36  O   UNK     0     -26.728 -14.209 -27.857  0.00  0.00    -0.650 OA
BRANCH  35  37
HETATM   37  O   UNK     0     -24.816 -15.215 -27.172  0.00  0.00    -0.776 OA
HETATM   38  H   UNK     0     -24.839 -15.146 -26.167  0.00  0.00     0.167 HD
ENDBRANCH  35  37
ENDBRANCH  34  35
ENDBRANCH  33  34
ENDBRANCH   6  33
BRANCH  27  39
HETATM   39  C   UNK     0     -22.454  -8.245 -22.577  0.00  0.00     0.051 C 
BRANCH  39  40
HETATM   40  C   UNK     0     -22.883  -7.260 -21.585  0.00  0.00     0.114 C 
BRANCH  40  41
HETATM   41  C   UNK     0     -22.248  -5.968 -21.457  0.00  0.00     0.139 C 
HETATM   42  O   UNK     0     -21.607  -5.617 -20.458  0.00  0.00    -0.650 OA
BRANCH  41  43
HETATM   43  O   UNK     0     -22.357  -5.036 -22.529  0.00  0.00    -0.776 OA
HETATM   44  H   UNK     0     -21.956  -4.126 -22.335  0.00  0.00     0.167 HD
ENDBRANCH  41  43
ENDBRANCH  40  41
ENDBRANCH  39  40
ENDBRANCH  27  39
BRANCH  11  45
HETATM   45  C   UNK     0     -18.949  -8.989 -32.195  0.00  0.00     0.051 C 
BRANCH  45  46
HETATM   46  C   UNK     0     -18.735  -7.523 -32.085  0.00  0.00     0.114 C 
BRANCH  46  47
HETATM   47  C   UNK     0     -18.362  -7.028 -33.440  0.00  0.00     0.139 C 
HETATM   48  O   UNK     0     -17.545  -7.680 -34.105  0.00  0.00    -0.650 OA
BRANCH  47  49
HETATM   49  O   UNK     0     -18.909  -5.874 -33.942  0.00  0.00    -0.776 OA
HETATM   50  H   UNK     0     -18.732  -4.956 -33.516  0.00  0.00     0.167 HD
ENDBRANCH  47  49
ENDBRANCH  46  47
ENDBRANCH  45  46
ENDBRANCH  11  45
BRANCH  18  51
HETATM   51  C   UNK     0     -18.319  -5.527 -26.163  0.00  0.00     0.051 C 
BRANCH  51  52
HETATM   52  C   UNK     0     -17.621  -5.852 -24.851  0.00  0.00     0.114 C 
BRANCH  52  53
HETATM   53  C   UNK     0     -16.175  -6.079 -25.038  0.00  0.00     0.139 C 
HETATM   54  O   UNK     0     -15.624  -7.053 -24.501  0.00  0.00    -0.650 OA
BRANCH  53  55
HETATM   55  O   UNK     0     -15.444  -5.205 -25.806  0.00  0.00    -0.776 OA
HETATM   56  H   UNK     0     -14.735  -5.451 -26.456  0.00  0.00     0.167 HD
ENDBRANCH  53  55
ENDBRANCH  52  53
ENDBRANCH  51  52
ENDBRANCH  18  51
TORSDOF 16
ENDMDL
MODEL 3
REMARK VINA RESULT:      -9.1      1.828      2.404
REMARK  16 active torsions:
REMARK  status: ('A' for Active; 'I' for Inactive)
REMARK    1  A    between atoms: C_6  and  C_7 
REMARK    2  A    between atoms: C_7  and  C_8 
REMARK    3  A    between atoms: C_8  and  C_9 
REMARK    4  A    between atoms: C_9  and  O_11 
REMARK    5  A    between atoms: C_16  and  C_17 
REMARK    6  A    between atoms: C_17  and  C_18 
REMARK    7  A    between atoms: C_18  and  C_19 
REMARK    8  A    between atoms: C_19  and  O_21 
REMARK    9  A    between atoms: C_28  and  C_29 
REMARK   10  A    between atoms: C_29  and  C_30 
REMARK   11  A    between atoms: C_30  and  C_31 
REMARK   12  A    between atoms: C_31  and  O_33 
REMARK   13  A    between atoms: C_42  and  C_43 
REMARK   14  A    between atoms: C_43  and  C_44 
REMARK   15  A    between atoms: C_44  and  C_45 
REMARK   16  A    between atoms: C_45  and  O_47 
ROOT
HETATM    1  C   UNK     0     -16.986  -7.984 -30.811  0.00  0.00     0.051 C 
HETATM    2  C   UNK     0     -18.217  -8.764 -30.397  0.00  0.00    -0.031 A 
HETATM    3  C   UNK     0     -18.581  -9.233 -29.144  0.00  0.00     0.021 A 
HETATM    4  N   UNK     0     -19.750  -9.908 -29.248  0.00  0.00    -0.361 N 
HETATM    5  C   UNK     0     -20.144  -9.872 -30.538  0.00  0.00     0.022 A 
HETATM    6  C   UNK     0     -19.206  -9.167 -31.285  0.00  0.00    -0.027 A 
HETATM    7  C   UNK     0     -21.405 -10.383 -31.163  0.00  0.00     0.115 C 
HETATM    8  C   UNK     0     -22.694 -10.129 -30.402  0.00  0.00     0.021 A 
HETATM    9  N   UNK     0     -23.032  -9.061 -29.663  0.00  0.00    -0.361 N 
HETATM   10  C   UNK     0     -24.233  -9.307 -29.097  0.00  0.00     0.022 A 
HETATM   11  C   UNK     0     -24.685 -10.563 -29.490  0.00  0.00    -0.027 A 
HETATM   12  C   UNK     0     -23.720 -11.086 -30.312  0.00  0.00    -0.031 A 
HETATM   13  C   UNK     0     -23.784 -12.440 -30.984  0.00  0.00     0.051 C 
HETATM   14  C   UNK     0     -24.975  -8.393 -28.125  0.00  0.00     0.115 C 
HETATM   15  C   UNK     0     -24.215  -8.118 -26.837  0.00  0.00     0.021 A 
HETATM   16  N   UNK     0     -22.996  -7.562 -26.706  0.00  0.00    -0.361 N 
HETATM   17  C   UNK     0     -22.653  -7.558 -25.416  0.00  0.00     0.022 A 
HETATM   18  C   UNK     0     -23.702  -8.131 -24.670  0.00  0.00    -0.027 A 
HETATM   19  C   UNK     0     -24.675  -8.476 -25.572  0.00  0.00    -0.031 A 
HETATM   20  C   UNK     0     -26.005  -9.096 -25.183  0.00  0.00     0.051 C 
HETATM   21  C   UNK     0     -21.368  -7.115 -24.753  0.00  0.00     0.115 C 
HETATM   22  C   UNK     0     -20.082  -7.321 -25.518  0.00  0.00     0.022 A 
HETATM   23  N   UNK     0     -19.720  -8.372 -26.265  0.00  0.00    -0.361 N 
HETATM   24  C   UNK     0     -18.558  -8.074 -26.881  0.00  0.00     0.021 A 
HETATM   25  C   UNK     0     -18.157  -6.804 -26.513  0.00  0.00    -0.031 A 
HETATM   26  C   UNK     0     -16.906  -6.047 -26.908  0.00  0.00     0.051 C 
HETATM   27  C   UNK     0     -19.116  -6.302 -25.641  0.00  0.00    -0.027 A 
HETATM   28  C   UNK     0     -17.804  -8.912 -27.899  0.00  0.00     0.115 C 
HETATM   29  H   UNK     0     -20.269 -10.439 -28.417  0.00  0.00     0.165 HD
HETATM   30  H   UNK     0     -22.449  -8.112 -29.578  0.00  0.00     0.165 HD
HETATM   31  H   UNK     0     -22.385  -7.119 -27.534  0.00  0.00     0.165 HD
HETATM   32  H   UNK     0     -20.260  -9.352 -26.331  0.00  0.00     0.165 HD
ENDROOT
BRANCH   6  33
HETATM   33  C   UNK     0     -19.177  -8.853 -32.759  0.00  0.00     0.051 C 
BRANCH  33  34
HETATM   34  C   UNK     0     -20.180  -7.775 -33.096  0.00  0.00     0.114 C 
BRANCH  34  35
HETATM   35  C   UNK     0     -19.510  -6.460 -32.882  0.00  0.00     0.139 C 
HETATM   36  O   UNK     0     -19.776  -5.769 -31.856  0.00  0.00    -0.650 OA
BRANCH  35  37
HETATM   37  O   UNK     0     -18.581  -5.938 -33.774  0.00  0.00    -0.776 OA
HETATM   38  H   UNK     0     -17.592  -6.094 -33.667  0.00  0.00     0.167 HD
ENDBRANCH  35  37
ENDBRANCH  34  35
ENDBRANCH  33  34
ENDBRANCH   6  33
BRANCH  27  39
HETATM   39  C   UNK     0     -18.991  -4.977 -24.974  0.00  0.00     0.051 C 
BRANCH  39  40
HETATM   40  C   UNK     0     -18.096  -4.862 -23.823  0.00  0.00     0.114 C 
BRANCH  40  41
HETATM   41  C   UNK     0     -16.945  -3.987 -23.827  0.00  0.00     0.139 C 
HETATM   42  O   UNK     0     -17.016  -2.765 -24.017  0.00  0.00    -0.650 OA
BRANCH  41  43
HETATM   43  O   UNK     0     -15.654  -4.543 -23.602  0.00  0.00    -0.776 OA
HETATM   44  H   UNK     0     -15.363  -5.221 -24.296  0.00  0.00     0.167 HD
ENDBRANCH  41  43
ENDBRANCH  40  41
ENDBRANCH  39  40
ENDBRANCH  27  39
BRANCH  11  45
HETATM   45  C   UNK     0     -25.967 -11.260 -29.122  0.00  0.00     0.051 C 
BRANCH  45  46
HETATM   46  C   UNK     0     -25.959 -11.867 -27.766  0.00  0.00     0.114 C 
BRANCH  46  47
HETATM   47  C   UNK     0     -26.393 -13.286 -27.915  0.00  0.00     0.139 C 
HETATM   48  O   UNK     0     -27.605 -13.540 -27.893  0.00  0.00    -0.650 OA
BRANCH  47  49
HETATM   49  O   UNK     0     -25.470 -14.290 -28.072  0.00  0.00    -0.776 OA
HETATM   50  H   UNK     0     -25.653 -15.251 -27.761  0.00  0.00     0.167 HD
ENDBRANCH  47  49
ENDBRANCH  46  47
ENDBRANCH  45  46
ENDBRANCH  11  45
BRANCH  18  51
HETATM   51  C   UNK     0     -23.783  -8.319 -23.177  0.00  0.00     0.051 C 
BRANCH  51  52
HETATM   52  C   UNK     0     -22.522  -7.693 -22.600  0.00  0.00     0.114 C 
BRANCH  52  53
HETATM   53  C   UNK     0     -22.824  -6.779 -21.482  0.00  0.00     0.139 C 
HETATM   54  O   UNK     0     -21.902  -6.208 -20.879  0.00  0.00    -0.650 OA
BRANCH  53  55
HETATM   55  O   UNK     0     -24.130  -6.568 -21.111  0.00  0.00    -0.776 OA
HETATM   56  H   UNK     0     -24.929  -6.705 -21.684  0.00  0.00     0.167 HD
ENDBRANCH  53  55
ENDBRANCH  52  53
ENDBRANCH  51  52
ENDBRANCH  18  51
TORSDOF 16
ENDMDL
MODEL 4
REMARK VINA RESULT:      -8.9     32.020     34.660
REMARK  16 active torsions:
REMARK  status: ('A' for Active; 'I' for Inactive)
REMARK    1  A    between atoms: C_6  and  C_7 
REMARK    2  A    between atoms: C_7  and  C_8 
REMARK    3  A    between atoms: C_8  and  C_9 
REMARK    4  A    between atoms: C_9  and  O_11 
REMARK    5  A    between atoms: C_16  and  C_17 
REMARK    6  A    between atoms: C_17  and  C_18 
REMARK    7  A    between atoms: C_18  and  C_19 
REMARK    8  A    between atoms: C_19  and  O_21 
REMARK    9  A    between atoms: C_28  and  C_29 
REMARK   10  A    between atoms: C_29  and  C_30 
REMARK   11  A    between atoms: C_30  and  C_31 
REMARK   12  A    between atoms: C_31  and  O_33 
REMARK   13  A    between atoms: C_42  and  C_43 
REMARK   14  A    between atoms: C_43  and  C_44 
REMARK   15  A    between atoms: C_44  and  C_45 
REMARK   16  A    between atoms: C_45  and  O_47 
ROOT
HETATM    1  C   UNK     0     -14.853 -19.176   2.476  0.00  0.00     0.051 C 
HETATM    2  C   UNK     0     -13.659 -19.837   1.819  0.00  0.00    -0.031 A 
HETATM    3  C   UNK     0     -12.515 -19.260   1.289  0.00  0.00     0.021 A 
HETATM    4  N   UNK     0     -11.727 -20.234   0.775  0.00  0.00    -0.361 N 
HETATM    5  C   UNK     0     -12.340 -21.419   0.973  0.00  0.00     0.022 A 
HETATM    6  C   UNK     0     -13.552 -21.207   1.621  0.00  0.00    -0.027 A 
HETATM    7  C   UNK     0     -11.853 -22.804   0.678  0.00  0.00     0.115 C 
HETATM    8  C   UNK     0     -10.404 -23.103   1.019  0.00  0.00     0.021 A 
HETATM    9  N   UNK     0      -9.676 -22.648   2.051  0.00  0.00    -0.361 N 
HETATM   10  C   UNK     0      -8.413 -23.100   1.905  0.00  0.00     0.022 A 
HETATM   11  C   UNK     0      -8.326 -23.877   0.753  0.00  0.00    -0.027 A 
HETATM   12  C   UNK     0      -9.577 -23.883   0.191  0.00  0.00    -0.031 A 
HETATM   13  C   UNK     0      -9.960 -24.608  -1.080  0.00  0.00     0.051 C 
HETATM   14  C   UNK     0      -7.229 -22.777   2.813  0.00  0.00     0.115 C 
HETATM   15  C   UNK     0      -6.890 -21.296   2.878  0.00  0.00     0.021 A 
HETATM   16  N   UNK     0      -7.691 -20.286   3.266  0.00  0.00    -0.361 N 
HETATM   17  C   UNK     0      -7.043 -19.129   3.113  0.00  0.00     0.022 A 
HETATM   18  C   UNK     0      -5.755 -19.399   2.610  0.00  0.00    -0.027 A 
HETATM   19  C   UNK     0      -5.671 -20.760   2.468  0.00  0.00    -0.031 A 
HETATM   20  C   UNK     0      -4.428 -21.483   1.984  0.00  0.00     0.051 C 
HETATM   21  C   UNK     0      -7.520 -17.712   3.335  0.00  0.00     0.115 C 
HETATM   22  C   UNK     0      -8.970 -17.410   3.042  0.00  0.00     0.022 A 
HETATM   23  N   UNK     0      -9.721 -17.853   2.025  0.00  0.00    -0.361 N 
HETATM   24  C   UNK     0     -10.992 -17.454   2.232  0.00  0.00     0.021 A 
HETATM   25  C   UNK     0     -11.060 -16.728   3.405  0.00  0.00    -0.031 A 
HETATM   26  C   UNK     0     -12.255 -16.043   4.035  0.00  0.00     0.051 C 
HETATM   27  C   UNK     0      -9.778 -16.686   3.942  0.00  0.00    -0.027 A 
HETATM   28  C   UNK     0     -12.219 -17.791   1.401  0.00  0.00     0.115 C 
HETATM   29  H   UNK     0     -10.762 -20.073   0.240  0.00  0.00     0.165 HD
HETATM   30  H   UNK     0     -10.063 -22.047   2.910  0.00  0.00     0.165 HD
HETATM   31  H   UNK     0      -8.718 -20.395   3.703  0.00  0.00     0.165 HD
HETATM   32  H   UNK     0      -9.352 -18.415   1.128  0.00  0.00     0.165 HD
ENDROOT
BRANCH   6  33
HETATM   33  C   UNK     0     -14.604 -22.195   2.058  0.00  0.00     0.051 C 
BRANCH  33  34
HETATM   34  C   UNK     0     -15.458 -22.621   0.888  0.00  0.00     0.114 C 
BRANCH  34  35
HETATM   35  C   UNK     0     -15.283 -24.092   0.719  0.00  0.00     0.139 C 
HETATM   36  O   UNK     0     -14.605 -24.546  -0.248  0.00  0.00    -0.650 OA
BRANCH  35  37
HETATM   37  O   UNK     0     -15.838 -25.017   1.594  0.00  0.00    -0.776 OA
HETATM   38  H   UNK     0     -15.630 -26.001   1.535  0.00  0.00     0.167 HD
ENDBRANCH  35  37
ENDBRANCH  34  35
ENDBRANCH  33  34
ENDBRANCH   6  33
BRANCH  27  39
HETATM   39  C   UNK     0      -9.441 -15.927   5.177  0.00  0.00     0.051 C 
BRANCH  39  40
HETATM   40  C   UNK     0      -8.782 -14.629   5.035  0.00  0.00     0.114 C 
BRANCH  40  41
HETATM   41  C   UNK     0      -7.349 -14.475   5.157  0.00  0.00     0.139 C 
HETATM   42  O   UNK     0      -6.612 -15.328   5.669  0.00  0.00    -0.650 OA
BRANCH  41  43
HETATM   43  O   UNK     0      -6.738 -13.286   4.669  0.00  0.00    -0.776 OA
HETATM   44  H   UNK     0      -6.178 -12.791   5.353  0.00  0.00     0.167 HD
ENDBRANCH  41  43
ENDBRANCH  40  41
ENDBRANCH  39  40
ENDBRANCH  27  39
BRANCH  11  45
HETATM   45  C   UNK     0      -7.130 -24.594   0.189  0.00  0.00     0.051 C 
BRANCH  45  46
HETATM   46  C   UNK     0      -6.608 -25.680   1.058  0.00  0.00     0.114 C 
BRANCH  46  47
HETATM   47  C   UNK     0      -6.607 -26.932   0.248  0.00  0.00     0.139 C 
HETATM   48  O   UNK     0      -5.848 -27.852   0.581  0.00  0.00    -0.650 OA
BRANCH  47  49
HETATM   49  O   UNK     0      -7.429 -27.063  -0.843  0.00  0.00    -0.776 OA
HETATM   50  H   UNK     0      -7.139 -27.575  -1.685  0.00  0.00     0.167 HD
ENDBRANCH  47  49
ENDBRANCH  46  47
ENDBRANCH  45  46
ENDBRANCH  11  45
BRANCH  18  51
HETATM   51  C   UNK     0      -4.656 -18.415   2.302  0.00  0.00     0.051 C 
BRANCH  51  52
HETATM   52  C   UNK     0      -4.654 -18.239   0.790  0.00  0.00     0.114 C 
BRANCH  52  53
HETATM   53  C   UNK     0      -5.469 -17.083   0.370  0.00  0.00     0.139 C 
HETATM   54  O   UNK     0      -6.488 -17.258  -0.318  0.00  0.00    -0.650 OA
BRANCH  53  55
HETATM   55  O   UNK     0      -5.093 -15.815   0.742  0.00  0.00    -0.776 OA
HETATM   56  H   UNK     0      -5.513 -14.969   0.437  0.00  0.00     0.167 HD
ENDBRANCH  53  55
ENDBRANCH  52  53
ENDBRANCH  51  52
ENDBRANCH  18  51
TORSDOF 16
ENDMDL
MODEL 5
REMARK VINA RESULT:      -8.7     31.515     34.084
REMARK  16 active torsions:
REMARK  status: ('A' for Active; 'I' for Inactive)
REMARK    1  A    between atoms: C_6  and  C_7 
REMARK    2  A    between atoms: C_7  and  C_8 
REMARK    3  A    between atoms: C_8  and  C_9 
REMARK    4  A    between atoms: C_9  and  O_11 
REMARK    5  A    between atoms: C_16  and  C_17 
REMARK    6  A    between atoms: C_17  and  C_18 
REMARK    7  A    between atoms: C_18  and  C_19 
REMARK    8  A    between atoms: C_19  and  O_21 
REMARK    9  A    between atoms: C_28  and  C_29 
REMARK   10  A    between atoms: C_29  and  C_30 
REMARK   11  A    between atoms: C_30  and  C_31 
REMARK   12  A    between atoms: C_31  and  O_33 
REMARK   13  A    between atoms: C_42  and  C_43 
REMARK   14  A    between atoms: C_43  and  C_44 
REMARK   15  A    between atoms: C_44  and  C_45 
REMARK   16  A    between atoms: C_45  and  O_47 
ROOT
HETATM    1  C   UNK     0      -7.054 -24.440  -0.012  0.00  0.00     0.051 C 
HETATM    2  C   UNK     0      -8.248 -23.814   0.678  0.00  0.00    -0.031 A 
HETATM    3  C   UNK     0      -8.310 -23.132   1.883  0.00  0.00     0.021 A 
HETATM    4  N   UNK     0      -9.595 -22.776   2.123  0.00  0.00    -0.361 N 
HETATM    5  C   UNK     0     -10.351 -23.209   1.093  0.00  0.00     0.022 A 
HETATM    6  C   UNK     0      -9.541 -23.865   0.173  0.00  0.00    -0.027 A 
HETATM    7  C   UNK     0     -11.808 -22.994   0.826  0.00  0.00     0.115 C 
HETATM    8  C   UNK     0     -12.351 -21.601   1.091  0.00  0.00     0.021 A 
HETATM    9  N   UNK     0     -11.745 -20.418   0.908  0.00  0.00    -0.361 N 
HETATM   10  C   UNK     0     -12.568 -19.450   1.364  0.00  0.00     0.022 A 
HETATM   11  C   UNK     0     -13.740 -20.024   1.846  0.00  0.00    -0.027 A 
HETATM   12  C   UNK     0     -13.611 -21.379   1.677  0.00  0.00    -0.031 A 
HETATM   13  C   UNK     0     -14.650 -22.411   2.055  0.00  0.00     0.051 C 
HETATM   14  C   UNK     0     -12.262 -17.956   1.413  0.00  0.00     0.115 C 
HETATM   15  C   UNK     0     -11.061 -17.601   2.276  0.00  0.00     0.021 A 
HETATM   16  N   UNK     0      -9.795 -18.036   2.140  0.00  0.00    -0.361 N 
HETATM   17  C   UNK     0      -9.054 -17.550   3.139  0.00  0.00     0.022 A 
HETATM   18  C   UNK     0      -9.876 -16.752   3.960  0.00  0.00    -0.027 A 
HETATM   19  C   UNK     0     -11.130 -16.791   3.408  0.00  0.00    -0.031 A 
HETATM   20  C   UNK     0     -12.321 -16.031   3.964  0.00  0.00     0.051 C 
HETATM   21  C   UNK     0      -7.602 -17.795   3.481  0.00  0.00     0.115 C 
HETATM   22  C   UNK     0      -7.036 -19.163   3.181  0.00  0.00     0.022 A 
HETATM   23  N   UNK     0      -7.619 -20.358   3.350  0.00  0.00    -0.361 N 
HETATM   24  C   UNK     0      -6.815 -21.300   2.818  0.00  0.00     0.021 A 
HETATM   25  C   UNK     0      -5.682 -20.699   2.303  0.00  0.00    -0.031 A 
HETATM   26  C   UNK     0      -4.478 -21.341   1.645  0.00  0.00     0.051 C 
HETATM   27  C   UNK     0      -5.801 -19.332   2.524  0.00  0.00    -0.027 A 
HETATM   28  C   UNK     0      -7.088 -22.788   2.686  0.00  0.00     0.115 C 
HETATM   29  H   UNK     0      -9.964 -22.256   3.037  0.00  0.00     0.165 HD
HETATM   30  H   UNK     0     -10.757 -20.259   0.411  0.00  0.00     0.165 HD
HETATM   31  H   UNK     0      -9.403 -18.661   1.295  0.00  0.00     0.165 HD
HETATM   32  H   UNK     0      -8.584 -20.551   3.885  0.00  0.00     0.165 HD
ENDROOT
BRANCH   6  33
HETATM   33  C   UNK     0      -9.897 -24.530  -1.133  0.00  0.00     0.051 C 
BRANCH  33  34
HETATM   34  C   UNK     0     -10.119 -26.011  -0.935  0.00  0.00     0.114 C 
BRANCH  34  35
HETATM   35  C   UNK     0      -9.552 -26.710  -2.125  0.00  0.00     0.139 C 
HETATM   36  O   UNK     0      -8.365 -26.476  -2.495  0.00  0.00    -0.650 OA
BRANCH  35  37
HETATM   37  O   UNK     0     -10.278 -27.632  -2.869  0.00  0.00    -0.776 OA
HETATM   38  H   UNK     0      -9.975 -27.943  -3.777  0.00  0.00     0.167 HD
ENDBRANCH  35  37
ENDBRANCH  34  35
ENDBRANCH  33  34
ENDBRANCH   6  33
BRANCH  27  39
HETATM   39  C   UNK     0      -4.733 -18.358   2.168  0.00  0.00     0.051 C 
BRANCH  39  40
HETATM   40  C   UNK     0      -4.589 -17.968   0.765  0.00  0.00     0.114 C 
BRANCH  40  41
HETATM   41  C   UNK     0      -5.436 -16.970   0.152  0.00  0.00     0.139 C 
HETATM   42  O   UNK     0      -6.468 -17.242  -0.477  0.00  0.00    -0.650 OA
BRANCH  41  43
HETATM   43  O   UNK     0      -5.080 -15.596   0.267  0.00  0.00    -0.776 OA
HETATM   44  H   UNK     0      -4.603 -15.218  -0.543  0.00  0.00     0.167 HD
ENDBRANCH  41  43
ENDBRANCH  40  41
ENDBRANCH  39  40
ENDBRANCH  27  39
BRANCH  11  45
HETATM   45  C   UNK     0     -14.946 -19.347   2.441  0.00  0.00     0.051 C 
BRANCH  45  46
HETATM   46  C   UNK     0     -16.019 -19.048   1.459  0.00  0.00     0.114 C 
BRANCH  46  47
HETATM   47  C   UNK     0     -17.311 -19.459   2.079  0.00  0.00     0.139 C 
HETATM   48  O   UNK     0     -18.022 -20.278   1.479  0.00  0.00    -0.650 OA
BRANCH  47  49
HETATM   49  O   UNK     0     -17.708 -18.942   3.286  0.00  0.00    -0.776 OA
HETATM   50  H   UNK     0     -17.128 -19.020   4.130  0.00  0.00     0.167 HD
ENDBRANCH  47  49
ENDBRANCH  46  47
ENDBRANCH  45  46
ENDBRANCH  11  45
BRANCH  18  51
HETATM   51  C   UNK     0      -9.482 -15.978   5.191  0.00  0.00     0.051 C 
BRANCH  51  52
HETATM   52  C   UNK     0      -8.894 -14.664   4.698  0.00  0.00     0.114 C 
BRANCH  52  53
HETATM   53  C   UNK     0      -7.481 -14.511   5.096  0.00  0.00     0.139 C 
HETATM   54  O   UNK     0      -6.926 -15.394   5.768  0.00  0.00    -0.650 OA
BRANCH  53  55
HETATM   55  O   UNK     0      -6.788 -13.386   4.721  0.00  0.00    -0.776 OA
HETATM   56  H   UNK     0      -5.848 -13.174   4.958  0.00  0.00     0.167 HD
ENDBRANCH  53  55
ENDBRANCH  52  53
ENDBRANCH  51  52
ENDBRANCH  18  51
TORSDOF 16
ENDMDL
MODEL 6
REMARK VINA RESULT:      -8.6     32.896     35.202
REMARK  16 active torsions:
REMARK  status: ('A' for Active; 'I' for Inactive)
REMARK    1  A    between atoms: C_6  and  C_7 
REMARK    2  A    between atoms: C_7  and  C_8 
REMARK    3  A    between atoms: C_8  and  C_9 
REMARK    4  A    between atoms: C_9  and  O_11 
REMARK    5  A    between atoms: C_16  and  C_17 
REMARK    6  A    between atoms: C_17  and  C_18 
REMARK    7  A    between atoms: C_18  and  C_19 
REMARK    8  A    between atoms: C_19  and  O_21 
REMARK    9  A    between atoms: C_28  and  C_29 
REMARK   10  A    between atoms: C_29  and  C_30 
REMARK   11  A    between atoms: C_30  and  C_31 
REMARK   12  A    between atoms: C_31  and  O_33 
REMARK   13  A    between atoms: C_42  and  C_43 
REMARK   14  A    between atoms: C_43  and  C_44 
REMARK   15  A    between atoms: C_44  and  C_45 
REMARK   16  A    between atoms: C_45  and  O_47 
ROOT
HETATM    1  C   UNK     0      -5.704 -24.025   0.447  0.00  0.00     0.051 C 
HETATM    2  C   UNK     0      -6.833 -23.478   1.296  0.00  0.00    -0.031 A 
HETATM    3  C   UNK     0      -6.776 -22.674   2.423  0.00  0.00     0.021 A 
HETATM    4  N   UNK     0      -8.035 -22.456   2.874  0.00  0.00    -0.361 N 
HETATM    5  C   UNK     0      -8.893 -23.097   2.053  0.00  0.00     0.022 A 
HETATM    6  C   UNK     0      -8.174 -23.749   1.056  0.00  0.00    -0.027 A 
HETATM    7  C   UNK     0     -10.390 -23.099   2.054  0.00  0.00     0.115 C 
HETATM    8  C   UNK     0     -11.073 -21.764   2.293  0.00  0.00     0.021 A 
HETATM    9  N   UNK     0     -10.687 -20.543   1.890  0.00  0.00    -0.361 N 
HETATM   10  C   UNK     0     -11.546 -19.640   2.407  0.00  0.00     0.022 A 
HETATM   11  C   UNK     0     -12.517 -20.297   3.156  0.00  0.00    -0.027 A 
HETATM   12  C   UNK     0     -12.225 -21.636   3.088  0.00  0.00    -0.031 A 
HETATM   13  C   UNK     0     -13.019 -22.738   3.752  0.00  0.00     0.051 C 
HETATM   14  C   UNK     0     -11.455 -18.123   2.261  0.00  0.00     0.115 C 
HETATM   15  C   UNK     0     -10.184 -17.524   2.840  0.00  0.00     0.021 A 
HETATM   16  N   UNK     0      -8.913 -17.809   2.501  0.00  0.00    -0.361 N 
HETATM   17  C   UNK     0      -8.084 -17.122   3.290  0.00  0.00     0.022 A 
HETATM   18  C   UNK     0      -8.852 -16.344   4.179  0.00  0.00    -0.027 A 
HETATM   19  C   UNK     0     -10.166 -16.603   3.886  0.00  0.00    -0.031 A 
HETATM   20  C   UNK     0     -11.335 -15.939   4.590  0.00  0.00     0.051 C 
HETATM   21  C   UNK     0      -6.574 -17.142   3.365  0.00  0.00     0.115 C 
HETATM   22  C   UNK     0      -5.879 -18.454   3.087  0.00  0.00     0.022 A 
HETATM   23  N   UNK     0      -6.243 -19.684   3.472  0.00  0.00    -0.361 N 
HETATM   24  C   UNK     0      -5.419 -20.573   2.882  0.00  0.00     0.021 A 
HETATM   25  C   UNK     0      -4.496 -19.899   2.106  0.00  0.00    -0.031 A 
HETATM   26  C   UNK     0      -3.349 -20.456   1.288  0.00  0.00     0.051 C 
HETATM   27  C   UNK     0      -4.770 -18.541   2.221  0.00  0.00    -0.027 A 
HETATM   28  C   UNK     0      -5.493 -22.089   2.941  0.00  0.00     0.115 C 
HETATM   29  H   UNK     0      -8.306 -21.884   3.791  0.00  0.00     0.165 HD
HETATM   30  H   UNK     0      -9.837 -20.320   1.199  0.00  0.00     0.165 HD
HETATM   31  H   UNK     0      -8.593 -18.474   1.657  0.00  0.00     0.165 HD
HETATM   32  H   UNK     0      -7.058 -19.934   4.200  0.00  0.00     0.165 HD
ENDROOT
BRANCH   6  33
HETATM   33  C   UNK     0      -8.659 -24.600  -0.090  0.00  0.00     0.051 C 
BRANCH  33  34
HETATM   34  C   UNK     0      -8.788 -26.044   0.334  0.00  0.00     0.114 C 
BRANCH  34  35
HETATM   35  C   UNK     0     -10.117 -26.530  -0.137  0.00  0.00     0.139 C 
HETATM   36  O   UNK     0     -11.010 -25.705  -0.487  0.00  0.00    -0.650 OA
BRANCH  35  37
HETATM   37  O   UNK     0     -10.436 -27.880  -0.215  0.00  0.00    -0.776 OA
HETATM   38  H   UNK     0     -11.211 -28.215  -0.764  0.00  0.00     0.167 HD
ENDBRANCH  35  37
ENDBRANCH  34  35
ENDBRANCH  33  34
ENDBRANCH   6  33
BRANCH  27  39
HETATM   39  C   UNK     0      -3.937 -17.488   1.579  0.00  0.00     0.051 C 
BRANCH  39  40
HETATM   40  C   UNK     0      -4.176 -17.177   0.170  0.00  0.00     0.114 C 
BRANCH  40  41
HETATM   41  C   UNK     0      -5.292 -16.365  -0.261  0.00  0.00     0.139 C 
HETATM   42  O   UNK     0      -6.399 -16.831  -0.565  0.00  0.00    -0.650 OA
BRANCH  41  43
HETATM   43  O   UNK     0      -5.128 -14.954  -0.346  0.00  0.00    -0.776 OA
HETATM   44  H   UNK     0      -5.873 -14.419   0.085  0.00  0.00     0.167 HD
ENDBRANCH  41  43
ENDBRANCH  40  41
ENDBRANCH  39  40
ENDBRANCH  27  39
BRANCH  11  45
HETATM   45  C   UNK     0     -13.681 -19.712   3.909  0.00  0.00     0.051 C 
BRANCH  45  46
HETATM   46  C   UNK     0     -13.352 -19.277   5.291  0.00  0.00     0.114 C 
BRANCH  46  47
HETATM   47  C   UNK     0     -14.414 -18.321   5.718  0.00  0.00     0.139 C 
HETATM   48  O   UNK     0     -14.204 -17.607   6.708  0.00  0.00    -0.650 OA
BRANCH  47  49
HETATM   49  O   UNK     0     -15.598 -18.234   5.031  0.00  0.00    -0.776 OA
HETATM   50  H   UNK     0     -16.460 -17.888   5.471  0.00  0.00     0.167 HD
ENDBRANCH  47  49
ENDBRANCH  46  47
ENDBRANCH  45  46
ENDBRANCH  11  45
BRANCH  18  51
HETATM   51  C   UNK     0      -8.361 -15.388   5.235  0.00  0.00     0.051 C 
BRANCH  51  52
HETATM   52  C   UNK     0      -8.322 -16.176   6.537  0.00  0.00     0.114 C 
BRANCH  52  53
HETATM   53  C   UNK     0      -9.164 -15.558   7.579  0.00  0.00     0.139 C 
HETATM   54  O   UNK     0      -9.661 -16.260   8.474  0.00  0.00    -0.650 OA
BRANCH  53  55
HETATM   55  O   UNK     0      -9.396 -14.204   7.550  0.00  0.00    -0.776 OA
HETATM   56  H   UNK     0      -8.821 -13.504   7.957  0.00  0.00     0.167 HD
ENDBRANCH  53  55
ENDBRANCH  52  53
ENDBRANCH  51  52
ENDBRANCH  18  51
TORSDOF 16
ENDMDL
MODEL 7
REMARK VINA RESULT:      -8.6     30.955     34.449
REMARK  16 active torsions:
REMARK  status: ('A' for Active; 'I' for Inactive)
REMARK    1  A    between atoms: C_6  and  C_7 
REMARK    2  A    between atoms: C_7  and  C_8 
REMARK    3  A    between atoms: C_8  and  C_9 
REMARK    4  A    between atoms: C_9  and  O_11 
REMARK    5  A    between atoms: C_16  and  C_17 
REMARK    6  A    between atoms: C_17  and  C_18 
REMARK    7  A    between atoms: C_18  and  C_19 
REMARK    8  A    between atoms: C_19  and  O_21 
REMARK    9  A    between atoms: C_28  and  C_29 
REMARK   10  A    between atoms: C_29  and  C_30 
REMARK   11  A    between atoms: C_30  and  C_31 
REMARK   12  A    between atoms: C_31  and  O_33 
REMARK   13  A    between atoms: C_42  and  C_43 
REMARK   14  A    between atoms: C_43  and  C_44 
REMARK   15  A    between atoms: C_44  and  C_45 
REMARK   16  A    between atoms: C_45  and  O_47 
ROOT
HETATM    1  C   UNK     0     -15.161 -17.911   2.917  0.00  0.00     0.051 C 
HETATM    2  C   UNK     0     -14.133 -18.675   2.107  0.00  0.00    -0.031 A 
HETATM    3  C   UNK     0     -12.842 -18.312   1.759  0.00  0.00     0.021 A 
HETATM    4  N   UNK     0     -12.298 -19.293   1.000  0.00  0.00    -0.361 N 
HETATM    5  C   UNK     0     -13.212 -20.276   0.864  0.00  0.00     0.022 A 
HETATM    6  C   UNK     0     -14.373 -19.920   1.542  0.00  0.00    -0.027 A 
HETATM    7  C   UNK     0     -13.081 -21.612   0.202  0.00  0.00     0.115 C 
HETATM    8  C   UNK     0     -11.791 -22.373   0.453  0.00  0.00     0.021 A 
HETATM    9  N   UNK     0     -11.051 -22.420   1.572  0.00  0.00    -0.361 N 
HETATM   10  C   UNK     0      -9.942 -23.144   1.311  0.00  0.00     0.022 A 
HETATM   11  C   UNK     0      -9.973 -23.584  -0.009  0.00  0.00    -0.027 A 
HETATM   12  C   UNK     0     -11.135 -23.102  -0.555  0.00  0.00    -0.031 A 
HETATM   13  C   UNK     0     -11.595 -23.335  -1.977  0.00  0.00     0.051 C 
HETATM   14  C   UNK     0      -8.789 -23.405   2.276  0.00  0.00     0.115 C 
HETATM   15  C   UNK     0      -8.081 -22.143   2.745  0.00  0.00     0.021 A 
HETATM   16  N   UNK     0      -8.619 -21.093   3.393  0.00  0.00    -0.361 N 
HETATM   17  C   UNK     0      -7.682 -20.157   3.564  0.00  0.00     0.022 A 
HETATM   18  C   UNK     0      -6.474 -20.625   3.010  0.00  0.00    -0.027 A 
HETATM   19  C   UNK     0      -6.737 -21.870   2.501  0.00  0.00    -0.031 A 
HETATM   20  C   UNK     0      -5.691 -22.750   1.841  0.00  0.00     0.051 C 
HETATM   21  C   UNK     0      -7.789 -18.774   4.164  0.00  0.00     0.115 C 
HETATM   22  C   UNK     0      -9.083 -18.023   3.961  0.00  0.00     0.022 A 
HETATM   23  N   UNK     0      -9.843 -17.962   2.859  0.00  0.00    -0.361 N 
HETATM   24  C   UNK     0     -10.979 -17.302   3.164  0.00  0.00     0.021 A 
HETATM   25  C   UNK     0     -10.945 -16.920   4.491  0.00  0.00    -0.031 A 
HETATM   26  C   UNK     0     -11.965 -16.126   5.281  0.00  0.00     0.051 C 
HETATM   27  C   UNK     0      -9.742 -17.370   5.022  0.00  0.00    -0.027 A 
HETATM   28  C   UNK     0     -12.183 -17.062   2.270  0.00  0.00     0.115 C 
HETATM   29  H   UNK     0     -11.286 -19.266   0.532  0.00  0.00     0.165 HD
HETATM   30  H   UNK     0     -11.333 -21.985   2.562  0.00  0.00     0.165 HD
HETATM   31  H   UNK     0      -9.669 -21.029   3.780  0.00  0.00     0.165 HD
HETATM   32  H   UNK     0      -9.565 -18.347   1.844  0.00  0.00     0.165 HD
ENDROOT
BRANCH   6  33
HETATM   33  C   UNK     0     -15.676 -20.664   1.689  0.00  0.00     0.051 C 
BRANCH  33  34
HETATM   34  C   UNK     0     -16.640 -20.278   0.592  0.00  0.00     0.114 C 
BRANCH  34  35
HETATM   35  C   UNK     0     -17.987 -20.129   1.213  0.00  0.00     0.139 C 
HETATM   36  O   UNK     0     -19.017 -20.549   0.608  0.00  0.00    -0.650 OA
BRANCH  35  37
HETATM   37  O   UNK     0     -18.179 -19.541   2.457  0.00  0.00    -0.776 OA
HETATM   38  H   UNK     0     -17.497 -18.922   2.866  0.00  0.00     0.167 HD
ENDBRANCH  35  37
ENDBRANCH  34  35
ENDBRANCH  33  34
ENDBRANCH   6  33
BRANCH  27  39
HETATM   39  C   UNK     0      -9.314 -17.083   6.419  0.00  0.00     0.051 C 
BRANCH  39  40
HETATM   40  C   UNK     0      -8.446 -15.930   6.656  0.00  0.00     0.114 C 
BRANCH  40  41
HETATM   41  C   UNK     0      -7.925 -15.122   5.576  0.00  0.00     0.139 C 
HETATM   42  O   UNK     0      -6.908 -15.415   4.932  0.00  0.00    -0.650 OA
BRANCH  41  43
HETATM   43  O   UNK     0      -8.605 -13.923   5.220  0.00  0.00    -0.776 OA
HETATM   44  H   UNK     0      -9.210 -14.008   4.413  0.00  0.00     0.167 HD
ENDBRANCH  41  43
ENDBRANCH  40  41
ENDBRANCH  39  40
ENDBRANCH  27  39
BRANCH  11  45
HETATM   45  C   UNK     0      -8.964 -24.424  -0.745  0.00  0.00     0.051 C 
BRANCH  45  46
HETATM   46  C   UNK     0      -9.287 -25.874  -0.771  0.00  0.00     0.114 C 
BRANCH  46  47
HETATM   47  C   UNK     0      -8.096 -26.601  -0.248  0.00  0.00     0.139 C 
HETATM   48  O   UNK     0      -7.843 -26.531   0.963  0.00  0.00    -0.650 OA
BRANCH  47  49
HETATM   49  O   UNK     0      -7.294 -27.332  -1.088  0.00  0.00    -0.776 OA
HETATM   50  H   UNK     0      -6.501 -27.885  -0.741  0.00  0.00     0.167 HD
ENDBRANCH  47  49
ENDBRANCH  46  47
ENDBRANCH  45  46
ENDBRANCH  11  45
BRANCH  18  51
HETATM   51  C   UNK     0      -5.136 -19.931   2.985  0.00  0.00     0.051 C 
BRANCH  51  52
HETATM   52  C   UNK     0      -5.138 -19.046   1.748  0.00  0.00     0.114 C 
BRANCH  52  53
HETATM   53  C   UNK     0      -4.835 -17.640   2.078  0.00  0.00     0.139 C 
HETATM   54  O   UNK     0      -3.682 -17.202   1.935  0.00  0.00    -0.650 OA
BRANCH  53  55
HETATM   55  O   UNK     0      -5.834 -16.821   2.546  0.00  0.00    -0.776 OA
HETATM   56  H   UNK     0      -5.897 -15.840   2.410  0.00  0.00     0.167 HD
ENDBRANCH  53  55
ENDBRANCH  52  53
ENDBRANCH  51  52
ENDBRANCH  18  51
TORSDOF 16
ENDMDL
MODEL 8
REMARK VINA RESULT:      -8.5     31.295     34.825
REMARK  16 active torsions:
REMARK  status: ('A' for Active; 'I' for Inactive)
REMARK    1  A    between atoms: C_6  and  C_7 
REMARK    2  A    between atoms: C_7  and  C_8 
REMARK    3  A    between atoms: C_8  and  C_9 
REMARK    4  A    between atoms: C_9  and  O_11 
REMARK    5  A    between atoms: C_16  and  C_17 
REMARK    6  A    between atoms: C_17  and  C_18 
REMARK    7  A    between atoms: C_18  and  C_19 
REMARK    8  A    between atoms: C_19  and  O_21 
REMARK    9  A    between atoms: C_28  and  C_29 
REMARK   10  A    between atoms: C_29  and  C_30 
REMARK   11  A    between atoms: C_30  and  C_31 
REMARK   12  A    between atoms: C_31  and  O_33 
REMARK   13  A    between atoms: C_42  and  C_43 
REMARK   14  A    between atoms: C_43  and  C_44 
REMARK   15  A    between atoms: C_44  and  C_45 
REMARK   16  A    between atoms: C_45  and  O_47 
ROOT
HETATM    1  C   UNK     0     -14.662 -17.234   2.911  0.00  0.00     0.051 C 
HETATM    2  C   UNK     0     -13.795 -18.179   2.104  0.00  0.00    -0.031 A 
HETATM    3  C   UNK     0     -12.536 -17.972   1.562  0.00  0.00     0.021 A 
HETATM    4  N   UNK     0     -12.156 -19.085   0.892  0.00  0.00    -0.361 N 
HETATM    5  C   UNK     0     -13.141 -20.000   1.002  0.00  0.00     0.022 A 
HETATM    6  C   UNK     0     -14.183 -19.465   1.752  0.00  0.00    -0.027 A 
HETATM    7  C   UNK     0     -13.180 -21.419   0.526  0.00  0.00     0.115 C 
HETATM    8  C   UNK     0     -11.920 -22.242   0.731  0.00  0.00     0.021 A 
HETATM    9  N   UNK     0     -11.051 -22.199   1.753  0.00  0.00    -0.361 N 
HETATM   10  C   UNK     0     -10.032 -23.039   1.472  0.00  0.00     0.022 A 
HETATM   11  C   UNK     0     -10.256 -23.646   0.239  0.00  0.00    -0.027 A 
HETATM   12  C   UNK     0     -11.444 -23.148  -0.233  0.00  0.00    -0.031 A 
HETATM   13  C   UNK     0     -12.091 -23.530  -1.545  0.00  0.00     0.051 C 
HETATM   14  C   UNK     0      -8.787 -23.262   2.325  0.00  0.00     0.115 C 
HETATM   15  C   UNK     0      -7.947 -22.011   2.526  0.00  0.00     0.021 A 
HETATM   16  N   UNK     0      -8.330 -20.844   3.077  0.00  0.00    -0.361 N 
HETATM   17  C   UNK     0      -7.321 -19.973   3.005  0.00  0.00     0.022 A 
HETATM   18  C   UNK     0      -6.224 -20.606   2.388  0.00  0.00    -0.027 A 
HETATM   19  C   UNK     0      -6.628 -21.882   2.094  0.00  0.00    -0.031 A 
HETATM   20  C   UNK     0      -5.732 -22.924   1.449  0.00  0.00     0.051 C 
HETATM   21  C   UNK     0      -7.263 -18.518   3.412  0.00  0.00     0.115 C 
HETATM   22  C   UNK     0      -8.522 -17.698   3.254  0.00  0.00     0.022 A 
HETATM   23  N   UNK     0      -9.407 -17.723   2.250  0.00  0.00    -0.361 N 
HETATM   24  C   UNK     0     -10.451 -16.938   2.587  0.00  0.00     0.021 A 
HETATM   25  C   UNK     0     -10.228 -16.388   3.834  0.00  0.00    -0.031 A 
HETATM   26  C   UNK     0     -11.088 -15.416   4.615  0.00  0.00     0.051 C 
HETATM   27  C   UNK     0      -8.999 -16.859   4.282  0.00  0.00    -0.027 A 
HETATM   28  C   UNK     0     -11.740 -16.723   1.812  0.00  0.00     0.115 C 
HETATM   29  H   UNK     0     -11.211 -19.202   0.312  0.00  0.00     0.165 HD
HETATM   30  H   UNK     0     -11.179 -21.615   2.697  0.00  0.00     0.165 HD
HETATM   31  H   UNK     0      -9.318 -20.644   3.569  0.00  0.00     0.165 HD
HETATM   32  H   UNK     0      -9.284 -18.260   1.274  0.00  0.00     0.165 HD
ENDROOT
BRANCH   6  33
HETATM   33  C   UNK     0     -15.503 -20.075   2.152  0.00  0.00     0.051 C 
BRANCH  33  34
HETATM   34  C   UNK     0     -16.570 -19.756   1.132  0.00  0.00     0.114 C 
BRANCH  34  35
HETATM   35  C   UNK     0     -17.884 -19.781   1.837  0.00  0.00     0.139 C 
HETATM   36  O   UNK     0     -18.063 -19.079   2.874  0.00  0.00    -0.650 OA
BRANCH  35  37
HETATM   37  O   UNK     0     -18.953 -20.555   1.403  0.00  0.00    -0.776 OA
HETATM   38  H   UNK     0     -19.770 -20.148   0.978  0.00  0.00     0.167 HD
ENDBRANCH  35  37
ENDBRANCH  34  35
ENDBRANCH  33  34
ENDBRANCH   6  33
BRANCH  27  39
HETATM   39  C   UNK     0      -8.383 -16.425   5.565  0.00  0.00     0.051 C 
BRANCH  39  40
HETATM   40  C   UNK     0      -8.764 -17.128   6.790  0.00  0.00     0.114 C 
BRANCH  40  41
HETATM   41  C   UNK     0      -8.435 -16.621   8.103  0.00  0.00     0.139 C 
HETATM   42  O   UNK     0      -8.454 -17.316   9.129  0.00  0.00    -0.650 OA
BRANCH  41  43
HETATM   43  O   UNK     0      -8.068 -15.253   8.244  0.00  0.00    -0.776 OA
HETATM   44  H   UNK     0      -8.081 -14.724   7.380  0.00  0.00     0.167 HD
ENDBRANCH  41  43
ENDBRANCH  40  41
ENDBRANCH  39  40
ENDBRANCH  27  39
BRANCH  11  45
HETATM   45  C   UNK     0      -9.403 -24.656  -0.481  0.00  0.00     0.051 C 
BRANCH  45  46
HETATM   46  C   UNK     0      -9.469 -26.024   0.093  0.00  0.00     0.114 C 
BRANCH  46  47
HETATM   47  C   UNK     0      -8.150 -26.673  -0.161  0.00  0.00     0.139 C 
HETATM   48  O   UNK     0      -7.416 -26.921   0.805  0.00  0.00    -0.650 OA
BRANCH  47  49
HETATM   49  O   UNK     0      -7.757 -26.987  -1.438  0.00  0.00    -0.776 OA
HETATM   50  H   UNK     0      -8.384 -27.457  -2.101  0.00  0.00     0.167 HD
ENDBRANCH  47  49
ENDBRANCH  46  47
ENDBRANCH  45  46
ENDBRANCH  11  45
BRANCH  18  51
HETATM   51  C   UNK     0      -4.858 -20.032   2.112  0.00  0.00     0.051 C 
BRANCH  51  52
HETATM   52  C   UNK     0      -4.006 -20.357   3.330  0.00  0.00     0.114 C 
BRANCH  52  53
HETATM   53  C   UNK     0      -2.711 -20.955   2.951  0.00  0.00     0.139 C 
HETATM   54  O   UNK     0      -2.677 -22.070   2.407  0.00  0.00    -0.650 OA
BRANCH  53  55
HETATM   55  O   UNK     0      -1.547 -20.272   3.206  0.00  0.00    -0.776 OA
HETATM   56  H   UNK     0      -1.419 -19.575   3.901  0.00  0.00     0.167 HD
ENDBRANCH  53  55
ENDBRANCH  52  53
ENDBRANCH  51  52
ENDBRANCH  18  51
TORSDOF 16
ENDMDL
MODEL 9
REMARK VINA RESULT:      -8.3     31.006     33.818
REMARK  16 active torsions:
REMARK  status: ('A' for Active; 'I' for Inactive)
REMARK    1  A    between atoms: C_6  and  C_7 
REMARK    2  A    between atoms: C_7  and  C_8 
REMARK    3  A    between atoms: C_8  and  C_9 
REMARK    4  A    between atoms: C_9  and  O_11 
REMARK    5  A    between atoms: C_16  and  C_17 
REMARK    6  A    between atoms: C_17  and  C_18 
REMARK    7  A    between atoms: C_18  and  C_19 
REMARK    8  A    between atoms: C_19  and  O_21 
REMARK    9  A    between atoms: C_28  and  C_29 
REMARK   10  A    between atoms: C_29  and  C_30 
REMARK   11  A    between atoms: C_30  and  C_31 
REMARK   12  A    between atoms: C_31  and  O_33 
REMARK   13  A    between atoms: C_42  and  C_43 
REMARK   14  A    between atoms: C_43  and  C_44 
REMARK   15  A    between atoms: C_44  and  C_45 
REMARK   16  A    between atoms: C_45  and  O_47 
ROOT
HETATM    1  C   UNK     0      -7.375 -24.554  -0.327  0.00  0.00     0.051 C 
HETATM    2  C   UNK     0      -8.527 -23.893   0.402  0.00  0.00    -0.031 A 
HETATM    3  C   UNK     0      -8.542 -23.268   1.639  0.00  0.00     0.021 A 
HETATM    4  N   UNK     0      -9.802 -22.849   1.906  0.00  0.00    -0.361 N 
HETATM    5  C   UNK     0     -10.588 -23.185   0.863  0.00  0.00     0.022 A 
HETATM    6  C   UNK     0      -9.823 -23.842  -0.095  0.00  0.00    -0.027 A 
HETATM    7  C   UNK     0     -12.031 -22.871   0.618  0.00  0.00     0.115 C 
HETATM    8  C   UNK     0     -12.489 -21.463   0.955  0.00  0.00     0.021 A 
HETATM    9  N   UNK     0     -11.814 -20.311   0.824  0.00  0.00    -0.361 N 
HETATM   10  C   UNK     0     -12.576 -19.319   1.333  0.00  0.00     0.022 A 
HETATM   11  C   UNK     0     -13.778 -19.846   1.796  0.00  0.00    -0.027 A 
HETATM   12  C   UNK     0     -13.730 -21.196   1.560  0.00  0.00    -0.031 A 
HETATM   13  C   UNK     0     -14.827 -22.182   1.896  0.00  0.00     0.051 C 
HETATM   14  C   UNK     0     -12.181 -17.850   1.452  0.00  0.00     0.115 C 
HETATM   15  C   UNK     0     -10.957 -17.610   2.322  0.00  0.00     0.021 A 
HETATM   16  N   UNK     0      -9.719 -18.112   2.155  0.00  0.00    -0.361 N 
HETATM   17  C   UNK     0      -8.946 -17.720   3.171  0.00  0.00     0.022 A 
HETATM   18  C   UNK     0      -9.715 -16.916   4.036  0.00  0.00    -0.027 A 
HETATM   19  C   UNK     0     -10.972 -16.854   3.492  0.00  0.00    -0.031 A 
HETATM   20  C   UNK     0     -12.112 -16.053   4.094  0.00  0.00     0.051 C 
HETATM   21  C   UNK     0      -7.510 -18.067   3.489  0.00  0.00     0.115 C 
HETATM   22  C   UNK     0      -7.028 -19.450   3.119  0.00  0.00     0.022 A 
HETATM   23  N   UNK     0      -7.680 -20.615   3.234  0.00  0.00    -0.361 N 
HETATM   24  C   UNK     0      -6.936 -21.576   2.650  0.00  0.00     0.021 A 
HETATM   25  C   UNK     0      -5.772 -21.019   2.157  0.00  0.00    -0.031 A 
HETATM   26  C   UNK     0      -4.611 -21.697   1.459  0.00  0.00     0.051 C 
HETATM   27  C   UNK     0      -5.808 -19.659   2.445  0.00  0.00    -0.027 A 
HETATM   28  C   UNK     0      -7.297 -23.037   2.449  0.00  0.00     0.115 C 
HETATM   29  H   UNK     0     -10.135 -22.353   2.848  0.00  0.00     0.165 HD
HETATM   30  H   UNK     0     -10.821 -20.186   0.328  0.00  0.00     0.165 HD
HETATM   31  H   UNK     0      -9.370 -18.717   1.278  0.00  0.00     0.165 HD
HETATM   32  H   UNK     0      -8.652 -20.777   3.767  0.00  0.00     0.165 HD
ENDROOT
BRANCH   6  33
HETATM   33  C   UNK     0     -10.225 -24.421  -1.428  0.00  0.00     0.051 C 
BRANCH  33  34
HETATM   34  C   UNK     0     -10.215 -23.355  -2.498  0.00  0.00     0.114 C 
BRANCH  34  35
HETATM   35  C   UNK     0      -9.197 -23.752  -3.514  0.00  0.00     0.139 C 
HETATM   36  O   UNK     0      -8.716 -24.923  -3.510  0.00  0.00    -0.650 OA
BRANCH  35  37
HETATM   37  O   UNK     0      -8.737 -22.881  -4.494  0.00  0.00    -0.776 OA
HETATM   38  H   UNK     0      -8.825 -23.086  -5.476  0.00  0.00     0.167 HD
ENDBRANCH  35  37
ENDBRANCH  34  35
ENDBRANCH  33  34
ENDBRANCH   6  33
BRANCH  27  39
HETATM   39  C   UNK     0      -4.686 -18.734   2.128  0.00  0.00     0.051 C 
BRANCH  39  40
HETATM   40  C   UNK     0      -4.661 -18.100   0.810  0.00  0.00     0.114 C 
BRANCH  40  41
HETATM   41  C   UNK     0      -5.377 -16.875   0.530  0.00  0.00     0.139 C 
HETATM   42  O   UNK     0      -5.295 -15.860   1.234  0.00  0.00    -0.650 OA
BRANCH  41  43
HETATM   43  O   UNK     0      -6.225 -16.816  -0.612  0.00  0.00    -0.776 OA
HETATM   44  H   UNK     0      -6.699 -15.930  -0.736  0.00  0.00     0.167 HD
ENDBRANCH  41  43
ENDBRANCH  40  41
ENDBRANCH  39  40
ENDBRANCH  27  39
BRANCH  11  45
HETATM   45  C   UNK     0     -14.938 -19.129   2.432  0.00  0.00     0.051 C 
BRANCH  45  46
HETATM   46  C   UNK     0     -16.029 -18.782   1.487  0.00  0.00     0.114 C 
BRANCH  46  47
HETATM   47  C   UNK     0     -17.269 -19.446   1.982  0.00  0.00     0.139 C 
HETATM   48  O   UNK     0     -17.806 -19.008   3.009  0.00  0.00    -0.650 OA
BRANCH  47  49
HETATM   49  O   UNK     0     -17.806 -20.518   1.316  0.00  0.00    -0.776 OA
HETATM   50  H   UNK     0     -18.682 -20.963   1.615  0.00  0.00     0.167 HD
ENDBRANCH  47  49
ENDBRANCH  46  47
ENDBRANCH  45  46
ENDBRANCH  11  45
BRANCH  18  51
HETATM   51  C   UNK     0      -9.270 -16.227   5.300  0.00  0.00     0.051 C 
BRANCH  51  52
HETATM   52  C   UNK     0      -8.835 -14.828   4.892  0.00  0.00     0.114 C 
BRANCH  52  53
HETATM   53  C   UNK     0      -7.398 -14.604   5.143  0.00  0.00     0.139 C 
HETATM   54  O   UNK     0      -6.716 -15.490   5.682  0.00  0.00    -0.650 OA
BRANCH  53  55
HETATM   55  O   UNK     0      -6.823 -13.410   4.782  0.00  0.00    -0.776 OA
HETATM   56  H   UNK     0      -5.855 -13.250   4.630  0.00  0.00     0.167 HD
ENDBRANCH  53  55
ENDBRANCH  52  53
ENDBRANCH  51  52
ENDBRANCH  18  51
TORSDOF 16
ENDMDL
MODEL 10
REMARK VINA RESULT:      -8.3     31.271     34.149
REMARK  16 active torsions:
REMARK  status: ('A' for Active; 'I' for Inactive)
REMARK    1  A    between atoms: C_6  and  C_7 
REMARK    2  A    between atoms: C_7  and  C_8 
REMARK    3  A    between atoms: C_8  and  C_9 
REMARK    4  A    between atoms: C_9  and  O_11 
REMARK    5  A    between atoms: C_16  and  C_17 
REMARK    6  A    between atoms: C_17  and  C_18 
REMARK    7  A    between atoms: C_18  and  C_19 
REMARK    8  A    between atoms: C_19  and  O_21 
REMARK    9  A    between atoms: C_28  and  C_29 
REMARK   10  A    between atoms: C_29  and  C_30 
REMARK   11  A    between atoms: C_30  and  C_31 
REMARK   12  A    between atoms: C_31  and  O_33 
REMARK   13  A    between atoms: C_42  and  C_43 
REMARK   14  A    between atoms: C_43  and  C_44 
REMARK   15  A    between atoms: C_44  and  C_45 
REMARK   16  A    between atoms: C_45  and  O_47 
ROOT
HETATM    1  C   UNK     0      -6.688 -23.888   0.012  0.00  0.00     0.051 C 
HETATM    2  C   UNK     0      -8.113 -23.757   0.511  0.00  0.00    -0.031 A 
HETATM    3  C   UNK     0      -8.575 -23.411   1.771  0.00  0.00     0.021 A 
HETATM    4  N   UNK     0      -9.929 -23.451   1.770  0.00  0.00    -0.361 N 
HETATM    5  C   UNK     0     -10.339 -23.807   0.535  0.00  0.00     0.022 A 
HETATM    6  C   UNK     0      -9.228 -24.008  -0.277  0.00  0.00    -0.027 A 
HETATM    7  C   UNK     0     -11.728 -23.905  -0.015  0.00  0.00     0.115 C 
HETATM    8  C   UNK     0     -12.690 -22.792   0.361  0.00  0.00     0.021 A 
HETATM    9  N   UNK     0     -12.432 -21.486   0.533  0.00  0.00    -0.361 N 
HETATM   10  C   UNK     0     -13.566 -20.887   0.952  0.00  0.00     0.022 A 
HETATM   11  C   UNK     0     -14.585 -21.830   1.044  0.00  0.00    -0.027 A 
HETATM   12  C   UNK     0     -14.040 -23.033   0.673  0.00  0.00    -0.031 A 
HETATM   13  C   UNK     0     -14.782 -24.349   0.616  0.00  0.00     0.051 C 
HETATM   14  C   UNK     0     -13.721 -19.417   1.333  0.00  0.00     0.115 C 
HETATM   15  C   UNK     0     -12.842 -18.986   2.496  0.00  0.00     0.021 A 
HETATM   16  N   UNK     0     -11.500 -19.049   2.578  0.00  0.00    -0.361 N 
HETATM   17  C   UNK     0     -11.115 -18.640   3.789  0.00  0.00     0.022 A 
HETATM   18  C   UNK     0     -12.261 -18.285   4.528  0.00  0.00    -0.027 A 
HETATM   19  C   UNK     0     -13.335 -18.505   3.707  0.00  0.00    -0.031 A 
HETATM   20  C   UNK     0     -14.772 -18.216   4.101  0.00  0.00     0.051 C 
HETATM   21  C   UNK     0      -9.735 -18.589   4.404  0.00  0.00     0.115 C 
HETATM   22  C   UNK     0      -8.753 -19.665   4.005  0.00  0.00     0.022 A 
HETATM   23  N   UNK     0      -8.982 -20.972   3.823  0.00  0.00    -0.361 N 
HETATM   24  C   UNK     0      -7.860 -21.535   3.331  0.00  0.00     0.021 A 
HETATM   25  C   UNK     0      -6.881 -20.568   3.202  0.00  0.00    -0.031 A 
HETATM   26  C   UNK     0      -5.448 -20.719   2.734  0.00  0.00     0.051 C 
HETATM   27  C   UNK     0      -7.428 -19.364   3.628  0.00  0.00    -0.027 A 
HETATM   28  C   UNK     0      -7.661 -22.971   2.879  0.00  0.00     0.115 C 
HETATM   29  H   UNK     0     -10.584 -23.267   2.653  0.00  0.00     0.165 HD
HETATM   30  H   UNK     0     -11.463 -20.975   0.310  0.00  0.00     0.165 HD
HETATM   31  H   UNK     0     -10.805 -19.342   1.748  0.00  0.00     0.165 HD
HETATM   32  H   UNK     0      -9.926 -21.519   4.081  0.00  0.00     0.165 HD
ENDROOT
BRANCH   6  33
HETATM   33  C   UNK     0      -9.148 -24.419  -1.726  0.00  0.00     0.051 C 
BRANCH  33  34
HETATM   34  C   UNK     0      -8.572 -25.809  -1.857  0.00  0.00     0.114 C 
BRANCH  34  35
HETATM   35  C   UNK     0      -9.688 -26.776  -1.654  0.00  0.00     0.139 C 
HETATM   36  O   UNK     0     -10.558 -26.943  -2.559  0.00  0.00    -0.650 OA
BRANCH  35  37
HETATM   37  O   UNK     0      -9.828 -27.527  -0.494  0.00  0.00    -0.776 OA
HETATM   38  H   UNK     0     -10.621 -27.421   0.120  0.00  0.00     0.167 HD
ENDBRANCH  35  37
ENDBRANCH  34  35
ENDBRANCH  33  34
ENDBRANCH   6  33
BRANCH  27  39
HETATM   39  C   UNK     0      -6.647 -18.099   3.703  0.00  0.00     0.051 C 
BRANCH  39  40
HETATM   40  C   UNK     0      -6.791 -17.129   2.618  0.00  0.00     0.114 C 
BRANCH  40  41
HETATM   41  C   UNK     0      -5.841 -17.040   1.532  0.00  0.00     0.139 C 
HETATM   42  O   UNK     0      -4.642 -16.777   1.693  0.00  0.00    -0.650 OA
BRANCH  41  43
HETATM   43  O   UNK     0      -6.291 -17.264   0.200  0.00  0.00    -0.776 OA
HETATM   44  H   UNK     0      -6.982 -16.599  -0.126  0.00  0.00     0.167 HD
ENDBRANCH  41  43
ENDBRANCH  40  41
ENDBRANCH  39  40
ENDBRANCH  27  39
BRANCH  11  45
HETATM   45  C   UNK     0     -16.018 -21.632   1.459  0.00  0.00     0.051 C 
BRANCH  45  46
HETATM   46  C   UNK     0     -16.729 -20.575   0.695  0.00  0.00     0.114 C 
BRANCH  46  47
HETATM   47  C   UNK     0     -17.911 -20.163   1.506  0.00  0.00     0.139 C 
HETATM   48  O   UNK     0     -17.738 -19.374   2.446  0.00  0.00    -0.650 OA
BRANCH  47  49
HETATM   49  O   UNK     0     -19.163 -20.646   1.220  0.00  0.00    -0.776 OA
HETATM   50  H   UNK     0     -19.460 -21.588   1.499  0.00  0.00     0.167 HD
ENDBRANCH  47  49
ENDBRANCH  46  47
ENDBRANCH  45  46
ENDBRANCH  11  45
BRANCH  18  51
HETATM   51  C   UNK     0     -12.326 -17.745   5.934  0.00  0.00     0.051 C 
BRANCH  51  52
HETATM   52  C   UNK     0     -12.477 -18.953   6.847  0.00  0.00     0.114 C 
BRANCH  52  53
HETATM   53  C   UNK     0     -12.344 -18.585   8.270  0.00  0.00     0.139 C 
HETATM   54  O   UNK     0     -11.337 -17.975   8.663  0.00  0.00    -0.650 OA
BRANCH  53  55
HETATM   55  O   UNK     0     -13.338 -18.925   9.155  0.00  0.00    -0.776 OA
HETATM   56  H   UNK     0     -14.290 -19.092   8.929  0.00  0.00     0.167 HD
ENDBRANCH  53  55
ENDBRANCH  52  53
ENDBRANCH  51  52
ENDBRANCH  18  51
TORSDOF 16
ENDMDL
MODEL 11
REMARK VINA RESULT:      -8.3      1.496      7.025
REMARK  16 active torsions:
REMARK  status: ('A' for Active; 'I' for Inactive)
REMARK    1  A    between atoms: C_6  and  C_7 
REMARK    2  A    between atoms: C_7  and  C_8 
REMARK    3  A    between atoms: C_8  and  C_9 
REMARK    4  A    between atoms: C_9  and  O_11 
REMARK    5  A    between atoms: C_16  and  C_17 
REMARK    6  A    between atoms: C_17  and  C_18 
REMARK    7  A    between atoms: C_18  and  C_19 
REMARK    8  A    between atoms: C_19  and  O_21 
REMARK    9  A    between atoms: C_28  and  C_29 
REMARK   10  A    between atoms: C_29  and  C_30 
REMARK   11  A    between atoms: C_30  and  C_31 
REMARK   12  A    between atoms: C_31  and  O_33 
REMARK   13  A    between atoms: C_42  and  C_43 
REMARK   14  A    between atoms: C_43  and  C_44 
REMARK   15  A    between atoms: C_44  and  C_45 
REMARK   16  A    between atoms: C_45  and  O_47 
ROOT
HETATM    1  C   UNK     0     -27.886 -11.940 -26.086  0.00  0.00     0.051 C 
HETATM    2  C   UNK     0     -26.835 -11.224 -26.908  0.00  0.00    -0.031 A 
HETATM    3  C   UNK     0     -26.346  -9.933 -26.781  0.00  0.00     0.021 A 
HETATM    4  N   UNK     0     -25.434  -9.708 -27.757  0.00  0.00    -0.361 N 
HETATM    5  C   UNK     0     -25.325 -10.830 -28.498  0.00  0.00     0.022 A 
HETATM    6  C   UNK     0     -26.190 -11.797 -27.997  0.00  0.00    -0.027 A 
HETATM    7  C   UNK     0     -24.396 -11.135 -29.631  0.00  0.00     0.115 C 
HETATM    8  C   UNK     0     -22.954 -10.687 -29.470  0.00  0.00     0.021 A 
HETATM    9  N   UNK     0     -22.209 -10.655 -28.354  0.00  0.00    -0.361 N 
HETATM   10  C   UNK     0     -21.018 -10.099 -28.662  0.00  0.00     0.022 A 
HETATM   11  C   UNK     0     -20.992  -9.772 -30.015  0.00  0.00    -0.027 A 
HETATM   12  C   UNK     0     -22.209 -10.141 -30.529  0.00  0.00    -0.031 A 
HETATM   13  C   UNK     0     -22.633  -9.979 -31.972  0.00  0.00     0.051 C 
HETATM   14  C   UNK     0     -19.881  -9.805 -27.687  0.00  0.00     0.115 C 
HETATM   15  C   UNK     0     -20.258  -8.837 -26.576  0.00  0.00     0.021 A 
HETATM   16  N   UNK     0     -21.240  -8.972 -25.666  0.00  0.00    -0.361 N 
HETATM   17  C   UNK     0     -21.292  -7.874 -24.910  0.00  0.00     0.022 A 
HETATM   18  C   UNK     0     -20.289  -6.984 -25.341  0.00  0.00    -0.027 A 
HETATM   19  C   UNK     0     -19.647  -7.599 -26.385  0.00  0.00    -0.031 A 
HETATM   20  C   UNK     0     -18.467  -6.995 -27.124  0.00  0.00     0.051 C 
HETATM   21  C   UNK     0     -22.253  -7.500 -23.804  0.00  0.00     0.115 C 
HETATM   22  C   UNK     0     -23.681  -7.976 -23.930  0.00  0.00     0.022 A 
HETATM   23  N   UNK     0     -24.446  -8.024 -25.028  0.00  0.00    -0.361 N 
HETATM   24  C   UNK     0     -25.597  -8.652 -24.716  0.00  0.00     0.021 A 
HETATM   25  C   UNK     0     -25.577  -9.009 -23.381  0.00  0.00    -0.031 A 
HETATM   26  C   UNK     0     -26.650  -9.695 -22.561  0.00  0.00     0.051 C 
HETATM   27  C   UNK     0     -24.361  -8.587 -22.857  0.00  0.00    -0.027 A 
HETATM   28  C   UNK     0     -26.736  -9.025 -25.649  0.00  0.00     0.115 C 
HETATM   29  H   UNK     0     -24.904  -8.745 -27.939  0.00  0.00     0.165 HD
HETATM   30  H   UNK     0     -22.501 -11.070 -27.359  0.00  0.00     0.165 HD
HETATM   31  H   UNK     0     -21.880  -9.882 -25.523  0.00  0.00     0.165 HD
HETATM   32  H   UNK     0     -24.198  -7.575 -26.025  0.00  0.00     0.165 HD
ENDROOT
BRANCH   6  33
HETATM   33  C   UNK     0     -26.448 -13.206 -28.469  0.00  0.00     0.051 C 
BRANCH  33  34
HETATM   34  C   UNK     0     -25.172 -14.015 -28.461  0.00  0.00     0.114 C 
BRANCH  34  35
HETATM   35  C   UNK     0     -25.411 -15.216 -27.611  0.00  0.00     0.139 C 
HETATM   36  O   UNK     0     -26.327 -16.037 -27.910  0.00  0.00    -0.650 OA
BRANCH  35  37
HETATM   37  O   UNK     0     -24.657 -15.493 -26.476  0.00  0.00    -0.776 OA
HETATM   38  H   UNK     0     -24.540 -16.431 -26.129  0.00  0.00     0.167 HD
ENDBRANCH  35  37
ENDBRANCH  34  35
ENDBRANCH  33  34
ENDBRANCH   6  33
BRANCH  27  39
HETATM   39  C   UNK     0     -24.002  -8.734 -21.420  0.00  0.00     0.051 C 
BRANCH  39  40
HETATM   40  C   UNK     0     -23.954  -7.530 -20.590  0.00  0.00     0.114 C 
BRANCH  40  41
HETATM   41  C   UNK     0     -24.402  -7.523 -19.216  0.00  0.00     0.139 C 
HETATM   42  O   UNK     0     -24.593  -8.553 -18.554  0.00  0.00    -0.650 OA
BRANCH  41  43
HETATM   43  O   UNK     0     -24.640  -6.276 -18.572  0.00  0.00    -0.776 OA
HETATM   44  H   UNK     0     -24.273  -5.472 -19.068  0.00  0.00     0.167 HD
ENDBRANCH  41  43
ENDBRANCH  40  41
ENDBRANCH  39  40
ENDBRANCH  27  39
BRANCH  11  45
HETATM   45  C   UNK     0     -19.881  -9.143 -30.811  0.00  0.00     0.051 C 
BRANCH  45  46
HETATM   46  C   UNK     0     -19.772  -7.671 -30.641  0.00  0.00     0.114 C 
BRANCH  46  47
HETATM   47  C   UNK     0     -19.738  -7.071 -32.005  0.00  0.00     0.139 C 
HETATM   48  O   UNK     0     -19.448  -5.871 -32.118  0.00  0.00    -0.650 OA
BRANCH  47  49
HETATM   49  O   UNK     0     -20.023  -7.828 -33.113  0.00  0.00    -0.776 OA
HETATM   50  H   UNK     0     -20.452  -8.758 -33.043  0.00  0.00     0.167 HD
ENDBRANCH  47  49
ENDBRANCH  46  47
ENDBRANCH  45  46
ENDBRANCH  11  45
BRANCH  18  51
HETATM   51  C   UNK     0     -19.946  -5.630 -24.776  0.00  0.00     0.051 C 
BRANCH  51  52
HETATM   52  C   UNK     0     -21.240  -4.829 -24.775  0.00  0.00     0.114 C 
BRANCH  52  53
HETATM   53  C   UNK     0     -21.493  -4.197 -23.466  0.00  0.00     0.139 C 
HETATM   54  O   UNK     0     -22.425  -3.386 -23.337  0.00  0.00    -0.650 OA
BRANCH  53  55
HETATM   55  O   UNK     0     -20.692  -4.508 -22.394  0.00  0.00    -0.776 OA
HETATM   56  H   UNK     0     -20.873  -5.208 -21.714  0.00  0.00     0.167 HD
ENDBRANCH  53  55
ENDBRANCH  52  53
ENDBRANCH  51  52
ENDBRANCH  18  51
TORSDOF 16
ENDMDL
MODEL 12
REMARK VINA RESULT:      -8.1     31.020     33.963
REMARK  16 active torsions:
REMARK  status: ('A' for Active; 'I' for Inactive)
REMARK    1  A    between atoms: C_6  and  C_7 
REMARK    2  A    between atoms: C_7  and  C_8 
REMARK    3  A    between atoms: C_8  and  C_9 
REMARK    4  A    between atoms: C_9  and  O_11 
REMARK    5  A    between atoms: C_16  and  C_17 
REMARK    6  A    between atoms: C_17  and  C_18 
REMARK    7  A    between atoms: C_18  and  C_19 
REMARK    8  A    between atoms: C_19  and  O_21 
REMARK    9  A    between atoms: C_28  and  C_29 
REMARK   10  A    between atoms: C_29  and  C_30 
REMARK   11  A    between atoms: C_30  and  C_31 
REMARK   12  A    between atoms: C_31  and  O_33 
REMARK   13  A    between atoms: C_42  and  C_43 
REMARK   14  A    between atoms: C_43  and  C_44 
REMARK   15  A    between atoms: C_44  and  C_45 
REMARK   16  A    between atoms: C_45  and  O_47 
ROOT
HETATM    1  C   UNK     0     -15.940 -18.596   0.528  0.00  0.00     0.051 C 
HETATM    2  C   UNK     0     -14.645 -19.298   0.176  0.00  0.00    -0.031 A 
HETATM    3  C   UNK     0     -13.374 -18.770   0.013  0.00  0.00     0.021 A 
HETATM    4  N   UNK     0     -12.523 -19.766  -0.332  0.00  0.00    -0.361 N 
HETATM    5  C   UNK     0     -13.223 -20.918  -0.384  0.00  0.00     0.022 A 
HETATM    6  C   UNK     0     -14.554 -20.662  -0.074  0.00  0.00    -0.027 A 
HETATM    7  C   UNK     0     -12.740 -22.315  -0.625  0.00  0.00     0.115 C 
HETATM    8  C   UNK     0     -11.456 -22.723   0.075  0.00  0.00     0.021 A 
HETATM    9  N   UNK     0     -11.016 -22.365   1.291  0.00  0.00    -0.361 N 
HETATM   10  C   UNK     0      -9.784 -22.890   1.463  0.00  0.00     0.022 A 
HETATM   11  C   UNK     0      -9.424 -23.613   0.329  0.00  0.00    -0.027 A 
HETATM   12  C   UNK     0     -10.473 -23.512  -0.549  0.00  0.00    -0.031 A 
HETATM   13  C   UNK     0     -10.529 -24.148  -1.920  0.00  0.00     0.051 C 
HETATM   14  C   UNK     0      -8.879 -22.687   2.675  0.00  0.00     0.115 C 
HETATM   15  C   UNK     0      -8.500 -21.236   2.924  0.00  0.00     0.021 A 
HETATM   16  N   UNK     0      -9.327 -20.198   3.147  0.00  0.00    -0.361 N 
HETATM   17  C   UNK     0      -8.607 -19.078   3.249  0.00  0.00     0.022 A 
HETATM   18  C   UNK     0      -7.245 -19.404   3.095  0.00  0.00    -0.027 A 
HETATM   19  C   UNK     0      -7.191 -20.759   2.894  0.00  0.00    -0.031 A 
HETATM   20  C   UNK     0      -5.899 -21.535   2.717  0.00  0.00     0.051 C 
HETATM   21  C   UNK     0      -9.058 -17.646   3.425  0.00  0.00     0.115 C 
HETATM   22  C   UNK     0     -10.357 -17.238   2.771  0.00  0.00     0.022 A 
HETATM   23  N   UNK     0     -10.822 -17.582   1.563  0.00  0.00    -0.361 N 
HETATM   24  C   UNK     0     -12.081 -17.114   1.445  0.00  0.00     0.021 A 
HETATM   25  C   UNK     0     -12.432 -16.443   2.601  0.00  0.00    -0.031 A 
HETATM   26  C   UNK     0     -13.719 -15.715   2.928  0.00  0.00     0.051 C 
HETATM   27  C   UNK     0     -11.344 -16.509   3.465  0.00  0.00    -0.027 A 
HETATM   28  C   UNK     0     -13.049 -17.331   0.295  0.00  0.00     0.115 C 
HETATM   29  H   UNK     0     -11.442 -19.641  -0.575  0.00  0.00     0.165 HD
HETATM   30  H   UNK     0     -11.594 -21.784   2.051  0.00  0.00     0.165 HD
HETATM   31  H   UNK     0     -10.438 -20.262   3.282  0.00  0.00     0.165 HD
HETATM   32  H   UNK     0     -10.250 -18.122   0.765  0.00  0.00     0.165 HD
ENDROOT
BRANCH   6  33
HETATM   33  C   UNK     0     -15.732 -21.600  -0.001  0.00  0.00     0.051 C 
BRANCH  33  34
HETATM   34  C   UNK     0     -16.015 -21.993   1.430  0.00  0.00     0.114 C 
BRANCH  34  35
HETATM   35  C   UNK     0     -15.156 -23.169   1.749  0.00  0.00     0.139 C 
HETATM   36  O   UNK     0     -14.094 -23.019   2.421  0.00  0.00    -0.650 OA
BRANCH  35  37
HETATM   37  O   UNK     0     -15.469 -24.459   1.338  0.00  0.00    -0.776 OA
HETATM   38  H   UNK     0     -15.611 -25.209   1.994  0.00  0.00     0.167 HD
ENDBRANCH  35  37
ENDBRANCH  34  35
ENDBRANCH  33  34
ENDBRANCH   6  33
BRANCH  27  39
HETATM   39  C   UNK     0     -11.321 -15.834   4.791  0.00  0.00     0.051 C 
BRANCH  39  40
HETATM   40  C   UNK     0     -10.504 -14.631   4.943  0.00  0.00     0.114 C 
BRANCH  40  41
HETATM   41  C   UNK     0      -9.214 -14.652   5.595  0.00  0.00     0.139 C 
HETATM   42  O   UNK     0      -8.949 -15.378   6.563  0.00  0.00    -0.650 OA
BRANCH  41  43
HETATM   43  O   UNK     0      -8.181 -13.800   5.111  0.00  0.00    -0.776 OA
HETATM   44  H   UNK     0      -7.303 -13.881   5.610  0.00  0.00     0.167 HD
ENDBRANCH  41  43
ENDBRANCH  40  41
ENDBRANCH  39  40
ENDBRANCH  27  39
BRANCH  11  45
HETATM   45  C   UNK     0      -8.155 -24.376   0.063  0.00  0.00     0.051 C 
BRANCH  45  46
HETATM   46  C   UNK     0      -8.080 -25.688   0.756  0.00  0.00     0.114 C 
BRANCH  46  47
HETATM   47  C   UNK     0      -8.505 -26.729  -0.222  0.00  0.00     0.139 C 
HETATM   48  O   UNK     0      -9.593 -27.295  -0.048  0.00  0.00    -0.650 OA
BRANCH  47  49
HETATM   49  O   UNK     0      -7.710 -27.056  -1.291  0.00  0.00    -0.776 OA
HETATM   50  H   UNK     0      -7.875 -26.675  -2.230  0.00  0.00     0.167 HD
ENDBRANCH  47  49
ENDBRANCH  46  47
ENDBRANCH  45  46
ENDBRANCH  11  45
BRANCH  18  51
HETATM   51  C   UNK     0      -6.058 -18.478   3.158  0.00  0.00     0.051 C 
BRANCH  51  52
HETATM   52  C   UNK     0      -5.775 -18.050   1.726  0.00  0.00     0.114 C 
BRANCH  52  53
HETATM   53  C   UNK     0      -4.329 -18.043   1.430  0.00  0.00     0.139 C 
HETATM   54  O   UNK     0      -3.777 -19.070   1.005  0.00  0.00    -0.650 OA
BRANCH  53  55
HETATM   55  O   UNK     0      -3.600 -16.896   1.631  0.00  0.00    -0.776 OA
HETATM   56  H   UNK     0      -2.675 -16.729   1.313  0.00  0.00     0.167 HD
ENDBRANCH  53  55
ENDBRANCH  52  53
ENDBRANCH  51  52
ENDBRANCH  18  51
TORSDOF 16
ENDMDL
MODEL 13
REMARK VINA RESULT:      -8.0     31.521     34.223
REMARK  16 active torsions:
REMARK  status: ('A' for Active; 'I' for Inactive)
REMARK    1  A    between atoms: C_6  and  C_7 
REMARK    2  A    between atoms: C_7  and  C_8 
REMARK    3  A    between atoms: C_8  and  C_9 
REMARK    4  A    between atoms: C_9  and  O_11 
REMARK    5  A    between atoms: C_16  and  C_17 
REMARK    6  A    between atoms: C_17  and  C_18 
REMARK    7  A    between atoms: C_18  and  C_19 
REMARK    8  A    between atoms: C_19  and  O_21 
REMARK    9  A    between atoms: C_28  and  C_29 
REMARK   10  A    between atoms: C_29  and  C_30 
REMARK   11  A    between atoms: C_30  and  C_31 
REMARK   12  A    between atoms: C_31  and  O_33 
REMARK   13  A    between atoms: C_42  and  C_43 
REMARK   14  A    between atoms: C_43  and  C_44 
REMARK   15  A    between atoms: C_44  and  C_45 
REMARK   16  A    between atoms: C_45  and  O_47 
ROOT
HETATM    1  C   UNK     0      -7.313 -23.953   1.110  0.00  0.00     0.051 C 
HETATM    2  C   UNK     0      -8.644 -23.361   1.527  0.00  0.00    -0.031 A 
HETATM    3  C   UNK     0      -8.951 -22.574   2.625  0.00  0.00     0.021 A 
HETATM    4  N   UNK     0     -10.277 -22.300   2.615  0.00  0.00    -0.361 N 
HETATM    5  C   UNK     0     -10.820 -22.889   1.529  0.00  0.00     0.022 A 
HETATM    6  C   UNK     0      -9.826 -23.564   0.828  0.00  0.00    -0.027 A 
HETATM    7  C   UNK     0     -12.222 -22.818   1.009  0.00  0.00     0.115 C 
HETATM    8  C   UNK     0     -12.889 -21.454   1.031  0.00  0.00     0.021 A 
HETATM    9  N   UNK     0     -12.336 -20.249   0.821  0.00  0.00    -0.361 N 
HETATM   10  C   UNK     0     -13.283 -19.311   1.031  0.00  0.00     0.022 A 
HETATM   11  C   UNK     0     -14.481 -19.928   1.376  0.00  0.00    -0.027 A 
HETATM   12  C   UNK     0     -14.240 -21.278   1.378  0.00  0.00    -0.031 A 
HETATM   13  C   UNK     0     -15.261 -22.349   1.692  0.00  0.00     0.051 C 
HETATM   14  C   UNK     0     -13.084 -17.799   0.968  0.00  0.00     0.115 C 
HETATM   15  C   UNK     0     -12.071 -17.269   1.970  0.00  0.00     0.021 A 
HETATM   16  N   UNK     0     -10.775 -17.612   2.088  0.00  0.00    -0.361 N 
HETATM   17  C   UNK     0     -10.246 -16.975   3.135  0.00  0.00     0.022 A 
HETATM   18  C   UNK     0     -11.243 -16.170   3.721  0.00  0.00    -0.027 A 
HETATM   19  C   UNK     0     -12.381 -16.362   2.981  0.00  0.00    -0.031 A 
HETATM   20  C   UNK     0     -13.693 -15.650   3.252  0.00  0.00     0.051 C 
HETATM   21  C   UNK     0      -8.860 -17.069   3.731  0.00  0.00     0.115 C 
HETATM   22  C   UNK     0      -8.166 -18.410   3.676  0.00  0.00     0.022 A 
HETATM   23  N   UNK     0      -8.693 -19.625   3.876  0.00  0.00    -0.361 N 
HETATM   24  C   UNK     0      -7.753 -20.547   3.586  0.00  0.00     0.021 A 
HETATM   25  C   UNK     0      -6.590 -19.910   3.199  0.00  0.00    -0.031 A 
HETATM   26  C   UNK     0      -5.254 -20.513   2.817  0.00  0.00     0.051 C 
HETATM   27  C   UNK     0      -6.830 -18.541   3.249  0.00  0.00    -0.027 A 
HETATM   28  C   UNK     0      -7.906 -22.058   3.573  0.00  0.00     0.115 C 
HETATM   29  H   UNK     0     -10.827 -21.726   3.396  0.00  0.00     0.165 HD
HETATM   30  H   UNK     0     -11.290 -20.060   0.476  0.00  0.00     0.165 HD
HETATM   31  H   UNK     0     -10.208 -18.282   1.390  0.00  0.00     0.165 HD
HETATM   32  H   UNK     0      -9.721 -19.843   4.267  0.00  0.00     0.165 HD
ENDROOT
BRANCH   6  33
HETATM   33  C   UNK     0      -9.915 -24.378  -0.438  0.00  0.00     0.051 C 
BRANCH  33  34
HETATM   34  C   UNK     0     -10.659 -25.669  -0.193  0.00  0.00     0.114 C 
BRANCH  34  35
HETATM   35  C   UNK     0      -9.841 -26.773  -0.773  0.00  0.00     0.139 C 
HETATM   36  O   UNK     0      -8.732 -27.085  -0.251  0.00  0.00    -0.650 OA
BRANCH  35  37
HETATM   37  O   UNK     0     -10.245 -27.499  -1.887  0.00  0.00    -0.776 OA
HETATM   38  H   UNK     0     -10.719 -28.384  -1.805  0.00  0.00     0.167 HD
ENDBRANCH  35  37
ENDBRANCH  34  35
ENDBRANCH  33  34
ENDBRANCH   6  33
BRANCH  27  39
HETATM   39  C   UNK     0      -5.781 -17.524   2.967  0.00  0.00     0.051 C 
BRANCH  39  40
HETATM   40  C   UNK     0      -5.603 -17.076   1.586  0.00  0.00     0.114 C 
BRANCH  40  41
HETATM   41  C   UNK     0      -4.397 -17.349   0.837  0.00  0.00     0.139 C 
HETATM   42  O   UNK     0      -3.316 -16.783   1.050  0.00  0.00    -0.650 OA
BRANCH  41  43
HETATM   43  O   UNK     0      -4.436 -18.318  -0.206  0.00  0.00    -0.776 OA
HETATM   44  H   UNK     0      -3.537 -18.722  -0.437  0.00  0.00     0.167 HD
ENDBRANCH  41  43
ENDBRANCH  40  41
ENDBRANCH  39  40
ENDBRANCH  27  39
BRANCH  11  45
HETATM   45  C   UNK     0     -15.810 -19.296   1.693  0.00  0.00     0.051 C 
BRANCH  45  46
HETATM   46  C   UNK     0     -15.881 -18.678   3.042  0.00  0.00     0.114 C 
BRANCH  46  47
HETATM   47  C   UNK     0     -17.318 -18.651   3.439  0.00  0.00     0.139 C 
HETATM   48  O   UNK     0     -18.179 -18.758   2.555  0.00  0.00    -0.650 OA
BRANCH  47  49
HETATM   49  O   UNK     0     -17.680 -18.508   4.755  0.00  0.00    -0.776 OA
HETATM   50  H   UNK     0     -17.295 -19.108   5.494  0.00  0.00     0.167 HD
ENDBRANCH  47  49
ENDBRANCH  46  47
ENDBRANCH  45  46
ENDBRANCH  11  45
BRANCH  18  51
HETATM   51  C   UNK     0     -11.112 -15.252   4.909  0.00  0.00     0.051 C 
BRANCH  51  52
HETATM   52  C   UNK     0     -11.437 -16.092   6.135  0.00  0.00     0.114 C 
BRANCH  52  53
HETATM   53  C   UNK     0     -10.286 -16.193   7.052  0.00  0.00     0.139 C 
HETATM   54  O   UNK     0      -9.389 -15.336   7.021  0.00  0.00    -0.650 OA
BRANCH  53  55
HETATM   55  O   UNK     0     -10.213 -17.241   7.937  0.00  0.00    -0.776 OA
HETATM   56  H   UNK     0      -9.746 -18.104   7.783  0.00  0.00     0.167 HD
ENDBRANCH  53  55
ENDBRANCH  52  53
ENDBRANCH  51  52
ENDBRANCH  18  51
TORSDOF 16
ENDMDL
MODEL 14
REMARK VINA RESULT:      -8.0     30.964     34.222
REMARK  16 active torsions:
REMARK  status: ('A' for Active; 'I' for Inactive)
REMARK    1  A    between atoms: C_6  and  C_7 
REMARK    2  A    between atoms: C_7  and  C_8 
REMARK    3  A    between atoms: C_8  and  C_9 
REMARK    4  A    between atoms: C_9  and  O_11 
REMARK    5  A    between atoms: C_16  and  C_17 
REMARK    6  A    between atoms: C_17  and  C_18 
REMARK    7  A    between atoms: C_18  and  C_19 
REMARK    8  A    between atoms: C_19  and  O_21 
REMARK    9  A    between atoms: C_28  and  C_29 
REMARK   10  A    between atoms: C_29  and  C_30 
REMARK   11  A    between atoms: C_30  and  C_31 
REMARK   12  A    between atoms: C_31  and  O_33 
REMARK   13  A    between atoms: C_42  and  C_43 
REMARK   14  A    between atoms: C_43  and  C_44 
REMARK   15  A    between atoms: C_44  and  C_45 
REMARK   16  A    between atoms: C_45  and  O_47 
ROOT
HETATM    1  C   UNK     0      -8.338 -24.831  -1.497  0.00  0.00     0.051 C 
HETATM    2  C   UNK     0      -9.386 -24.210  -0.596  0.00  0.00    -0.031 A 
HETATM    3  C   UNK     0      -9.319 -23.915   0.757  0.00  0.00     0.021 A 
HETATM    4  N   UNK     0     -10.505 -23.396   1.154  0.00  0.00    -0.361 N 
HETATM    5  C   UNK     0     -11.323 -23.346   0.083  0.00  0.00     0.022 A 
HETATM    6  C   UNK     0     -10.655 -23.850  -1.029  0.00  0.00    -0.027 A 
HETATM    7  C   UNK     0     -12.702 -22.775  -0.037  0.00  0.00     0.115 C 
HETATM    8  C   UNK     0     -12.949 -21.443   0.648  0.00  0.00     0.021 A 
HETATM    9  N   UNK     0     -12.110 -20.405   0.787  0.00  0.00    -0.361 N 
HETATM   10  C   UNK     0     -12.721 -19.470   1.545  0.00  0.00     0.022 A 
HETATM   11  C   UNK     0     -13.992 -19.914   1.897  0.00  0.00    -0.027 A 
HETATM   12  C   UNK     0     -14.142 -21.156   1.335  0.00  0.00    -0.031 A 
HETATM   13  C   UNK     0     -15.376 -22.024   1.450  0.00  0.00     0.051 C 
HETATM   14  C   UNK     0     -12.114 -18.150   2.011  0.00  0.00     0.115 C 
HETATM   15  C   UNK     0     -10.876 -18.313   2.878  0.00  0.00     0.021 A 
HETATM   16  N   UNK     0      -9.725 -18.933   2.558  0.00  0.00    -0.361 N 
HETATM   17  C   UNK     0      -8.911 -18.921   3.616  0.00  0.00     0.022 A 
HETATM   18  C   UNK     0      -9.560 -18.253   4.674  0.00  0.00    -0.027 A 
HETATM   19  C   UNK     0     -10.789 -17.876   4.198  0.00  0.00    -0.031 A 
HETATM   20  C   UNK     0     -11.803 -17.091   5.010  0.00  0.00     0.051 C 
HETATM   21  C   UNK     0      -7.545 -19.541   3.798  0.00  0.00     0.115 C 
HETATM   22  C   UNK     0      -7.269 -20.845   3.086  0.00  0.00     0.022 A 
HETATM   23  N   UNK     0      -8.087 -21.894   2.930  0.00  0.00    -0.361 N 
HETATM   24  C   UNK     0      -7.489 -22.778   2.107  0.00  0.00     0.021 A 
HETATM   25  C   UNK     0      -6.251 -22.292   1.733  0.00  0.00    -0.031 A 
HETATM   26  C   UNK     0      -5.198 -22.938   0.857  0.00  0.00     0.051 C 
HETATM   27  C   UNK     0      -6.088 -21.056   2.347  0.00  0.00    -0.027 A 
HETATM   28  C   UNK     0      -8.061 -24.076   1.563  0.00  0.00     0.115 C 
HETATM   29  H   UNK     0     -10.769 -23.106   2.197  0.00  0.00     0.165 HD
HETATM   30  H   UNK     0     -11.105 -20.307   0.308  0.00  0.00     0.165 HD
HETATM   31  H   UNK     0      -9.461 -19.346   1.549  0.00  0.00     0.165 HD
HETATM   32  H   UNK     0      -9.078 -22.039   3.434  0.00  0.00     0.165 HD
ENDROOT
BRANCH   6  33
HETATM   33  C   UNK     0     -11.127 -24.016  -2.451  0.00  0.00     0.051 C 
BRANCH  33  34
HETATM   34  C   UNK     0     -10.715 -22.832  -3.293  0.00  0.00     0.114 C 
BRANCH  34  35
HETATM   35  C   UNK     0     -11.949 -22.279  -3.921  0.00  0.00     0.139 C 
HETATM   36  O   UNK     0     -11.874 -21.304  -4.724  0.00  0.00    -0.650 OA
BRANCH  35  37
HETATM   37  O   UNK     0     -13.214 -22.794  -3.666  0.00  0.00    -0.776 OA
HETATM   38  H   UNK     0     -14.017 -22.536  -4.216  0.00  0.00     0.167 HD
ENDBRANCH  35  37
ENDBRANCH  34  35
ENDBRANCH  33  34
ENDBRANCH   6  33
BRANCH  27  39
HETATM   39  C   UNK     0      -4.839 -20.254   2.236  0.00  0.00     0.051 C 
BRANCH  39  40
HETATM   40  C   UNK     0      -3.779 -20.481   3.218  0.00  0.00     0.114 C 
BRANCH  40  41
HETATM   41  C   UNK     0      -2.408 -20.726   2.829  0.00  0.00     0.139 C 
HETATM   42  O   UNK     0      -1.432 -20.312   3.469  0.00  0.00    -0.650 OA
BRANCH  41  43
HETATM   43  O   UNK     0      -2.148 -21.481   1.650  0.00  0.00    -0.776 OA
HETATM   44  H   UNK     0      -2.398 -22.460   1.716  0.00  0.00     0.167 HD
ENDBRANCH  41  43
ENDBRANCH  40  41
ENDBRANCH  39  40
ENDBRANCH  27  39
BRANCH  11  45
HETATM   45  C   UNK     0     -15.038 -19.216   2.724  0.00  0.00     0.051 C 
BRANCH  45  46
HETATM   46  C   UNK     0     -16.172 -18.672   1.933  0.00  0.00     0.114 C 
BRANCH  46  47
HETATM   47  C   UNK     0     -17.429 -19.091   2.617  0.00  0.00     0.139 C 
HETATM   48  O   UNK     0     -18.212 -19.837   2.012  0.00  0.00    -0.650 OA
BRANCH  47  49
HETATM   49  O   UNK     0     -17.714 -18.660   3.888  0.00  0.00    -0.776 OA
HETATM   50  H   UNK     0     -18.098 -19.289   4.603  0.00  0.00     0.167 HD
ENDBRANCH  47  49
ENDBRANCH  46  47
ENDBRANCH  45  46
ENDBRANCH  11  45
BRANCH  18  51
HETATM   51  C   UNK     0      -9.029 -17.971   6.055  0.00  0.00     0.051 C 
BRANCH  51  52
HETATM   52  C   UNK     0      -8.319 -16.628   5.973  0.00  0.00     0.114 C 
BRANCH  52  53
HETATM   53  C   UNK     0      -8.566 -15.800   7.169  0.00  0.00     0.139 C 
HETATM   54  O   UNK     0      -9.726 -15.634   7.581  0.00  0.00    -0.650 OA
BRANCH  53  55
HETATM   55  O   UNK     0      -7.509 -15.215   7.821  0.00  0.00    -0.776 OA
HETATM   56  H   UNK     0      -7.547 -14.753   8.699  0.00  0.00     0.167 HD
ENDBRANCH  53  55
ENDBRANCH  52  53
ENDBRANCH  51  52
ENDBRANCH  18  51
TORSDOF 16
ENDMDL
MODEL 15
REMARK VINA RESULT:      -8.0     30.695     34.230
REMARK  16 active torsions:
REMARK  status: ('A' for Active; 'I' for Inactive)
REMARK    1  A    between atoms: C_6  and  C_7 
REMARK    2  A    between atoms: C_7  and  C_8 
REMARK    3  A    between atoms: C_8  and  C_9 
REMARK    4  A    between atoms: C_9  and  O_11 
REMARK    5  A    between atoms: C_16  and  C_17 
REMARK    6  A    between atoms: C_17  and  C_18 
REMARK    7  A    between atoms: C_18  and  C_19 
REMARK    8  A    between atoms: C_19  and  O_21 
REMARK    9  A    between atoms: C_28  and  C_29 
REMARK   10  A    between atoms: C_29  and  C_30 
REMARK   11  A    between atoms: C_30  and  C_31 
REMARK   12  A    between atoms: C_31  and  O_33 
REMARK   13  A    between atoms: C_42  and  C_43 
REMARK   14  A    between atoms: C_43  and  C_44 
REMARK   15  A    between atoms: C_44  and  C_45 
REMARK   16  A    between atoms: C_45  and  O_47 
ROOT
HETATM    1  C   UNK     0     -16.497 -18.185   2.268  0.00  0.00     0.051 C 
HETATM    2  C   UNK     0     -15.312 -18.868   1.616  0.00  0.00    -0.031 A 
HETATM    3  C   UNK     0     -13.996 -18.443   1.519  0.00  0.00     0.021 A 
HETATM    4  N   UNK     0     -13.286 -19.361   0.821  0.00  0.00    -0.361 N 
HETATM    5  C   UNK     0     -14.119 -20.366   0.478  0.00  0.00     0.022 A 
HETATM    6  C   UNK     0     -15.395 -20.088   0.957  0.00  0.00    -0.027 A 
HETATM    7  C   UNK     0     -13.817 -21.659  -0.213  0.00  0.00     0.115 C 
HETATM    8  C   UNK     0     -12.559 -22.388   0.224  0.00  0.00     0.021 A 
HETATM    9  N   UNK     0     -12.024 -22.470   1.452  0.00  0.00    -0.361 N 
HETATM   10  C   UNK     0     -10.856 -23.141   1.357  0.00  0.00     0.022 A 
HETATM   11  C   UNK     0     -10.637 -23.508   0.032  0.00  0.00    -0.027 A 
HETATM   12  C   UNK     0     -11.706 -23.037  -0.687  0.00  0.00    -0.031 A 
HETATM   13  C   UNK     0     -11.900 -23.207  -2.177  0.00  0.00     0.051 C 
HETATM   14  C   UNK     0      -9.878 -23.415   2.496  0.00  0.00     0.115 C 
HETATM   15  C   UNK     0      -9.319 -22.158   3.143  0.00  0.00     0.021 A 
HETATM   16  N   UNK     0     -10.006 -21.163   3.735  0.00  0.00    -0.361 N 
HETATM   17  C   UNK     0      -9.155 -20.207   4.114  0.00  0.00     0.022 A 
HETATM   18  C   UNK     0      -7.850 -20.602   3.760  0.00  0.00    -0.027 A 
HETATM   19  C   UNK     0      -7.966 -21.826   3.153  0.00  0.00    -0.031 A 
HETATM   20  C   UNK     0      -6.784 -22.632   2.646  0.00  0.00     0.051 C 
HETATM   21  C   UNK     0      -9.425 -18.863   4.753  0.00  0.00     0.115 C 
HETATM   22  C   UNK     0     -10.695 -18.147   4.360  0.00  0.00     0.022 A 
HETATM   23  N   UNK     0     -11.253 -18.051   3.146  0.00  0.00    -0.361 N 
HETATM   24  C   UNK     0     -12.452 -17.449   3.277  0.00  0.00     0.021 A 
HETATM   25  C   UNK     0     -12.667 -17.139   4.606  0.00  0.00    -0.031 A 
HETATM   26  C   UNK     0     -13.842 -16.425   5.241  0.00  0.00     0.051 C 
HETATM   27  C   UNK     0     -11.556 -17.576   5.319  0.00  0.00    -0.027 A 
HETATM   28  C   UNK     0     -13.491 -17.201   2.197  0.00  0.00     0.115 C 
HETATM   29  H   UNK     0     -12.211 -19.274   0.541  0.00  0.00     0.165 HD
HETATM   30  H   UNK     0     -12.493 -22.100   2.397  0.00  0.00     0.165 HD
HETATM   31  H   UNK     0     -11.110 -21.157   3.934  0.00  0.00     0.165 HD
HETATM   32  H   UNK     0     -10.786 -18.370   2.178  0.00  0.00     0.165 HD
ENDROOT
BRANCH   6  33
HETATM   33  C   UNK     0     -16.670 -20.882   0.837  0.00  0.00     0.051 C 
BRANCH  33  34
HETATM   34  C   UNK     0     -17.466 -20.438  -0.368  0.00  0.00     0.114 C 
BRANCH  34  35
HETATM   35  C   UNK     0     -18.845 -20.121   0.100  0.00  0.00     0.139 C 
HETATM   36  O   UNK     0     -19.625 -19.441  -0.629  0.00  0.00    -0.650 OA
BRANCH  35  37
HETATM   37  O   UNK     0     -19.336 -20.545   1.329  0.00  0.00    -0.776 OA
HETATM   38  H   UNK     0     -19.061 -21.422   1.740  0.00  0.00     0.167 HD
ENDBRANCH  35  37
ENDBRANCH  34  35
ENDBRANCH  33  34
ENDBRANCH   6  33
BRANCH  27  39
HETATM   39  C   UNK     0     -11.392 -17.353   6.781  0.00  0.00     0.051 C 
BRANCH  39  40
HETATM   40  C   UNK     0     -11.698 -18.456   7.691  0.00  0.00     0.114 C 
BRANCH  40  41
HETATM   41  C   UNK     0     -13.054 -18.801   8.054  0.00  0.00     0.139 C 
HETATM   42  O   UNK     0     -13.870 -19.292   7.262  0.00  0.00    -0.650 OA
BRANCH  41  43
HETATM   43  O   UNK     0     -13.492 -18.571   9.390  0.00  0.00    -0.776 OA
HETATM   44  H   UNK     0     -14.490 -18.674   9.527  0.00  0.00     0.167 HD
ENDBRANCH  41  43
ENDBRANCH  40  41
ENDBRANCH  39  40
ENDBRANCH  27  39
BRANCH  11  45
HETATM   45  C   UNK     0      -9.480 -24.272  -0.554  0.00  0.00     0.051 C 
BRANCH  45  46
HETATM   46  C   UNK     0      -9.566 -25.742  -0.363  0.00  0.00     0.114 C 
BRANCH  46  47
HETATM   47  C   UNK     0      -8.381 -26.345  -1.039  0.00  0.00     0.139 C 
HETATM   48  O   UNK     0      -8.031 -25.890  -2.136  0.00  0.00    -0.650 OA
BRANCH  47  49
HETATM   49  O   UNK     0      -7.694 -27.382  -0.460  0.00  0.00    -0.776 OA
HETATM   50  H   UNK     0      -8.056 -28.343  -0.460  0.00  0.00     0.167 HD
ENDBRANCH  47  49
ENDBRANCH  46  47
ENDBRANCH  45  46
ENDBRANCH  11  45
BRANCH  18  51
HETATM   51  C   UNK     0      -6.560 -19.863   4.005  0.00  0.00     0.051 C 
BRANCH  51  52
HETATM   52  C   UNK     0      -6.258 -19.096   2.726  0.00  0.00     0.114 C 
BRANCH  52  53
HETATM   53  C   UNK     0      -5.856 -17.703   3.002  0.00  0.00     0.139 C 
HETATM   54  O   UNK     0      -4.948 -17.176   2.340  0.00  0.00    -0.650 OA
BRANCH  53  55
HETATM   55  O   UNK     0      -6.489 -16.997   3.996  0.00  0.00    -0.776 OA
HETATM   56  H   UNK     0      -7.444 -16.726   4.001  0.00  0.00     0.167 HD
ENDBRANCH  53  55
ENDBRANCH  52  53
ENDBRANCH  51  52
ENDBRANCH  18  51
TORSDOF 16
ENDMDL
MODEL 16
REMARK VINA RESULT:      -7.9     30.626     33.757
REMARK  16 active torsions:
REMARK  status: ('A' for Active; 'I' for Inactive)
REMARK    1  A    between atoms: C_6  and  C_7 
REMARK    2  A    between atoms: C_7  and  C_8 
REMARK    3  A    between atoms: C_8  and  C_9 
REMARK    4  A    between atoms: C_9  and  O_11 
REMARK    5  A    between atoms: C_16  and  C_17 
REMARK    6  A    between atoms: C_17  and  C_18 
REMARK    7  A    between atoms: C_18  and  C_19 
REMARK    8  A    between atoms: C_19  and  O_21 
REMARK    9  A    between atoms: C_28  and  C_29 
REMARK   10  A    between atoms: C_29  and  C_30 
REMARK   11  A    between atoms: C_30  and  C_31 
REMARK   12  A    between atoms: C_31  and  O_33 
REMARK   13  A    between atoms: C_42  and  C_43 
REMARK   14  A    between atoms: C_43  and  C_44 
REMARK   15  A    between atoms: C_44  and  C_45 
REMARK   16  A    between atoms: C_45  and  O_47 
ROOT
HETATM    1  C   UNK     0      -6.733 -23.609   1.743  0.00  0.00     0.051 C 
HETATM    2  C   UNK     0      -8.228 -23.372   1.798  0.00  0.00    -0.031 A 
HETATM    3  C   UNK     0      -8.979 -22.708   2.755  0.00  0.00     0.021 A 
HETATM    4  N   UNK     0     -10.288 -22.769   2.410  0.00  0.00    -0.361 N 
HETATM    5  C   UNK     0     -10.385 -23.450   1.249  0.00  0.00     0.022 A 
HETATM    6  C   UNK     0      -9.116 -23.844   0.840  0.00  0.00    -0.027 A 
HETATM    7  C   UNK     0     -11.589 -23.715   0.400  0.00  0.00     0.115 C 
HETATM    8  C   UNK     0     -12.552 -22.557   0.203  0.00  0.00     0.021 A 
HETATM    9  N   UNK     0     -12.275 -21.249   0.086  0.00  0.00    -0.361 N 
HETATM   10  C   UNK     0     -13.444 -20.577   0.021  0.00  0.00     0.022 A 
HETATM   11  C   UNK     0     -14.503 -21.478   0.087  0.00  0.00    -0.027 A 
HETATM   12  C   UNK     0     -13.948 -22.727   0.202  0.00  0.00    -0.031 A 
HETATM   13  C   UNK     0     -14.723 -24.022   0.300  0.00  0.00     0.051 C 
HETATM   14  C   UNK     0     -13.610 -19.062  -0.053  0.00  0.00     0.115 C 
HETATM   15  C   UNK     0     -13.037 -18.321   1.143  0.00  0.00     0.021 A 
HETATM   16  N   UNK     0     -11.767 -18.337   1.588  0.00  0.00    -0.361 N 
HETATM   17  C   UNK     0     -11.684 -17.612   2.706  0.00  0.00     0.022 A 
HETATM   18  C   UNK     0     -12.960 -17.090   2.998  0.00  0.00    -0.027 A 
HETATM   19  C   UNK     0     -13.798 -17.540   2.011  0.00  0.00    -0.031 A 
HETATM   20  C   UNK     0     -15.269 -17.179   1.924  0.00  0.00     0.051 C 
HETATM   21  C   UNK     0     -10.508 -17.375   3.626  0.00  0.00     0.115 C 
HETATM   22  C   UNK     0      -9.517 -18.503   3.797  0.00  0.00     0.022 A 
HETATM   23  N   UNK     0      -9.765 -19.815   3.911  0.00  0.00    -0.361 N 
HETATM   24  C   UNK     0      -8.587 -20.470   3.897  0.00  0.00     0.021 A 
HETATM   25  C   UNK     0      -7.555 -19.558   3.781  0.00  0.00    -0.031 A 
HETATM   26  C   UNK     0      -6.061 -19.806   3.761  0.00  0.00     0.051 C 
HETATM   27  C   UNK     0      -8.126 -18.292   3.715  0.00  0.00    -0.027 A 
HETATM   28  C   UNK     0      -8.359 -21.972   3.908  0.00  0.00     0.115 C 
HETATM   29  H   UNK     0     -11.136 -22.365   3.009  0.00  0.00     0.165 HD
HETATM   30  H   UNK     0     -11.255 -20.801   0.000  0.00  0.00     0.165 HD
HETATM   31  H   UNK     0     -10.899 -18.832   1.078  0.00  0.00     0.165 HD
HETATM   32  H   UNK     0     -10.772 -20.287   4.047  0.00  0.00     0.165 HD
ENDROOT
BRANCH   6  33
HETATM   33  C   UNK     0      -8.689 -24.627  -0.376  0.00  0.00     0.051 C 
BRANCH  33  34
HETATM   34  C   UNK     0      -8.639 -26.105  -0.070  0.00  0.00     0.114 C 
BRANCH  34  35
HETATM   35  C   UNK     0      -9.816 -26.738  -0.732  0.00  0.00     0.139 C 
HETATM   36  O   UNK     0     -10.299 -26.235  -1.789  0.00  0.00    -0.650 OA
BRANCH  35  37
HETATM   37  O   UNK     0     -10.427 -27.884  -0.239  0.00  0.00    -0.776 OA
HETATM   38  H   UNK     0     -11.363 -28.146  -0.502  0.00  0.00     0.167 HD
ENDBRANCH  35  37
ENDBRANCH  34  35
ENDBRANCH  33  34
ENDBRANCH   6  33
BRANCH  27  39
HETATM   39  C   UNK     0      -7.321 -17.042   3.657  0.00  0.00     0.051 C 
BRANCH  39  40
HETATM   40  C   UNK     0      -7.221 -16.224   4.865  0.00  0.00     0.114 C 
BRANCH  40  41
HETATM   41  C   UNK     0      -7.733 -14.873   4.925  0.00  0.00     0.139 C 
HETATM   42  O   UNK     0      -8.940 -14.600   4.974  0.00  0.00    -0.650 OA
BRANCH  41  43
HETATM   43  O   UNK     0      -6.813 -13.786   4.928  0.00  0.00    -0.776 OA
HETATM   44  H   UNK     0      -7.236 -12.879   4.772  0.00  0.00     0.167 HD
ENDBRANCH  41  43
ENDBRANCH  40  41
ENDBRANCH  39  40
ENDBRANCH  27  39
BRANCH  11  45
HETATM   45  C   UNK     0     -15.982 -21.199   0.043  0.00  0.00     0.051 C 
BRANCH  45  46
HETATM   46  C   UNK     0     -16.588 -20.933   1.373  0.00  0.00     0.114 C 
BRANCH  46  47
HETATM   47  C   UNK     0     -17.732 -20.001   1.159  0.00  0.00     0.139 C 
HETATM   48  O   UNK     0     -18.448 -19.710   2.127  0.00  0.00    -0.650 OA
BRANCH  47  49
HETATM   49  O   UNK     0     -17.988 -19.477  -0.083  0.00  0.00    -0.776 OA
HETATM   50  H   UNK     0     -18.888 -19.616  -0.558  0.00  0.00     0.167 HD
ENDBRANCH  47  49
ENDBRANCH  46  47
ENDBRANCH  45  46
ENDBRANCH  11  45
BRANCH  18  51
HETATM   51  C   UNK     0     -13.354 -16.194   4.144  0.00  0.00     0.051 C 
BRANCH  51  52
HETATM   52  C   UNK     0     -13.780 -17.115   5.278  0.00  0.00     0.114 C 
BRANCH  52  53
HETATM   53  C   UNK     0     -12.957 -16.914   6.487  0.00  0.00     0.139 C 
HETATM   54  O   UNK     0     -13.162 -17.602   7.499  0.00  0.00    -0.650 OA
BRANCH  53  55
HETATM   55  O   UNK     0     -11.968 -15.960   6.485  0.00  0.00    -0.776 OA
HETATM   56  H   UNK     0     -12.094 -14.988   6.646  0.00  0.00     0.167 HD
ENDBRANCH  53  55
ENDBRANCH  52  53
ENDBRANCH  51  52
ENDBRANCH  18  51
TORSDOF 16
ENDMDL
MODEL 17
REMARK VINA RESULT:      -7.9     30.214     32.639
REMARK  16 active torsions:
REMARK  status: ('A' for Active; 'I' for Inactive)
REMARK    1  A    between atoms: C_6  and  C_7 
REMARK    2  A    between atoms: C_7  and  C_8 
REMARK    3  A    between atoms: C_8  and  C_9 
REMARK    4  A    between atoms: C_9  and  O_11 
REMARK    5  A    between atoms: C_16  and  C_17 
REMARK    6  A    between atoms: C_17  and  C_18 
REMARK    7  A    between atoms: C_18  and  C_19 
REMARK    8  A    between atoms: C_19  and  O_21 
REMARK    9  A    between atoms: C_28  and  C_29 
REMARK   10  A    between atoms: C_29  and  C_30 
REMARK   11  A    between atoms: C_30  and  C_31 
REMARK   12  A    between atoms: C_31  and  O_33 
REMARK   13  A    between atoms: C_42  and  C_43 
REMARK   14  A    between atoms: C_43  and  C_44 
REMARK   15  A    between atoms: C_44  and  C_45 
REMARK   16  A    between atoms: C_45  and  O_47 
ROOT
HETATM    1  C   UNK     0       9.218  -5.998 -25.152  0.00  0.00     0.051 C 
HETATM    2  C   UNK     0       8.854  -5.170 -26.367  0.00  0.00    -0.031 A 
HETATM    3  C   UNK     0       7.926  -4.148 -26.490  0.00  0.00     0.021 A 
HETATM    4  N   UNK     0       7.914  -3.714 -27.773  0.00  0.00    -0.361 N 
HETATM    5  C   UNK     0       8.819  -4.432 -28.468  0.00  0.00     0.022 A 
HETATM    6  C   UNK     0       9.424  -5.354 -27.620  0.00  0.00    -0.027 A 
HETATM    7  C   UNK     0       9.259  -4.287 -29.892  0.00  0.00     0.115 C 
HETATM    8  C   UNK     0       9.480  -2.872 -30.396  0.00  0.00     0.021 A 
HETATM    9  N   UNK     0       9.967  -1.814 -29.731  0.00  0.00    -0.361 N 
HETATM   10  C   UNK     0       9.899  -0.739 -30.545  0.00  0.00     0.022 A 
HETATM   11  C   UNK     0       9.363  -1.118 -31.772  0.00  0.00    -0.027 A 
HETATM   12  C   UNK     0       9.096  -2.460 -31.685  0.00  0.00    -0.031 A 
HETATM   13  C   UNK     0       8.507  -3.307 -32.791  0.00  0.00     0.051 C 
HETATM   14  C   UNK     0      10.286   0.692 -30.182  0.00  0.00     0.115 C 
HETATM   15  C   UNK     0       9.477   1.277 -29.035  0.00  0.00     0.021 A 
HETATM   16  N   UNK     0       9.368   0.801 -27.781  0.00  0.00    -0.361 N 
HETATM   17  C   UNK     0       8.510   1.560 -27.097  0.00  0.00     0.022 A 
HETATM   18  C   UNK     0       8.044   2.586 -27.943  0.00  0.00    -0.027 A 
HETATM   19  C   UNK     0       8.659   2.398 -29.154  0.00  0.00    -0.031 A 
HETATM   20  C   UNK     0       8.463   3.311 -30.350  0.00  0.00     0.051 C 
HETATM   21  C   UNK     0       7.991   1.409 -25.685  0.00  0.00     0.115 C 
HETATM   22  C   UNK     0       7.808   0.007 -25.154  0.00  0.00     0.022 A 
HETATM   23  N   UNK     0       7.330  -1.067 -25.796  0.00  0.00    -0.361 N 
HETATM   24  C   UNK     0       7.479  -2.141 -24.994  0.00  0.00     0.021 A 
HETATM   25  C   UNK     0       8.058  -1.747 -23.803  0.00  0.00    -0.031 A 
HETATM   26  C   UNK     0       8.385  -2.579 -22.581  0.00  0.00     0.051 C 
HETATM   27  C   UNK     0       8.278  -0.376 -23.882  0.00  0.00    -0.027 A 
HETATM   28  C   UNK     0       7.169  -3.592 -25.317  0.00  0.00     0.115 C 
HETATM   29  H   UNK     0       7.237  -2.931 -28.187  0.00  0.00     0.165 HD
HETATM   30  H   UNK     0      10.405  -1.832 -28.703  0.00  0.00     0.165 HD
HETATM   31  H   UNK     0       9.945  -0.061 -27.354  0.00  0.00     0.165 HD
HETATM   32  H   UNK     0       6.842  -1.070 -26.805  0.00  0.00     0.165 HD
ENDROOT
BRANCH   6  33
HETATM   33  C   UNK     0      10.487  -6.384 -27.907  0.00  0.00     0.051 C 
BRANCH  33  34
HETATM   34  C   UNK     0       9.911  -7.544 -28.684  0.00  0.00     0.114 C 
BRANCH  34  35
HETATM   35  C   UNK     0       9.262  -8.461 -27.704  0.00  0.00     0.139 C 
HETATM   36  O   UNK     0       8.005  -8.608 -27.705  0.00  0.00    -0.650 OA
BRANCH  35  37
HETATM   37  O   UNK     0       9.983  -9.185 -26.763  0.00  0.00    -0.776 OA
HETATM   38  H   UNK     0      10.981  -9.087 -26.663  0.00  0.00     0.167 HD
ENDBRANCH  35  37
ENDBRANCH  34  35
ENDBRANCH  33  34
ENDBRANCH   6  33
BRANCH  27  39
HETATM   39  C   UNK     0       8.826   0.423 -22.753  0.00  0.00     0.051 C 
BRANCH  39  40
HETATM   40  C   UNK     0      10.204   0.904 -22.848  0.00  0.00     0.114 C 
BRANCH  40  41
HETATM   41  C   UNK     0      11.160   0.328 -23.768  0.00  0.00     0.139 C 
HETATM   42  O   UNK     0      11.841  -0.673 -23.508  0.00  0.00    -0.650 OA
BRANCH  41  43
HETATM   43  O   UNK     0      11.339   0.931 -25.045  0.00  0.00    -0.776 OA
HETATM   44  H   UNK     0      11.868   0.371 -25.703  0.00  0.00     0.167 HD
ENDBRANCH  41  43
ENDBRANCH  40  41
ENDBRANCH  39  40
ENDBRANCH  27  39
BRANCH  11  45
HETATM   45  C   UNK     0       9.105  -0.270 -32.989  0.00  0.00     0.051 C 
BRANCH  45  46
HETATM   46  C   UNK     0       7.804   0.445 -32.965  0.00  0.00     0.114 C 
BRANCH  46  47
HETATM   47  C   UNK     0       7.311   0.512 -34.371  0.00  0.00     0.139 C 
HETATM   48  O   UNK     0       7.656  -0.377 -35.163  0.00  0.00    -0.650 OA
BRANCH  47  49
HETATM   49  O   UNK     0       6.495   1.536 -34.782  0.00  0.00    -0.776 OA
HETATM   50  H   UNK     0       6.807   2.514 -34.785  0.00  0.00     0.167 HD
ENDBRANCH  47  49
ENDBRANCH  46  47
ENDBRANCH  45  46
ENDBRANCH  11  45
BRANCH  18  51
HETATM   51  C   UNK     0       7.082   3.696 -27.610  0.00  0.00     0.051 C 
BRANCH  51  52
HETATM   52  C   UNK     0       5.694   3.174 -27.950  0.00  0.00     0.114 C 
BRANCH  52  53
HETATM   53  C   UNK     0       4.761   3.315 -26.815  0.00  0.00     0.139 C 
HETATM   54  O   UNK     0       5.201   3.448 -25.662  0.00  0.00    -0.650 OA
BRANCH  53  55
HETATM   55  O   UNK     0       3.406   3.293 -27.043  0.00  0.00    -0.776 OA
HETATM   56  H   UNK     0       2.918   2.631 -27.598  0.00  0.00     0.167 HD
ENDBRANCH  53  55
ENDBRANCH  52  53
ENDBRANCH  51  52
ENDBRANCH  18  51
TORSDOF 16
ENDMDL
MODEL 18
REMARK VINA RESULT:      -7.8     28.569     31.307
REMARK  16 active torsions:
REMARK  status: ('A' for Active; 'I' for Inactive)
REMARK    1  A    between atoms: C_6  and  C_7 
REMARK    2  A    between atoms: C_7  and  C_8 
REMARK    3  A    between atoms: C_8  and  C_9 
REMARK    4  A    between atoms: C_9  and  O_11 
REMARK    5  A    between atoms: C_16  and  C_17 
REMARK    6  A    between atoms: C_17  and  C_18 
REMARK    7  A    between atoms: C_18  and  C_19 
REMARK    8  A    between atoms: C_19  and  O_21 
REMARK    9  A    between atoms: C_28  and  C_29 
REMARK   10  A    between atoms: C_29  and  C_30 
REMARK   11  A    between atoms: C_30  and  C_31 
REMARK   12  A    between atoms: C_31  and  O_33 
REMARK   13  A    between atoms: C_42  and  C_43 
REMARK   14  A    between atoms: C_43  and  C_44 
REMARK   15  A    between atoms: C_44  and  C_45 
REMARK   16  A    between atoms: C_45  and  O_47 
ROOT
HETATM    1  C   UNK     0      -9.274 -22.278   2.711  0.00  0.00     0.051 C 
HETATM    2  C   UNK     0      -9.561 -23.060   1.445  0.00  0.00    -0.031 A 
HETATM    3  C   UNK     0     -10.776 -23.327   0.832  0.00  0.00     0.021 A 
HETATM    4  N   UNK     0     -10.558 -24.092  -0.264  0.00  0.00    -0.361 N 
HETATM    5  C   UNK     0      -9.231 -24.311  -0.368  0.00  0.00     0.022 A 
HETATM    6  C   UNK     0      -8.578 -23.682   0.687  0.00  0.00    -0.027 A 
HETATM    7  C   UNK     0      -8.463 -25.013  -1.444  0.00  0.00     0.115 C 
HETATM    8  C   UNK     0      -8.878 -24.722  -2.876  0.00  0.00     0.021 A 
HETATM    9  N   UNK     0      -9.318 -23.569  -3.402  0.00  0.00    -0.361 N 
HETATM   10  C   UNK     0      -9.657 -23.797  -4.689  0.00  0.00     0.022 A 
HETATM   11  C   UNK     0      -9.420 -25.132  -5.003  0.00  0.00    -0.027 A 
HETATM   12  C   UNK     0      -8.929 -25.721  -3.866  0.00  0.00    -0.031 A 
HETATM   13  C   UNK     0      -8.524 -27.172  -3.738  0.00  0.00     0.051 C 
HETATM   14  C   UNK     0     -10.265 -22.783  -5.654  0.00  0.00     0.115 C 
HETATM   15  C   UNK     0     -11.608 -22.232  -5.202  0.00  0.00     0.021 A 
HETATM   16  N   UNK     0     -11.885 -21.576  -4.060  0.00  0.00    -0.361 N 
HETATM   17  C   UNK     0     -13.194 -21.321  -4.006  0.00  0.00     0.022 A 
HETATM   18  C   UNK     0     -13.798 -21.828  -5.174  0.00  0.00    -0.027 A 
HETATM   19  C   UNK     0     -12.794 -22.395  -5.915  0.00  0.00    -0.031 A 
HETATM   20  C   UNK     0     -13.006 -23.031  -7.277  0.00  0.00     0.051 C 
HETATM   21  C   UNK     0     -14.015 -20.678  -2.912  0.00  0.00     0.115 C 
HETATM   22  C   UNK     0     -13.587 -20.922  -1.484  0.00  0.00     0.022 A 
HETATM   23  N   UNK     0     -13.141 -22.059  -0.934  0.00  0.00    -0.361 N 
HETATM   24  C   UNK     0     -12.737 -21.790   0.324  0.00  0.00     0.021 A 
HETATM   25  C   UNK     0     -12.936 -20.450   0.594  0.00  0.00    -0.031 A 
HETATM   26  C   UNK     0     -12.676 -19.687   1.876  0.00  0.00     0.051 C 
HETATM   27  C   UNK     0     -13.480 -19.873  -0.548  0.00  0.00    -0.027 A 
HETATM   28  C   UNK     0     -12.073 -22.737   1.309  0.00  0.00     0.115 C 
HETATM   29  H   UNK     0     -11.347 -24.504  -0.934  0.00  0.00     0.165 HD
HETATM   30  H   UNK     0      -9.343 -22.580  -2.882  0.00  0.00     0.165 HD
HETATM   31  H   UNK     0     -11.134 -21.242  -3.297  0.00  0.00     0.165 HD
HETATM   32  H   UNK     0     -13.149 -23.072  -1.414  0.00  0.00     0.165 HD
ENDROOT
BRANCH   6  33
HETATM   33  C   UNK     0      -7.110 -23.631   1.026  0.00  0.00     0.051 C 
BRANCH  33  34
HETATM   34  C   UNK     0      -6.736 -24.757   1.960  0.00  0.00     0.114 C 
BRANCH  34  35
HETATM   35  C   UNK     0      -5.484 -25.375   1.436  0.00  0.00     0.139 C 
HETATM   36  O   UNK     0      -5.536 -26.444   0.761  0.00  0.00    -0.650 OA
BRANCH  35  37
HETATM   37  O   UNK     0      -4.228 -24.823   1.652  0.00  0.00    -0.776 OA
HETATM   38  H   UNK     0      -3.412 -25.393   1.806  0.00  0.00     0.167 HD
ENDBRANCH  35  37
ENDBRANCH  34  35
ENDBRANCH  33  34
ENDBRANCH   6  33
BRANCH  27  39
HETATM   39  C   UNK     0     -13.899 -18.447  -0.615  0.00  0.00     0.051 C 
BRANCH  39  40
HETATM   40  C   UNK     0     -13.225 -17.569  -1.570  0.00  0.00     0.114 C 
BRANCH  40  41
HETATM   41  C   UNK     0     -12.144 -16.692  -1.181  0.00  0.00     0.139 C 
HETATM   42  O   UNK     0     -11.814 -16.494  -0.004  0.00  0.00    -0.650 OA
BRANCH  41  43
HETATM   43  O   UNK     0     -11.408 -16.011  -2.192  0.00  0.00    -0.776 OA
HETATM   44  H   UNK     0     -11.667 -16.261  -3.139  0.00  0.00     0.167 HD
ENDBRANCH  41  43
ENDBRANCH  40  41
ENDBRANCH  39  40
ENDBRANCH  27  39
BRANCH  11  45
HETATM   45  C   UNK     0      -9.636 -25.844  -6.311  0.00  0.00     0.051 C 
BRANCH  45  46
HETATM   46  C   UNK     0      -8.665 -25.472  -7.371  0.00  0.00     0.114 C 
BRANCH  46  47
HETATM   47  C   UNK     0      -7.342 -26.034  -6.975  0.00  0.00     0.139 C 
HETATM   48  O   UNK     0      -7.208 -27.265  -6.938  0.00  0.00    -0.650 OA
BRANCH  47  49
HETATM   49  O   UNK     0      -6.295 -25.207  -6.655  0.00  0.00    -0.776 OA
HETATM   50  H   UNK     0      -6.382 -24.184  -6.675  0.00  0.00     0.167 HD
ENDBRANCH  47  49
ENDBRANCH  46  47
ENDBRANCH  45  46
ENDBRANCH  11  45
BRANCH  18  51
HETATM   51  C   UNK     0     -15.250 -21.757  -5.572  0.00  0.00     0.051 C 
BRANCH  51  52
HETATM   52  C   UNK     0     -15.927 -22.958  -4.929  0.00  0.00     0.114 C 
BRANCH  52  53
HETATM   53  C   UNK     0     -16.411 -23.921  -5.937  0.00  0.00     0.139 C 
HETATM   54  O   UNK     0     -16.717 -25.075  -5.598  0.00  0.00    -0.650 OA
BRANCH  53  55
HETATM   55  O   UNK     0     -16.516 -23.534  -7.251  0.00  0.00    -0.776 OA
HETATM   56  H   UNK     0     -15.764 -23.422  -7.889  0.00  0.00     0.167 HD
ENDBRANCH  53  55
ENDBRANCH  52  53
ENDBRANCH  51  52
ENDBRANCH  18  51
TORSDOF 16
ENDMDL
MODEL 19
REMARK VINA RESULT:      -7.8     30.950     35.609
REMARK  16 active torsions:
REMARK  status: ('A' for Active; 'I' for Inactive)
REMARK    1  A    between atoms: C_6  and  C_7 
REMARK    2  A    between atoms: C_7  and  C_8 
REMARK    3  A    between atoms: C_8  and  C_9 
REMARK    4  A    between atoms: C_9  and  O_11 
REMARK    5  A    between atoms: C_16  and  C_17 
REMARK    6  A    between atoms: C_17  and  C_18 
REMARK    7  A    between atoms: C_18  and  C_19 
REMARK    8  A    between atoms: C_19  and  O_21 
REMARK    9  A    between atoms: C_28  and  C_29 
REMARK   10  A    between atoms: C_29  and  C_30 
REMARK   11  A    between atoms: C_30  and  C_31 
REMARK   12  A    between atoms: C_31  and  O_33 
REMARK   13  A    between atoms: C_42  and  C_43 
REMARK   14  A    between atoms: C_43  and  C_44 
REMARK   15  A    between atoms: C_44  and  C_45 
REMARK   16  A    between atoms: C_45  and  O_47 
ROOT
HETATM    1  C   UNK     0       7.370  -2.347 -25.171  0.00  0.00     0.051 C 
HETATM    2  C   UNK     0       8.331  -2.652 -24.040  0.00  0.00    -0.031 A 
HETATM    3  C   UNK     0       8.502  -3.826 -23.324  0.00  0.00     0.021 A 
HETATM    4  N   UNK     0       9.456  -3.634 -22.382  0.00  0.00    -0.361 N 
HETATM    5  C   UNK     0       9.903  -2.365 -22.489  0.00  0.00     0.022 A 
HETATM    6  C   UNK     0       9.219  -1.722 -23.515  0.00  0.00    -0.027 A 
HETATM    7  C   UNK     0      11.012  -1.682 -21.751  0.00  0.00     0.115 C 
HETATM    8  C   UNK     0      12.287  -2.480 -21.544  0.00  0.00     0.021 A 
HETATM    9  N   UNK     0      12.860  -3.369 -22.370  0.00  0.00    -0.361 N 
HETATM   10  C   UNK     0      13.927  -3.902 -21.737  0.00  0.00     0.022 A 
HETATM   11  C   UNK     0      14.049  -3.334 -20.473  0.00  0.00    -0.027 A 
HETATM   12  C   UNK     0      13.019  -2.438 -20.344  0.00  0.00    -0.031 A 
HETATM   13  C   UNK     0      12.755  -1.578 -19.129  0.00  0.00     0.051 C 
HETATM   14  C   UNK     0      14.838  -5.001 -22.276  0.00  0.00     0.115 C 
HETATM   15  C   UNK     0      14.121  -6.309 -22.565  0.00  0.00     0.021 A 
HETATM   16  N   UNK     0      13.086  -6.512 -23.402  0.00  0.00    -0.361 N 
HETATM   17  C   UNK     0      12.698  -7.786 -23.320  0.00  0.00     0.022 A 
HETATM   18  C   UNK     0      13.525  -8.448 -22.391  0.00  0.00    -0.027 A 
HETATM   19  C   UNK     0      14.413  -7.513 -21.926  0.00  0.00    -0.031 A 
HETATM   20  C   UNK     0      15.513  -7.817 -20.926  0.00  0.00     0.051 C 
HETATM   21  C   UNK     0      11.547  -8.497 -23.994  0.00  0.00     0.115 C 
HETATM   22  C   UNK     0      10.287  -7.701 -24.247  0.00  0.00     0.022 A 
HETATM   23  N   UNK     0       9.696  -6.807 -23.444  0.00  0.00    -0.361 N 
HETATM   24  C   UNK     0       8.683  -6.233 -24.124  0.00  0.00     0.021 A 
HETATM   25  C   UNK     0       8.614  -6.778 -25.391  0.00  0.00    -0.031 A 
HETATM   26  C   UNK     0       7.625  -6.488 -26.501  0.00  0.00     0.051 C 
HETATM   27  C   UNK     0       9.631  -7.721 -25.494  0.00  0.00    -0.027 A 
HETATM   28  C   UNK     0       7.781  -5.099 -23.666  0.00  0.00     0.115 C 
HETATM   29  H   UNK     0       9.779  -4.383 -21.623  0.00  0.00     0.165 HD
HETATM   30  H   UNK     0      12.544  -3.586 -23.420  0.00  0.00     0.165 HD
HETATM   31  H   UNK     0      12.651  -5.752 -24.102  0.00  0.00     0.165 HD
HETATM   32  H   UNK     0       9.961  -6.604 -22.374  0.00  0.00     0.165 HD
ENDROOT
BRANCH   6  33
HETATM   33  C   UNK     0       9.341  -0.309 -24.025  0.00  0.00     0.051 C 
BRANCH  33  34
HETATM   34  C   UNK     0       8.427   0.618 -23.258  0.00  0.00     0.114 C 
BRANCH  34  35
HETATM   35  C   UNK     0       7.403   1.127 -24.214  0.00  0.00     0.139 C 
HETATM   36  O   UNK     0       7.701   1.306 -25.431  0.00  0.00    -0.650 OA
BRANCH  35  37
HETATM   37  O   UNK     0       6.101   1.422 -23.830  0.00  0.00    -0.776 OA
HETATM   38  H   UNK     0       5.438   0.703 -23.589  0.00  0.00     0.167 HD
ENDBRANCH  35  37
ENDBRANCH  34  35
ENDBRANCH  33  34
ENDBRANCH   6  33
BRANCH  27  39
HETATM   39  C   UNK     0       9.829  -8.572 -26.698  0.00  0.00     0.051 C 
BRANCH  39  40
HETATM   40  C   UNK     0      10.719  -8.086 -27.752  0.00  0.00     0.114 C 
BRANCH  40  41
HETATM   41  C   UNK     0      10.330  -8.074 -29.145  0.00  0.00     0.139 C 
HETATM   42  O   UNK     0       9.401  -7.387 -29.589  0.00  0.00    -0.650 OA
BRANCH  41  43
HETATM   43  O   UNK     0      11.043  -8.891 -30.068  0.00  0.00    -0.776 OA
HETATM   44  H   UNK     0      10.496  -9.201 -30.862  0.00  0.00     0.167 HD
ENDBRANCH  41  43
ENDBRANCH  40  41
ENDBRANCH  39  40
ENDBRANCH  27  39
BRANCH  11  45
HETATM   45  C   UNK     0      15.085  -3.606 -19.414  0.00  0.00     0.051 C 
BRANCH  45  46
HETATM   46  C   UNK     0      14.644  -4.562 -18.367  0.00  0.00     0.114 C 
BRANCH  46  47
HETATM   47  C   UNK     0      15.857  -5.291 -17.896  0.00  0.00     0.139 C 
HETATM   48  O   UNK     0      15.802  -6.523 -17.785  0.00  0.00    -0.650 OA
BRANCH  47  49
HETATM   49  O   UNK     0      17.009  -4.612 -17.589  0.00  0.00    -0.776 OA
HETATM   50  H   UNK     0      17.939  -4.994 -17.798  0.00  0.00     0.167 HD
ENDBRANCH  47  49
ENDBRANCH  46  47
ENDBRANCH  45  46
ENDBRANCH  11  45
BRANCH  18  51
HETATM   51  C   UNK     0      13.485  -9.899 -21.984  0.00  0.00     0.051 C 
BRANCH  51  52
HETATM   52  C   UNK     0      13.843 -10.700 -23.227  0.00  0.00     0.114 C 
BRANCH  52  53
HETATM   53  C   UNK     0      13.004 -11.906 -23.363  0.00  0.00     0.139 C 
HETATM   54  O   UNK     0      12.587 -12.251 -24.481  0.00  0.00    -0.650 OA
BRANCH  53  55
HETATM   55  O   UNK     0      12.686 -12.642 -22.248  0.00  0.00    -0.776 OA
HETATM   56  H   UNK     0      13.296 -13.252 -21.757  0.00  0.00     0.167 HD
ENDBRANCH  53  55
ENDBRANCH  52  53
ENDBRANCH  51  52
ENDBRANCH  18  51
TORSDOF 16
ENDMDL
MODEL 20
REMARK VINA RESULT:      -7.7     30.443     33.742
REMARK  16 active torsions:
REMARK  status: ('A' for Active; 'I' for Inactive)
REMARK    1  A    between atoms: C_6  and  C_7 
REMARK    2  A    between atoms: C_7  and  C_8 
REMARK    3  A    between atoms: C_8  and  C_9 
REMARK    4  A    between atoms: C_9  and  O_11 
REMARK    5  A    between atoms: C_16  and  C_17 
REMARK    6  A    between atoms: C_17  and  C_18 
REMARK    7  A    between atoms: C_18  and  C_19 
REMARK    8  A    between atoms: C_19  and  O_21 
REMARK    9  A    between atoms: C_28  and  C_29 
REMARK   10  A    between atoms: C_29  and  C_30 
REMARK   11  A    between atoms: C_30  and  C_31 
REMARK   12  A    between atoms: C_31  and  O_33 
REMARK   13  A    between atoms: C_42  and  C_43 
REMARK   14  A    between atoms: C_43  and  C_44 
REMARK   15  A    between atoms: C_44  and  C_45 
REMARK   16  A    between atoms: C_45  and  O_47 
ROOT
HETATM    1  C   UNK     0      -9.306 -24.048  -1.208  0.00  0.00     0.051 C 
HETATM    2  C   UNK     0     -10.477 -23.378  -0.519  0.00  0.00    -0.031 A 
HETATM    3  C   UNK     0     -10.722 -23.208   0.834  0.00  0.00     0.021 A 
HETATM    4  N   UNK     0     -11.911 -22.579   0.992  0.00  0.00    -0.361 N 
HETATM    5  C   UNK     0     -12.424 -22.336  -0.231  0.00  0.00     0.022 A 
HETATM    6  C   UNK     0     -11.555 -22.826  -1.200  0.00  0.00    -0.027 A 
HETATM    7  C   UNK     0     -13.663 -21.587  -0.612  0.00  0.00     0.115 C 
HETATM    8  C   UNK     0     -13.938 -20.297   0.140  0.00  0.00     0.021 A 
HETATM    9  N   UNK     0     -13.059 -19.388   0.590  0.00  0.00    -0.361 N 
HETATM   10  C   UNK     0     -13.742 -18.451   1.281  0.00  0.00     0.022 A 
HETATM   11  C   UNK     0     -15.099 -18.759   1.267  0.00  0.00    -0.027 A 
HETATM   12  C   UNK     0     -15.230 -19.920   0.549  0.00  0.00    -0.031 A 
HETATM   13  C   UNK     0     -16.534 -20.631   0.267  0.00  0.00     0.051 C 
HETATM   14  C   UNK     0     -13.140 -17.261   2.023  0.00  0.00     0.115 C 
HETATM   15  C   UNK     0     -12.182 -17.652   3.137  0.00  0.00     0.021 A 
HETATM   16  N   UNK     0     -11.056 -18.383   3.034  0.00  0.00    -0.361 N 
HETATM   17  C   UNK     0     -10.537 -18.563   4.251  0.00  0.00     0.022 A 
HETATM   18  C   UNK     0     -11.359 -17.909   5.191  0.00  0.00    -0.027 A 
HETATM   19  C   UNK     0     -12.384 -17.341   4.480  0.00  0.00    -0.031 A 
HETATM   20  C   UNK     0     -13.484 -16.506   5.109  0.00  0.00     0.051 C 
HETATM   21  C   UNK     0      -9.330 -19.364   4.684  0.00  0.00     0.115 C 
HETATM   22  C   UNK     0      -9.020 -20.627   3.916  0.00  0.00     0.022 A 
HETATM   23  N   UNK     0      -9.875 -21.548   3.452  0.00  0.00    -0.361 N 
HETATM   24  C   UNK     0      -9.182 -22.429   2.702  0.00  0.00     0.021 A 
HETATM   25  C   UNK     0      -7.847 -22.073   2.692  0.00  0.00    -0.031 A 
HETATM   26  C   UNK     0      -6.680 -22.772   2.026  0.00  0.00     0.051 C 
HETATM   27  C   UNK     0      -7.718 -20.923   3.462  0.00  0.00    -0.027 A 
HETATM   28  C   UNK     0      -9.729 -23.593   1.894  0.00  0.00     0.115 C 
HETATM   29  H   UNK     0     -12.397 -22.346   1.968  0.00  0.00     0.165 HD
HETATM   30  H   UNK     0     -11.961 -19.379   0.380  0.00  0.00     0.165 HD
HETATM   31  H   UNK     0     -10.592 -18.740   2.078  0.00  0.00     0.165 HD
HETATM   32  H   UNK     0     -10.970 -21.609   3.685  0.00  0.00     0.165 HD
ENDROOT
BRANCH   6  33
HETATM   33  C   UNK     0     -11.669 -22.811  -2.703  0.00  0.00     0.051 C 
BRANCH  33  34
HETATM   34  C   UNK     0     -12.487 -23.983  -3.189  0.00  0.00     0.114 C 
BRANCH  34  35
HETATM   35  C   UNK     0     -11.614 -24.798  -4.082  0.00  0.00     0.139 C 
HETATM   36  O   UNK     0     -11.950 -25.975  -4.401  0.00  0.00    -0.650 OA
BRANCH  35  37
HETATM   37  O   UNK     0     -10.418 -24.318  -4.601  0.00  0.00    -0.776 OA
HETATM   38  H   UNK     0      -9.624 -24.919  -4.758  0.00  0.00     0.167 HD
ENDBRANCH  35  37
ENDBRANCH  34  35
ENDBRANCH  33  34
ENDBRANCH   6  33
BRANCH  27  39
HETATM   39  C   UNK     0      -6.407 -20.279   3.744  0.00  0.00     0.051 C 
BRANCH  39  40
HETATM   40  C   UNK     0      -5.940 -19.229   2.839  0.00  0.00     0.114 C 
BRANCH  40  41
HETATM   41  C   UNK     0      -6.586 -17.938   2.759  0.00  0.00     0.139 C 
HETATM   42  O   UNK     0      -6.248 -16.962   3.443  0.00  0.00    -0.650 OA
BRANCH  41  43
HETATM   43  O   UNK     0      -7.668 -17.761   1.852  0.00  0.00    -0.776 OA
HETATM   44  H   UNK     0      -7.837 -18.551   1.241  0.00  0.00     0.167 HD
ENDBRANCH  41  43
ENDBRANCH  40  41
ENDBRANCH  39  40
ENDBRANCH  27  39
BRANCH  11  45
HETATM   45  C   UNK     0     -16.242 -18.005   1.892  0.00  0.00     0.051 C 
BRANCH  45  46
HETATM   46  C   UNK     0     -16.248 -18.036   3.377  0.00  0.00     0.114 C 
BRANCH  46  47
HETATM   47  C   UNK     0     -17.649 -18.308   3.807  0.00  0.00     0.139 C 
HETATM   48  O   UNK     0     -17.861 -18.584   4.997  0.00  0.00    -0.650 OA
BRANCH  47  49
HETATM   49  O   UNK     0     -18.684 -18.256   2.907  0.00  0.00    -0.776 OA
HETATM   50  H   UNK     0     -18.534 -18.365   1.897  0.00  0.00     0.167 HD
ENDBRANCH  47  49
ENDBRANCH  46  47
ENDBRANCH  45  46
ENDBRANCH  11  45
BRANCH  18  51
HETATM   51  C   UNK     0     -11.165 -17.813   6.682  0.00  0.00     0.051 C 
BRANCH  51  52
HETATM   52  C   UNK     0     -11.976 -18.947   7.291  0.00  0.00     0.114 C 
BRANCH  52  53
HETATM   53  C   UNK     0     -12.578 -18.560   8.581  0.00  0.00     0.139 C 
HETATM   54  O   UNK     0     -13.812 -18.474   8.690  0.00  0.00    -0.650 OA
BRANCH  53  55
HETATM   55  O   UNK     0     -11.767 -18.293   9.657  0.00  0.00    -0.776 OA
HETATM   56  H   UNK     0     -11.748 -17.449  10.179  0.00  0.00     0.167 HD
ENDBRANCH  53  55
ENDBRANCH  52  53
ENDBRANCH  51  52
ENDBRANCH  18  51
TORSDOF 16
ENDMDL
