MODEL 1
REMARK VINA RESULT:      -8.7      0.000      0.000
REMARK  28 active torsions:
REMARK  status: ('A' for Active; 'I' for Inactive)
REMARK    1  A    between atoms: C_2  and  O_3 
REMARK    2  A    between atoms: C_2  and  C_4 
REMARK    3  A    between atoms: C_4  and  C_5 
REMARK    4  A    between atoms: C_5  and  C_6 
REMARK    5  A    between atoms: C_7  and  C_8 
REMARK    6  A    between atoms: C_8  and  C_9 
REMARK    7  A    between atoms: C_9  and  O_11 
REMARK    8  A    between atoms: C_28  and  C_29 
REMARK    9  A    between atoms: C_29  and  C_30 
REMARK   10  A    between atoms: C_30  and  O_32 
REMARK   11  A    between atoms: C_33  and  C_34 
REMARK   12  A    between atoms: C_34  and  C_35 
REMARK   13  A    between atoms: C_35  and  C_36 
REMARK   14  A    between atoms: C_36  and  O_38 
REMARK   15  A    between atoms: C_39  and  C_40 
REMARK   16  A    between atoms: C_40  and  C_41 
REMARK   17  A    between atoms: C_41  and  C_42 
REMARK   18  A    between atoms: C_42  and  O_44 
REMARK   19  A    between atoms: C_45  and  C_46 
REMARK   20  A    between atoms: C_46  and  C_47 
REMARK   21  A    between atoms: C_47  and  O_49 
REMARK   22  A    between atoms: C_50  and  C_51 
REMARK   23  A    between atoms: C_51  and  C_52 
REMARK   24  A    between atoms: C_52  and  O_54 
REMARK   25  A    between atoms: C_55  and  C_56 
REMARK   26  A    between atoms: C_56  and  C_57 
REMARK   27  A    between atoms: C_57  and  C_58 
REMARK   28  A    between atoms: C_58  and  O_60 
ROOT
ATOM      1  O   UNK d   0      22.570   7.145 -12.884  0.00  0.00    -0.650 OA
ATOM      2  C   UNK d   0      21.918   8.072 -12.354  0.00  0.00     0.139 C 
ENDROOT
BRANCH   2   3
ATOM      3  O   UNK d   0      22.357   8.612 -11.169  0.00  0.00    -0.776 OA
ATOM      4  H   UNK d   0      21.703   9.036 -10.508  0.00  0.00     0.167 HD
ENDBRANCH   2   3
BRANCH   2   5
ATOM      5  C   UNK d   0      20.677   8.581 -13.004  0.00  0.00     0.115 C 
BRANCH   5   6
ATOM      6  C   UNK d   0      19.966   7.460 -13.711  0.00  0.00     0.052 C 
BRANCH   6   7
ATOM      7  C   UNK d   0      19.490   6.384 -12.764  0.00  0.00    -0.020 A 
ATOM      8  C   UNK d   0      19.807   5.115 -12.774  0.00  0.00    -0.011 A 
ATOM      9  C   UNK d   0      19.099   4.471 -11.680  0.00  0.00     0.067 A 
ATOM     10  C   UNK d   0      19.021   3.174 -11.148  0.00  0.00     0.062 C 
ATOM     11  N   UNK d   0      18.370   5.422 -11.060  0.00  0.00    -0.248 NA
ATOM     12  C   UNK d   0      18.495   2.798  -9.907  0.00  0.00     0.041 A 
ATOM     13  N   UNK d   0      17.380   3.189  -9.262  0.00  0.00    -0.355 N 
ATOM     14  C   UNK d   0      19.220   1.898  -9.105  0.00  0.00    -0.022 A 
ATOM     15  C   UNK d   0      17.383   2.567  -8.068  0.00  0.00     0.042 A 
ATOM     16  H   UNK d   0      16.596   3.877  -9.650  0.00  0.00     0.166 HD
ATOM     17  C   UNK d   0      16.455   2.619  -7.008  0.00  0.00     0.062 C 
ATOM     18  C   UNK d   0      18.521   1.749  -7.933  0.00  0.00    -0.013 A 
ATOM     19  C   UNK d   0      15.836   3.712  -6.457  0.00  0.00     0.067 A 
ATOM     20  N   UNK d   0      15.955   4.869  -7.113  0.00  0.00    -0.248 NA
ATOM     21  C   UNK d   0      15.044   3.974  -5.267  0.00  0.00    -0.011 A 
ATOM     22  C   UNK d   0      15.299   5.869  -6.438  0.00  0.00     0.066 A 
ATOM     23  C   UNK d   0      15.310   7.123  -7.030  0.00  0.00     0.062 C 
ATOM     24  C   UNK d   0      14.736   5.239  -5.259  0.00  0.00    -0.020 A 
ATOM     25  C   UNK d   0      15.833   7.478  -8.284  0.00  0.00     0.041 A 
ATOM     26  N   UNK d   0      16.949   7.100  -8.919  0.00  0.00    -0.355 N 
ATOM     27  C   UNK d   0      15.103   8.378  -9.090  0.00  0.00    -0.022 A 
ATOM     28  C   UNK d   0      16.953   7.726 -10.106  0.00  0.00     0.042 A 
ATOM     29  H   UNK d   0      17.741   6.418  -8.523  0.00  0.00     0.166 HD
ATOM     30  C   UNK d   0      17.873   7.691 -11.166  0.00  0.00     0.062 C 
ATOM     31  C   UNK d   0      15.803   8.540 -10.245  0.00  0.00    -0.013 A 
ATOM     32  C   UNK d   0      18.562   6.596 -11.664  0.00  0.00     0.066 A 
BRANCH   8  33
ATOM     33  C   UNK d   0      20.712   4.436 -13.719  0.00  0.00     0.151 C 
BRANCH  33  34
ATOM     34  C   UNK d   0      21.677   3.548 -13.047  0.00  0.00     0.143 C 
ATOM     35  O   UNK d   0      22.540   4.006 -12.284  0.00  0.00    -0.650 OA
BRANCH  34  36
ATOM     36  O   UNK d   0      21.618   2.192 -13.272  0.00  0.00    -0.776 OA
ATOM     37  H   UNK d   0      22.468   1.645 -13.469  0.00  0.00     0.167 HD
ENDBRANCH  34  36
ENDBRANCH  33  34
ENDBRANCH   8  33
BRANCH  31  38
ATOM     38  C   UNK d   0      15.402   9.405 -11.417  0.00  0.00     0.151 C 
BRANCH  38  39
ATOM     39  C   UNK d   0      15.905  10.758 -11.315  0.00  0.00     0.143 C 
ATOM     40  O   UNK d   0      15.597  11.513 -10.375  0.00  0.00    -0.650 OA
BRANCH  39  41
ATOM     41  O   UNK d   0      16.766  11.247 -12.297  0.00  0.00    -0.776 OA
ATOM     42  H   UNK d   0      16.931  12.258 -12.305  0.00  0.00     0.167 HD
ENDBRANCH  39  41
ENDBRANCH  38  39
ENDBRANCH  31  38
BRANCH  27  43
ATOM     43  C   UNK d   0      13.795   9.074  -8.806  0.00  0.00     0.052 C 
BRANCH  43  44
ATOM     44  C   UNK d   0      12.611   8.168  -8.901  0.00  0.00     0.115 C 
BRANCH  44  45
ATOM     45  C   UNK d   0      12.234   8.111 -10.337  0.00  0.00     0.139 C 
ATOM     46  O   UNK d   0      11.642   9.102 -10.833  0.00  0.00    -0.650 OA
BRANCH  45  47
ATOM     47  O   UNK d   0      12.510   7.026 -11.140  0.00  0.00    -0.776 OA
ATOM     48  H   UNK d   0      11.823   6.279 -11.329  0.00  0.00     0.167 HD
ENDBRANCH  45  47
ENDBRANCH  44  45
ENDBRANCH  43  44
ENDBRANCH  27  43
BRANCH  24  49
ATOM     49  C   UNK d   0      13.909   5.926  -4.253  0.00  0.00     0.052 C 
BRANCH  49  50
ATOM     50  C   UNK d   0      14.784   6.631  -3.248  0.00  0.00     0.115 C 
BRANCH  50  51
ATOM     51  C   UNK d   0      14.312   6.673  -1.870  0.00  0.00     0.139 C 
ATOM     52  O   UNK d   0      13.176   6.266  -1.531  0.00  0.00    -0.650 OA
BRANCH  51  53
ATOM     53  O   UNK d   0      15.137   7.181  -0.878  0.00  0.00    -0.776 OA
ATOM     54  H   UNK d   0      15.716   7.972  -1.100  0.00  0.00     0.167 HD
ENDBRANCH  51  53
ENDBRANCH  50  51
ENDBRANCH  49  50
ENDBRANCH  24  49
BRANCH  21  55
ATOM     55  C   UNK d   0      14.673   2.932  -4.264  0.00  0.00     0.151 C 
BRANCH  55  56
ATOM     56  C   UNK d   0      13.249   2.574  -4.342  0.00  0.00     0.143 C 
ATOM     57  O   UNK d   0      12.554   2.343  -3.333  0.00  0.00    -0.650 OA
BRANCH  56  58
ATOM     58  O   UNK d   0      12.668   2.494  -5.607  0.00  0.00    -0.776 OA
ATOM     59  H   UNK d   0      13.197   1.929  -6.295  0.00  0.00     0.167 HD
ENDBRANCH  56  58
ENDBRANCH  55  56
ENDBRANCH  21  55
BRANCH  18  60
ATOM     60  C   UNK d   0      18.945   0.874  -6.779  0.00  0.00     0.151 C 
BRANCH  60  61
ATOM     61  C   UNK d   0      18.509  -0.488  -7.123  0.00  0.00     0.143 C 
ATOM     62  O   UNK d   0      17.536  -0.805  -7.808  0.00  0.00    -0.650 OA
BRANCH  61  63
ATOM     63  O   UNK d   0      19.313  -1.528  -6.598  0.00  0.00    -0.776 OA
ATOM     64  H   UNK d   0      20.310  -1.525  -6.721  0.00  0.00     0.167 HD
ENDBRANCH  61  63
ENDBRANCH  60  61
ENDBRANCH  18  60
BRANCH  14  65
ATOM     65  C   UNK d   0      20.459   1.100  -9.400  0.00  0.00     0.052 C 
BRANCH  65  66
ATOM     66  C   UNK d   0      20.278   0.137 -10.519  0.00  0.00     0.115 C 
BRANCH  66  67
ATOM     67  C   UNK d   0      21.397  -0.206 -11.351  0.00  0.00     0.139 C 
ATOM     68  O   UNK d   0      22.452   0.526 -11.292  0.00  0.00    -0.650 OA
BRANCH  67  69
ATOM     69  O   UNK d   0      21.498  -1.266 -12.251  0.00  0.00    -0.776 OA
ATOM     70  H   UNK d   0      20.926  -2.094 -12.033  0.00  0.00     0.167 HD
ENDBRANCH  67  69
ENDBRANCH  66  67
ENDBRANCH  65  66
ENDBRANCH  14  65
ENDBRANCH   6   7
ENDBRANCH   5   6
ENDBRANCH   2   5
TORSDOF 28
ENDMDL
MODEL 2
REMARK VINA RESULT:      -7.6     16.483     19.941
REMARK  28 active torsions:
REMARK  status: ('A' for Active; 'I' for Inactive)
REMARK    1  A    between atoms: C_2  and  O_3 
REMARK    2  A    between atoms: C_2  and  C_4 
REMARK    3  A    between atoms: C_4  and  C_5 
REMARK    4  A    between atoms: C_5  and  C_6 
REMARK    5  A    between atoms: C_7  and  C_8 
REMARK    6  A    between atoms: C_8  and  C_9 
REMARK    7  A    between atoms: C_9  and  O_11 
REMARK    8  A    between atoms: C_28  and  C_29 
REMARK    9  A    between atoms: C_29  and  C_30 
REMARK   10  A    between atoms: C_30  and  O_32 
REMARK   11  A    between atoms: C_33  and  C_34 
REMARK   12  A    between atoms: C_34  and  C_35 
REMARK   13  A    between atoms: C_35  and  C_36 
REMARK   14  A    between atoms: C_36  and  O_38 
REMARK   15  A    between atoms: C_39  and  C_40 
REMARK   16  A    between atoms: C_40  and  C_41 
REMARK   17  A    between atoms: C_41  and  C_42 
REMARK   18  A    between atoms: C_42  and  O_44 
REMARK   19  A    between atoms: C_45  and  C_46 
REMARK   20  A    between atoms: C_46  and  C_47 
REMARK   21  A    between atoms: C_47  and  O_49 
REMARK   22  A    between atoms: C_50  and  C_51 
REMARK   23  A    between atoms: C_51  and  C_52 
REMARK   24  A    between atoms: C_52  and  O_54 
REMARK   25  A    between atoms: C_55  and  C_56 
REMARK   26  A    between atoms: C_56  and  C_57 
REMARK   27  A    between atoms: C_57  and  C_58 
REMARK   28  A    between atoms: C_58  and  O_60 
ROOT
ATOM      1  O   UNK d   0      12.133 -11.328 -11.698  0.00  0.00    -0.650 OA
ATOM      2  C   UNK d   0      12.420 -10.135 -11.945  0.00  0.00     0.139 C 
ENDROOT
BRANCH   2   3
ATOM      3  O   UNK d   0      13.251  -9.451 -11.090  0.00  0.00    -0.776 OA
ATOM      4  H   UNK d   0      13.389  -9.763 -10.127  0.00  0.00     0.167 HD
ENDBRANCH   2   3
BRANCH   2   5
ATOM      5  C   UNK d   0      11.862  -9.466 -13.154  0.00  0.00     0.115 C 
BRANCH   5   6
ATOM      6  C   UNK d   0      10.891  -8.391 -12.750  0.00  0.00     0.052 C 
BRANCH   6   7
ATOM      7  C   UNK d   0       9.459  -8.871 -12.748  0.00  0.00    -0.020 A 
ATOM      8  C   UNK d   0       8.634  -8.925 -13.762  0.00  0.00    -0.011 A 
ATOM      9  C   UNK d   0       7.367  -9.446 -13.277  0.00  0.00     0.067 A 
ATOM     10  C   UNK d   0       6.119  -9.758 -13.839  0.00  0.00     0.062 C 
ATOM     11  N   UNK d   0       7.508  -9.676 -11.955  0.00  0.00    -0.248 NA
ATOM     12  C   UNK d   0       5.096 -10.519 -13.261  0.00  0.00     0.041 A 
ATOM     13  N   UNK d   0       4.598 -10.529 -12.010  0.00  0.00    -0.355 N 
ATOM     14  C   UNK d   0       4.461 -11.505 -14.037  0.00  0.00    -0.022 A 
ATOM     15  C   UNK d   0       3.668 -11.501 -11.970  0.00  0.00     0.042 A 
ATOM     16  H   UNK d   0       4.884  -9.849 -11.178  0.00  0.00     0.166 HD
ATOM     17  C   UNK d   0       2.844 -11.935 -10.912  0.00  0.00     0.062 C 
ATOM     18  C   UNK d   0       3.554 -12.136 -13.222  0.00  0.00    -0.013 A 
ATOM     19  C   UNK d   0       3.176 -12.173  -9.603  0.00  0.00     0.067 A 
ATOM     20  N   UNK d   0       4.383 -11.765  -9.201  0.00  0.00    -0.248 NA
ATOM     21  C   UNK d   0       2.536 -12.804  -8.461  0.00  0.00    -0.011 A 
ATOM     22  C   UNK d   0       4.578 -12.084  -7.879  0.00  0.00     0.066 A 
ATOM     23  C   UNK d   0       5.782 -11.682  -7.320  0.00  0.00     0.062 C 
ATOM     24  C   UNK d   0       3.363 -12.753  -7.457  0.00  0.00    -0.020 A 
ATOM     25  C   UNK d   0       6.791 -10.908  -7.913  0.00  0.00     0.041 A 
ATOM     26  N   UNK d   0       7.297 -10.908  -9.152  0.00  0.00    -0.355 N 
ATOM     27  C   UNK d   0       7.425  -9.915  -7.135  0.00  0.00    -0.022 A 
ATOM     28  C   UNK d   0       8.231  -9.945  -9.192  0.00  0.00     0.042 A 
ATOM     29  H   UNK d   0       7.016 -11.599  -9.985  0.00  0.00     0.166 HD
ATOM     30  C   UNK d   0       9.063  -9.509 -10.235  0.00  0.00     0.062 C 
ATOM     31  C   UNK d   0       8.337  -9.300  -7.937  0.00  0.00    -0.013 A 
ATOM     32  C   UNK d   0       8.744  -9.351 -11.575  0.00  0.00     0.066 A 
BRANCH   8  33
ATOM     33  C   UNK d   0       8.916  -8.529 -15.154  0.00  0.00     0.151 C 
BRANCH  33  34
ATOM     34  C   UNK d   0       8.475  -7.155 -15.456  0.00  0.00     0.143 C 
ATOM     35  O   UNK d   0       9.273  -6.207 -15.415  0.00  0.00    -0.650 OA
BRANCH  34  36
ATOM     36  O   UNK d   0       7.160  -6.925 -15.787  0.00  0.00    -0.776 OA
ATOM     37  H   UNK d   0       6.847  -6.925 -16.767  0.00  0.00     0.167 HD
ENDBRANCH  34  36
ENDBRANCH  33  34
ENDBRANCH   8  33
BRANCH  31  38
ATOM     38  C   UNK d   0       9.247  -8.161  -7.542  0.00  0.00     0.151 C 
BRANCH  38  39
ATOM     39  C   UNK d   0       8.647  -6.862  -7.760  0.00  0.00     0.143 C 
ATOM     40  O   UNK d   0       8.616  -5.986  -6.877  0.00  0.00    -0.650 OA
BRANCH  39  41
ATOM     41  O   UNK d   0       8.081  -6.567  -9.000  0.00  0.00    -0.776 OA
ATOM     42  H   UNK d   0       8.708  -6.587  -9.810  0.00  0.00     0.167 HD
ENDBRANCH  39  41
ENDBRANCH  38  39
ENDBRANCH  31  38
BRANCH  27  43
ATOM     43  C   UNK d   0       7.202  -9.541  -5.691  0.00  0.00     0.052 C 
BRANCH  43  44
ATOM     44  C   UNK d   0       6.023  -8.645  -5.489  0.00  0.00     0.115 C 
BRANCH  44  45
ATOM     45  C   UNK d   0       6.516  -7.456  -4.747  0.00  0.00     0.139 C 
ATOM     46  O   UNK d   0       7.556  -7.579  -4.054  0.00  0.00    -0.650 OA
BRANCH  45  47
ATOM     47  O   UNK d   0       5.886  -6.231  -4.795  0.00  0.00    -0.776 OA
ATOM     48  H   UNK d   0       6.361  -5.346  -4.554  0.00  0.00     0.167 HD
ENDBRANCH  45  47
ENDBRANCH  44  45
ENDBRANCH  43  44
ENDBRANCH  27  43
BRANCH  24  49
ATOM     49  C   UNK d   0       3.104 -13.242  -6.092  0.00  0.00     0.052 C 
BRANCH  49  50
ATOM     50  C   UNK d   0       3.640 -12.268  -5.074  0.00  0.00     0.115 C 
BRANCH  50  51
ATOM     51  C   UNK d   0       2.731 -11.231  -4.604  0.00  0.00     0.139 C 
ATOM     52  O   UNK d   0       1.712 -10.883  -5.246  0.00  0.00    -0.650 OA
BRANCH  51  53
ATOM     53  O   UNK d   0       2.986 -10.589  -3.402  0.00  0.00    -0.776 OA
ATOM     54  H   UNK d   0       3.836 -10.059  -3.317  0.00  0.00     0.167 HD
ENDBRANCH  51  53
ENDBRANCH  50  51
ENDBRANCH  49  50
ENDBRANCH  24  49
BRANCH  21  55
ATOM     55  C   UNK d   0       1.163 -13.389  -8.491  0.00  0.00     0.151 C 
BRANCH  55  56
ATOM     56  C   UNK d   0       0.144 -12.428  -8.040  0.00  0.00     0.143 C 
ATOM     57  O   UNK d   0      -0.514 -11.722  -8.829  0.00  0.00    -0.650 OA
BRANCH  56  58
ATOM     58  O   UNK d   0      -0.080 -12.315  -6.669  0.00  0.00    -0.776 OA
ATOM     59  H   UNK d   0       0.262 -11.436  -6.242  0.00  0.00     0.167 HD
ENDBRANCH  56  58
ENDBRANCH  55  56
ENDBRANCH  21  55
BRANCH  18  60
ATOM     60  C   UNK d   0       2.655 -13.271 -13.646  0.00  0.00     0.151 C 
BRANCH  60  61
ATOM     61  C   UNK d   0       1.466 -12.644 -14.243  0.00  0.00     0.143 C 
ATOM     62  O   UNK d   0       1.078 -12.747 -15.407  0.00  0.00    -0.650 OA
BRANCH  61  63
ATOM     63  O   UNK d   0       0.703 -11.839 -13.363  0.00  0.00    -0.776 OA
ATOM     64  H   UNK d   0       0.052 -11.160 -13.715  0.00  0.00     0.167 HD
ENDBRANCH  61  63
ENDBRANCH  60  61
ENDBRANCH  18  60
BRANCH  14  65
ATOM     65  C   UNK d   0       4.574 -11.827 -15.500  0.00  0.00     0.052 C 
BRANCH  65  66
ATOM     66  C   UNK d   0       3.870 -10.845 -16.368  0.00  0.00     0.115 C 
BRANCH  66  67
ATOM     67  C   UNK d   0       4.557  -9.665 -16.811  0.00  0.00     0.139 C 
ATOM     68  O   UNK d   0       5.830  -9.724 -16.980  0.00  0.00    -0.650 OA
BRANCH  67  69
ATOM     69  O   UNK d   0       4.010  -8.414 -17.093  0.00  0.00    -0.776 OA
ATOM     70  H   UNK d   0       3.025  -8.414 -17.397  0.00  0.00     0.167 HD
ENDBRANCH  67  69
ENDBRANCH  66  67
ENDBRANCH  65  66
ENDBRANCH  14  65
ENDBRANCH   6   7
ENDBRANCH   5   6
ENDBRANCH   2   5
TORSDOF 28
ENDMDL
MODEL 3
REMARK VINA RESULT:      -7.4      7.326     13.774
REMARK  28 active torsions:
REMARK  status: ('A' for Active; 'I' for Inactive)
REMARK    1  A    between atoms: C_2  and  O_3 
REMARK    2  A    between atoms: C_2  and  C_4 
REMARK    3  A    between atoms: C_4  and  C_5 
REMARK    4  A    between atoms: C_5  and  C_6 
REMARK    5  A    between atoms: C_7  and  C_8 
REMARK    6  A    between atoms: C_8  and  C_9 
REMARK    7  A    between atoms: C_9  and  O_11 
REMARK    8  A    between atoms: C_28  and  C_29 
REMARK    9  A    between atoms: C_29  and  C_30 
REMARK   10  A    between atoms: C_30  and  O_32 
REMARK   11  A    between atoms: C_33  and  C_34 
REMARK   12  A    between atoms: C_34  and  C_35 
REMARK   13  A    between atoms: C_35  and  C_36 
REMARK   14  A    between atoms: C_36  and  O_38 
REMARK   15  A    between atoms: C_39  and  C_40 
REMARK   16  A    between atoms: C_40  and  C_41 
REMARK   17  A    between atoms: C_41  and  C_42 
REMARK   18  A    between atoms: C_42  and  O_44 
REMARK   19  A    between atoms: C_45  and  C_46 
REMARK   20  A    between atoms: C_46  and  C_47 
REMARK   21  A    between atoms: C_47  and  O_49 
REMARK   22  A    between atoms: C_50  and  C_51 
REMARK   23  A    between atoms: C_51  and  C_52 
REMARK   24  A    between atoms: C_52  and  O_54 
REMARK   25  A    between atoms: C_55  and  C_56 
REMARK   26  A    between atoms: C_56  and  C_57 
REMARK   27  A    between atoms: C_57  and  C_58 
REMARK   28  A    between atoms: C_58  and  O_60 
ROOT
ATOM      1  O   UNK d   0       7.801  19.306  -4.354  0.00  0.00    -0.650 OA
ATOM      2  C   UNK d   0       7.301  18.159  -4.341  0.00  0.00     0.139 C 
ENDROOT
BRANCH   2   3
ATOM      3  O   UNK d   0       6.168  17.927  -3.600  0.00  0.00    -0.776 OA
ATOM      4  H   UNK d   0       5.323  18.485  -3.738  0.00  0.00     0.167 HD
ENDBRANCH   2   3
BRANCH   2   5
ATOM      5  C   UNK d   0       7.931  17.059  -5.125  0.00  0.00     0.115 C 
BRANCH   5   6
ATOM      6  C   UNK d   0       7.601  17.208  -6.585  0.00  0.00     0.052 C 
BRANCH   6   7
ATOM      7  C   UNK d   0       8.772  16.881  -7.481  0.00  0.00    -0.020 A 
ATOM      8  C   UNK d   0       9.789  17.649  -7.779  0.00  0.00    -0.011 A 
ATOM      9  C   UNK d   0      10.655  16.910  -8.682  0.00  0.00     0.067 A 
ATOM     10  C   UNK d   0      11.876  17.146  -9.332  0.00  0.00     0.062 C 
ATOM     11  N   UNK d   0      10.086  15.703  -8.885  0.00  0.00    -0.248 NA
ATOM     12  C   UNK d   0      12.704  16.201  -9.949  0.00  0.00     0.041 A 
ATOM     13  N   UNK d   0      12.414  15.159 -10.751  0.00  0.00    -0.355 N 
ATOM     14  C   UNK d   0      14.088  16.242  -9.700  0.00  0.00    -0.022 A 
ATOM     15  C   UNK d   0      13.578  14.533 -11.010  0.00  0.00     0.042 A 
ATOM     16  H   UNK d   0      11.410  14.882 -11.142  0.00  0.00     0.166 HD
ATOM     17  C   UNK d   0      13.847  13.392 -11.792  0.00  0.00     0.062 C 
ATOM     18  C   UNK d   0      14.649  15.183 -10.368  0.00  0.00    -0.013 A 
ATOM     19  C   UNK d   0      13.174  12.198 -11.835  0.00  0.00     0.067 A 
ATOM     20  N   UNK d   0      11.993  12.146 -11.214  0.00  0.00    -0.248 NA
ATOM     21  C   UNK d   0      13.418  10.880 -12.399  0.00  0.00    -0.011 A 
ATOM     22  C   UNK d   0      11.448  10.891 -11.329  0.00  0.00     0.066 A 
ATOM     23  C   UNK d   0      10.197  10.707 -10.758  0.00  0.00     0.062 C 
ATOM     24  C   UNK d   0      12.407  10.119 -12.095  0.00  0.00    -0.020 A 
ATOM     25  C   UNK d   0       9.377  11.672 -10.154  0.00  0.00     0.041 A 
ATOM     26  N   UNK d   0       9.663  12.699  -9.345  0.00  0.00    -0.355 N 
ATOM     27  C   UNK d   0       7.989  11.633 -10.409  0.00  0.00    -0.022 A 
ATOM     28  C   UNK d   0       8.503  13.320  -9.078  0.00  0.00     0.042 A 
ATOM     29  H   UNK d   0      10.671  12.969  -8.945  0.00  0.00     0.166 HD
ATOM     30  C   UNK d   0       8.220  14.450  -8.295  0.00  0.00     0.062 C 
ATOM     31  C   UNK d   0       7.428  12.673  -9.733  0.00  0.00    -0.013 A 
ATOM     32  C   UNK d   0       8.950  15.623  -8.191  0.00  0.00     0.066 A 
BRANCH   8  33
ATOM     33  C   UNK d   0      10.030  19.023  -7.300  0.00  0.00     0.151 C 
BRANCH  33  34
ATOM     34  C   UNK d   0      10.890  19.067  -6.104  0.00  0.00     0.143 C 
ATOM     35  O   UNK d   0      12.035  18.592  -6.125  0.00  0.00    -0.650 OA
BRANCH  34  36
ATOM     36  O   UNK d   0      10.413  19.643  -4.949  0.00  0.00    -0.776 OA
ATOM     37  H   UNK d   0      10.338  20.665  -4.854  0.00  0.00     0.167 HD
ENDBRANCH  34  36
ENDBRANCH  33  34
ENDBRANCH   8  33
BRANCH  31  38
ATOM     38  C   UNK d   0       5.962  13.039  -9.717  0.00  0.00     0.151 C 
BRANCH  38  39
ATOM     39  C   UNK d   0       5.535  13.695 -10.935  0.00  0.00     0.143 C 
ATOM     40  O   UNK d   0       4.465  13.413 -11.502  0.00  0.00    -0.650 OA
BRANCH  39  41
ATOM     41  O   UNK d   0       6.341  14.681 -11.503  0.00  0.00    -0.776 OA
ATOM     42  H   UNK d   0       6.597  14.558 -12.487  0.00  0.00     0.167 HD
ENDBRANCH  39  41
ENDBRANCH  38  39
ENDBRANCH  31  38
BRANCH  27  43
ATOM     43  C   UNK d   0       7.196  10.664 -11.250  0.00  0.00     0.052 C 
BRANCH  43  44
ATOM     44  C   UNK d   0       7.313  10.922 -12.717  0.00  0.00     0.115 C 
BRANCH  44  45
ATOM     45  C   UNK d   0       6.001  10.568 -13.317  0.00  0.00     0.139 C 
ATOM     46  O   UNK d   0       5.992  10.067 -14.469  0.00  0.00    -0.650 OA
BRANCH  45  47
ATOM     47  O   UNK d   0       4.803  10.761 -12.663  0.00  0.00    -0.776 OA
ATOM     48  H   UNK d   0       3.899  10.825 -13.157  0.00  0.00     0.167 HD
ENDBRANCH  45  47
ENDBRANCH  44  45
ENDBRANCH  43  44
ENDBRANCH  27  43
BRANCH  24  49
ATOM     49  C   UNK d   0      12.225   8.715 -12.500  0.00  0.00     0.052 C 
BRANCH  49  50
ATOM     50  C   UNK d   0      12.147   7.825 -11.286  0.00  0.00     0.115 C 
BRANCH  50  51
ATOM     51  C   UNK d   0      13.112   8.066 -10.222  0.00  0.00     0.139 C 
ATOM     52  O   UNK d   0      12.784   8.532  -9.105  0.00  0.00    -0.650 OA
BRANCH  51  53
ATOM     53  O   UNK d   0      14.451   7.778 -10.432  0.00  0.00    -0.776 OA
ATOM     54  H   UNK d   0      15.006   7.496  -9.643  0.00  0.00     0.167 HD
ENDBRANCH  51  53
ENDBRANCH  50  51
ENDBRANCH  49  50
ENDBRANCH  24  49
BRANCH  21  55
ATOM     55  C   UNK d   0      14.635  10.521 -13.185  0.00  0.00     0.151 C 
BRANCH  55  56
ATOM     56  C   UNK d   0      15.875  10.840 -12.460  0.00  0.00     0.143 C 
ATOM     57  O   UNK d   0      16.736  11.623 -12.907  0.00  0.00    -0.650 OA
BRANCH  56  58
ATOM     58  O   UNK d   0      16.077  10.233 -11.222  0.00  0.00    -0.776 OA
ATOM     59  H   UNK d   0      15.888  10.838 -10.403  0.00  0.00     0.167 HD
ENDBRANCH  56  58
ENDBRANCH  55  56
ENDBRANCH  21  55
BRANCH  18  60
ATOM     60  C   UNK d   0      16.119  14.842 -10.368  0.00  0.00     0.151 C 
BRANCH  60  61
ATOM     61  C   UNK d   0      16.337  13.996  -9.185  0.00  0.00     0.143 C 
ATOM     62  O   UNK d   0      16.580  14.372  -8.038  0.00  0.00    -0.650 OA
BRANCH  61  63
ATOM     63  O   UNK d   0      16.254  12.602  -9.417  0.00  0.00    -0.776 OA
ATOM     64  H   UNK d   0      15.364  12.145  -9.510  0.00  0.00     0.167 HD
ENDBRANCH  61  63
ENDBRANCH  60  61
ENDBRANCH  18  60
BRANCH  14  65
ATOM     65  C   UNK d   0      14.922  17.253  -8.966  0.00  0.00     0.052 C 
BRANCH  65  66
ATOM     66  C   UNK d   0      15.513  18.282  -9.864  0.00  0.00     0.115 C 
BRANCH  66  67
ATOM     67  C   UNK d   0      16.930  18.509  -9.851  0.00  0.00     0.139 C 
ATOM     68  O   UNK d   0      17.627  18.094 -10.849  0.00  0.00    -0.650 OA
BRANCH  67  69
ATOM     69  O   UNK d   0      17.684  19.142  -8.864  0.00  0.00    -0.776 OA
ATOM     70  H   UNK d   0      18.706  19.040  -8.946  0.00  0.00     0.167 HD
ENDBRANCH  67  69
ENDBRANCH  66  67
ENDBRANCH  65  66
ENDBRANCH  14  65
ENDBRANCH   6   7
ENDBRANCH   5   6
ENDBRANCH   2   5
TORSDOF 28
ENDMDL
MODEL 4
REMARK VINA RESULT:      -7.3     15.855     19.709
REMARK  28 active torsions:
REMARK  status: ('A' for Active; 'I' for Inactive)
REMARK    1  A    between atoms: C_2  and  O_3 
REMARK    2  A    between atoms: C_2  and  C_4 
REMARK    3  A    between atoms: C_4  and  C_5 
REMARK    4  A    between atoms: C_5  and  C_6 
REMARK    5  A    between atoms: C_7  and  C_8 
REMARK    6  A    between atoms: C_8  and  C_9 
REMARK    7  A    between atoms: C_9  and  O_11 
REMARK    8  A    between atoms: C_28  and  C_29 
REMARK    9  A    between atoms: C_29  and  C_30 
REMARK   10  A    between atoms: C_30  and  O_32 
REMARK   11  A    between atoms: C_33  and  C_34 
REMARK   12  A    between atoms: C_34  and  C_35 
REMARK   13  A    between atoms: C_35  and  C_36 
REMARK   14  A    between atoms: C_36  and  O_38 
REMARK   15  A    between atoms: C_39  and  C_40 
REMARK   16  A    between atoms: C_40  and  C_41 
REMARK   17  A    between atoms: C_41  and  C_42 
REMARK   18  A    between atoms: C_42  and  O_44 
REMARK   19  A    between atoms: C_45  and  C_46 
REMARK   20  A    between atoms: C_46  and  C_47 
REMARK   21  A    between atoms: C_47  and  O_49 
REMARK   22  A    between atoms: C_50  and  C_51 
REMARK   23  A    between atoms: C_51  and  C_52 
REMARK   24  A    between atoms: C_52  and  O_54 
REMARK   25  A    between atoms: C_55  and  C_56 
REMARK   26  A    between atoms: C_56  and  C_57 
REMARK   27  A    between atoms: C_57  and  C_58 
REMARK   28  A    between atoms: C_58  and  O_60 
ROOT
ATOM      1  O   UNK d   0      15.213  -9.499 -11.877  0.00  0.00    -0.650 OA
ATOM      2  C   UNK d   0      14.025  -9.320 -12.227  0.00  0.00     0.139 C 
ENDROOT
BRANCH   2   3
ATOM      3  O   UNK d   0      13.758  -8.852 -13.491  0.00  0.00    -0.776 OA
ATOM      4  H   UNK d   0      13.191  -8.014 -13.634  0.00  0.00     0.167 HD
ENDBRANCH   2   3
BRANCH   2   5
ATOM      5  C   UNK d   0      12.914  -9.612 -11.278  0.00  0.00     0.115 C 
BRANCH   5   6
ATOM      6  C   UNK d   0      12.375 -10.996 -11.521  0.00  0.00     0.052 C 
BRANCH   6   7
ATOM      7  C   UNK d   0      10.870 -11.058 -11.426  0.00  0.00    -0.020 A 
ATOM      8  C   UNK d   0      10.016 -11.263 -12.396  0.00  0.00    -0.011 A 
ATOM      9  C   UNK d   0       8.679 -11.230 -11.828  0.00  0.00     0.067 A 
ATOM     10  C   UNK d   0       7.370 -11.394 -12.308  0.00  0.00     0.062 C 
ATOM     11  N   UNK d   0       8.812 -10.993 -10.506  0.00  0.00    -0.248 NA
ATOM     12  C   UNK d   0       6.211 -11.604 -11.553  0.00  0.00     0.041 A 
ATOM     13  N   UNK d   0       5.781 -11.032 -10.412  0.00  0.00    -0.355 N 
ATOM     14  C   UNK d   0       5.310 -12.606 -11.955  0.00  0.00    -0.022 A 
ATOM     15  C   UNK d   0       4.633 -11.651 -10.076  0.00  0.00     0.042 A 
ATOM     16  H   UNK d   0       6.268 -10.194  -9.866  0.00  0.00     0.166 HD
ATOM     17  C   UNK d   0       3.771 -11.445  -8.980  0.00  0.00     0.062 C 
ATOM     18  C   UNK d   0       4.306 -12.645 -11.019  0.00  0.00    -0.013 A 
ATOM     19  C   UNK d   0       4.086 -11.270  -7.657  0.00  0.00     0.067 A 
ATOM     20  N   UNK d   0       5.372 -11.067  -7.363  0.00  0.00    -0.248 NA
ATOM     21  C   UNK d   0       3.353 -11.258  -6.402  0.00  0.00    -0.011 A 
ATOM     22  C   UNK d   0       5.534 -10.925  -6.006  0.00  0.00     0.066 A 
ATOM     23  C   UNK d   0       6.824 -10.670  -5.563  0.00  0.00     0.062 C 
ATOM     24  C   UNK d   0       4.207 -11.060  -5.439  0.00  0.00    -0.020 A 
ATOM     25  C   UNK d   0       7.972 -10.450  -6.339  0.00  0.00     0.041 A 
ATOM     26  N   UNK d   0       8.408 -11.028  -7.464  0.00  0.00    -0.355 N 
ATOM     27  C   UNK d   0       8.875  -9.440  -5.937  0.00  0.00    -0.022 A 
ATOM     28  C   UNK d   0       9.557 -10.418  -7.797  0.00  0.00     0.042 A 
ATOM     29  H   UNK d   0       7.923 -11.877  -8.006  0.00  0.00     0.166 HD
ATOM     30  C   UNK d   0      10.429 -10.619  -8.878  0.00  0.00     0.062 C 
ATOM     31  C   UNK d   0       9.880  -9.413  -6.854  0.00  0.00    -0.013 A 
ATOM     32  C   UNK d   0      10.105 -10.881 -10.200  0.00  0.00     0.066 A 
BRANCH   8  33
ATOM     33  C   UNK d   0      10.332 -11.484 -13.820  0.00  0.00     0.151 C 
BRANCH  33  34
ATOM     34  C   UNK d   0      10.704 -12.881 -14.111  0.00  0.00     0.143 C 
ATOM     35  O   UNK d   0      11.598 -13.144 -14.928  0.00  0.00    -0.650 OA
BRANCH  34  36
ATOM     36  O   UNK d   0      10.046 -13.903 -13.468  0.00  0.00    -0.776 OA
ATOM     37  H   UNK d   0       9.533 -14.624 -13.994  0.00  0.00     0.167 HD
ENDBRANCH  34  36
ENDBRANCH  33  34
ENDBRANCH   8  33
BRANCH  31  38
ATOM     38  C   UNK d   0      11.069  -8.482  -6.846  0.00  0.00     0.151 C 
BRANCH  38  39
ATOM     39  C   UNK d   0      12.203  -9.025  -6.129  0.00  0.00     0.143 C 
ATOM     40  O   UNK d   0      12.108 -10.019  -5.388  0.00  0.00    -0.650 OA
BRANCH  39  41
ATOM     41  O   UNK d   0      13.454  -8.423  -6.266  0.00  0.00    -0.776 OA
ATOM     42  H   UNK d   0      14.014  -8.323  -5.413  0.00  0.00     0.167 HD
ENDBRANCH  39  41
ENDBRANCH  38  39
ENDBRANCH  31  38
BRANCH  27  43
ATOM     43  C   UNK d   0       8.817  -8.525  -4.740  0.00  0.00     0.052 C 
BRANCH  43  44
ATOM     44  C   UNK d   0       8.229  -7.186  -5.047  0.00  0.00     0.115 C 
BRANCH  44  45
ATOM     45  C   UNK d   0       6.945  -7.105  -4.303  0.00  0.00     0.139 C 
ATOM     46  O   UNK d   0       6.736  -7.944  -3.391  0.00  0.00    -0.650 OA
BRANCH  45  47
ATOM     47  O   UNK d   0       5.987  -6.151  -4.567  0.00  0.00    -0.776 OA
ATOM     48  H   UNK d   0       5.289  -5.849  -3.868  0.00  0.00     0.167 HD
ENDBRANCH  45  47
ENDBRANCH  44  45
ENDBRANCH  43  44
ENDBRANCH  27  43
BRANCH  24  49
ATOM     49  C   UNK d   0       3.888 -10.937  -4.007  0.00  0.00     0.052 C 
BRANCH  49  50
ATOM     50  C   UNK d   0       2.929  -9.798  -3.778  0.00  0.00     0.115 C 
BRANCH  50  51
ATOM     51  C   UNK d   0       3.455  -8.447  -3.919  0.00  0.00     0.139 C 
ATOM     52  O   UNK d   0       3.645  -7.908  -5.035  0.00  0.00    -0.650 OA
BRANCH  51  53
ATOM     53  O   UNK d   0       3.768  -7.710  -2.787  0.00  0.00    -0.776 OA
ATOM     54  H   UNK d   0       4.737  -7.606  -2.540  0.00  0.00     0.167 HD
ENDBRANCH  51  53
ENDBRANCH  50  51
ENDBRANCH  49  50
ENDBRANCH  24  49
BRANCH  21  55
ATOM     55  C   UNK d   0       1.875 -11.441  -6.296  0.00  0.00     0.151 C 
BRANCH  55  56
ATOM     56  C   UNK d   0       1.458 -12.796  -6.686  0.00  0.00     0.143 C 
ATOM     57  O   UNK d   0       2.049 -13.823  -6.297  0.00  0.00    -0.650 OA
BRANCH  56  58
ATOM     58  O   UNK d   0       0.353 -12.919  -7.526  0.00  0.00    -0.776 OA
ATOM     59  H   UNK d   0      -0.185 -12.045  -7.670  0.00  0.00     0.167 HD
ENDBRANCH  56  58
ENDBRANCH  55  56
ENDBRANCH  21  55
BRANCH  18  60
ATOM     60  C   UNK d   0       3.127 -13.585 -11.054  0.00  0.00     0.151 C 
BRANCH  60  61
ATOM     61  C   UNK d   0       1.950 -12.748 -11.333  0.00  0.00     0.143 C 
ATOM     62  O   UNK d   0       1.788 -11.992 -12.292  0.00  0.00    -0.650 OA
BRANCH  61  63
ATOM     63  O   UNK d   0       0.906 -12.839 -10.381  0.00  0.00    -0.776 OA
ATOM     64  H   UNK d   0      -0.019 -13.119 -10.653  0.00  0.00     0.167 HD
ENDBRANCH  61  63
ENDBRANCH  60  61
ENDBRANCH  18  60
BRANCH  14  65
ATOM     65  C   UNK d   0       5.274 -13.454 -13.195  0.00  0.00     0.052 C 
BRANCH  65  66
ATOM     66  C   UNK d   0       4.789 -12.714 -14.391  0.00  0.00     0.115 C 
BRANCH  66  67
ATOM     67  C   UNK d   0       3.411 -12.817 -14.781  0.00  0.00     0.139 C 
ATOM     68  O   UNK d   0       2.872 -13.983 -14.827  0.00  0.00    -0.650 OA
BRANCH  67  69
ATOM     69  O   UNK d   0       2.544 -11.783 -15.130  0.00  0.00    -0.776 OA
ATOM     70  H   UNK d   0       2.189 -11.212 -14.349  0.00  0.00     0.167 HD
ENDBRANCH  67  69
ENDBRANCH  66  67
ENDBRANCH  65  66
ENDBRANCH  14  65
ENDBRANCH   6   7
ENDBRANCH   5   6
ENDBRANCH   2   5
TORSDOF 28
ENDMDL
MODEL 5
REMARK VINA RESULT:      -7.3      8.818     14.259
REMARK  28 active torsions:
REMARK  status: ('A' for Active; 'I' for Inactive)
REMARK    1  A    between atoms: C_2  and  O_3 
REMARK    2  A    between atoms: C_2  and  C_4 
REMARK    3  A    between atoms: C_4  and  C_5 
REMARK    4  A    between atoms: C_5  and  C_6 
REMARK    5  A    between atoms: C_7  and  C_8 
REMARK    6  A    between atoms: C_8  and  C_9 
REMARK    7  A    between atoms: C_9  and  O_11 
REMARK    8  A    between atoms: C_28  and  C_29 
REMARK    9  A    between atoms: C_29  and  C_30 
REMARK   10  A    between atoms: C_30  and  O_32 
REMARK   11  A    between atoms: C_33  and  C_34 
REMARK   12  A    between atoms: C_34  and  C_35 
REMARK   13  A    between atoms: C_35  and  C_36 
REMARK   14  A    between atoms: C_36  and  O_38 
REMARK   15  A    between atoms: C_39  and  C_40 
REMARK   16  A    between atoms: C_40  and  C_41 
REMARK   17  A    between atoms: C_41  and  C_42 
REMARK   18  A    between atoms: C_42  and  O_44 
REMARK   19  A    between atoms: C_45  and  C_46 
REMARK   20  A    between atoms: C_46  and  C_47 
REMARK   21  A    between atoms: C_47  and  O_49 
REMARK   22  A    between atoms: C_50  and  C_51 
REMARK   23  A    between atoms: C_51  and  C_52 
REMARK   24  A    between atoms: C_52  and  O_54 
REMARK   25  A    between atoms: C_55  and  C_56 
REMARK   26  A    between atoms: C_56  and  C_57 
REMARK   27  A    between atoms: C_57  and  C_58 
REMARK   28  A    between atoms: C_58  and  O_60 
ROOT
ATOM      1  O   UNK d   0      13.117  19.656  -7.440  0.00  0.00    -0.650 OA
ATOM      2  C   UNK d   0      12.919  18.890  -6.472  0.00  0.00     0.139 C 
ENDROOT
BRANCH   2   3
ATOM      3  O   UNK d   0      13.988  18.263  -5.879  0.00  0.00    -0.776 OA
ATOM      4  H   UNK d   0      13.851  17.486  -5.229  0.00  0.00     0.167 HD
ENDBRANCH   2   3
BRANCH   2   5
ATOM      5  C   UNK d   0      11.534  18.661  -5.970  0.00  0.00     0.115 C 
BRANCH   5   6
ATOM      6  C   UNK d   0      10.555  18.714  -7.110  0.00  0.00     0.052 C 
BRANCH   6   7
ATOM      7  C   UNK d   0      10.136  17.342  -7.581  0.00  0.00    -0.020 A 
ATOM      8  C   UNK d   0       9.038  16.696  -7.281  0.00  0.00    -0.011 A 
ATOM      9  C   UNK d   0       9.078  15.411  -7.960  0.00  0.00     0.067 A 
ATOM     10  C   UNK d   0       8.231  14.297  -8.070  0.00  0.00     0.062 C 
ATOM     11  N   UNK d   0      10.238  15.357  -8.647  0.00  0.00    -0.248 NA
ATOM     12  C   UNK d   0       8.316  13.257  -9.002  0.00  0.00     0.041 A 
ATOM     13  N   UNK d   0       9.375  12.568  -9.467  0.00  0.00    -0.355 N 
ATOM     14  C   UNK d   0       7.145  12.831  -9.655  0.00  0.00    -0.022 A 
ATOM     15  C   UNK d   0       8.907  11.721 -10.404  0.00  0.00     0.042 A 
ATOM     16  H   UNK d   0      10.429  12.664  -9.126  0.00  0.00     0.166 HD
ATOM     17  C   UNK d   0       9.583  10.776 -11.200  0.00  0.00     0.062 C 
ATOM     18  C   UNK d   0       7.513  11.858 -10.549  0.00  0.00    -0.013 A 
ATOM     19  C   UNK d   0      10.762  10.912 -11.887  0.00  0.00     0.067 A 
ATOM     20  N   UNK d   0      11.488  12.004 -11.631  0.00  0.00    -0.248 NA
ATOM     21  C   UNK d   0      11.479  10.149 -12.895  0.00  0.00    -0.011 A 
ATOM     22  C   UNK d   0      12.626  12.010 -12.400  0.00  0.00     0.066 A 
ATOM     23  C   UNK d   0      13.494  13.075 -12.207  0.00  0.00     0.062 C 
ATOM     24  C   UNK d   0      12.567  10.799 -13.194  0.00  0.00    -0.020 A 
ATOM     25  C   UNK d   0      13.398  14.102 -11.256  0.00  0.00     0.041 A 
ATOM     26  N   UNK d   0      12.347  14.798 -10.804  0.00  0.00    -0.355 N 
ATOM     27  C   UNK d   0      14.573  14.526 -10.598  0.00  0.00    -0.022 A 
ATOM     28  C   UNK d   0      12.813  15.649  -9.877  0.00  0.00     0.042 A 
ATOM     29  H   UNK d   0      11.290  14.708 -11.155  0.00  0.00     0.166 HD
ATOM     30  C   UNK d   0      12.153  16.601  -9.084  0.00  0.00     0.062 C 
ATOM     31  C   UNK d   0      14.212  15.504  -9.723  0.00  0.00    -0.013 A 
ATOM     32  C   UNK d   0      10.920  16.488  -8.461  0.00  0.00     0.066 A 
BRANCH   8  33
ATOM     33  C   UNK d   0       7.946  17.164  -6.408  0.00  0.00     0.151 C 
BRANCH  33  34
ATOM     34  C   UNK d   0       8.204  16.901  -4.980  0.00  0.00     0.143 C 
ATOM     35  O   UNK d   0       8.624  17.797  -4.234  0.00  0.00    -0.650 OA
BRANCH  34  36
ATOM     36  O   UNK d   0       7.975  15.643  -4.473  0.00  0.00    -0.776 OA
ATOM     37  H   UNK d   0       7.655  14.874  -5.077  0.00  0.00     0.167 HD
ENDBRANCH  34  36
ENDBRANCH  33  34
ENDBRANCH   8  33
BRANCH  31  38
ATOM     38  C   UNK d   0      15.136  16.248  -8.787  0.00  0.00     0.151 C 
BRANCH  38  39
ATOM     39  C   UNK d   0      15.449  17.583  -9.251  0.00  0.00     0.143 C 
ATOM     40  O   UNK d   0      15.398  17.899 -10.453  0.00  0.00    -0.650 OA
BRANCH  39  41
ATOM     41  O   UNK d   0      15.822  18.560  -8.329  0.00  0.00    -0.776 OA
ATOM     42  H   UNK d   0      15.074  19.153  -7.957  0.00  0.00     0.167 HD
ENDBRANCH  39  41
ENDBRANCH  38  39
ENDBRANCH  31  38
BRANCH  27  43
ATOM     43  C   UNK d   0      15.993  14.047 -10.770  0.00  0.00     0.052 C 
BRANCH  43  44
ATOM     44  C   UNK d   0      16.831  14.966 -11.598  0.00  0.00     0.115 C 
BRANCH  44  45
ATOM     45  C   UNK d   0      17.198  14.215 -12.827  0.00  0.00     0.139 C 
ATOM     46  O   UNK d   0      16.502  14.390 -13.858  0.00  0.00    -0.650 OA
BRANCH  45  47
ATOM     47  O   UNK d   0      18.266  13.345 -12.880  0.00  0.00    -0.776 OA
ATOM     48  H   UNK d   0      19.077  13.415 -12.243  0.00  0.00     0.167 HD
ENDBRANCH  45  47
ENDBRANCH  44  45
ENDBRANCH  43  44
ENDBRANCH  27  43
BRANCH  24  49
ATOM     49  C   UNK d   0      13.605  10.364 -14.144  0.00  0.00     0.052 C 
BRANCH  49  50
ATOM     50  C   UNK d   0      13.414  11.042 -15.476  0.00  0.00     0.115 C 
BRANCH  50  51
ATOM     51  C   UNK d   0      14.426  12.008 -15.882  0.00  0.00     0.139 C 
ATOM     52  O   UNK d   0      14.259  12.802 -16.837  0.00  0.00    -0.650 OA
BRANCH  51  53
ATOM     53  O   UNK d   0      15.631  12.066 -15.199  0.00  0.00    -0.776 OA
ATOM     54  H   UNK d   0      15.613  12.009 -14.196  0.00  0.00     0.167 HD
ENDBRANCH  51  53
ENDBRANCH  50  51
ENDBRANCH  49  50
ENDBRANCH  24  49
BRANCH  21  55
ATOM     55  C   UNK d   0      11.004   8.847 -13.451  0.00  0.00     0.151 C 
BRANCH  55  56
ATOM     56  C   UNK d   0      11.124   7.754 -12.474  0.00  0.00     0.143 C 
ATOM     57  O   UNK d   0      12.109   6.991 -12.432  0.00  0.00    -0.650 OA
BRANCH  56  58
ATOM     58  O   UNK d   0      10.082   7.579 -11.565  0.00  0.00    -0.776 OA
ATOM     59  H   UNK d   0       9.400   8.358 -11.527  0.00  0.00     0.167 HD
ENDBRANCH  56  58
ENDBRANCH  55  56
ENDBRANCH  21  55
BRANCH  18  60
ATOM     60  C   UNK d   0       6.567  11.128 -11.471  0.00  0.00     0.151 C 
BRANCH  60  61
ATOM     61  C   UNK d   0       6.233  12.079 -12.542  0.00  0.00     0.143 C 
ATOM     62  O   UNK d   0       7.022  12.705 -13.251  0.00  0.00    -0.650 OA
BRANCH  61  63
ATOM     63  O   UNK d   0       4.849  12.278 -12.762  0.00  0.00    -0.776 OA
ATOM     64  H   UNK d   0       4.516  13.061 -13.296  0.00  0.00     0.167 HD
ENDBRANCH  61  63
ENDBRANCH  60  61
ENDBRANCH  18  60
BRANCH  14  65
ATOM     65  C   UNK d   0       5.706  13.201  -9.429  0.00  0.00     0.052 C 
BRANCH  65  66
ATOM     66  C   UNK d   0       5.339  14.508 -10.038  0.00  0.00     0.115 C 
BRANCH  66  67
ATOM     67  C   UNK d   0       3.958  14.823 -10.269  0.00  0.00     0.139 C 
ATOM     68  O   UNK d   0       3.306  14.127 -11.132  0.00  0.00    -0.650 OA
BRANCH  67  69
ATOM     69  O   UNK d   0       3.196  15.821  -9.661  0.00  0.00    -0.776 OA
ATOM     70  H   UNK d   0       3.725  16.620  -9.284  0.00  0.00     0.167 HD
ENDBRANCH  67  69
ENDBRANCH  66  67
ENDBRANCH  65  66
ENDBRANCH  14  65
ENDBRANCH   6   7
ENDBRANCH   5   6
ENDBRANCH   2   5
TORSDOF 28
ENDMDL
MODEL 6
REMARK VINA RESULT:      -7.2     16.398     20.020
REMARK  28 active torsions:
REMARK  status: ('A' for Active; 'I' for Inactive)
REMARK    1  A    between atoms: C_2  and  O_3 
REMARK    2  A    between atoms: C_2  and  C_4 
REMARK    3  A    between atoms: C_4  and  C_5 
REMARK    4  A    between atoms: C_5  and  C_6 
REMARK    5  A    between atoms: C_7  and  C_8 
REMARK    6  A    between atoms: C_8  and  C_9 
REMARK    7  A    between atoms: C_9  and  O_11 
REMARK    8  A    between atoms: C_28  and  C_29 
REMARK    9  A    between atoms: C_29  and  C_30 
REMARK   10  A    between atoms: C_30  and  O_32 
REMARK   11  A    between atoms: C_33  and  C_34 
REMARK   12  A    between atoms: C_34  and  C_35 
REMARK   13  A    between atoms: C_35  and  C_36 
REMARK   14  A    between atoms: C_36  and  O_38 
REMARK   15  A    between atoms: C_39  and  C_40 
REMARK   16  A    between atoms: C_40  and  C_41 
REMARK   17  A    between atoms: C_41  and  C_42 
REMARK   18  A    between atoms: C_42  and  O_44 
REMARK   19  A    between atoms: C_45  and  C_46 
REMARK   20  A    between atoms: C_46  and  C_47 
REMARK   21  A    between atoms: C_47  and  O_49 
REMARK   22  A    between atoms: C_50  and  C_51 
REMARK   23  A    between atoms: C_51  and  C_52 
REMARK   24  A    between atoms: C_52  and  O_54 
REMARK   25  A    between atoms: C_55  and  C_56 
REMARK   26  A    between atoms: C_56  and  C_57 
REMARK   27  A    between atoms: C_57  and  C_58 
REMARK   28  A    between atoms: C_58  and  O_60 
ROOT
ATOM      1  O   UNK d   0      14.495  -7.706 -12.411  0.00  0.00    -0.650 OA
ATOM      2  C   UNK d   0      14.699  -8.815 -11.870  0.00  0.00     0.139 C 
ENDROOT
BRANCH   2   3
ATOM      3  O   UNK d   0      15.953  -9.375 -11.935  0.00  0.00    -0.776 OA
ATOM      4  H   UNK d   0      16.774  -8.870 -11.596  0.00  0.00     0.167 HD
ENDBRANCH   2   3
BRANCH   2   5
ATOM      5  C   UNK d   0      13.592  -9.519 -11.164  0.00  0.00     0.115 C 
BRANCH   5   6
ATOM      6  C   UNK d   0      13.069 -10.645 -12.015  0.00  0.00     0.052 C 
BRANCH   6   7
ATOM      7  C   UNK d   0      11.591 -10.521 -12.299  0.00  0.00    -0.020 A 
ATOM      8  C   UNK d   0      11.023 -10.073 -13.390  0.00  0.00    -0.011 A 
ATOM      9  C   UNK d   0       9.584 -10.133 -13.199  0.00  0.00     0.067 A 
ATOM     10  C   UNK d   0       8.447  -9.832 -13.965  0.00  0.00     0.062 C 
ATOM     11  N   UNK d   0       9.364 -10.625 -11.961  0.00  0.00    -0.248 NA
ATOM     12  C   UNK d   0       7.127 -10.220 -13.711  0.00  0.00     0.041 A 
ATOM     13  N   UNK d   0       6.416 -10.250 -12.568  0.00  0.00    -0.355 N 
ATOM     14  C   UNK d   0       6.352 -10.730 -14.769  0.00  0.00    -0.022 A 
ATOM     15  C   UNK d   0       5.213 -10.774 -12.871  0.00  0.00     0.042 A 
ATOM     16  H   UNK d   0       6.751  -9.890 -11.570  0.00  0.00     0.166 HD
ATOM     17  C   UNK d   0       4.095 -11.027 -12.052  0.00  0.00     0.062 C 
ATOM     18  C   UNK d   0       5.136 -11.088 -14.242  0.00  0.00    -0.013 A 
ATOM     19  C   UNK d   0       4.049 -11.598 -10.806  0.00  0.00     0.067 A 
ATOM     20  N   UNK d   0       5.214 -11.769 -10.177  0.00  0.00    -0.248 NA
ATOM     21  C   UNK d   0       3.010 -12.115  -9.932  0.00  0.00    -0.011 A 
ATOM     22  C   UNK d   0       5.013 -12.362  -8.954  0.00  0.00     0.066 A 
ATOM     23  C   UNK d   0       6.142 -12.564  -8.174  0.00  0.00     0.062 C 
ATOM     24  C   UNK d   0       3.581 -12.565  -8.851  0.00  0.00    -0.020 A 
ATOM     25  C   UNK d   0       7.457 -12.155  -8.442  0.00  0.00     0.041 A 
ATOM     26  N   UNK d   0       8.169 -12.139  -9.575  0.00  0.00    -0.355 N 
ATOM     27  C   UNK d   0       8.233 -11.639  -7.381  0.00  0.00    -0.022 A 
ATOM     28  C   UNK d   0       9.372 -11.626  -9.274  0.00  0.00     0.042 A 
ATOM     29  H   UNK d   0       7.835 -12.511 -10.575  0.00  0.00     0.166 HD
ATOM     30  C   UNK d   0      10.497 -11.377 -10.076  0.00  0.00     0.062 C 
ATOM     31  C   UNK d   0       9.445 -11.301  -7.898  0.00  0.00    -0.013 A 
ATOM     32  C   UNK d   0      10.532 -10.879 -11.368  0.00  0.00     0.066 A 
BRANCH   8  33
ATOM     33  C   UNK d   0      11.702  -9.585 -14.605  0.00  0.00     0.151 C 
BRANCH  33  34
ATOM     34  C   UNK d   0      11.773 -10.604 -15.667  0.00  0.00     0.143 C 
ATOM     35  O   UNK d   0      11.378 -10.354 -16.815  0.00  0.00    -0.650 OA
BRANCH  34  36
ATOM     36  O   UNK d   0      12.283 -11.848 -15.377  0.00  0.00    -0.776 OA
ATOM     37  H   UNK d   0      11.955 -12.688 -15.872  0.00  0.00     0.167 HD
ENDBRANCH  34  36
ENDBRANCH  33  34
ENDBRANCH   8  33
BRANCH  31  38
ATOM     38  C   UNK d   0      10.601 -10.693  -7.138  0.00  0.00     0.151 C 
BRANCH  38  39
ATOM     39  C   UNK d   0      10.574  -9.246  -7.138  0.00  0.00     0.143 C 
ATOM     40  O   UNK d   0      11.356  -8.566  -6.450  0.00  0.00    -0.650 OA
BRANCH  39  41
ATOM     41  O   UNK d   0       9.646  -8.577  -7.935  0.00  0.00    -0.776 OA
ATOM     42  H   UNK d   0       9.736  -8.697  -8.949  0.00  0.00     0.167 HD
ENDBRANCH  39  41
ENDBRANCH  38  39
ENDBRANCH  31  38
BRANCH  27  43
ATOM     43  C   UNK d   0       7.871 -11.462  -5.927  0.00  0.00     0.052 C 
BRANCH  43  44
ATOM     44  C   UNK d   0       7.243 -10.139  -5.631  0.00  0.00     0.115 C 
BRANCH  44  45
ATOM     45  C   UNK d   0       6.710 -10.222  -4.246  0.00  0.00     0.139 C 
ATOM     46  O   UNK d   0       6.821  -9.213  -3.508  0.00  0.00    -0.650 OA
BRANCH  45  47
ATOM     47  O   UNK d   0       6.100 -11.352  -3.747  0.00  0.00    -0.776 OA
ATOM     48  H   UNK d   0       6.266 -12.296  -4.133  0.00  0.00     0.167 HD
ENDBRANCH  45  47
ENDBRANCH  44  45
ENDBRANCH  43  44
ENDBRANCH  27  43
BRANCH  24  49
ATOM     49  C   UNK d   0       2.896 -13.142  -7.682  0.00  0.00     0.052 C 
BRANCH  49  50
ATOM     50  C   UNK d   0       2.622 -12.073  -6.655  0.00  0.00     0.115 C 
BRANCH  50  51
ATOM     51  C   UNK d   0       3.383 -12.134  -5.414  0.00  0.00     0.139 C 
ATOM     52  O   UNK d   0       3.293 -11.257  -4.522  0.00  0.00    -0.650 OA
BRANCH  51  53
ATOM     53  O   UNK d   0       4.249 -13.193  -5.191  0.00  0.00    -0.776 OA
ATOM     54  H   UNK d   0       4.035 -13.833  -4.446  0.00  0.00     0.167 HD
ENDBRANCH  51  53
ENDBRANCH  50  51
ENDBRANCH  49  50
ENDBRANCH  24  49
BRANCH  21  55
ATOM     55  C   UNK d   0       1.555 -12.103 -10.265  0.00  0.00     0.151 C 
BRANCH  55  56
ATOM     56  C   UNK d   0       1.207 -13.135 -11.254  0.00  0.00     0.143 C 
ATOM     57  O   UNK d   0       1.643 -14.301 -11.194  0.00  0.00    -0.650 OA
BRANCH  56  58
ATOM     58  O   UNK d   0       0.352 -12.774 -12.294  0.00  0.00    -0.776 OA
ATOM     59  H   UNK d   0       0.825 -12.414 -13.142  0.00  0.00     0.167 HD
ENDBRANCH  56  58
ENDBRANCH  55  56
ENDBRANCH  21  55
BRANCH  18  60
ATOM     60  C   UNK d   0       3.997 -11.690 -15.027  0.00  0.00     0.151 C 
BRANCH  60  61
ATOM     61  C   UNK d   0       4.002 -13.126 -14.708  0.00  0.00     0.143 C 
ATOM     62  O   UNK d   0       4.914 -13.929 -14.912  0.00  0.00    -0.650 OA
BRANCH  61  63
ATOM     63  O   UNK d   0       2.820 -13.612 -14.100  0.00  0.00    -0.776 OA
ATOM     64  H   UNK d   0       2.034 -13.008 -13.938  0.00  0.00     0.167 HD
ENDBRANCH  61  63
ENDBRANCH  60  61
ENDBRANCH  18  60
BRANCH  14  65
ATOM     65  C   UNK d   0       6.636 -10.814 -16.241  0.00  0.00     0.052 C 
BRANCH  65  66
ATOM     66  C   UNK d   0       6.283  -9.568 -16.973  0.00  0.00     0.115 C 
BRANCH  66  67
ATOM     67  C   UNK d   0       5.026  -9.478 -17.661  0.00  0.00     0.139 C 
ATOM     68  O   UNK d   0       4.070  -8.819 -17.108  0.00  0.00    -0.650 OA
BRANCH  67  69
ATOM     69  O   UNK d   0       4.686 -10.032 -18.894  0.00  0.00    -0.776 OA
ATOM     70  H   UNK d   0       4.078 -10.863 -18.861  0.00  0.00     0.167 HD
ENDBRANCH  67  69
ENDBRANCH  66  67
ENDBRANCH  65  66
ENDBRANCH  14  65
ENDBRANCH   6   7
ENDBRANCH   5   6
ENDBRANCH   2   5
TORSDOF 28
ENDMDL
MODEL 7
REMARK VINA RESULT:      -7.2      7.991     12.965
REMARK  28 active torsions:
REMARK  status: ('A' for Active; 'I' for Inactive)
REMARK    1  A    between atoms: C_2  and  O_3 
REMARK    2  A    between atoms: C_2  and  C_4 
REMARK    3  A    between atoms: C_4  and  C_5 
REMARK    4  A    between atoms: C_5  and  C_6 
REMARK    5  A    between atoms: C_7  and  C_8 
REMARK    6  A    between atoms: C_8  and  C_9 
REMARK    7  A    between atoms: C_9  and  O_11 
REMARK    8  A    between atoms: C_28  and  C_29 
REMARK    9  A    between atoms: C_29  and  C_30 
REMARK   10  A    between atoms: C_30  and  O_32 
REMARK   11  A    between atoms: C_33  and  C_34 
REMARK   12  A    between atoms: C_34  and  C_35 
REMARK   13  A    between atoms: C_35  and  C_36 
REMARK   14  A    between atoms: C_36  and  O_38 
REMARK   15  A    between atoms: C_39  and  C_40 
REMARK   16  A    between atoms: C_40  and  C_41 
REMARK   17  A    between atoms: C_41  and  C_42 
REMARK   18  A    between atoms: C_42  and  O_44 
REMARK   19  A    between atoms: C_45  and  C_46 
REMARK   20  A    between atoms: C_46  and  C_47 
REMARK   21  A    between atoms: C_47  and  O_49 
REMARK   22  A    between atoms: C_50  and  C_51 
REMARK   23  A    between atoms: C_51  and  C_52 
REMARK   24  A    between atoms: C_52  and  O_54 
REMARK   25  A    between atoms: C_55  and  C_56 
REMARK   26  A    between atoms: C_56  and  C_57 
REMARK   27  A    between atoms: C_57  and  C_58 
REMARK   28  A    between atoms: C_58  and  O_60 
ROOT
ATOM      1  O   UNK d   0       7.793  18.266  -5.644  0.00  0.00    -0.650 OA
ATOM      2  C   UNK d   0       8.837  17.989  -5.014  0.00  0.00     0.139 C 
ENDROOT
BRANCH   2   3
ATOM      3  O   UNK d   0       8.751  17.246  -3.861  0.00  0.00    -0.776 OA
ATOM      4  H   UNK d   0       8.262  17.604  -3.039  0.00  0.00     0.167 HD
ENDBRANCH   2   3
BRANCH   2   5
ATOM      5  C   UNK d   0      10.160  18.462  -5.513  0.00  0.00     0.115 C 
BRANCH   5   6
ATOM      6  C   UNK d   0      10.068  18.813  -6.973  0.00  0.00     0.052 C 
BRANCH   6   7
ATOM      7  C   UNK d   0      10.760  17.804  -7.858  0.00  0.00    -0.020 A 
ATOM      8  C   UNK d   0      11.975  17.866  -8.339  0.00  0.00    -0.011 A 
ATOM      9  C   UNK d   0      12.197  16.675  -9.142  0.00  0.00     0.067 A 
ATOM     10  C   UNK d   0      13.259  16.140  -9.887  0.00  0.00     0.062 C 
ATOM     11  N   UNK d   0      11.062  15.946  -9.098  0.00  0.00    -0.248 NA
ATOM     12  C   UNK d   0      13.381  14.832 -10.370  0.00  0.00     0.041 A 
ATOM     13  N   UNK d   0      12.484  14.017 -10.958  0.00  0.00    -0.355 N 
ATOM     14  C   UNK d   0      14.603  14.157 -10.205  0.00  0.00    -0.022 A 
ATOM     15  C   UNK d   0      13.104  12.840 -11.163  0.00  0.00     0.042 A 
ATOM     16  H   UNK d   0      11.440  14.276 -11.240  0.00  0.00     0.166 HD
ATOM     17  C   UNK d   0      12.630  11.647 -11.744  0.00  0.00     0.062 C 
ATOM     18  C   UNK d   0      14.435  12.889 -10.704  0.00  0.00    -0.013 A 
ATOM     19  C   UNK d   0      11.436  11.003 -11.539  0.00  0.00     0.067 A 
ATOM     20  N   UNK d   0      10.500  11.668 -10.858  0.00  0.00    -0.248 NA
ATOM     21  C   UNK d   0      10.880   9.702 -11.873  0.00  0.00    -0.011 A 
ATOM     22  C   UNK d   0       9.373  10.895 -10.719  0.00  0.00     0.066 A 
ATOM     23  C   UNK d   0       8.302  11.480 -10.060  0.00  0.00     0.062 C 
ATOM     24  C   UNK d   0       9.674   9.644 -11.387  0.00  0.00    -0.020 A 
ATOM     25  C   UNK d   0       8.195  12.800  -9.594  0.00  0.00     0.041 A 
ATOM     26  N   UNK d   0       9.082  13.604  -8.996  0.00  0.00    -0.355 N 
ATOM     27  C   UNK d   0       6.969  13.478  -9.764  0.00  0.00    -0.022 A 
ATOM     28  C   UNK d   0       8.463  14.776  -8.782  0.00  0.00     0.042 A 
ATOM     29  H   UNK d   0      10.127  13.340  -8.703  0.00  0.00     0.166 HD
ATOM     30  C   UNK d   0       8.919  15.968  -8.198  0.00  0.00     0.062 C 
ATOM     31  C   UNK d   0       7.129  14.730  -9.254  0.00  0.00    -0.013 A 
ATOM     32  C   UNK d   0      10.159  16.570  -8.341  0.00  0.00     0.066 A 
BRANCH   8  33
ATOM     33  C   UNK d   0      12.959  18.944  -8.124  0.00  0.00     0.151 C 
BRANCH  33  34
ATOM     34  C   UNK d   0      13.851  18.683  -6.981  0.00  0.00     0.143 C 
ATOM     35  O   UNK d   0      13.801  19.386  -5.961  0.00  0.00    -0.650 OA
BRANCH  34  36
ATOM     36  O   UNK d   0      14.751  17.645  -7.049  0.00  0.00    -0.776 OA
ATOM     37  H   UNK d   0      14.625  16.791  -6.489  0.00  0.00     0.167 HD
ENDBRANCH  34  36
ENDBRANCH  33  34
ENDBRANCH   8  33
BRANCH  31  38
ATOM     38  C   UNK d   0       6.086  15.822  -9.227  0.00  0.00     0.151 C 
BRANCH  38  39
ATOM     39  C   UNK d   0       6.221  16.756 -10.324  0.00  0.00     0.143 C 
ATOM     40  O   UNK d   0       6.940  16.522 -11.312  0.00  0.00    -0.650 OA
BRANCH  39  41
ATOM     41  O   UNK d   0       5.526  17.964 -10.287  0.00  0.00    -0.776 OA
ATOM     42  H   UNK d   0       5.300  18.338  -9.360  0.00  0.00     0.167 HD
ENDBRANCH  39  41
ENDBRANCH  38  39
ENDBRANCH  31  38
BRANCH  27  43
ATOM     43  C   UNK d   0       5.680  12.990 -10.378  0.00  0.00     0.052 C 
BRANCH  43  44
ATOM     44  C   UNK d   0       5.538  13.353 -11.820  0.00  0.00     0.115 C 
BRANCH  44  45
ATOM     45  C   UNK d   0       5.710  12.095 -12.593  0.00  0.00     0.139 C 
ATOM     46  O   UNK d   0       4.973  11.119 -12.306  0.00  0.00    -0.650 OA
BRANCH  45  47
ATOM     47  O   UNK d   0       6.635  11.960 -13.606  0.00  0.00    -0.776 OA
ATOM     48  H   UNK d   0       6.863  11.051 -14.039  0.00  0.00     0.167 HD
ENDBRANCH  45  47
ENDBRANCH  44  45
ENDBRANCH  43  44
ENDBRANCH  27  43
BRANCH  24  49
ATOM     49  C   UNK d   0       8.735   8.518 -11.526  0.00  0.00     0.052 C 
BRANCH  49  50
ATOM     50  C   UNK d   0       7.668   8.847 -12.538  0.00  0.00     0.115 C 
BRANCH  50  51
ATOM     51  C   UNK d   0       8.032   8.744 -13.945  0.00  0.00     0.139 C 
ATOM     52  O   UNK d   0       8.559   9.689 -14.578  0.00  0.00    -0.650 OA
BRANCH  51  53
ATOM     53  O   UNK d   0       7.792   7.564 -14.632  0.00  0.00    -0.776 OA
ATOM     54  H   UNK d   0       7.198   6.877 -14.202  0.00  0.00     0.167 HD
ENDBRANCH  51  53
ENDBRANCH  50  51
ENDBRANCH  49  50
ENDBRANCH  24  49
BRANCH  21  55
ATOM     55  C   UNK d   0      11.611   8.655 -12.646  0.00  0.00     0.151 C 
BRANCH  55  56
ATOM     56  C   UNK d   0      12.396   7.770 -11.772  0.00  0.00     0.143 C 
ATOM     57  O   UNK d   0      12.065   6.593 -11.531  0.00  0.00    -0.650 OA
BRANCH  56  58
ATOM     58  O   UNK d   0      13.555   8.288 -11.197  0.00  0.00    -0.776 OA
ATOM     59  H   UNK d   0      13.630   9.321 -11.219  0.00  0.00     0.167 HD
ENDBRANCH  56  58
ENDBRANCH  55  56
ENDBRANCH  21  55
BRANCH  18  60
ATOM     60  C   UNK d   0      15.497  11.818 -10.721  0.00  0.00     0.151 C 
BRANCH  60  61
ATOM     61  C   UNK d   0      15.373  11.105  -9.440  0.00  0.00     0.143 C 
ATOM     62  O   UNK d   0      14.433  10.401  -9.071  0.00  0.00    -0.650 OA
BRANCH  61  63
ATOM     63  O   UNK d   0      16.466  11.263  -8.555  0.00  0.00    -0.776 OA
ATOM     64  H   UNK d   0      16.884  12.163  -8.402  0.00  0.00     0.167 HD
ENDBRANCH  61  63
ENDBRANCH  60  61
ENDBRANCH  18  60
BRANCH  14  65
ATOM     65  C   UNK d   0      15.934  14.645  -9.707  0.00  0.00     0.052 C 
BRANCH  65  66
ATOM     66  C   UNK d   0      16.665  15.465 -10.710  0.00  0.00     0.115 C 
BRANCH  66  67
ATOM     67  C   UNK d   0      17.286  14.826 -11.836  0.00  0.00     0.139 C 
ATOM     68  O   UNK d   0      16.633  14.761 -12.941  0.00  0.00    -0.650 OA
BRANCH  67  69
ATOM     69  O   UNK d   0      18.552  14.244 -11.895  0.00  0.00    -0.776 OA
ATOM     70  H   UNK d   0      18.978  14.192 -12.832  0.00  0.00     0.167 HD
ENDBRANCH  67  69
ENDBRANCH  66  67
ENDBRANCH  65  66
ENDBRANCH  14  65
ENDBRANCH   6   7
ENDBRANCH   5   6
ENDBRANCH   2   5
TORSDOF 28
ENDMDL
MODEL 8
REMARK VINA RESULT:      -7.2     31.669     36.406
REMARK  28 active torsions:
REMARK  status: ('A' for Active; 'I' for Inactive)
REMARK    1  A    between atoms: C_2  and  O_3 
REMARK    2  A    between atoms: C_2  and  C_4 
REMARK    3  A    between atoms: C_4  and  C_5 
REMARK    4  A    between atoms: C_5  and  C_6 
REMARK    5  A    between atoms: C_7  and  C_8 
REMARK    6  A    between atoms: C_8  and  C_9 
REMARK    7  A    between atoms: C_9  and  O_11 
REMARK    8  A    between atoms: C_28  and  C_29 
REMARK    9  A    between atoms: C_29  and  C_30 
REMARK   10  A    between atoms: C_30  and  O_32 
REMARK   11  A    between atoms: C_33  and  C_34 
REMARK   12  A    between atoms: C_34  and  C_35 
REMARK   13  A    between atoms: C_35  and  C_36 
REMARK   14  A    between atoms: C_36  and  O_38 
REMARK   15  A    between atoms: C_39  and  C_40 
REMARK   16  A    between atoms: C_40  and  C_41 
REMARK   17  A    between atoms: C_41  and  C_42 
REMARK   18  A    between atoms: C_42  and  O_44 
REMARK   19  A    between atoms: C_45  and  C_46 
REMARK   20  A    between atoms: C_46  and  C_47 
REMARK   21  A    between atoms: C_47  and  O_49 
REMARK   22  A    between atoms: C_50  and  C_51 
REMARK   23  A    between atoms: C_51  and  C_52 
REMARK   24  A    between atoms: C_52  and  O_54 
REMARK   25  A    between atoms: C_55  and  C_56 
REMARK   26  A    between atoms: C_56  and  C_57 
REMARK   27  A    between atoms: C_57  and  C_58 
REMARK   28  A    between atoms: C_58  and  O_60 
ROOT
ATOM      1  O   UNK d   0     -11.640  11.484   0.328  0.00  0.00    -0.650 OA
ATOM      2  C   UNK d   0     -11.572  12.621  -0.189  0.00  0.00     0.139 C 
ENDROOT
BRANCH   2   3
ATOM      3  O   UNK d   0     -10.562  13.473   0.187  0.00  0.00    -0.776 OA
ATOM      4  H   UNK d   0      -9.666  13.112   0.523  0.00  0.00     0.167 HD
ENDBRANCH   2   3
BRANCH   2   5
ATOM      5  C   UNK d   0     -12.581  13.044  -1.202  0.00  0.00     0.115 C 
BRANCH   5   6
ATOM      6  C   UNK d   0     -13.948  13.104  -0.577  0.00  0.00     0.052 C 
BRANCH   6   7
ATOM      7  C   UNK d   0     -13.960  13.876   0.721  0.00  0.00    -0.020 A 
ATOM      8  C   UNK d   0     -13.756  15.158   0.889  0.00  0.00    -0.011 A 
ATOM      9  C   UNK d   0     -13.858  15.442   2.311  0.00  0.00     0.067 A 
ATOM     10  C   UNK d   0     -13.768  16.582   3.125  0.00  0.00     0.062 C 
ATOM     11  N   UNK d   0     -14.121  14.274   2.935  0.00  0.00    -0.248 NA
ATOM     12  C   UNK d   0     -14.174  16.705   4.458  0.00  0.00     0.041 A 
ATOM     13  N   UNK d   0     -14.028  15.875   5.509  0.00  0.00    -0.355 N 
ATOM     14  C   UNK d   0     -14.914  17.837   4.843  0.00  0.00    -0.022 A 
ATOM     15  C   UNK d   0     -14.664  16.448   6.548  0.00  0.00     0.042 A 
ATOM     16  H   UNK d   0     -13.470  14.913   5.521  0.00  0.00     0.166 HD
ATOM     17  C   UNK d   0     -14.820  16.010   7.878  0.00  0.00     0.062 C 
ATOM     18  C   UNK d   0     -15.233  17.680   6.169  0.00  0.00    -0.013 A 
ATOM     19  C   UNK d   0     -15.150  14.761   8.341  0.00  0.00     0.067 A 
ATOM     20  N   UNK d   0     -15.136  13.764   7.454  0.00  0.00    -0.248 NA
ATOM     21  C   UNK d   0     -15.551  14.193   9.618  0.00  0.00    -0.011 A 
ATOM     22  C   UNK d   0     -15.500  12.585   8.057  0.00  0.00     0.066 A 
ATOM     23  C   UNK d   0     -15.491  11.453   7.254  0.00  0.00     0.062 C 
ATOM     24  C   UNK d   0     -15.758  12.920   9.443  0.00  0.00    -0.020 A 
ATOM     25  C   UNK d   0     -15.068  11.349   5.920  0.00  0.00     0.041 A 
ATOM     26  N   UNK d   0     -15.225  12.166   4.872  0.00  0.00    -0.355 N 
ATOM     27  C   UNK d   0     -14.321  10.214   5.536  0.00  0.00    -0.022 A 
ATOM     28  C   UNK d   0     -14.599  11.593   3.832  0.00  0.00     0.042 A 
ATOM     29  H   UNK d   0     -15.795  13.128   4.858  0.00  0.00     0.166 HD
ATOM     30  C   UNK d   0     -14.444  12.013   2.502  0.00  0.00     0.062 C 
ATOM     31  C   UNK d   0     -14.019  10.360   4.216  0.00  0.00    -0.013 A 
ATOM     32  C   UNK d   0     -14.195  13.294   2.034  0.00  0.00     0.066 A 
BRANCH   8  33
ATOM     33  C   UNK d   0     -13.467  16.153  -0.160  0.00  0.00     0.151 C 
BRANCH  33  34
ATOM     34  C   UNK d   0     -12.023  16.334  -0.393  0.00  0.00     0.143 C 
ATOM     35  O   UNK d   0     -11.230  16.414   0.556  0.00  0.00    -0.650 OA
BRANCH  34  36
ATOM     36  O   UNK d   0     -11.552  16.415  -1.683  0.00  0.00    -0.776 OA
ATOM     37  H   UNK d   0     -11.892  17.139  -2.331  0.00  0.00     0.167 HD
ENDBRANCH  34  36
ENDBRANCH  33  34
ENDBRANCH   8  33
BRANCH  31  38
ATOM     38  C   UNK d   0     -13.218   9.397   3.373  0.00  0.00     0.151 C 
BRANCH  38  39
ATOM     39  C   UNK d   0     -11.794   9.648   3.432  0.00  0.00     0.143 C 
ATOM     40  O   UNK d   0     -11.326  10.786   3.614  0.00  0.00    -0.650 OA
BRANCH  39  41
ATOM     41  O   UNK d   0     -10.903   8.586   3.283  0.00  0.00    -0.776 OA
ATOM     42  H   UNK d   0     -10.027   8.784   2.790  0.00  0.00     0.167 HD
ENDBRANCH  39  41
ENDBRANCH  38  39
ENDBRANCH  31  38
BRANCH  27  43
ATOM     43  C   UNK d   0     -13.895   9.023   6.358  0.00  0.00     0.052 C 
BRANCH  43  44
ATOM     44  C   UNK d   0     -12.857   9.353   7.381  0.00  0.00     0.115 C 
BRANCH  44  45
ATOM     45  C   UNK d   0     -11.553   8.915   6.818  0.00  0.00     0.139 C 
ATOM     46  O   UNK d   0     -10.552   9.650   7.004  0.00  0.00    -0.650 OA
BRANCH  45  47
ATOM     47  O   UNK d   0     -11.400   7.742   6.112  0.00  0.00    -0.776 OA
ATOM     48  H   UNK d   0     -11.572   7.673   5.096  0.00  0.00     0.167 HD
ENDBRANCH  45  47
ENDBRANCH  44  45
ENDBRANCH  43  44
ENDBRANCH  27  43
BRANCH  24  49
ATOM     49  C   UNK d   0     -16.143  11.952  10.485  0.00  0.00     0.052 C 
BRANCH  49  50
ATOM     50  C   UNK d   0     -14.958  11.107  10.879  0.00  0.00     0.115 C 
BRANCH  50  51
ATOM     51  C   UNK d   0     -15.000   9.695  10.525  0.00  0.00     0.139 C 
ATOM     52  O   UNK d   0     -15.955   9.185   9.893  0.00  0.00    -0.650 OA
BRANCH  51  53
ATOM     53  O   UNK d   0     -13.954   8.863  10.893  0.00  0.00    -0.776 OA
ATOM     54  H   UNK d   0     -13.327   8.543  10.177  0.00  0.00     0.167 HD
ENDBRANCH  51  53
ENDBRANCH  50  51
ENDBRANCH  49  50
ENDBRANCH  24  49
BRANCH  21  55
ATOM     55  C   UNK d   0     -15.680  14.981  10.879  0.00  0.00     0.151 C 
BRANCH  55  56
ATOM     56  C   UNK d   0     -16.959  15.705  10.948  0.00  0.00     0.143 C 
ATOM     57  O   UNK d   0     -17.101  16.867  10.519  0.00  0.00    -0.650 OA
BRANCH  56  58
ATOM     58  O   UNK d   0     -18.047  15.048  11.521  0.00  0.00    -0.776 OA
ATOM     59  H   UNK d   0     -18.971  15.465  11.306  0.00  0.00     0.167 HD
ENDBRANCH  56  58
ENDBRANCH  55  56
ENDBRANCH  21  55
BRANCH  18  60
ATOM     60  C   UNK d   0     -16.033  18.662   6.988  0.00  0.00     0.151 C 
BRANCH  60  61
ATOM     61  C   UNK d   0     -17.445  18.301   6.786  0.00  0.00     0.143 C 
ATOM     62  O   UNK d   0     -18.173  18.648   5.856  0.00  0.00    -0.650 OA
BRANCH  61  63
ATOM     63  O   UNK d   0     -18.001  17.462   7.781  0.00  0.00    -0.776 OA
ATOM     64  H   UNK d   0     -17.536  17.323   8.661  0.00  0.00     0.167 HD
ENDBRANCH  61  63
ENDBRANCH  60  61
ENDBRANCH  18  60
BRANCH  14  65
ATOM     65  C   UNK d   0     -15.256  19.089   4.086  0.00  0.00     0.052 C 
BRANCH  65  66
ATOM     66  C   UNK d   0     -14.113  20.035   3.980  0.00  0.00     0.115 C 
BRANCH  66  67
ATOM     67  C   UNK d   0     -13.091  20.033   4.989  0.00  0.00     0.139 C 
ATOM     68  O   UNK d   0     -13.282  20.723   6.057  0.00  0.00    -0.650 OA
BRANCH  67  69
ATOM     69  O   UNK d   0     -11.872  19.356   4.967  0.00  0.00    -0.776 OA
ATOM     70  H   UNK d   0     -11.653  18.800   5.807  0.00  0.00     0.167 HD
ENDBRANCH  67  69
ENDBRANCH  66  67
ENDBRANCH  65  66
ENDBRANCH  14  65
ENDBRANCH   6   7
ENDBRANCH   5   6
ENDBRANCH   2   5
TORSDOF 28
ENDMDL
MODEL 9
REMARK VINA RESULT:      -7.1     17.030     20.332
REMARK  28 active torsions:
REMARK  status: ('A' for Active; 'I' for Inactive)
REMARK    1  A    between atoms: C_2  and  O_3 
REMARK    2  A    between atoms: C_2  and  C_4 
REMARK    3  A    between atoms: C_4  and  C_5 
REMARK    4  A    between atoms: C_5  and  C_6 
REMARK    5  A    between atoms: C_7  and  C_8 
REMARK    6  A    between atoms: C_8  and  C_9 
REMARK    7  A    between atoms: C_9  and  O_11 
REMARK    8  A    between atoms: C_28  and  C_29 
REMARK    9  A    between atoms: C_29  and  C_30 
REMARK   10  A    between atoms: C_30  and  O_32 
REMARK   11  A    between atoms: C_33  and  C_34 
REMARK   12  A    between atoms: C_34  and  C_35 
REMARK   13  A    between atoms: C_35  and  C_36 
REMARK   14  A    between atoms: C_36  and  O_38 
REMARK   15  A    between atoms: C_39  and  C_40 
REMARK   16  A    between atoms: C_40  and  C_41 
REMARK   17  A    between atoms: C_41  and  C_42 
REMARK   18  A    between atoms: C_42  and  O_44 
REMARK   19  A    between atoms: C_45  and  C_46 
REMARK   20  A    between atoms: C_46  and  C_47 
REMARK   21  A    between atoms: C_47  and  O_49 
REMARK   22  A    between atoms: C_50  and  C_51 
REMARK   23  A    between atoms: C_51  and  C_52 
REMARK   24  A    between atoms: C_52  and  O_54 
REMARK   25  A    between atoms: C_55  and  C_56 
REMARK   26  A    between atoms: C_56  and  C_57 
REMARK   27  A    between atoms: C_57  and  C_58 
REMARK   28  A    between atoms: C_58  and  O_60 
ROOT
ATOM      1  O   UNK d   0       9.793 -10.634 -16.046  0.00  0.00    -0.650 OA
ATOM      2  C   UNK d   0       9.777  -9.418 -16.340  0.00  0.00     0.139 C 
ENDROOT
BRANCH   2   3
ATOM      3  O   UNK d   0      10.948  -8.798 -16.706  0.00  0.00    -0.776 OA
ATOM      4  H   UNK d   0      11.161  -8.611 -17.688  0.00  0.00     0.167 HD
ENDBRANCH   2   3
BRANCH   2   5
ATOM      5  C   UNK d   0       8.499  -8.652 -16.292  0.00  0.00     0.115 C 
BRANCH   5   6
ATOM      6  C   UNK d   0       8.524  -7.676 -15.147  0.00  0.00     0.052 C 
BRANCH   6   7
ATOM      7  C   UNK d   0       8.328  -8.345 -13.808  0.00  0.00    -0.020 A 
ATOM      8  C   UNK d   0       9.159  -8.367 -12.798  0.00  0.00    -0.011 A 
ATOM      9  C   UNK d   0       8.542  -9.138 -11.731  0.00  0.00     0.067 A 
ATOM     10  C   UNK d   0       8.885  -9.510 -10.421  0.00  0.00     0.062 C 
ATOM     11  N   UNK d   0       7.339  -9.552 -12.180  0.00  0.00    -0.248 NA
ATOM     12  C   UNK d   0       8.035 -10.026  -9.437  0.00  0.00     0.041 A 
ATOM     13  N   UNK d   0       7.061 -10.954  -9.505  0.00  0.00    -0.355 N 
ATOM     14  C   UNK d   0       8.106  -9.503  -8.134  0.00  0.00    -0.022 A 
ATOM     15  C   UNK d   0       6.508 -11.028  -8.280  0.00  0.00     0.042 A 
ATOM     16  H   UNK d   0       6.784 -11.560 -10.396  0.00  0.00     0.166 HD
ATOM     17  C   UNK d   0       5.456 -11.833  -7.799  0.00  0.00     0.062 C 
ATOM     18  C   UNK d   0       7.136 -10.132  -7.393  0.00  0.00    -0.013 A 
ATOM     19  C   UNK d   0       4.246 -12.110  -8.382  0.00  0.00     0.067 A 
ATOM     20  N   UNK d   0       4.091 -11.743  -9.657  0.00  0.00    -0.248 NA
ATOM     21  C   UNK d   0       2.998 -12.722  -7.958  0.00  0.00    -0.011 A 
ATOM     22  C   UNK d   0       2.832 -12.070 -10.097  0.00  0.00     0.066 A 
ATOM     23  C   UNK d   0       2.547 -11.778 -11.423  0.00  0.00     0.062 C 
ATOM     24  C   UNK d   0       2.173 -12.691  -8.965  0.00  0.00    -0.020 A 
ATOM     25  C   UNK d   0       3.419 -11.271 -12.399  0.00  0.00     0.041 A 
ATOM     26  N   UNK d   0       4.377 -10.338 -12.335  0.00  0.00    -0.355 N 
ATOM     27  C   UNK d   0       3.350 -11.800 -13.706  0.00  0.00    -0.022 A 
ATOM     28  C   UNK d   0       4.924 -10.256 -13.558  0.00  0.00     0.042 A 
ATOM     29  H   UNK d   0       4.647  -9.723 -11.442  0.00  0.00     0.166 HD
ATOM     30  C   UNK d   0       5.964  -9.453 -14.052  0.00  0.00     0.062 C 
ATOM     31  C   UNK d   0       4.299 -11.164 -14.446  0.00  0.00    -0.013 A 
ATOM     32  C   UNK d   0       7.149  -9.107 -13.423  0.00  0.00     0.066 A 
BRANCH   8  33
ATOM     33  C   UNK d   0      10.490  -7.736 -12.732  0.00  0.00     0.151 C 
BRANCH  33  34
ATOM     34  C   UNK d   0      11.585  -8.684 -13.008  0.00  0.00     0.143 C 
ATOM     35  O   UNK d   0      12.122  -8.730 -14.124  0.00  0.00    -0.650 OA
BRANCH  34  36
ATOM     36  O   UNK d   0      12.014  -9.529 -12.010  0.00  0.00    -0.776 OA
ATOM     37  H   UNK d   0      11.371 -10.198 -11.564  0.00  0.00     0.167 HD
ENDBRANCH  34  36
ENDBRANCH  33  34
ENDBRANCH   8  33
BRANCH  31  38
ATOM     38  C   UNK d   0       4.606 -11.411 -15.904  0.00  0.00     0.151 C 
BRANCH  38  39
ATOM     39  C   UNK d   0       3.857 -10.544 -16.790  0.00  0.00     0.143 C 
ATOM     40  O   UNK d   0       3.074 -10.987 -17.648  0.00  0.00    -0.650 OA
BRANCH  39  41
ATOM     41  O   UNK d   0       4.010  -9.162 -16.688  0.00  0.00    -0.776 OA
ATOM     42  H   UNK d   0       4.950  -8.816 -16.473  0.00  0.00     0.167 HD
ENDBRANCH  39  41
ENDBRANCH  38  39
ENDBRANCH  31  38
BRANCH  27  43
ATOM     43  C   UNK d   0       2.434 -12.861 -14.263  0.00  0.00     0.052 C 
BRANCH  43  44
ATOM     44  C   UNK d   0       1.129 -12.319 -14.750  0.00  0.00     0.115 C 
BRANCH  44  45
ATOM     45  C   UNK d   0       0.925 -12.867 -16.116  0.00  0.00     0.139 C 
ATOM     46  O   UNK d   0       1.301 -14.044 -16.343  0.00  0.00    -0.650 OA
BRANCH  45  47
ATOM     47  O   UNK d   0       0.339 -12.144 -17.132  0.00  0.00    -0.776 OA
ATOM     48  H   UNK d   0       0.319 -12.469 -18.112  0.00  0.00     0.167 HD
ENDBRANCH  45  47
ENDBRANCH  44  45
ENDBRANCH  43  44
ENDBRANCH  27  43
BRANCH  24  49
ATOM     49  C   UNK d   0       0.806 -13.241  -8.985  0.00  0.00     0.052 C 
BRANCH  49  50
ATOM     50  C   UNK d   0      -0.185 -12.196  -8.542  0.00  0.00     0.115 C 
BRANCH  50  51
ATOM     51  C   UNK d   0      -0.976 -12.491  -7.355  0.00  0.00     0.139 C 
ATOM     52  O   UNK d   0      -0.998 -13.625  -6.821  0.00  0.00    -0.650 OA
BRANCH  51  53
ATOM     53  O   UNK d   0      -1.745 -11.492  -6.776  0.00  0.00    -0.776 OA
ATOM     54  H   UNK d   0      -1.333 -10.939  -6.046  0.00  0.00     0.167 HD
ENDBRANCH  51  53
ENDBRANCH  50  51
ENDBRANCH  49  50
ENDBRANCH  24  49
BRANCH  21  55
ATOM     55  C   UNK d   0       2.761 -13.277  -6.593  0.00  0.00     0.151 C 
BRANCH  55  56
ATOM     56  C   UNK d   0       2.662 -12.218  -5.577  0.00  0.00     0.143 C 
ATOM     57  O   UNK d   0       1.619 -11.563  -5.384  0.00  0.00    -0.650 OA
BRANCH  56  58
ATOM     58  O   UNK d   0       3.792 -11.949  -4.807  0.00  0.00    -0.776 OA
ATOM     59  H   UNK d   0       4.194 -11.003  -4.937  0.00  0.00     0.167 HD
ENDBRANCH  56  58
ENDBRANCH  55  56
ENDBRANCH  21  55
BRANCH  18  60
ATOM     60  C   UNK d   0       6.854  -9.867  -5.935  0.00  0.00     0.151 C 
BRANCH  60  61
ATOM     61  C   UNK d   0       5.722  -8.929  -5.906  0.00  0.00     0.143 C 
ATOM     62  O   UNK d   0       4.545  -9.179  -6.169  0.00  0.00    -0.650 OA
BRANCH  61  63
ATOM     63  O   UNK d   0       6.047  -7.603  -5.533  0.00  0.00    -0.776 OA
ATOM     64  H   UNK d   0       6.603  -7.018  -6.130  0.00  0.00     0.167 HD
ENDBRANCH  61  63
ENDBRANCH  60  61
ENDBRANCH  18  60
BRANCH  14  65
ATOM     65  C   UNK d   0       9.076  -8.535  -7.517  0.00  0.00     0.052 C 
BRANCH  65  66
ATOM     66  C   UNK d   0       9.083  -7.210  -8.191  0.00  0.00     0.115 C 
BRANCH  66  67
ATOM     67  C   UNK d   0       8.178  -6.184  -7.754  0.00  0.00     0.139 C 
ATOM     68  O   UNK d   0       8.066  -5.960  -6.493  0.00  0.00    -0.650 OA
BRANCH  67  69
ATOM     69  O   UNK d   0       7.371  -5.365  -8.543  0.00  0.00    -0.776 OA
ATOM     70  H   UNK d   0       6.897  -5.829  -9.331  0.00  0.00     0.167 HD
ENDBRANCH  67  69
ENDBRANCH  66  67
ENDBRANCH  65  66
ENDBRANCH  14  65
ENDBRANCH   6   7
ENDBRANCH   5   6
ENDBRANCH   2   5
TORSDOF 28
ENDMDL
MODEL 10
REMARK VINA RESULT:      -7.1     15.485     19.729
REMARK  28 active torsions:
REMARK  status: ('A' for Active; 'I' for Inactive)
REMARK    1  A    between atoms: C_2  and  O_3 
REMARK    2  A    between atoms: C_2  and  C_4 
REMARK    3  A    between atoms: C_4  and  C_5 
REMARK    4  A    between atoms: C_5  and  C_6 
REMARK    5  A    between atoms: C_7  and  C_8 
REMARK    6  A    between atoms: C_8  and  C_9 
REMARK    7  A    between atoms: C_9  and  O_11 
REMARK    8  A    between atoms: C_28  and  C_29 
REMARK    9  A    between atoms: C_29  and  C_30 
REMARK   10  A    between atoms: C_30  and  O_32 
REMARK   11  A    between atoms: C_33  and  C_34 
REMARK   12  A    between atoms: C_34  and  C_35 
REMARK   13  A    between atoms: C_35  and  C_36 
REMARK   14  A    between atoms: C_36  and  O_38 
REMARK   15  A    between atoms: C_39  and  C_40 
REMARK   16  A    between atoms: C_40  and  C_41 
REMARK   17  A    between atoms: C_41  and  C_42 
REMARK   18  A    between atoms: C_42  and  O_44 
REMARK   19  A    between atoms: C_45  and  C_46 
REMARK   20  A    between atoms: C_46  and  C_47 
REMARK   21  A    between atoms: C_47  and  O_49 
REMARK   22  A    between atoms: C_50  and  C_51 
REMARK   23  A    between atoms: C_51  and  C_52 
REMARK   24  A    between atoms: C_52  and  O_54 
REMARK   25  A    between atoms: C_55  and  C_56 
REMARK   26  A    between atoms: C_56  and  C_57 
REMARK   27  A    between atoms: C_57  and  C_58 
REMARK   28  A    between atoms: C_58  and  O_60 
ROOT
ATOM      1  O   UNK d   0      11.386 -14.276 -12.143  0.00  0.00    -0.650 OA
ATOM      2  C   UNK d   0      11.086 -13.652 -13.185  0.00  0.00     0.139 C 
ENDROOT
BRANCH   2   3
ATOM      3  O   UNK d   0       9.986 -14.043 -13.911  0.00  0.00    -0.776 OA
ATOM      4  H   UNK d   0       9.723 -13.558 -14.771  0.00  0.00     0.167 HD
ENDBRANCH   2   3
BRANCH   2   5
ATOM      5  C   UNK d   0      11.916 -12.498 -13.632  0.00  0.00     0.115 C 
BRANCH   5   6
ATOM      6  C   UNK d   0      11.177 -11.208 -13.401  0.00  0.00     0.052 C 
BRANCH   6   7
ATOM      7  C   UNK d   0      10.830 -10.988 -11.948  0.00  0.00    -0.020 A 
ATOM      8  C   UNK d   0      11.637 -10.639 -10.979  0.00  0.00    -0.011 A 
ATOM      9  C   UNK d   0      10.856 -10.560  -9.756  0.00  0.00     0.067 A 
ATOM     10  C   UNK d   0      11.105 -10.229  -8.415  0.00  0.00     0.062 C 
ATOM     11  N   UNK d   0       9.584 -10.882 -10.072  0.00  0.00    -0.248 NA
ATOM     12  C   UNK d   0      10.161  -9.937  -7.425  0.00  0.00     0.041 A 
ATOM     13  N   UNK d   0       8.986 -10.522  -7.120  0.00  0.00    -0.355 N 
ATOM     14  C   UNK d   0      10.370  -8.823  -6.592  0.00  0.00    -0.022 A 
ATOM     15  C   UNK d   0       8.441  -9.802  -6.121  0.00  0.00     0.042 A 
ATOM     16  H   UNK d   0       8.560 -11.436  -7.589  0.00  0.00     0.166 HD
ATOM     17  C   UNK d   0       7.226  -9.975  -5.429  0.00  0.00     0.062 C 
ATOM     18  C   UNK d   0       9.279  -8.729  -5.763  0.00  0.00    -0.013 A 
ATOM     19  C   UNK d   0       5.981 -10.256  -5.930  0.00  0.00     0.067 A 
ATOM     20  N   UNK d   0       5.912 -10.613  -7.215  0.00  0.00    -0.248 NA
ATOM     21  C   UNK d   0       4.623 -10.259  -5.412  0.00  0.00    -0.011 A 
ATOM     22  C   UNK d   0       4.608 -10.847  -7.576  0.00  0.00     0.066 A 
ATOM     23  C   UNK d   0       4.395 -11.264  -8.882  0.00  0.00     0.062 C 
ATOM     24  C   UNK d   0       3.824 -10.602  -6.381  0.00  0.00    -0.020 A 
ATOM     25  C   UNK d   0       5.358 -11.563  -9.857  0.00  0.00     0.041 A 
ATOM     26  N   UNK d   0       6.518 -10.973 -10.170  0.00  0.00    -0.355 N 
ATOM     27  C   UNK d   0       5.150 -12.685 -10.689  0.00  0.00    -0.022 A 
ATOM     28  C   UNK d   0       7.060 -11.684 -11.172  0.00  0.00     0.042 A 
ATOM     29  H   UNK d   0       6.940 -10.048  -9.705  0.00  0.00     0.166 HD
ATOM     30  C   UNK d   0       8.263 -11.518 -11.876  0.00  0.00     0.062 C 
ATOM     31  C   UNK d   0       6.222 -12.769 -11.524  0.00  0.00    -0.013 A 
ATOM     32  C   UNK d   0       9.502 -11.150 -11.376  0.00  0.00     0.066 A 
BRANCH   8  33
ATOM     33  C   UNK d   0      13.084 -10.374 -11.084  0.00  0.00     0.151 C 
BRANCH  33  34
ATOM     34  C   UNK d   0      13.396  -9.270 -12.010  0.00  0.00     0.143 C 
ATOM     35  O   UNK d   0      14.529  -9.150 -12.498  0.00  0.00    -0.650 OA
BRANCH  34  36
ATOM     36  O   UNK d   0      12.415  -8.362 -12.333  0.00  0.00    -0.776 OA
ATOM     37  H   UNK d   0      12.555  -7.666 -13.078  0.00  0.00     0.167 HD
ENDBRANCH  34  36
ENDBRANCH  33  34
ENDBRANCH   8  33
BRANCH  31  38
ATOM     38  C   UNK d   0       6.446 -13.822 -12.583  0.00  0.00     0.151 C 
BRANCH  38  39
ATOM     39  C   UNK d   0       7.005 -15.046 -12.049  0.00  0.00     0.143 C 
ATOM     40  O   UNK d   0       6.312 -16.057 -11.838  0.00  0.00    -0.650 OA
BRANCH  39  41
ATOM     41  O   UNK d   0       8.367 -15.108 -11.756  0.00  0.00    -0.776 OA
ATOM     42  H   UNK d   0       8.970 -15.547 -12.458  0.00  0.00     0.167 HD
ENDBRANCH  39  41
ENDBRANCH  38  39
ENDBRANCH  31  38
BRANCH  27  43
ATOM     43  C   UNK d   0       3.995 -13.654 -10.720  0.00  0.00     0.052 C 
BRANCH  43  44
ATOM     44  C   UNK d   0       3.038 -13.397 -11.839  0.00  0.00     0.115 C 
BRANCH  44  45
ATOM     45  C   UNK d   0       1.726 -13.090 -11.212  0.00  0.00     0.139 C 
ATOM     46  O   UNK d   0       0.760 -13.856 -11.454  0.00  0.00    -0.650 OA
BRANCH  45  47
ATOM     47  O   UNK d   0       1.530 -12.009 -10.380  0.00  0.00    -0.776 OA
ATOM     48  H   UNK d   0       2.310 -11.478  -9.959  0.00  0.00     0.167 HD
ENDBRANCH  45  47
ENDBRANCH  44  45
ENDBRANCH  43  44
ENDBRANCH  27  43
BRANCH  24  49
ATOM     49  C   UNK d   0       2.363 -10.768  -6.285  0.00  0.00     0.052 C 
BRANCH  49  50
ATOM     50  C   UNK d   0       2.014 -12.218  -6.067  0.00  0.00     0.115 C 
BRANCH  50  51
ATOM     51  C   UNK d   0       1.470 -12.949  -7.204  0.00  0.00     0.139 C 
ATOM     52  O   UNK d   0       2.145 -13.775  -7.863  0.00  0.00    -0.650 OA
BRANCH  51  53
ATOM     53  O   UNK d   0       0.156 -12.737  -7.591  0.00  0.00    -0.776 OA
ATOM     54  H   UNK d   0      -0.015 -12.161  -8.397  0.00  0.00     0.167 HD
ENDBRANCH  51  53
ENDBRANCH  50  51
ENDBRANCH  49  50
ENDBRANCH  24  49
BRANCH  21  55
ATOM     55  C   UNK d   0       4.266  -9.924  -4.002  0.00  0.00     0.151 C 
BRANCH  55  56
ATOM     56  C   UNK d   0       3.877  -8.514  -3.852  0.00  0.00     0.143 C 
ATOM     57  O   UNK d   0       4.179  -7.638  -4.686  0.00  0.00    -0.650 OA
BRANCH  56  58
ATOM     58  O   UNK d   0       3.139  -8.160  -2.724  0.00  0.00    -0.776 OA
ATOM     59  H   UNK d   0       2.202  -8.599  -2.659  0.00  0.00     0.167 HD
ENDBRANCH  56  58
ENDBRANCH  55  56
ENDBRANCH  21  55
BRANCH  18  60
ATOM     60  C   UNK d   0       9.083  -7.666  -4.710  0.00  0.00     0.151 C 
BRANCH  60  61
ATOM     61  C   UNK d   0       8.040  -6.769  -5.231  0.00  0.00     0.143 C 
ATOM     62  O   UNK d   0       8.031  -6.195  -6.321  0.00  0.00    -0.650 OA
BRANCH  61  63
ATOM     63  O   UNK d   0       6.938  -6.561  -4.367  0.00  0.00    -0.776 OA
ATOM     64  H   UNK d   0       6.889  -5.751  -3.776  0.00  0.00     0.167 HD
ENDBRANCH  61  63
ENDBRANCH  60  61
ENDBRANCH  18  60
BRANCH  14  65
ATOM     65  C   UNK d   0      11.554  -7.909  -6.456  0.00  0.00     0.052 C 
BRANCH  65  66
ATOM     66  C   UNK d   0      12.702  -8.545  -5.755  0.00  0.00     0.115 C 
BRANCH  66  67
ATOM     67  C   UNK d   0      12.484  -9.237  -4.516  0.00  0.00     0.139 C 
ATOM     68  O   UNK d   0      12.578 -10.520  -4.505  0.00  0.00    -0.650 OA
BRANCH  67  69
ATOM     69  O   UNK d   0      12.173  -8.686  -3.274  0.00  0.00    -0.776 OA
ATOM     70  H   UNK d   0      11.938  -9.360  -2.531  0.00  0.00     0.167 HD
ENDBRANCH  67  69
ENDBRANCH  66  67
ENDBRANCH  65  66
ENDBRANCH  14  65
ENDBRANCH   6   7
ENDBRANCH   5   6
ENDBRANCH   2   5
TORSDOF 28
ENDMDL
MODEL 11
REMARK VINA RESULT:      -7.1     16.085     19.065
REMARK  28 active torsions:
REMARK  status: ('A' for Active; 'I' for Inactive)
REMARK    1  A    between atoms: C_2  and  O_3 
REMARK    2  A    between atoms: C_2  and  C_4 
REMARK    3  A    between atoms: C_4  and  C_5 
REMARK    4  A    between atoms: C_5  and  C_6 
REMARK    5  A    between atoms: C_7  and  C_8 
REMARK    6  A    between atoms: C_8  and  C_9 
REMARK    7  A    between atoms: C_9  and  O_11 
REMARK    8  A    between atoms: C_28  and  C_29 
REMARK    9  A    between atoms: C_29  and  C_30 
REMARK   10  A    between atoms: C_30  and  O_32 
REMARK   11  A    between atoms: C_33  and  C_34 
REMARK   12  A    between atoms: C_34  and  C_35 
REMARK   13  A    between atoms: C_35  and  C_36 
REMARK   14  A    between atoms: C_36  and  O_38 
REMARK   15  A    between atoms: C_39  and  C_40 
REMARK   16  A    between atoms: C_40  and  C_41 
REMARK   17  A    between atoms: C_41  and  C_42 
REMARK   18  A    between atoms: C_42  and  O_44 
REMARK   19  A    between atoms: C_45  and  C_46 
REMARK   20  A    between atoms: C_46  and  C_47 
REMARK   21  A    between atoms: C_47  and  O_49 
REMARK   22  A    between atoms: C_50  and  C_51 
REMARK   23  A    between atoms: C_51  and  C_52 
REMARK   24  A    between atoms: C_52  and  O_54 
REMARK   25  A    between atoms: C_55  and  C_56 
REMARK   26  A    between atoms: C_56  and  C_57 
REMARK   27  A    between atoms: C_57  and  C_58 
REMARK   28  A    between atoms: C_58  and  O_60 
ROOT
ATOM      1  O   UNK d   0      14.708  -8.724 -12.607  0.00  0.00    -0.650 OA
ATOM      2  C   UNK d   0      14.350  -7.529 -12.710  0.00  0.00     0.139 C 
ENDROOT
BRANCH   2   3
ATOM      3  O   UNK d   0      14.765  -6.618 -11.769  0.00  0.00    -0.776 OA
ATOM      4  H   UNK d   0      14.667  -6.810 -10.770  0.00  0.00     0.167 HD
ENDBRANCH   2   3
BRANCH   2   5
ATOM      5  C   UNK d   0      13.479  -7.104 -13.842  0.00  0.00     0.115 C 
BRANCH   5   6
ATOM      6  C   UNK d   0      12.381  -6.205 -13.342  0.00  0.00     0.052 C 
BRANCH   6   7
ATOM      7  C   UNK d   0      11.346  -5.908 -14.401  0.00  0.00    -0.020 A 
ATOM      8  C   UNK d   0      11.232  -4.823 -15.123  0.00  0.00    -0.011 A 
ATOM      9  C   UNK d   0      10.084  -4.989 -15.998  0.00  0.00     0.067 A 
ATOM     10  C   UNK d   0       9.455  -4.231 -16.998  0.00  0.00     0.062 C 
ATOM     11  N   UNK d   0       9.555  -6.203 -15.738  0.00  0.00    -0.248 NA
ATOM     12  C   UNK d   0       8.516  -4.677 -17.934  0.00  0.00     0.041 A 
ATOM     13  N   UNK d   0       7.451  -5.491 -17.804  0.00  0.00    -0.355 N 
ATOM     14  C   UNK d   0       8.666  -4.301 -19.281  0.00  0.00    -0.022 A 
ATOM     15  C   UNK d   0       6.927  -5.647 -19.034  0.00  0.00     0.042 A 
ATOM     16  H   UNK d   0       7.066  -5.931 -16.857  0.00  0.00     0.166 HD
ATOM     17  C   UNK d   0       5.810  -6.391 -19.463  0.00  0.00     0.062 C 
ATOM     18  C   UNK d   0       7.662  -4.916 -19.987  0.00  0.00    -0.013 A 
ATOM     19  C   UNK d   0       5.444  -7.669 -19.126  0.00  0.00     0.067 A 
ATOM     20  N   UNK d   0       6.100  -8.239 -18.112  0.00  0.00    -0.248 NA
ATOM     21  C   UNK d   0       4.481  -8.643 -19.613  0.00  0.00    -0.011 A 
ATOM     22  C   UNK d   0       5.638  -9.514 -17.901  0.00  0.00     0.066 A 
ATOM     23  C   UNK d   0       6.210 -10.211 -16.847  0.00  0.00     0.062 C 
ATOM     24  C   UNK d   0       4.602  -9.722 -18.895  0.00  0.00    -0.020 A 
ATOM     25  C   UNK d   0       7.142  -9.741 -15.910  0.00  0.00     0.041 A 
ATOM     26  N   UNK d   0       8.210  -8.944 -16.043  0.00  0.00    -0.355 N 
ATOM     27  C   UNK d   0       6.988 -10.116 -14.558  0.00  0.00    -0.022 A 
ATOM     28  C   UNK d   0       8.739  -8.794 -14.818  0.00  0.00     0.042 A 
ATOM     29  H   UNK d   0       8.601  -8.511 -16.996  0.00  0.00     0.166 HD
ATOM     30  C   UNK d   0       9.855  -8.064 -14.378  0.00  0.00     0.062 C 
ATOM     31  C   UNK d   0       7.994  -9.521 -13.860  0.00  0.00    -0.013 A 
ATOM     32  C   UNK d   0      10.268  -6.806 -14.786  0.00  0.00     0.066 A 
BRANCH   8  33
ATOM     33  C   UNK d   0      12.098  -3.630 -15.071  0.00  0.00     0.151 C 
BRANCH  33  34
ATOM     34  C   UNK d   0      11.525  -2.543 -14.257  0.00  0.00     0.143 C 
ATOM     35  O   UNK d   0      11.197  -2.737 -13.078  0.00  0.00    -0.650 OA
BRANCH  34  36
ATOM     36  O   UNK d   0      11.351  -1.299 -14.818  0.00  0.00    -0.776 OA
ATOM     37  H   UNK d   0      12.149  -0.763 -15.186  0.00  0.00     0.167 HD
ENDBRANCH  34  36
ENDBRANCH  33  34
ENDBRANCH   8  33
BRANCH  31  38
ATOM     38  C   UNK d   0       8.227  -9.623 -12.371  0.00  0.00     0.151 C 
BRANCH  38  39
ATOM     39  C   UNK d   0       7.718  -8.481 -11.642  0.00  0.00     0.143 C 
ATOM     40  O   UNK d   0       6.506  -8.204 -11.601  0.00  0.00    -0.650 OA
BRANCH  39  41
ATOM     41  O   UNK d   0       8.606  -7.652 -10.957  0.00  0.00    -0.776 OA
ATOM     42  H   UNK d   0       8.608  -6.661 -11.218  0.00  0.00     0.167 HD
ENDBRANCH  39  41
ENDBRANCH  38  39
ENDBRANCH  31  38
BRANCH  27  43
ATOM     43  C   UNK d   0       5.945 -11.000 -13.921  0.00  0.00     0.052 C 
BRANCH  43  44
ATOM     44  C   UNK d   0       4.670 -10.284 -13.616  0.00  0.00     0.115 C 
BRANCH  44  45
ATOM     45  C   UNK d   0       3.776 -11.270 -12.955  0.00  0.00     0.139 C 
ATOM     46  O   UNK d   0       4.092 -11.681 -11.811  0.00  0.00    -0.650 OA
BRANCH  45  47
ATOM     47  O   UNK d   0       2.622 -11.743 -13.541  0.00  0.00    -0.776 OA
ATOM     48  H   UNK d   0       1.812 -12.076 -12.993  0.00  0.00     0.167 HD
ENDBRANCH  45  47
ENDBRANCH  44  45
ENDBRANCH  43  44
ENDBRANCH  27  43
BRANCH  24  49
ATOM     49  C   UNK d   0       3.793 -10.946 -19.022  0.00  0.00     0.052 C 
BRANCH  49  50
ATOM     50  C   UNK d   0       2.515 -10.814 -18.234  0.00  0.00     0.115 C 
BRANCH  50  51
ATOM     51  C   UNK d   0       2.462 -11.476 -16.938  0.00  0.00     0.139 C 
ATOM     52  O   UNK d   0       3.420 -12.143 -16.479  0.00  0.00    -0.650 OA
BRANCH  51  53
ATOM     53  O   UNK d   0       1.315 -11.380 -16.164  0.00  0.00    -0.776 OA
ATOM     54  H   UNK d   0       1.165 -12.070 -15.449  0.00  0.00     0.167 HD
ENDBRANCH  51  53
ENDBRANCH  50  51
ENDBRANCH  49  50
ENDBRANCH  24  49
BRANCH  21  55
ATOM     55  C   UNK d   0       3.537  -8.392 -20.741  0.00  0.00     0.151 C 
BRANCH  55  56
ATOM     56  C   UNK d   0       2.299  -7.737 -20.290  0.00  0.00     0.143 C 
ATOM     57  O   UNK d   0       1.195  -8.315 -20.279  0.00  0.00    -0.650 OA
BRANCH  56  58
ATOM     58  O   UNK d   0       2.384  -6.413 -19.861  0.00  0.00    -0.776 OA
ATOM     59  H   UNK d   0       3.339  -6.096 -19.612  0.00  0.00     0.167 HD
ENDBRANCH  56  58
ENDBRANCH  55  56
ENDBRANCH  21  55
BRANCH  18  60
ATOM     60  C   UNK d   0       7.451  -4.793 -21.476  0.00  0.00     0.151 C 
BRANCH  60  61
ATOM     61  C   UNK d   0       8.306  -5.819 -22.091  0.00  0.00     0.143 C 
ATOM     62  O   UNK d   0       8.485  -6.971 -21.695  0.00  0.00    -0.650 OA
BRANCH  61  63
ATOM     63  O   UNK d   0       8.986  -5.412 -23.264  0.00  0.00    -0.776 OA
ATOM     64  H   UNK d   0       9.532  -4.569 -23.281  0.00  0.00     0.167 HD
ENDBRANCH  61  63
ENDBRANCH  60  61
ENDBRANCH  18  60
BRANCH  14  65
ATOM     65  C   UNK d   0       9.617  -3.335 -19.930  0.00  0.00     0.052 C 
BRANCH  65  66
ATOM     66  C   UNK d   0      10.870  -3.983 -20.403  0.00  0.00     0.115 C 
BRANCH  66  67
ATOM     67  C   UNK d   0      11.882  -4.355 -19.455  0.00  0.00     0.139 C 
ATOM     68  O   UNK d   0      12.661  -3.440 -18.998  0.00  0.00    -0.650 OA
BRANCH  67  69
ATOM     69  O   UNK d   0      12.144  -5.625 -18.941  0.00  0.00    -0.776 OA
ATOM     70  H   UNK d   0      12.751  -5.655 -18.109  0.00  0.00     0.167 HD
ENDBRANCH  67  69
ENDBRANCH  66  67
ENDBRANCH  65  66
ENDBRANCH  14  65
ENDBRANCH   6   7
ENDBRANCH   5   6
ENDBRANCH   2   5
TORSDOF 28
ENDMDL
MODEL 12
REMARK VINA RESULT:      -7.1     16.472     20.572
REMARK  28 active torsions:
REMARK  status: ('A' for Active; 'I' for Inactive)
REMARK    1  A    between atoms: C_2  and  O_3 
REMARK    2  A    between atoms: C_2  and  C_4 
REMARK    3  A    between atoms: C_4  and  C_5 
REMARK    4  A    between atoms: C_5  and  C_6 
REMARK    5  A    between atoms: C_7  and  C_8 
REMARK    6  A    between atoms: C_8  and  C_9 
REMARK    7  A    between atoms: C_9  and  O_11 
REMARK    8  A    between atoms: C_28  and  C_29 
REMARK    9  A    between atoms: C_29  and  C_30 
REMARK   10  A    between atoms: C_30  and  O_32 
REMARK   11  A    between atoms: C_33  and  C_34 
REMARK   12  A    between atoms: C_34  and  C_35 
REMARK   13  A    between atoms: C_35  and  C_36 
REMARK   14  A    between atoms: C_36  and  O_38 
REMARK   15  A    between atoms: C_39  and  C_40 
REMARK   16  A    between atoms: C_40  and  C_41 
REMARK   17  A    between atoms: C_41  and  C_42 
REMARK   18  A    between atoms: C_42  and  O_44 
REMARK   19  A    between atoms: C_45  and  C_46 
REMARK   20  A    between atoms: C_46  and  C_47 
REMARK   21  A    between atoms: C_47  and  O_49 
REMARK   22  A    between atoms: C_50  and  C_51 
REMARK   23  A    between atoms: C_51  and  C_52 
REMARK   24  A    between atoms: C_52  and  O_54 
REMARK   25  A    between atoms: C_55  and  C_56 
REMARK   26  A    between atoms: C_56  and  C_57 
REMARK   27  A    between atoms: C_57  and  C_58 
REMARK   28  A    between atoms: C_58  and  O_60 
ROOT
ATOM      1  O   UNK d   0       1.258 -13.565 -15.608  0.00  0.00    -0.650 OA
ATOM      2  C   UNK d   0       1.399 -12.388 -15.209  0.00  0.00     0.139 C 
ENDROOT
BRANCH   2   3
ATOM      3  O   UNK d   0       1.300 -11.355 -16.110  0.00  0.00    -0.776 OA
ATOM      4  H   UNK d   0       0.630 -11.390 -16.881  0.00  0.00     0.167 HD
ENDBRANCH   2   3
BRANCH   2   5
ATOM      5  C   UNK d   0       1.673 -12.113 -13.770  0.00  0.00     0.115 C 
BRANCH   5   6
ATOM      6  C   UNK d   0       2.355 -13.295 -13.138  0.00  0.00     0.052 C 
BRANCH   6   7
ATOM      7  C   UNK d   0       3.787 -13.004 -12.755  0.00  0.00    -0.020 A 
ATOM      8  C   UNK d   0       4.855 -13.136 -13.499  0.00  0.00    -0.011 A 
ATOM      9  C   UNK d   0       6.004 -12.746 -12.700  0.00  0.00     0.067 A 
ATOM     10  C   UNK d   0       7.390 -12.641 -12.902  0.00  0.00     0.062 C 
ATOM     11  N   UNK d   0       5.545 -12.396 -11.480  0.00  0.00    -0.248 NA
ATOM     12  C   UNK d   0       8.316 -11.975 -12.093  0.00  0.00     0.041 A 
ATOM     13  N   UNK d   0       8.453 -11.931 -10.754  0.00  0.00    -0.355 N 
ATOM     14  C   UNK d   0       9.275 -11.142 -12.698  0.00  0.00    -0.022 A 
ATOM     15  C   UNK d   0       9.468 -11.085 -10.494  0.00  0.00     0.042 A 
ATOM     16  H   UNK d   0       7.856 -12.501 -10.008  0.00  0.00     0.166 HD
ATOM     17  C   UNK d   0      10.027 -10.679  -9.266  0.00  0.00     0.062 C 
ATOM     18  C   UNK d   0      10.008 -10.570 -11.689  0.00  0.00    -0.013 A 
ATOM     19  C   UNK d   0       9.390 -10.297  -8.113  0.00  0.00     0.067 A 
ATOM     20  N   UNK d   0       8.074 -10.515  -8.048  0.00  0.00    -0.248 NA
ATOM     21  C   UNK d   0       9.781  -9.666  -6.863  0.00  0.00    -0.011 A 
ATOM     22  C   UNK d   0       7.576 -10.070  -6.848  0.00  0.00     0.066 A 
ATOM     23  C   UNK d   0       6.220 -10.269  -6.632  0.00  0.00     0.062 C 
ATOM     24  C   UNK d   0       8.714  -9.532  -6.130  0.00  0.00    -0.020 A 
ATOM     25  C   UNK d   0       5.309 -10.952  -7.452  0.00  0.00     0.041 A 
ATOM     26  N   UNK d   0       5.164 -10.984  -8.782  0.00  0.00    -0.355 N 
ATOM     27  C   UNK d   0       4.350 -11.791  -6.844  0.00  0.00    -0.022 A 
ATOM     28  C   UNK d   0       4.146 -11.820  -9.044  0.00  0.00     0.042 A 
ATOM     29  H   UNK d   0       5.757 -10.403  -9.530  0.00  0.00     0.166 HD
ATOM     30  C   UNK d   0       3.574 -12.226 -10.259  0.00  0.00     0.062 C 
ATOM     31  C   UNK d   0       3.611 -12.345  -7.843  0.00  0.00    -0.013 A 
ATOM     32  C   UNK d   0       4.218 -12.529 -11.449  0.00  0.00     0.066 A 
BRANCH   8  33
ATOM     33  C   UNK d   0       4.907 -13.601 -14.897  0.00  0.00     0.151 C 
BRANCH  33  34
ATOM     34  C   UNK d   0       5.119 -12.502 -15.856  0.00  0.00     0.143 C 
ATOM     35  O   UNK d   0       4.494 -11.438 -15.753  0.00  0.00    -0.650 OA
BRANCH  34  36
ATOM     36  O   UNK d   0       6.024 -12.665 -16.880  0.00  0.00    -0.776 OA
ATOM     37  H   UNK d   0       6.972 -12.269 -16.823  0.00  0.00     0.167 HD
ENDBRANCH  34  36
ENDBRANCH  33  34
ENDBRANCH   8  33
BRANCH  31  38
ATOM     38  C   UNK d   0       2.473 -13.324  -7.673  0.00  0.00     0.151 C 
BRANCH  38  39
ATOM     39  C   UNK d   0       1.183 -12.674  -7.576  0.00  0.00     0.143 C 
ATOM     40  O   UNK d   0       0.462 -12.476  -8.570  0.00  0.00    -0.650 OA
BRANCH  39  41
ATOM     41  O   UNK d   0       0.719 -12.250  -6.331  0.00  0.00    -0.776 OA
ATOM     42  H   UNK d   0       1.040 -11.332  -6.007  0.00  0.00     0.167 HD
ENDBRANCH  39  41
ENDBRANCH  38  39
ENDBRANCH  31  38
BRANCH  27  43
ATOM     43  C   UNK d   0       4.117 -12.076  -5.381  0.00  0.00     0.052 C 
BRANCH  43  44
ATOM     44  C   UNK d   0       4.275 -10.871  -4.512  0.00  0.00     0.115 C 
BRANCH  44  45
ATOM     45  C   UNK d   0       3.144  -9.963  -4.836  0.00  0.00     0.139 C 
ATOM     46  O   UNK d   0       1.977 -10.422  -4.766  0.00  0.00    -0.650 OA
BRANCH  45  47
ATOM     47  O   UNK d   0       3.324  -8.646  -5.203  0.00  0.00    -0.776 OA
ATOM     48  H   UNK d   0       3.368  -8.340  -6.188  0.00  0.00     0.167 HD
ENDBRANCH  45  47
ENDBRANCH  44  45
ENDBRANCH  43  44
ENDBRANCH  27  43
BRANCH  24  49
ATOM     49  C   UNK d   0       8.661  -8.974  -4.768  0.00  0.00     0.052 C 
BRANCH  49  50
ATOM     50  C   UNK d   0       8.541  -7.472  -4.820  0.00  0.00     0.115 C 
BRANCH  50  51
ATOM     51  C   UNK d   0       7.196  -6.913  -4.817  0.00  0.00     0.139 C 
ATOM     52  O   UNK d   0       6.508  -6.799  -5.859  0.00  0.00    -0.650 OA
BRANCH  51  53
ATOM     53  O   UNK d   0       6.636  -6.480  -3.625  0.00  0.00    -0.776 OA
ATOM     54  H   UNK d   0       5.897  -5.800  -3.667  0.00  0.00     0.167 HD
ENDBRANCH  51  53
ENDBRANCH  50  51
ENDBRANCH  49  50
ENDBRANCH  24  49
BRANCH  21  55
ATOM     55  C   UNK d   0      11.181  -9.267  -6.532  0.00  0.00     0.151 C 
BRANCH  55  56
ATOM     56  C   UNK d   0      11.772 -10.133  -5.501  0.00  0.00     0.143 C 
ATOM     57  O   UNK d   0      11.572 -11.363  -5.457  0.00  0.00    -0.650 OA
BRANCH  56  58
ATOM     58  O   UNK d   0      12.588  -9.537  -4.541  0.00  0.00    -0.776 OA
ATOM     59  H   UNK d   0      12.100  -8.892  -3.893  0.00  0.00     0.167 HD
ENDBRANCH  56  58
ENDBRANCH  55  56
ENDBRANCH  21  55
BRANCH  18  60
ATOM     60  C   UNK d   0      11.143  -9.597 -11.889  0.00  0.00     0.151 C 
BRANCH  60  61
ATOM     61  C   UNK d   0      12.377 -10.360 -11.649  0.00  0.00     0.143 C 
ATOM     62  O   UNK d   0      12.749 -11.374 -12.241  0.00  0.00    -0.650 OA
BRANCH  61  63
ATOM     63  O   UNK d   0      13.209  -9.853 -10.623  0.00  0.00    -0.776 OA
ATOM     64  H   UNK d   0      13.601  -8.930 -10.682  0.00  0.00     0.167 HD
ENDBRANCH  61  63
ENDBRANCH  60  61
ENDBRANCH  18  60
BRANCH  14  65
ATOM     65  C   UNK d   0       9.610 -10.925 -14.147  0.00  0.00     0.052 C 
BRANCH  65  66
ATOM     66  C   UNK d   0       9.001  -9.688 -14.705  0.00  0.00     0.115 C 
BRANCH  66  67
ATOM     67  C   UNK d   0       7.705  -9.748 -15.320  0.00  0.00     0.139 C 
ATOM     68  O   UNK d   0       7.619 -10.173 -16.531  0.00  0.00    -0.650 OA
BRANCH  67  69
ATOM     69  O   UNK d   0       6.477  -9.394 -14.761  0.00  0.00    -0.776 OA
ATOM     70  H   UNK d   0       6.300  -9.749 -13.810  0.00  0.00     0.167 HD
ENDBRANCH  67  69
ENDBRANCH  66  67
ENDBRANCH  65  66
ENDBRANCH  14  65
ENDBRANCH   6   7
ENDBRANCH   5   6
ENDBRANCH   2   5
TORSDOF 28
ENDMDL
MODEL 13
REMARK VINA RESULT:      -7.1      9.695     13.407
REMARK  28 active torsions:
REMARK  status: ('A' for Active; 'I' for Inactive)
REMARK    1  A    between atoms: C_2  and  O_3 
REMARK    2  A    between atoms: C_2  and  C_4 
REMARK    3  A    between atoms: C_4  and  C_5 
REMARK    4  A    between atoms: C_5  and  C_6 
REMARK    5  A    between atoms: C_7  and  C_8 
REMARK    6  A    between atoms: C_8  and  C_9 
REMARK    7  A    between atoms: C_9  and  O_11 
REMARK    8  A    between atoms: C_28  and  C_29 
REMARK    9  A    between atoms: C_29  and  C_30 
REMARK   10  A    between atoms: C_30  and  O_32 
REMARK   11  A    between atoms: C_33  and  C_34 
REMARK   12  A    between atoms: C_34  and  C_35 
REMARK   13  A    between atoms: C_35  and  C_36 
REMARK   14  A    between atoms: C_36  and  O_38 
REMARK   15  A    between atoms: C_39  and  C_40 
REMARK   16  A    between atoms: C_40  and  C_41 
REMARK   17  A    between atoms: C_41  and  C_42 
REMARK   18  A    between atoms: C_42  and  O_44 
REMARK   19  A    between atoms: C_45  and  C_46 
REMARK   20  A    between atoms: C_46  and  C_47 
REMARK   21  A    between atoms: C_47  and  O_49 
REMARK   22  A    between atoms: C_50  and  C_51 
REMARK   23  A    between atoms: C_51  and  C_52 
REMARK   24  A    between atoms: C_52  and  O_54 
REMARK   25  A    between atoms: C_55  and  C_56 
REMARK   26  A    between atoms: C_56  and  C_57 
REMARK   27  A    between atoms: C_57  and  C_58 
REMARK   28  A    between atoms: C_58  and  O_60 
ROOT
ATOM      1  O   UNK d   0      13.876   8.306 -23.011  0.00  0.00    -0.650 OA
ATOM      2  C   UNK d   0      13.653   7.163 -23.468  0.00  0.00     0.139 C 
ENDROOT
BRANCH   2   3
ATOM      3  O   UNK d   0      14.709   6.381 -23.870  0.00  0.00    -0.776 OA
ATOM      4  H   UNK d   0      14.802   6.079 -24.842  0.00  0.00     0.167 HD
ENDBRANCH   2   3
BRANCH   2   5
ATOM      5  C   UNK d   0      12.254   6.659 -23.575  0.00  0.00     0.115 C 
BRANCH   5   6
ATOM      6  C   UNK d   0      12.035   5.531 -22.604  0.00  0.00     0.052 C 
BRANCH   6   7
ATOM      7  C   UNK d   0      10.915   5.810 -21.632  0.00  0.00    -0.020 A 
ATOM      8  C   UNK d   0       9.695   5.336 -21.661  0.00  0.00    -0.011 A 
ATOM      9  C   UNK d   0       8.975   5.891 -20.527  0.00  0.00     0.067 A 
ATOM     10  C   UNK d   0       7.682   5.773 -19.992  0.00  0.00     0.062 C 
ATOM     11  N   UNK d   0       9.831   6.697 -19.864  0.00  0.00    -0.248 NA
ATOM     12  C   UNK d   0       7.251   6.173 -18.723  0.00  0.00     0.041 A 
ATOM     13  N   UNK d   0       7.502   7.288 -18.012  0.00  0.00    -0.355 N 
ATOM     14  C   UNK d   0       6.455   5.294 -17.966  0.00  0.00    -0.022 A 
ATOM     15  C   UNK d   0       6.894   7.136 -16.821  0.00  0.00     0.042 A 
ATOM     16  H   UNK d   0       8.083   8.174 -18.353  0.00  0.00     0.166 HD
ATOM     17  C   UNK d   0       6.835   7.999 -15.708  0.00  0.00     0.062 C 
ATOM     18  C   UNK d   0       6.227   5.898 -16.755  0.00  0.00    -0.013 A 
ATOM     19  C   UNK d   0       7.844   8.718 -15.121  0.00  0.00     0.067 A 
ATOM     20  N   UNK d   0       9.003   8.786 -15.782  0.00  0.00    -0.248 NA
ATOM     21  C   UNK d   0       8.012   9.466 -13.886  0.00  0.00    -0.011 A 
ATOM     22  C   UNK d   0       9.916   9.522 -15.068  0.00  0.00     0.066 A 
ATOM     23  C   UNK d   0      11.158   9.705 -15.659  0.00  0.00     0.062 C 
ATOM     24  C   UNK d   0       9.228   9.930 -13.859  0.00  0.00    -0.020 A 
ATOM     25  C   UNK d   0      11.567   9.306 -16.941  0.00  0.00     0.041 A 
ATOM     26  N   UNK d   0      11.330   8.190 -17.642  0.00  0.00    -0.355 N 
ATOM     27  C   UNK d   0      12.362  10.191 -17.702  0.00  0.00    -0.022 A 
ATOM     28  C   UNK d   0      11.943   8.336 -18.827  0.00  0.00     0.042 A 
ATOM     29  H   UNK d   0      10.755   7.297 -17.294  0.00  0.00     0.166 HD
ATOM     30  C   UNK d   0      12.017   7.483 -19.939  0.00  0.00     0.062 C 
ATOM     31  C   UNK d   0      12.604   9.585 -18.897  0.00  0.00    -0.013 A 
ATOM     32  C   UNK d   0      11.015   6.691 -20.478  0.00  0.00     0.066 A 
BRANCH   8  33
ATOM     33  C   UNK d   0       9.130   4.409 -22.659  0.00  0.00     0.151 C 
BRANCH  33  34
ATOM     34  C   UNK d   0       8.266   5.087 -23.642  0.00  0.00     0.143 C 
ATOM     35  O   UNK d   0       7.111   4.691 -23.854  0.00  0.00    -0.650 OA
BRANCH  34  36
ATOM     36  O   UNK d   0       8.752   6.173 -24.333  0.00  0.00    -0.776 OA
ATOM     37  H   UNK d   0       8.168   7.004 -24.501  0.00  0.00     0.167 HD
ENDBRANCH  34  36
ENDBRANCH  33  34
ENDBRANCH   8  33
BRANCH  31  38
ATOM     38  C   UNK d   0      13.403  10.162 -20.042  0.00  0.00     0.151 C 
BRANCH  38  39
ATOM     39  C   UNK d   0      12.609  11.002 -20.914  0.00  0.00     0.143 C 
ATOM     40  O   UNK d   0      12.506  12.229 -20.742  0.00  0.00    -0.650 OA
BRANCH  39  41
ATOM     41  O   UNK d   0      11.931  10.427 -21.989  0.00  0.00    -0.776 OA
ATOM     42  H   UNK d   0      11.558  11.069 -22.695  0.00  0.00     0.167 HD
ENDBRANCH  39  41
ENDBRANCH  38  39
ENDBRANCH  31  38
BRANCH  27  43
ATOM     43  C   UNK d   0      12.889  11.557 -17.340  0.00  0.00     0.052 C 
BRANCH  43  44
ATOM     44  C   UNK d   0      14.289  11.532 -16.819  0.00  0.00     0.115 C 
BRANCH  44  45
ATOM     45  C   UNK d   0      15.011  12.645 -17.489  0.00  0.00     0.139 C 
ATOM     46  O   UNK d   0      16.104  13.021 -16.997  0.00  0.00    -0.650 OA
BRANCH  45  47
ATOM     47  O   UNK d   0      14.536  13.271 -18.620  0.00  0.00    -0.776 OA
ATOM     48  H   UNK d   0      13.718  13.902 -18.610  0.00  0.00     0.167 HD
ENDBRANCH  45  47
ENDBRANCH  44  45
ENDBRANCH  43  44
ENDBRANCH  27  43
BRANCH  24  49
ATOM     49  C   UNK d   0       9.812  10.777 -12.804  0.00  0.00     0.052 C 
BRANCH  49  50
ATOM     50  C   UNK d   0      10.957  10.063 -12.132  0.00  0.00     0.115 C 
BRANCH  50  51
ATOM     51  C   UNK d   0      10.966  10.045 -10.676  0.00  0.00     0.139 C 
ATOM     52  O   UNK d   0      11.712  10.788  -9.995  0.00  0.00    -0.650 OA
BRANCH  51  53
ATOM     53  O   UNK d   0      10.125   9.179  -9.995  0.00  0.00    -0.776 OA
ATOM     54  H   UNK d   0       9.831   8.338 -10.460  0.00  0.00     0.167 HD
ENDBRANCH  51  53
ENDBRANCH  50  51
ENDBRANCH  49  50
ENDBRANCH  24  49
BRANCH  21  55
ATOM     55  C   UNK d   0       6.939   9.642 -12.864  0.00  0.00     0.151 C 
BRANCH  55  56
ATOM     56  C   UNK d   0       6.047  10.766 -13.188  0.00  0.00     0.143 C 
ATOM     57  O   UNK d   0       6.386  11.700 -13.940  0.00  0.00    -0.650 OA
BRANCH  56  58
ATOM     58  O   UNK d   0       4.774  10.769 -12.621  0.00  0.00    -0.776 OA
ATOM     59  H   UNK d   0       4.677  10.196 -11.763  0.00  0.00     0.167 HD
ENDBRANCH  56  58
ENDBRANCH  55  56
ENDBRANCH  21  55
BRANCH  18  60
ATOM     60  C   UNK d   0       5.421   5.299 -15.629  0.00  0.00     0.151 C 
BRANCH  60  61
ATOM     61  C   UNK d   0       4.014   5.600 -15.934  0.00  0.00     0.143 C 
ATOM     62  O   UNK d   0       3.539   6.694 -16.241  0.00  0.00    -0.650 OA
BRANCH  61  63
ATOM     63  O   UNK d   0       3.132   4.495 -15.860  0.00  0.00    -0.776 OA
ATOM     64  H   UNK d   0       3.347   3.628 -16.319  0.00  0.00     0.167 HD
ENDBRANCH  61  63
ENDBRANCH  60  61
ENDBRANCH  18  60
BRANCH  14  65
ATOM     65  C   UNK d   0       5.819   3.983 -18.334  0.00  0.00     0.052 C 
BRANCH  65  66
ATOM     66  C   UNK d   0       6.278   2.854 -17.482  0.00  0.00     0.115 C 
BRANCH  66  67
ATOM     67  C   UNK d   0       5.381   1.772 -17.190  0.00  0.00     0.139 C 
ATOM     68  O   UNK d   0       5.618   0.620 -17.710  0.00  0.00    -0.650 OA
BRANCH  67  69
ATOM     69  O   UNK d   0       4.241   1.802 -16.387  0.00  0.00    -0.776 OA
ATOM     70  H   UNK d   0       4.054   2.694 -15.907  0.00  0.00     0.167 HD
ENDBRANCH  67  69
ENDBRANCH  66  67
ENDBRANCH  65  66
ENDBRANCH  14  65
ENDBRANCH   6   7
ENDBRANCH   5   6
ENDBRANCH   2   5
TORSDOF 28
ENDMDL
MODEL 14
REMARK VINA RESULT:      -7.0     27.333     30.723
REMARK  28 active torsions:
REMARK  status: ('A' for Active; 'I' for Inactive)
REMARK    1  A    between atoms: C_2  and  O_3 
REMARK    2  A    between atoms: C_2  and  C_4 
REMARK    3  A    between atoms: C_4  and  C_5 
REMARK    4  A    between atoms: C_5  and  C_6 
REMARK    5  A    between atoms: C_7  and  C_8 
REMARK    6  A    between atoms: C_8  and  C_9 
REMARK    7  A    between atoms: C_9  and  O_11 
REMARK    8  A    between atoms: C_28  and  C_29 
REMARK    9  A    between atoms: C_29  and  C_30 
REMARK   10  A    between atoms: C_30  and  O_32 
REMARK   11  A    between atoms: C_33  and  C_34 
REMARK   12  A    between atoms: C_34  and  C_35 
REMARK   13  A    between atoms: C_35  and  C_36 
REMARK   14  A    between atoms: C_36  and  O_38 
REMARK   15  A    between atoms: C_39  and  C_40 
REMARK   16  A    between atoms: C_40  and  C_41 
REMARK   17  A    between atoms: C_41  and  C_42 
REMARK   18  A    between atoms: C_42  and  O_44 
REMARK   19  A    between atoms: C_45  and  C_46 
REMARK   20  A    between atoms: C_46  and  C_47 
REMARK   21  A    between atoms: C_47  and  O_49 
REMARK   22  A    between atoms: C_50  and  C_51 
REMARK   23  A    between atoms: C_51  and  C_52 
REMARK   24  A    between atoms: C_52  and  O_54 
REMARK   25  A    between atoms: C_55  and  C_56 
REMARK   26  A    between atoms: C_56  and  C_57 
REMARK   27  A    between atoms: C_57  and  C_58 
REMARK   28  A    between atoms: C_58  and  O_60 
ROOT
ATOM      1  O   UNK d   0       4.248 -12.539  16.942  0.00  0.00    -0.650 OA
ATOM      2  C   UNK d   0       4.225 -11.557  16.167  0.00  0.00     0.139 C 
ENDROOT
BRANCH   2   3
ATOM      3  O   UNK d   0       5.284 -10.682  16.158  0.00  0.00    -0.776 OA
ATOM      4  H   UNK d   0       5.314  -9.896  15.505  0.00  0.00     0.167 HD
ENDBRANCH   2   3
BRANCH   2   5
ATOM      5  C   UNK d   0       3.058 -11.341  15.266  0.00  0.00     0.115 C 
BRANCH   5   6
ATOM      6  C   UNK d   0       3.476 -11.503  13.830  0.00  0.00     0.052 C 
BRANCH   6   7
ATOM      7  C   UNK d   0       2.348 -11.233  12.863  0.00  0.00    -0.020 A 
ATOM      8  C   UNK d   0       1.627 -12.110  12.212  0.00  0.00    -0.011 A 
ATOM      9  C   UNK d   0       0.671 -11.382  11.395  0.00  0.00     0.067 A 
ATOM     10  C   UNK d   0      -0.366 -11.716  10.509  0.00  0.00     0.062 C 
ATOM     11  N   UNK d   0       0.884 -10.066  11.606  0.00  0.00    -0.248 NA
ATOM     12  C   UNK d   0      -1.370 -10.871  10.024  0.00  0.00     0.041 A 
ATOM     13  N   UNK d   0      -1.321  -9.602   9.576  0.00  0.00    -0.355 N 
ATOM     14  C   UNK d   0      -2.700 -11.330  10.017  0.00  0.00    -0.022 A 
ATOM     15  C   UNK d   0      -2.587  -9.241   9.293  0.00  0.00     0.042 A 
ATOM     16  H   UNK d   0      -0.408  -8.981   9.444  0.00  0.00     0.166 HD
ATOM     17  C   UNK d   0      -3.101  -8.027   8.795  0.00  0.00     0.062 C 
ATOM     18  C   UNK d   0      -3.480 -10.298   9.557  0.00  0.00    -0.013 A 
ATOM     19  C   UNK d   0      -2.800  -6.743   9.173  0.00  0.00     0.067 A 
ATOM     20  N   UNK d   0      -1.746  -6.581   9.977  0.00  0.00    -0.248 NA
ATOM     21  C   UNK d   0      -3.361  -5.425   8.932  0.00  0.00    -0.011 A 
ATOM     22  C   UNK d   0      -1.578  -5.252  10.280  0.00  0.00     0.066 A 
ATOM     23  C   UNK d   0      -0.491  -4.936  11.081  0.00  0.00     0.062 C 
ATOM     24  C   UNK d   0      -2.644  -4.557   9.586  0.00  0.00    -0.020 A 
ATOM     25  C   UNK d   0       0.514  -5.797  11.548  0.00  0.00     0.041 A 
ATOM     26  N   UNK d   0       0.464  -7.053  12.007  0.00  0.00    -0.355 N 
ATOM     27  C   UNK d   0       1.849  -5.338  11.550  0.00  0.00    -0.022 A 
ATOM     28  C   UNK d   0       1.724  -7.413  12.298  0.00  0.00     0.042 A 
ATOM     29  H   UNK d   0      -0.456  -7.672  12.149  0.00  0.00     0.166 HD
ATOM     30  C   UNK d   0       2.248  -8.613  12.803  0.00  0.00     0.062 C 
ATOM     31  C   UNK d   0       2.621  -6.354  12.023  0.00  0.00    -0.013 A 
ATOM     32  C   UNK d   0       1.880  -9.910  12.479  0.00  0.00     0.066 A 
BRANCH   8  33
ATOM     33  C   UNK d   0       1.749 -13.578  12.276  0.00  0.00     0.151 C 
BRANCH  33  34
ATOM     34  C   UNK d   0       2.796 -14.103  11.381  0.00  0.00     0.143 C 
ATOM     35  O   UNK d   0       3.623 -14.932  11.786  0.00  0.00    -0.650 OA
BRANCH  34  36
ATOM     36  O   UNK d   0       2.854 -13.663  10.078  0.00  0.00    -0.776 OA
ATOM     37  H   UNK d   0       3.666 -13.871   9.480  0.00  0.00     0.167 HD
ENDBRANCH  34  36
ENDBRANCH  33  34
ENDBRANCH   8  33
BRANCH  31  38
ATOM     38  C   UNK d   0       4.123  -6.329  12.191  0.00  0.00     0.151 C 
BRANCH  38  39
ATOM     39  C   UNK d   0       4.534  -5.833  13.487  0.00  0.00     0.143 C 
ATOM     40  O   UNK d   0       4.027  -6.240  14.547  0.00  0.00    -0.650 OA
BRANCH  39  41
ATOM     41  O   UNK d   0       5.535  -4.866  13.565  0.00  0.00    -0.776 OA
ATOM     42  H   UNK d   0       6.087  -4.841  14.429  0.00  0.00     0.167 HD
ENDBRANCH  39  41
ENDBRANCH  38  39
ENDBRANCH  31  38
BRANCH  27  43
ATOM     43  C   UNK d   0       2.403  -3.999  11.131  0.00  0.00     0.052 C 
BRANCH  43  44
ATOM     44  C   UNK d   0       1.953  -2.874  12.005  0.00  0.00     0.115 C 
BRANCH  44  45
ATOM     45  C   UNK d   0       2.984  -2.721  13.065  0.00  0.00     0.139 C 
ATOM     46  O   UNK d   0       2.653  -2.966  14.251  0.00  0.00    -0.650 OA
BRANCH  45  47
ATOM     47  O   UNK d   0       4.278  -2.332  12.798  0.00  0.00    -0.776 OA
ATOM     48  H   UNK d   0       4.810  -1.696  13.414  0.00  0.00     0.167 HD
ENDBRANCH  45  47
ENDBRANCH  44  45
ENDBRANCH  43  44
ENDBRANCH  27  43
BRANCH  24  49
ATOM     49  C   UNK d   0      -2.838  -3.097   9.591  0.00  0.00     0.052 C 
BRANCH  49  50
ATOM     50  C   UNK d   0      -3.694  -2.685  10.761  0.00  0.00     0.115 C 
BRANCH  50  51
ATOM     51  C   UNK d   0      -5.085  -2.355  10.484  0.00  0.00     0.139 C 
ATOM     52  O   UNK d   0      -6.044  -3.008  10.961  0.00  0.00    -0.650 OA
BRANCH  51  53
ATOM     53  O   UNK d   0      -5.384  -1.280   9.661  0.00  0.00    -0.776 OA
ATOM     54  H   UNK d   0      -5.219  -1.377   8.674  0.00  0.00     0.167 HD
ENDBRANCH  51  53
ENDBRANCH  50  51
ENDBRANCH  49  50
ENDBRANCH  24  49
BRANCH  21  55
ATOM     55  C   UNK d   0      -4.553  -5.169   8.070  0.00  0.00     0.151 C 
BRANCH  55  56
ATOM     56  C   UNK d   0      -4.189  -5.039   6.651  0.00  0.00     0.143 C 
ATOM     57  O   UNK d   0      -4.860  -4.370   5.840  0.00  0.00    -0.650 OA
BRANCH  56  58
ATOM     58  O   UNK d   0      -3.042  -5.698   6.212  0.00  0.00    -0.776 OA
ATOM     59  H   UNK d   0      -3.011  -5.889   5.194  0.00  0.00     0.167 HD
ENDBRANCH  56  58
ENDBRANCH  55  56
ENDBRANCH  21  55
BRANCH  18  60
ATOM     60  C   UNK d   0      -4.979 -10.352   9.397  0.00  0.00     0.151 C 
BRANCH  60  61
ATOM     61  C   UNK d   0      -5.221 -10.743   7.999  0.00  0.00     0.143 C 
ATOM     62  O   UNK d   0      -5.168 -10.017   7.006  0.00  0.00    -0.650 OA
BRANCH  61  63
ATOM     63  O   UNK d   0      -5.549 -12.106   7.803  0.00  0.00    -0.776 OA
ATOM     64  H   UNK d   0      -5.292 -12.585   6.958  0.00  0.00     0.167 HD
ENDBRANCH  61  63
ENDBRANCH  60  61
ENDBRANCH  18  60
BRANCH  14  65
ATOM     65  C   UNK d   0      -3.271 -12.686  10.316  0.00  0.00     0.052 C 
BRANCH  65  66
ATOM     66  C   UNK d   0      -3.086 -13.654   9.201  0.00  0.00     0.115 C 
BRANCH  66  67
ATOM     67  C   UNK d   0      -2.230 -14.792   9.382  0.00  0.00     0.139 C 
ATOM     68  O   UNK d   0      -2.245 -15.398  10.516  0.00  0.00    -0.650 OA
BRANCH  67  69
ATOM     69  O   UNK d   0      -1.348 -15.351   8.458  0.00  0.00    -0.776 OA
ATOM     70  H   UNK d   0      -0.834 -14.681   7.867  0.00  0.00     0.167 HD
ENDBRANCH  67  69
ENDBRANCH  66  67
ENDBRANCH  65  66
ENDBRANCH  14  65
ENDBRANCH   6   7
ENDBRANCH   5   6
ENDBRANCH   2   5
TORSDOF 28
ENDMDL
MODEL 15
REMARK VINA RESULT:      -7.0     16.530     20.621
REMARK  28 active torsions:
REMARK  status: ('A' for Active; 'I' for Inactive)
REMARK    1  A    between atoms: C_2  and  O_3 
REMARK    2  A    between atoms: C_2  and  C_4 
REMARK    3  A    between atoms: C_4  and  C_5 
REMARK    4  A    between atoms: C_5  and  C_6 
REMARK    5  A    between atoms: C_7  and  C_8 
REMARK    6  A    between atoms: C_8  and  C_9 
REMARK    7  A    between atoms: C_9  and  O_11 
REMARK    8  A    between atoms: C_28  and  C_29 
REMARK    9  A    between atoms: C_29  and  C_30 
REMARK   10  A    between atoms: C_30  and  O_32 
REMARK   11  A    between atoms: C_33  and  C_34 
REMARK   12  A    between atoms: C_34  and  C_35 
REMARK   13  A    between atoms: C_35  and  C_36 
REMARK   14  A    between atoms: C_36  and  O_38 
REMARK   15  A    between atoms: C_39  and  C_40 
REMARK   16  A    between atoms: C_40  and  C_41 
REMARK   17  A    between atoms: C_41  and  C_42 
REMARK   18  A    between atoms: C_42  and  O_44 
REMARK   19  A    between atoms: C_45  and  C_46 
REMARK   20  A    between atoms: C_46  and  C_47 
REMARK   21  A    between atoms: C_47  and  O_49 
REMARK   22  A    between atoms: C_50  and  C_51 
REMARK   23  A    between atoms: C_51  and  C_52 
REMARK   24  A    between atoms: C_52  and  O_54 
REMARK   25  A    between atoms: C_55  and  C_56 
REMARK   26  A    between atoms: C_56  and  C_57 
REMARK   27  A    between atoms: C_57  and  C_58 
REMARK   28  A    between atoms: C_58  and  O_60 
ROOT
ATOM      1  O   UNK d   0      11.747 -14.204 -12.558  0.00  0.00    -0.650 OA
ATOM      2  C   UNK d   0      11.661 -13.617 -13.660  0.00  0.00     0.139 C 
ENDROOT
BRANCH   2   3
ATOM      3  O   UNK d   0      12.809 -13.228 -14.307  0.00  0.00    -0.776 OA
ATOM      4  H   UNK d   0      13.731 -13.464 -13.934  0.00  0.00     0.167 HD
ENDBRANCH   2   3
BRANCH   2   5
ATOM      5  C   UNK d   0      10.325 -13.346 -14.261  0.00  0.00     0.115 C 
BRANCH   5   6
ATOM      6  C   UNK d   0       9.311 -14.324 -13.733  0.00  0.00     0.052 C 
BRANCH   6   7
ATOM      7  C   UNK d   0       8.135 -13.644 -13.074  0.00  0.00    -0.020 A 
ATOM      8  C   UNK d   0       6.917 -13.527 -13.539  0.00  0.00    -0.011 A 
ATOM      9  C   UNK d   0       6.137 -12.788 -12.561  0.00  0.00     0.067 A 
ATOM     10  C   UNK d   0       4.805 -12.359 -12.443  0.00  0.00     0.062 C 
ATOM     11  N   UNK d   0       6.960 -12.489 -11.534  0.00  0.00    -0.248 NA
ATOM     12  C   UNK d   0       4.164 -11.895 -11.289  0.00  0.00     0.041 A 
ATOM     13  N   UNK d   0       4.579 -11.055 -10.322  0.00  0.00    -0.355 N 
ATOM     14  C   UNK d   0       2.880 -12.380 -10.983  0.00  0.00    -0.022 A 
ATOM     15  C   UNK d   0       3.594 -11.002  -9.405  0.00  0.00     0.042 A 
ATOM     16  H   UNK d   0       5.540 -10.496 -10.297  0.00  0.00     0.166 HD
ATOM     17  C   UNK d   0       3.507 -10.278  -8.199  0.00  0.00     0.062 C 
ATOM     18  C   UNK d   0       2.512 -11.820  -9.785  0.00  0.00    -0.013 A 
ATOM     19  C   UNK d   0       4.453 -10.119  -7.218  0.00  0.00     0.067 A 
ATOM     20  N   UNK d   0       5.693 -10.527  -7.503  0.00  0.00    -0.248 NA
ATOM     21  C   UNK d   0       4.472  -9.607  -5.858  0.00  0.00    -0.011 A 
ATOM     22  C   UNK d   0       6.521 -10.319  -6.427  0.00  0.00     0.066 A 
ATOM     23  C   UNK d   0       7.853 -10.665  -6.599  0.00  0.00     0.062 C 
ATOM     24  C   UNK d   0       5.684  -9.731  -5.399  0.00  0.00    -0.020 A 
ATOM     25  C   UNK d   0       8.480 -11.117  -7.770  0.00  0.00     0.041 A 
ATOM     26  N   UNK d   0       8.074 -11.963  -8.724  0.00  0.00    -0.355 N 
ATOM     27  C   UNK d   0       9.767 -10.626  -8.079  0.00  0.00    -0.022 A 
ATOM     28  C   UNK d   0       9.058 -12.025  -9.635  0.00  0.00     0.042 A 
ATOM     29  H   UNK d   0       7.112 -12.532  -8.742  0.00  0.00     0.166 HD
ATOM     30  C   UNK d   0       9.162 -12.748 -10.834  0.00  0.00     0.062 C 
ATOM     31  C   UNK d   0      10.140 -11.195  -9.258  0.00  0.00    -0.013 A 
ATOM     32  C   UNK d   0       8.177 -12.977 -11.782  0.00  0.00     0.066 A 
BRANCH   8  33
ATOM     33  C   UNK d   0       6.407 -14.041 -14.824  0.00  0.00     0.151 C 
BRANCH  33  34
ATOM     34  C   UNK d   0       6.601 -13.091 -15.935  0.00  0.00     0.143 C 
ATOM     35  O   UNK d   0       6.132 -11.946 -15.882  0.00  0.00    -0.650 OA
BRANCH  34  36
ATOM     36  O   UNK d   0       7.312 -13.487 -17.045  0.00  0.00    -0.776 OA
ATOM     37  H   UNK d   0       6.843 -13.665 -17.943  0.00  0.00     0.167 HD
ENDBRANCH  34  36
ENDBRANCH  33  34
ENDBRANCH   8  33
BRANCH  31  38
ATOM     38  C   UNK d   0      11.440 -10.956  -9.991  0.00  0.00     0.151 C 
BRANCH  38  39
ATOM     39  C   UNK d   0      11.243 -10.414 -11.319  0.00  0.00     0.143 C 
ATOM     40  O   UNK d   0      11.948 -10.753 -12.287  0.00  0.00    -0.650 OA
BRANCH  39  41
ATOM     41  O   UNK d   0      10.232  -9.479 -11.537  0.00  0.00    -0.776 OA
ATOM     42  H   UNK d   0       9.267  -9.809 -11.429  0.00  0.00     0.167 HD
ENDBRANCH  39  41
ENDBRANCH  38  39
ENDBRANCH  31  38
BRANCH  27  43
ATOM     43  C   UNK d   0      10.635  -9.660  -7.311  0.00  0.00     0.052 C 
BRANCH  43  44
ATOM     44  C   UNK d   0      11.336 -10.290  -6.151  0.00  0.00     0.115 C 
BRANCH  44  45
ATOM     45  C   UNK d   0      12.175  -9.229  -5.536  0.00  0.00     0.139 C 
ATOM     46  O   UNK d   0      12.575  -9.399  -4.358  0.00  0.00    -0.650 OA
BRANCH  45  47
ATOM     47  O   UNK d   0      12.533  -8.078  -6.204  0.00  0.00    -0.776 OA
ATOM     48  H   UNK d   0      12.225  -7.138  -5.905  0.00  0.00     0.167 HD
ENDBRANCH  45  47
ENDBRANCH  44  45
ENDBRANCH  43  44
ENDBRANCH  27  43
BRANCH  24  49
ATOM     49  C   UNK d   0       6.158  -9.301  -4.073  0.00  0.00     0.052 C 
BRANCH  49  50
ATOM     50  C   UNK d   0       6.296  -7.801  -4.026  0.00  0.00     0.115 C 
BRANCH  50  51
ATOM     51  C   UNK d   0       5.784  -7.123  -2.842  0.00  0.00     0.139 C 
ATOM     52  O   UNK d   0       6.506  -6.409  -2.106  0.00  0.00    -0.650 OA
BRANCH  51  53
ATOM     53  O   UNK d   0       4.449  -7.261  -2.496  0.00  0.00    -0.776 OA
ATOM     54  H   UNK d   0       3.966  -8.093  -2.786  0.00  0.00     0.167 HD
ENDBRANCH  51  53
ENDBRANCH  50  51
ENDBRANCH  49  50
ENDBRANCH  24  49
BRANCH  21  55
ATOM     55  C   UNK d   0       3.278  -9.044  -5.161  0.00  0.00     0.151 C 
BRANCH  55  56
ATOM     56  C   UNK d   0       2.485 -10.088  -4.495  0.00  0.00     0.143 C 
ATOM     57  O   UNK d   0       1.594 -10.734  -5.080  0.00  0.00    -0.650 OA
BRANCH  56  58
ATOM     58  O   UNK d   0       2.755 -10.352  -3.153  0.00  0.00    -0.776 OA
ATOM     59  H   UNK d   0       3.601 -10.926  -2.984  0.00  0.00     0.167 HD
ENDBRANCH  56  58
ENDBRANCH  55  56
ENDBRANCH  21  55
BRANCH  18  60
ATOM     60  C   UNK d   0       1.205 -12.075  -9.076  0.00  0.00     0.151 C 
BRANCH  60  61
ATOM     61  C   UNK d   0       1.538 -12.884  -7.894  0.00  0.00     0.143 C 
ATOM     62  O   UNK d   0       2.496 -13.646  -7.762  0.00  0.00    -0.650 OA
BRANCH  61  63
ATOM     63  O   UNK d   0       0.644 -12.754  -6.804  0.00  0.00    -0.776 OA
ATOM     64  H   UNK d   0       0.984 -12.611  -5.869  0.00  0.00     0.167 HD
ENDBRANCH  61  63
ENDBRANCH  60  61
ENDBRANCH  18  60
BRANCH  14  65
ATOM     65  C   UNK d   0       1.944 -13.247 -11.776  0.00  0.00     0.052 C 
BRANCH  65  66
ATOM     66  C   UNK d   0       1.131 -12.480 -12.757  0.00  0.00     0.115 C 
BRANCH  66  67
ATOM     67  C   UNK d   0       1.412 -12.596 -14.160  0.00  0.00     0.139 C 
ATOM     68  O   UNK d   0       2.101 -13.602 -14.566  0.00  0.00    -0.650 OA
BRANCH  67  69
ATOM     69  O   UNK d   0       1.024 -11.731 -15.182  0.00  0.00    -0.776 OA
ATOM     70  H   UNK d   0       0.257 -12.064 -15.784  0.00  0.00     0.167 HD
ENDBRANCH  67  69
ENDBRANCH  66  67
ENDBRANCH  65  66
ENDBRANCH  14  65
ENDBRANCH   6   7
ENDBRANCH   5   6
ENDBRANCH   2   5
TORSDOF 28
ENDMDL
MODEL 16
REMARK VINA RESULT:      -7.0      8.151     14.370
REMARK  28 active torsions:
REMARK  status: ('A' for Active; 'I' for Inactive)
REMARK    1  A    between atoms: C_2  and  O_3 
REMARK    2  A    between atoms: C_2  and  C_4 
REMARK    3  A    between atoms: C_4  and  C_5 
REMARK    4  A    between atoms: C_5  and  C_6 
REMARK    5  A    between atoms: C_7  and  C_8 
REMARK    6  A    between atoms: C_8  and  C_9 
REMARK    7  A    between atoms: C_9  and  O_11 
REMARK    8  A    between atoms: C_28  and  C_29 
REMARK    9  A    between atoms: C_29  and  C_30 
REMARK   10  A    between atoms: C_30  and  O_32 
REMARK   11  A    between atoms: C_33  and  C_34 
REMARK   12  A    between atoms: C_34  and  C_35 
REMARK   13  A    between atoms: C_35  and  C_36 
REMARK   14  A    between atoms: C_36  and  O_38 
REMARK   15  A    between atoms: C_39  and  C_40 
REMARK   16  A    between atoms: C_40  and  C_41 
REMARK   17  A    between atoms: C_41  and  C_42 
REMARK   18  A    between atoms: C_42  and  O_44 
REMARK   19  A    between atoms: C_45  and  C_46 
REMARK   20  A    between atoms: C_46  and  C_47 
REMARK   21  A    between atoms: C_47  and  O_49 
REMARK   22  A    between atoms: C_50  and  C_51 
REMARK   23  A    between atoms: C_51  and  C_52 
REMARK   24  A    between atoms: C_52  and  O_54 
REMARK   25  A    between atoms: C_55  and  C_56 
REMARK   26  A    between atoms: C_56  and  C_57 
REMARK   27  A    between atoms: C_57  and  C_58 
REMARK   28  A    between atoms: C_58  and  O_60 
ROOT
ATOM      1  O   UNK d   0      17.495  20.189 -11.722  0.00  0.00    -0.650 OA
ATOM      2  C   UNK d   0      17.392  19.763 -10.550  0.00  0.00     0.139 C 
ENDROOT
BRANCH   2   3
ATOM      3  O   UNK d   0      18.173  18.707 -10.146  0.00  0.00    -0.776 OA
ATOM      4  H   UNK d   0      18.509  18.012 -10.817  0.00  0.00     0.167 HD
ENDBRANCH   2   3
BRANCH   2   5
ATOM      5  C   UNK d   0      16.429  20.396  -9.605  0.00  0.00     0.115 C 
BRANCH   5   6
ATOM      6  C   UNK d   0      16.447  19.673  -8.286  0.00  0.00     0.052 C 
BRANCH   6   7
ATOM      7  C   UNK d   0      15.137  18.986  -7.981  0.00  0.00    -0.020 A 
ATOM      8  C   UNK d   0      14.209  19.373  -7.144  0.00  0.00    -0.011 A 
ATOM      9  C   UNK d   0      13.138  18.390  -7.182  0.00  0.00     0.067 A 
ATOM     10  C   UNK d   0      11.889  18.229  -6.562  0.00  0.00     0.062 C 
ATOM     11  N   UNK d   0      13.501  17.437  -8.066  0.00  0.00    -0.248 NA
ATOM     12  C   UNK d   0      10.865  17.353  -6.936  0.00  0.00     0.041 A 
ATOM     13  N   UNK d   0      10.899  16.064  -7.326  0.00  0.00    -0.355 N 
ATOM     14  C   UNK d   0       9.544  17.834  -6.992  0.00  0.00    -0.022 A 
ATOM     15  C   UNK d   0       9.636  15.718  -7.636  0.00  0.00     0.042 A 
ATOM     16  H   UNK d   0      11.796  15.407  -7.363  0.00  0.00     0.166 HD
ATOM     17  C   UNK d   0       9.111  14.493  -8.095  0.00  0.00     0.062 C 
ATOM     18  C   UNK d   0       8.758  16.801  -7.440  0.00  0.00    -0.013 A 
ATOM     19  C   UNK d   0       9.598  13.656  -9.066  0.00  0.00     0.067 A 
ATOM     20  N   UNK d   0      10.830  13.905  -9.518  0.00  0.00    -0.248 NA
ATOM     21  C   UNK d   0       9.100  12.502  -9.797  0.00  0.00    -0.011 A 
ATOM     22  C   UNK d   0      11.173  13.000 -10.491  0.00  0.00     0.066 A 
ATOM     23  C   UNK d   0      12.448  13.121 -11.024  0.00  0.00     0.062 C 
ATOM     24  C   UNK d   0      10.025  12.126 -10.632  0.00  0.00    -0.020 A 
ATOM     25  C   UNK d   0      13.467  14.000 -10.625  0.00  0.00     0.041 A 
ATOM     26  N   UNK d   0      13.435  15.285 -10.252  0.00  0.00    -0.355 N 
ATOM     27  C   UNK d   0      14.792  13.515 -10.565  0.00  0.00    -0.022 A 
ATOM     28  C   UNK d   0      14.695  15.635  -9.951  0.00  0.00     0.042 A 
ATOM     29  H   UNK d   0      12.535  15.947 -10.226  0.00  0.00     0.166 HD
ATOM     30  C   UNK d   0      15.233  16.852  -9.502  0.00  0.00     0.062 C 
ATOM     31  C   UNK d   0      15.575  14.543 -10.138  0.00  0.00    -0.013 A 
ATOM     32  C   UNK d   0      14.694  17.737  -8.582  0.00  0.00     0.066 A 
BRANCH   8  33
ATOM     33  C   UNK d   0      14.227  20.581  -6.299  0.00  0.00     0.151 C 
BRANCH  33  34
ATOM     34  C   UNK d   0      13.332  21.640  -6.799  0.00  0.00     0.143 C 
ATOM     35  O   UNK d   0      13.430  22.061  -7.960  0.00  0.00    -0.650 OA
BRANCH  34  36
ATOM     36  O   UNK d   0      12.376  22.168  -5.961  0.00  0.00    -0.776 OA
ATOM     37  H   UNK d   0      12.551  22.278  -4.953  0.00  0.00     0.167 HD
ENDBRANCH  34  36
ENDBRANCH  33  34
ENDBRANCH   8  33
BRANCH  31  38
ATOM     38  C   UNK d   0      17.068  14.490  -9.908  0.00  0.00     0.151 C 
BRANCH  38  39
ATOM     39  C   UNK d   0      17.829  14.905 -11.068  0.00  0.00     0.143 C 
ATOM     40  O   UNK d   0      18.173  16.086 -11.250  0.00  0.00    -0.650 OA
BRANCH  39  41
ATOM     41  O   UNK d   0      18.198  13.956 -12.021  0.00  0.00    -0.776 OA
ATOM     42  H   UNK d   0      17.638  13.922 -12.878  0.00  0.00     0.167 HD
ENDBRANCH  39  41
ENDBRANCH  38  39
ENDBRANCH  31  38
BRANCH  27  43
ATOM     43  C   UNK d   0      15.326  12.143 -10.892  0.00  0.00     0.052 C 
BRANCH  43  44
ATOM     44  C   UNK d   0      15.346  11.221  -9.717  0.00  0.00     0.115 C 
BRANCH  44  45
ATOM     45  C   UNK d   0      14.481  10.065 -10.069  0.00  0.00     0.139 C 
ATOM     46  O   UNK d   0      14.005   9.376  -9.133  0.00  0.00    -0.650 OA
BRANCH  45  47
ATOM     47  O   UNK d   0      14.179   9.727 -11.370  0.00  0.00    -0.776 OA
ATOM     48  H   UNK d   0      13.711   8.842 -11.625  0.00  0.00     0.167 HD
ENDBRANCH  45  47
ENDBRANCH  44  45
ENDBRANCH  43  44
ENDBRANCH  27  43
BRANCH  24  49
ATOM     49  C   UNK d   0       9.954  10.971 -11.543  0.00  0.00     0.052 C 
BRANCH  49  50
ATOM     50  C   UNK d   0      10.827   9.850 -11.039  0.00  0.00     0.115 C 
BRANCH  50  51
ATOM     51  C   UNK d   0      10.162   8.735 -10.379  0.00  0.00     0.139 C 
ATOM     52  O   UNK d   0      10.723   8.035  -9.503  0.00  0.00    -0.650 OA
BRANCH  51  53
ATOM     53  O   UNK d   0       8.856   8.416 -10.719  0.00  0.00    -0.776 OA
ATOM     54  H   UNK d   0       8.223   8.158  -9.982  0.00  0.00     0.167 HD
ENDBRANCH  51  53
ENDBRANCH  50  51
ENDBRANCH  49  50
ENDBRANCH  24  49
BRANCH  21  55
ATOM     55  C   UNK d   0       7.754  11.894  -9.581  0.00  0.00     0.151 C 
BRANCH  55  56
ATOM     56  C   UNK d   0       6.718  12.542 -10.401  0.00  0.00     0.143 C 
ATOM     57  O   UNK d   0       5.545  12.125 -10.458  0.00  0.00    -0.650 OA
BRANCH  56  58
ATOM     58  O   UNK d   0       7.083  13.668 -11.137  0.00  0.00    -0.776 OA
ATOM     59  H   UNK d   0       6.659  14.556 -10.814  0.00  0.00     0.167 HD
ENDBRANCH  56  58
ENDBRANCH  55  56
ENDBRANCH  21  55
BRANCH  18  60
ATOM     60  C   UNK d   0       7.267  16.882  -7.657  0.00  0.00     0.151 C 
BRANCH  60  61
ATOM     61  C   UNK d   0       7.077  17.012  -9.110  0.00  0.00     0.143 C 
ATOM     62  O   UNK d   0       7.552  17.879  -9.846  0.00  0.00    -0.650 OA
BRANCH  61  63
ATOM     63  O   UNK d   0       6.257  16.022  -9.702  0.00  0.00    -0.776 OA
ATOM     64  H   UNK d   0       5.257  16.121  -9.722  0.00  0.00     0.167 HD
ENDBRANCH  61  63
ENDBRANCH  60  61
ENDBRANCH  18  60
BRANCH  14  65
ATOM     65  C   UNK d   0       8.961  19.151  -6.566  0.00  0.00     0.052 C 
BRANCH  65  66
ATOM     66  C   UNK d   0       8.768  19.253  -5.095  0.00  0.00     0.115 C 
BRANCH  66  67
ATOM     67  C   UNK d   0       8.093  18.199  -4.391  0.00  0.00     0.139 C 
ATOM     68  O   UNK d   0       6.807  18.175  -4.408  0.00  0.00    -0.650 OA
BRANCH  67  69
ATOM     69  O   UNK d   0       8.665  17.156  -3.662  0.00  0.00    -0.776 OA
ATOM     70  H   UNK d   0       9.665  17.261  -3.442  0.00  0.00     0.167 HD
ENDBRANCH  67  69
ENDBRANCH  66  67
ENDBRANCH  65  66
ENDBRANCH  14  65
ENDBRANCH   6   7
ENDBRANCH   5   6
ENDBRANCH   2   5
TORSDOF 28
ENDMDL
MODEL 17
REMARK VINA RESULT:      -7.0      8.277     13.136
REMARK  28 active torsions:
REMARK  status: ('A' for Active; 'I' for Inactive)
REMARK    1  A    between atoms: C_2  and  O_3 
REMARK    2  A    between atoms: C_2  and  C_4 
REMARK    3  A    between atoms: C_4  and  C_5 
REMARK    4  A    between atoms: C_5  and  C_6 
REMARK    5  A    between atoms: C_7  and  C_8 
REMARK    6  A    between atoms: C_8  and  C_9 
REMARK    7  A    between atoms: C_9  and  O_11 
REMARK    8  A    between atoms: C_28  and  C_29 
REMARK    9  A    between atoms: C_29  and  C_30 
REMARK   10  A    between atoms: C_30  and  O_32 
REMARK   11  A    between atoms: C_33  and  C_34 
REMARK   12  A    between atoms: C_34  and  C_35 
REMARK   13  A    between atoms: C_35  and  C_36 
REMARK   14  A    between atoms: C_36  and  O_38 
REMARK   15  A    between atoms: C_39  and  C_40 
REMARK   16  A    between atoms: C_40  and  C_41 
REMARK   17  A    between atoms: C_41  and  C_42 
REMARK   18  A    between atoms: C_42  and  O_44 
REMARK   19  A    between atoms: C_45  and  C_46 
REMARK   20  A    between atoms: C_46  and  C_47 
REMARK   21  A    between atoms: C_47  and  O_49 
REMARK   22  A    between atoms: C_50  and  C_51 
REMARK   23  A    between atoms: C_51  and  C_52 
REMARK   24  A    between atoms: C_52  and  O_54 
REMARK   25  A    between atoms: C_55  and  C_56 
REMARK   26  A    between atoms: C_56  and  C_57 
REMARK   27  A    between atoms: C_57  and  C_58 
REMARK   28  A    between atoms: C_58  and  O_60 
ROOT
ATOM      1  O   UNK d   0       8.477  19.516  -5.906  0.00  0.00    -0.650 OA
ATOM      2  C   UNK d   0       9.607  19.856  -5.490  0.00  0.00     0.139 C 
ENDROOT
BRANCH   2   3
ATOM      3  O   UNK d   0       9.774  20.153  -4.159  0.00  0.00    -0.776 OA
ATOM      4  H   UNK d   0      10.588  20.678  -3.833  0.00  0.00     0.167 HD
ENDBRANCH   2   3
BRANCH   2   5
ATOM      5  C   UNK d   0      10.758  19.937  -6.433  0.00  0.00     0.115 C 
BRANCH   5   6
ATOM      6  C   UNK d   0      11.867  19.028  -5.977  0.00  0.00     0.052 C 
BRANCH   6   7
ATOM      7  C   UNK d   0      12.278  18.036  -7.039  0.00  0.00    -0.020 A 
ATOM      8  C   UNK d   0      13.439  17.942  -7.636  0.00  0.00    -0.011 A 
ATOM      9  C   UNK d   0      13.362  16.845  -8.587  0.00  0.00     0.067 A 
ATOM     10  C   UNK d   0      14.236  16.230  -9.497  0.00  0.00     0.062 C 
ATOM     11  N   UNK d   0      12.117  16.331  -8.506  0.00  0.00    -0.248 NA
ATOM     12  C   UNK d   0      14.066  14.997 -10.134  0.00  0.00     0.041 A 
ATOM     13  N   UNK d   0      12.985  14.439 -10.712  0.00  0.00    -0.355 N 
ATOM     14  C   UNK d   0      15.147  14.098 -10.177  0.00  0.00    -0.022 A 
ATOM     15  C   UNK d   0      13.350  13.207 -11.113  0.00  0.00     0.042 A 
ATOM     16  H   UNK d   0      11.989  14.915 -10.851  0.00  0.00     0.166 HD
ATOM     17  C   UNK d   0      12.611  12.204 -11.771  0.00  0.00     0.062 C 
ATOM     18  C   UNK d   0      14.699  12.957 -10.794  0.00  0.00    -0.013 A 
ATOM     19  C   UNK d   0      11.338  11.763 -11.515  0.00  0.00     0.067 A 
ATOM     20  N   UNK d   0      10.605  12.489 -10.667  0.00  0.00    -0.248 NA
ATOM     21  C   UNK d   0      10.519  10.637 -11.932  0.00  0.00    -0.011 A 
ATOM     22  C   UNK d   0       9.367  11.919 -10.498  0.00  0.00     0.066 A 
ATOM     23  C   UNK d   0       8.486  12.595  -9.667  0.00  0.00     0.062 C 
ATOM     24  C   UNK d   0       9.368  10.732 -11.330  0.00  0.00    -0.020 A 
ATOM     25  C   UNK d   0       8.672  13.840  -9.046  0.00  0.00     0.041 A 
ATOM     26  N   UNK d   0       9.742  14.389  -8.459  0.00  0.00    -0.355 N 
ATOM     27  C   UNK d   0       7.587  14.744  -9.008  0.00  0.00    -0.022 A 
ATOM     28  C   UNK d   0       9.377  15.614  -8.050  0.00  0.00     0.042 A 
ATOM     29  H   UNK d   0      10.739  13.906  -8.310  0.00  0.00     0.166 HD
ATOM     30  C   UNK d   0      10.100  16.618  -7.386  0.00  0.00     0.062 C 
ATOM     31  C   UNK d   0       8.025  15.869  -8.380  0.00  0.00    -0.013 A 
ATOM     32  C   UNK d   0      11.415  17.003  -7.592  0.00  0.00     0.066 A 
BRANCH   8  33
ATOM     33  C   UNK d   0      14.623  18.789  -7.407  0.00  0.00     0.151 C 
BRANCH  33  34
ATOM     34  C   UNK d   0      14.955  19.634  -8.569  0.00  0.00     0.143 C 
ATOM     35  O   UNK d   0      16.123  19.739  -8.967  0.00  0.00    -0.650 OA
BRANCH  34  36
ATOM     36  O   UNK d   0      13.950  20.315  -9.217  0.00  0.00    -0.776 OA
ATOM     37  H   UNK d   0      13.797  20.205 -10.229  0.00  0.00     0.167 HD
ENDBRANCH  34  36
ENDBRANCH  33  34
ENDBRANCH   8  33
BRANCH  31  38
ATOM     38  C   UNK d   0       7.215  17.117  -8.119  0.00  0.00     0.151 C 
BRANCH  38  39
ATOM     39  C   UNK d   0       7.270  18.062  -9.214  0.00  0.00     0.143 C 
ATOM     40  O   UNK d   0       8.292  18.722  -9.472  0.00  0.00    -0.650 OA
BRANCH  39  41
ATOM     41  O   UNK d   0       6.145  18.248 -10.017  0.00  0.00    -0.776 OA
ATOM     42  H   UNK d   0       5.898  19.216 -10.247  0.00  0.00     0.167 HD
ENDBRANCH  39  41
ENDBRANCH  38  39
ENDBRANCH  31  38
BRANCH  27  43
ATOM     43  C   UNK d   0       6.182  14.578  -9.532  0.00  0.00     0.052 C 
BRANCH  43  44
ATOM     44  C   UNK d   0       6.055  14.891 -10.988  0.00  0.00     0.115 C 
BRANCH  44  45
ATOM     45  C   UNK d   0       4.627  14.680 -11.343  0.00  0.00     0.139 C 
ATOM     46  O   UNK d   0       3.834  15.643 -11.201  0.00  0.00    -0.650 OA
BRANCH  45  47
ATOM     47  O   UNK d   0       4.145  13.482 -11.824  0.00  0.00    -0.776 OA
ATOM     48  H   UNK d   0       4.243  12.592 -11.309  0.00  0.00     0.167 HD
ENDBRANCH  45  47
ENDBRANCH  44  45
ENDBRANCH  43  44
ENDBRANCH  27  43
BRANCH  24  49
ATOM     49  C   UNK d   0       8.224   9.820 -11.495  0.00  0.00     0.052 C 
BRANCH  49  50
ATOM     50  C   UNK d   0       7.275  10.352 -12.539  0.00  0.00     0.115 C 
BRANCH  50  51
ATOM     51  C   UNK d   0       5.946  10.744 -12.091  0.00  0.00     0.139 C 
ATOM     52  O   UNK d   0       4.951  10.757 -12.855  0.00  0.00    -0.650 OA
BRANCH  51  53
ATOM     53  O   UNK d   0       5.750  11.123 -10.772  0.00  0.00    -0.776 OA
ATOM     54  H   UNK d   0       6.204  11.957 -10.445  0.00  0.00     0.167 HD
ENDBRANCH  51  53
ENDBRANCH  50  51
ENDBRANCH  49  50
ENDBRANCH  24  49
BRANCH  21  55
ATOM     55  C   UNK d   0      10.969   9.586 -12.891  0.00  0.00     0.151 C 
BRANCH  55  56
ATOM     56  C   UNK d   0      11.629   8.463 -12.209  0.00  0.00     0.143 C 
ATOM     57  O   UNK d   0      12.125   8.562 -11.069  0.00  0.00    -0.650 OA
BRANCH  56  58
ATOM     58  O   UNK d   0      11.694   7.243 -12.880  0.00  0.00    -0.776 OA
ATOM     59  H   UNK d   0      11.703   7.314 -13.914  0.00  0.00     0.167 HD
ENDBRANCH  56  58
ENDBRANCH  55  56
ENDBRANCH  21  55
BRANCH  18  60
ATOM     60  C   UNK d   0      15.533  11.725 -11.044  0.00  0.00     0.151 C 
BRANCH  60  61
ATOM     61  C   UNK d   0      15.419  10.906  -9.828  0.00  0.00     0.143 C 
ATOM     62  O   UNK d   0      14.397  10.393  -9.372  0.00  0.00    -0.650 OA
BRANCH  61  63
ATOM     63  O   UNK d   0      16.630  10.701  -9.124  0.00  0.00    -0.776 OA
ATOM     64  H   UNK d   0      17.519  10.821  -9.576  0.00  0.00     0.167 HD
ENDBRANCH  61  63
ENDBRANCH  60  61
ENDBRANCH  18  60
BRANCH  14  65
ATOM     65  C   UNK d   0      16.584  14.271  -9.771  0.00  0.00     0.052 C 
BRANCH  65  66
ATOM     66  C   UNK d   0      17.311  15.257 -10.614  0.00  0.00     0.115 C 
BRANCH  66  67
ATOM     67  C   UNK d   0      17.673  14.912 -11.960  0.00  0.00     0.139 C 
ATOM     68  O   UNK d   0      17.425  15.757 -12.898  0.00  0.00    -0.650 OA
BRANCH  67  69
ATOM     69  O   UNK d   0      18.279  13.739 -12.407  0.00  0.00    -0.776 OA
ATOM     70  H   UNK d   0      17.739  12.873 -12.266  0.00  0.00     0.167 HD
ENDBRANCH  67  69
ENDBRANCH  66  67
ENDBRANCH  65  66
ENDBRANCH  14  65
ENDBRANCH   6   7
ENDBRANCH   5   6
ENDBRANCH   2   5
TORSDOF 28
ENDMDL
MODEL 18
REMARK VINA RESULT:      -6.9     16.527     21.068
REMARK  28 active torsions:
REMARK  status: ('A' for Active; 'I' for Inactive)
REMARK    1  A    between atoms: C_2  and  O_3 
REMARK    2  A    between atoms: C_2  and  C_4 
REMARK    3  A    between atoms: C_4  and  C_5 
REMARK    4  A    between atoms: C_5  and  C_6 
REMARK    5  A    between atoms: C_7  and  C_8 
REMARK    6  A    between atoms: C_8  and  C_9 
REMARK    7  A    between atoms: C_9  and  O_11 
REMARK    8  A    between atoms: C_28  and  C_29 
REMARK    9  A    between atoms: C_29  and  C_30 
REMARK   10  A    between atoms: C_30  and  O_32 
REMARK   11  A    between atoms: C_33  and  C_34 
REMARK   12  A    between atoms: C_34  and  C_35 
REMARK   13  A    between atoms: C_35  and  C_36 
REMARK   14  A    between atoms: C_36  and  O_38 
REMARK   15  A    between atoms: C_39  and  C_40 
REMARK   16  A    between atoms: C_40  and  C_41 
REMARK   17  A    between atoms: C_41  and  C_42 
REMARK   18  A    between atoms: C_42  and  O_44 
REMARK   19  A    between atoms: C_45  and  C_46 
REMARK   20  A    between atoms: C_46  and  C_47 
REMARK   21  A    between atoms: C_47  and  O_49 
REMARK   22  A    between atoms: C_50  and  C_51 
REMARK   23  A    between atoms: C_51  and  C_52 
REMARK   24  A    between atoms: C_52  and  O_54 
REMARK   25  A    between atoms: C_55  and  C_56 
REMARK   26  A    between atoms: C_56  and  C_57 
REMARK   27  A    between atoms: C_57  and  C_58 
REMARK   28  A    between atoms: C_58  and  O_60 
ROOT
ATOM      1  O   UNK d   0      13.249  -7.854  -5.641  0.00  0.00    -0.650 OA
ATOM      2  C   UNK d   0      12.317  -8.519  -5.136  0.00  0.00     0.139 C 
ENDROOT
BRANCH   2   3
ATOM      3  O   UNK d   0      12.304  -8.739  -3.780  0.00  0.00    -0.776 OA
ATOM      4  H   UNK d   0      11.437  -8.974  -3.292  0.00  0.00     0.167 HD
ENDBRANCH   2   3
BRANCH   2   5
ATOM      5  C   UNK d   0      11.234  -9.065  -6.002  0.00  0.00     0.115 C 
BRANCH   5   6
ATOM      6  C   UNK d   0      11.426 -10.544  -6.200  0.00  0.00     0.052 C 
BRANCH   6   7
ATOM      7  C   UNK d   0      10.180 -11.230  -6.707  0.00  0.00    -0.020 A 
ATOM      8  C   UNK d   0       9.312 -11.922  -6.015  0.00  0.00    -0.011 A 
ATOM      9  C   UNK d   0       8.287 -12.394  -6.931  0.00  0.00     0.067 A 
ATOM     10  C   UNK d   0       7.105 -13.144  -6.828  0.00  0.00     0.062 C 
ATOM     11  N   UNK d   0       8.613 -11.947  -8.162  0.00  0.00    -0.248 NA
ATOM     12  C   UNK d   0       6.092 -13.264  -7.786  0.00  0.00     0.041 A 
ATOM     13  N   UNK d   0       6.150 -13.434  -9.121  0.00  0.00    -0.355 N 
ATOM     14  C   UNK d   0       4.751 -13.146  -7.377  0.00  0.00    -0.022 A 
ATOM     15  C   UNK d   0       4.880 -13.418  -9.570  0.00  0.00     0.042 A 
ATOM     16  H   UNK d   0       7.068 -13.582  -9.731  0.00  0.00     0.166 HD
ATOM     17  C   UNK d   0       4.372 -13.554 -10.877  0.00  0.00     0.062 C 
ATOM     18  C   UNK d   0       3.975 -13.239  -8.506  0.00  0.00    -0.013 A 
ATOM     19  C   UNK d   0       4.810 -12.968 -12.038  0.00  0.00     0.067 A 
ATOM     20  N   UNK d   0       5.985 -12.336 -11.990  0.00  0.00    -0.248 NA
ATOM     21  C   UNK d   0       4.302 -12.826 -13.392  0.00  0.00    -0.011 A 
ATOM     22  C   UNK d   0       6.282 -11.790 -13.215  0.00  0.00     0.066 A 
ATOM     23  C   UNK d   0       7.499 -11.133 -13.318  0.00  0.00     0.062 C 
ATOM     24  C   UNK d   0       5.166 -12.132 -14.075  0.00  0.00    -0.020 A 
ATOM     25  C   UNK d   0       8.509 -11.034 -12.348  0.00  0.00     0.041 A 
ATOM     26  N   UNK d   0       8.452 -10.851 -11.023  0.00  0.00    -0.355 N 
ATOM     27  C   UNK d   0       9.854 -11.158 -12.758  0.00  0.00    -0.022 A 
ATOM     28  C   UNK d   0       9.717 -10.857 -10.574  0.00  0.00     0.042 A 
ATOM     29  H   UNK d   0       7.529 -10.692 -10.413  0.00  0.00     0.166 HD
ATOM     30  C   UNK d   0      10.237 -10.714  -9.278  0.00  0.00     0.062 C 
ATOM     31  C   UNK d   0      10.625 -11.048 -11.642  0.00  0.00    -0.013 A 
ATOM     32  C   UNK d   0       9.742 -11.240  -8.095  0.00  0.00     0.066 A 
BRANCH   8  33
ATOM     33  C   UNK d   0       9.349 -12.193  -4.566  0.00  0.00     0.151 C 
BRANCH  33  34
ATOM     34  C   UNK d   0       9.974 -13.488  -4.244  0.00  0.00     0.143 C 
ATOM     35  O   UNK d   0      11.197 -13.578  -4.062  0.00  0.00    -0.650 OA
BRANCH  34  36
ATOM     36  O   UNK d   0       9.186 -14.612  -4.144  0.00  0.00    -0.776 OA
ATOM     37  H   UNK d   0       9.295 -15.400  -4.797  0.00  0.00     0.167 HD
ENDBRANCH  34  36
ENDBRANCH  33  34
ENDBRANCH   8  33
BRANCH  31  38
ATOM     38  C   UNK d   0      12.133 -11.132 -11.589  0.00  0.00     0.151 C 
BRANCH  38  39
ATOM     39  C   UNK d   0      12.770  -9.834 -11.658  0.00  0.00     0.143 C 
ATOM     40  O   UNK d   0      12.578  -9.048 -12.602  0.00  0.00    -0.650 OA
BRANCH  39  41
ATOM     41  O   UNK d   0      13.633  -9.438 -10.636  0.00  0.00    -0.776 OA
ATOM     42  H   UNK d   0      13.200  -9.110  -9.767  0.00  0.00     0.167 HD
ENDBRANCH  39  41
ENDBRANCH  38  39
ENDBRANCH  31  38
BRANCH  27  43
ATOM     43  C   UNK d   0      10.418 -11.370 -14.141  0.00  0.00     0.052 C 
BRANCH  43  44
ATOM     44  C   UNK d   0      10.311 -10.162 -15.014  0.00  0.00     0.115 C 
BRANCH  44  45
ATOM     45  C   UNK d   0      10.008 -10.654 -16.383  0.00  0.00     0.139 C 
ATOM     46  O   UNK d   0      10.871 -11.359 -16.964  0.00  0.00    -0.650 OA
BRANCH  45  47
ATOM     47  O   UNK d   0       8.826 -10.374 -17.033  0.00  0.00    -0.776 OA
ATOM     48  H   UNK d   0       8.338  -9.468 -16.943  0.00  0.00     0.167 HD
ENDBRANCH  45  47
ENDBRANCH  44  45
ENDBRANCH  43  44
ENDBRANCH  27  43
BRANCH  24  49
ATOM     49  C   UNK d   0       5.068 -11.785 -15.503  0.00  0.00     0.052 C 
BRANCH  49  50
ATOM     50  C   UNK d   0       4.388 -10.450 -15.673  0.00  0.00     0.115 C 
BRANCH  50  51
ATOM     51  C   UNK d   0       4.856  -9.599 -16.758  0.00  0.00     0.139 C 
ATOM     52  O   UNK d   0       5.818  -9.914 -17.497  0.00  0.00    -0.650 OA
BRANCH  51  53
ATOM     53  O   UNK d   0       4.227  -8.387 -17.000  0.00  0.00    -0.776 OA
ATOM     54  H   UNK d   0       4.710  -7.704 -17.557  0.00  0.00     0.167 HD
ENDBRANCH  51  53
ENDBRANCH  50  51
ENDBRANCH  49  50
ENDBRANCH  24  49
BRANCH  21  55
ATOM     55  C   UNK d   0       3.008 -13.402 -13.864  0.00  0.00     0.151 C 
BRANCH  55  56
ATOM     56  C   UNK d   0       1.885 -12.475 -13.661  0.00  0.00     0.143 C 
ATOM     57  O   UNK d   0       1.513 -12.101 -12.531  0.00  0.00    -0.650 OA
BRANCH  56  58
ATOM     58  O   UNK d   0       1.219 -12.004 -14.792  0.00  0.00    -0.776 OA
ATOM     59  H   UNK d   0       0.241 -11.704 -14.629  0.00  0.00     0.167 HD
ENDBRANCH  56  58
ENDBRANCH  55  56
ENDBRANCH  21  55
BRANCH  18  60
ATOM     60  C   UNK d   0       2.469 -13.155  -8.529  0.00  0.00     0.151 C 
BRANCH  60  61
ATOM     61  C   UNK d   0       2.148 -11.831  -9.084  0.00  0.00     0.143 C 
ATOM     62  O   UNK d   0       2.848 -10.819  -9.044  0.00  0.00    -0.650 OA
BRANCH  61  63
ATOM     63  O   UNK d   0       0.891 -11.737  -9.728  0.00  0.00    -0.776 OA
ATOM     64  H   UNK d   0       0.697 -11.000 -10.383  0.00  0.00     0.167 HD
ENDBRANCH  61  63
ENDBRANCH  60  61
ENDBRANCH  18  60
BRANCH  14  65
ATOM     65  C   UNK d   0       4.149 -13.050  -6.004  0.00  0.00     0.052 C 
BRANCH  65  66
ATOM     66  C   UNK d   0       3.792 -11.658  -5.621  0.00  0.00     0.115 C 
BRANCH  66  67
ATOM     67  C   UNK d   0       4.644 -10.925  -4.728  0.00  0.00     0.139 C 
ATOM     68  O   UNK d   0       4.756  -9.654  -4.892  0.00  0.00    -0.650 OA
BRANCH  67  69
ATOM     69  O   UNK d   0       5.396 -11.423  -3.665  0.00  0.00    -0.776 OA
ATOM     70  H   UNK d   0       5.837 -12.341  -3.820  0.00  0.00     0.167 HD
ENDBRANCH  67  69
ENDBRANCH  66  67
ENDBRANCH  65  66
ENDBRANCH  14  65
ENDBRANCH   6   7
ENDBRANCH   5   6
ENDBRANCH   2   5
TORSDOF 28
ENDMDL
MODEL 19
REMARK VINA RESULT:      -6.9     10.220     14.386
REMARK  28 active torsions:
REMARK  status: ('A' for Active; 'I' for Inactive)
REMARK    1  A    between atoms: C_2  and  O_3 
REMARK    2  A    between atoms: C_2  and  C_4 
REMARK    3  A    between atoms: C_4  and  C_5 
REMARK    4  A    between atoms: C_5  and  C_6 
REMARK    5  A    between atoms: C_7  and  C_8 
REMARK    6  A    between atoms: C_8  and  C_9 
REMARK    7  A    between atoms: C_9  and  O_11 
REMARK    8  A    between atoms: C_28  and  C_29 
REMARK    9  A    between atoms: C_29  and  C_30 
REMARK   10  A    between atoms: C_30  and  O_32 
REMARK   11  A    between atoms: C_33  and  C_34 
REMARK   12  A    between atoms: C_34  and  C_35 
REMARK   13  A    between atoms: C_35  and  C_36 
REMARK   14  A    between atoms: C_36  and  O_38 
REMARK   15  A    between atoms: C_39  and  C_40 
REMARK   16  A    between atoms: C_40  and  C_41 
REMARK   17  A    between atoms: C_41  and  C_42 
REMARK   18  A    between atoms: C_42  and  O_44 
REMARK   19  A    between atoms: C_45  and  C_46 
REMARK   20  A    between atoms: C_46  and  C_47 
REMARK   21  A    between atoms: C_47  and  O_49 
REMARK   22  A    between atoms: C_50  and  C_51 
REMARK   23  A    between atoms: C_51  and  C_52 
REMARK   24  A    between atoms: C_52  and  O_54 
REMARK   25  A    between atoms: C_55  and  C_56 
REMARK   26  A    between atoms: C_56  and  C_57 
REMARK   27  A    between atoms: C_57  and  C_58 
REMARK   28  A    between atoms: C_58  and  O_60 
ROOT
ATOM      1  O   UNK d   0       4.085   4.323 -22.633  0.00  0.00    -0.650 OA
ATOM      2  C   UNK d   0       5.191   3.744 -22.720  0.00  0.00     0.139 C 
ENDROOT
BRANCH   2   3
ATOM      3  O   UNK d   0       5.357   2.517 -22.124  0.00  0.00    -0.776 OA
ATOM      4  H   UNK d   0       6.147   2.336 -21.501  0.00  0.00     0.167 HD
ENDBRANCH   2   3
BRANCH   2   5
ATOM      5  C   UNK d   0       6.314   4.383 -23.463  0.00  0.00     0.115 C 
BRANCH   5   6
ATOM      6  C   UNK d   0       7.620   3.746 -23.075  0.00  0.00     0.052 C 
BRANCH   6   7
ATOM      7  C   UNK d   0       8.480   4.651 -22.227  0.00  0.00    -0.020 A 
ATOM      8  C   UNK d   0       9.620   5.205 -22.552  0.00  0.00    -0.011 A 
ATOM      9  C   UNK d   0      10.078   5.983 -21.413  0.00  0.00     0.067 A 
ATOM     10  C   UNK d   0      11.179   6.805 -21.126  0.00  0.00     0.062 C 
ATOM     11  N   UNK d   0       9.159   5.842 -20.436  0.00  0.00    -0.248 NA
ATOM     12  C   UNK d   0      11.311   7.702 -20.060  0.00  0.00     0.041 A 
ATOM     13  N   UNK d   0      10.988   7.584 -18.758  0.00  0.00    -0.355 N 
ATOM     14  C   UNK d   0      11.809   8.993 -20.314  0.00  0.00    -0.022 A 
ATOM     15  C   UNK d   0      11.262   8.770 -18.181  0.00  0.00     0.042 A 
ATOM     16  H   UNK d   0      10.594   6.675 -18.253  0.00  0.00     0.166 HD
ATOM     17  C   UNK d   0      11.115   9.190 -16.844  0.00  0.00     0.062 C 
ATOM     18  C   UNK d   0      11.778   9.678 -19.125  0.00  0.00    -0.013 A 
ATOM     19  C   UNK d   0      10.058   8.998 -15.990  0.00  0.00     0.067 A 
ATOM     20  N   UNK d   0       9.114   8.138 -16.381  0.00  0.00    -0.248 NA
ATOM     21  C   UNK d   0       9.652   9.521 -14.697  0.00  0.00    -0.011 A 
ATOM     22  C   UNK d   0       8.119   8.061 -15.437  0.00  0.00     0.066 A 
ATOM     23  C   UNK d   0       7.088   7.171 -15.699  0.00  0.00     0.062 C 
ATOM     24  C   UNK d   0       8.514   8.972 -14.381  0.00  0.00    -0.020 A 
ATOM     25  C   UNK d   0       6.981   6.270 -16.770  0.00  0.00     0.041 A 
ATOM     26  N   UNK d   0       7.287   6.392 -18.067  0.00  0.00    -0.355 N 
ATOM     27  C   UNK d   0       6.485   4.973 -16.513  0.00  0.00    -0.022 A 
ATOM     28  C   UNK d   0       7.007   5.214 -18.646  0.00  0.00     0.042 A 
ATOM     29  H   UNK d   0       7.674   7.309 -18.575  0.00  0.00     0.166 HD
ATOM     30  C   UNK d   0       7.140   4.785 -19.976  0.00  0.00     0.062 C 
ATOM     31  C   UNK d   0       6.499   4.298 -17.695  0.00  0.00    -0.013 A 
ATOM     32  C   UNK d   0       8.171   5.053 -20.862  0.00  0.00     0.066 A 
BRANCH   8  33
ATOM     33  C   UNK d   0      10.334   5.072 -23.836  0.00  0.00     0.151 C 
BRANCH  33  34
ATOM     34  C   UNK d   0      10.015   6.157 -24.781  0.00  0.00     0.143 C 
ATOM     35  O   UNK d   0       9.183   5.991 -25.684  0.00  0.00    -0.650 OA
BRANCH  34  36
ATOM     36  O   UNK d   0      10.653   7.370 -24.656  0.00  0.00    -0.776 OA
ATOM     37  H   UNK d   0      11.465   7.485 -24.034  0.00  0.00     0.167 HD
ENDBRANCH  34  36
ENDBRANCH  33  34
ENDBRANCH   8  33
BRANCH  31  38
ATOM     38  C   UNK d   0       6.069   2.865 -17.908  0.00  0.00     0.151 C 
BRANCH  38  39
ATOM     39  C   UNK d   0       4.703   2.753 -18.376  0.00  0.00     0.143 C 
ATOM     40  O   UNK d   0       4.258   3.450 -19.304  0.00  0.00    -0.650 OA
BRANCH  39  41
ATOM     41  O   UNK d   0       3.845   1.833 -17.773  0.00  0.00    -0.776 OA
ATOM     42  H   UNK d   0       3.986   0.846 -18.010  0.00  0.00     0.167 HD
ENDBRANCH  39  41
ENDBRANCH  38  39
ENDBRANCH  31  38
BRANCH  27  43
ATOM     43  C   UNK d   0       6.008   4.369 -15.216  0.00  0.00     0.052 C 
BRANCH  43  44
ATOM     44  C   UNK d   0       4.519   4.302 -15.108  0.00  0.00     0.115 C 
BRANCH  44  45
ATOM     45  C   UNK d   0       4.191   2.946 -14.597  0.00  0.00     0.139 C 
ATOM     46  O   UNK d   0       5.009   2.391 -13.822  0.00  0.00    -0.650 OA
BRANCH  45  47
ATOM     47  O   UNK d   0       3.032   2.281 -14.934  0.00  0.00    -0.776 OA
ATOM     48  H   UNK d   0       3.029   1.380 -15.440  0.00  0.00     0.167 HD
ENDBRANCH  45  47
ENDBRANCH  44  45
ENDBRANCH  43  44
ENDBRANCH  27  43
BRANCH  24  49
ATOM     49  C   UNK d   0       7.762   9.189 -13.133  0.00  0.00     0.052 C 
BRANCH  49  50
ATOM     50  C   UNK d   0       8.441   8.491 -11.983  0.00  0.00     0.115 C 
BRANCH  50  51
ATOM     51  C   UNK d   0       8.814   9.309 -10.836  0.00  0.00     0.139 C 
ATOM     52  O   UNK d   0       8.122  10.276 -10.441  0.00  0.00    -0.650 OA
BRANCH  51  53
ATOM     53  O   UNK d   0       9.979   9.024 -10.140  0.00  0.00    -0.776 OA
ATOM     54  H   UNK d   0      10.088   8.104  -9.752  0.00  0.00     0.167 HD
ENDBRANCH  51  53
ENDBRANCH  50  51
ENDBRANCH  49  50
ENDBRANCH  24  49
BRANCH  21  55
ATOM     55  C   UNK d   0      10.445  10.511 -13.910  0.00  0.00     0.151 C 
BRANCH  55  56
ATOM     56  C   UNK d   0      11.745   9.967 -13.490  0.00  0.00     0.143 C 
ATOM     57  O   UNK d   0      11.859   9.101 -12.600  0.00  0.00    -0.650 OA
BRANCH  56  58
ATOM     58  O   UNK d   0      12.887  10.452 -14.124  0.00  0.00    -0.776 OA
ATOM     59  H   UNK d   0      12.839  10.465 -15.159  0.00  0.00     0.167 HD
ENDBRANCH  56  58
ENDBRANCH  55  56
ENDBRANCH  21  55
BRANCH  18  60
ATOM     60  C   UNK d   0      12.217  11.110 -18.941  0.00  0.00     0.151 C 
BRANCH  60  61
ATOM     61  C   UNK d   0      13.573  11.046 -18.374  0.00  0.00     0.143 C 
ATOM     62  O   UNK d   0      14.599  10.672 -18.944  0.00  0.00    -0.650 OA
BRANCH  61  63
ATOM     63  O   UNK d   0      13.684  11.466 -17.027  0.00  0.00    -0.776 OA
ATOM     64  H   UNK d   0      14.216  12.282 -16.780  0.00  0.00     0.167 HD
ENDBRANCH  61  63
ENDBRANCH  60  61
ENDBRANCH  18  60
BRANCH  14  65
ATOM     65  C   UNK d   0      12.398   9.589 -21.560  0.00  0.00     0.052 C 
BRANCH  65  66
ATOM     66  C   UNK d   0      13.749   9.054 -21.879  0.00  0.00     0.115 C 
BRANCH  66  67
ATOM     67  C   UNK d   0      14.023   8.552 -23.196  0.00  0.00     0.139 C 
ATOM     68  O   UNK d   0      14.297   7.302 -23.331  0.00  0.00    -0.650 OA
BRANCH  67  69
ATOM     69  O   UNK d   0      14.035   9.263 -24.395  0.00  0.00    -0.776 OA
ATOM     70  H   UNK d   0      14.603  10.122 -24.401  0.00  0.00     0.167 HD
ENDBRANCH  67  69
ENDBRANCH  66  67
ENDBRANCH  65  66
ENDBRANCH  14  65
ENDBRANCH   6   7
ENDBRANCH   5   6
ENDBRANCH   2   5
TORSDOF 28
ENDMDL
MODEL 20
REMARK VINA RESULT:      -6.9     17.005     22.487
REMARK  28 active torsions:
REMARK  status: ('A' for Active; 'I' for Inactive)
REMARK    1  A    between atoms: C_2  and  O_3 
REMARK    2  A    between atoms: C_2  and  C_4 
REMARK    3  A    between atoms: C_4  and  C_5 
REMARK    4  A    between atoms: C_5  and  C_6 
REMARK    5  A    between atoms: C_7  and  C_8 
REMARK    6  A    between atoms: C_8  and  C_9 
REMARK    7  A    between atoms: C_9  and  O_11 
REMARK    8  A    between atoms: C_28  and  C_29 
REMARK    9  A    between atoms: C_29  and  C_30 
REMARK   10  A    between atoms: C_30  and  O_32 
REMARK   11  A    between atoms: C_33  and  C_34 
REMARK   12  A    between atoms: C_34  and  C_35 
REMARK   13  A    between atoms: C_35  and  C_36 
REMARK   14  A    between atoms: C_36  and  O_38 
REMARK   15  A    between atoms: C_39  and  C_40 
REMARK   16  A    between atoms: C_40  and  C_41 
REMARK   17  A    between atoms: C_41  and  C_42 
REMARK   18  A    between atoms: C_42  and  O_44 
REMARK   19  A    between atoms: C_45  and  C_46 
REMARK   20  A    between atoms: C_46  and  C_47 
REMARK   21  A    between atoms: C_47  and  O_49 
REMARK   22  A    between atoms: C_50  and  C_51 
REMARK   23  A    between atoms: C_51  and  C_52 
REMARK   24  A    between atoms: C_52  and  O_54 
REMARK   25  A    between atoms: C_55  and  C_56 
REMARK   26  A    between atoms: C_56  and  C_57 
REMARK   27  A    between atoms: C_57  and  C_58 
REMARK   28  A    between atoms: C_58  and  O_60 
ROOT
ATOM      1  O   UNK d   0      -5.267  10.491 -17.358  0.00  0.00    -0.650 OA
ATOM      2  C   UNK d   0      -5.596   9.776 -16.385  0.00  0.00     0.139 C 
ENDROOT
BRANCH   2   3
ATOM      3  O   UNK d   0      -6.611   8.862 -16.533  0.00  0.00    -0.776 OA
ATOM      4  H   UNK d   0      -7.589   9.139 -16.434  0.00  0.00     0.167 HD
ENDBRANCH   2   3
BRANCH   2   5
ATOM      5  C   UNK d   0      -4.890   9.919 -15.080  0.00  0.00     0.115 C 
BRANCH   5   6
ATOM      6  C   UNK d   0      -4.334   8.591 -14.644  0.00  0.00     0.052 C 
BRANCH   6   7
ATOM      7  C   UNK d   0      -3.083   8.209 -15.398  0.00  0.00    -0.020 A 
ATOM      8  C   UNK d   0      -1.868   8.657 -15.207  0.00  0.00    -0.011 A 
ATOM      9  C   UNK d   0      -0.999   8.010 -16.176  0.00  0.00     0.067 A 
ATOM     10  C   UNK d   0       0.371   8.032 -16.480  0.00  0.00     0.062 C 
ATOM     11  N   UNK d   0      -1.769   7.188 -16.919  0.00  0.00    -0.248 NA
ATOM     12  C   UNK d   0       1.078   7.123 -17.275  0.00  0.00     0.041 A 
ATOM     13  N   UNK d   0       0.769   6.549 -18.453  0.00  0.00    -0.355 N 
ATOM     14  C   UNK d   0       2.311   6.629 -16.812  0.00  0.00    -0.022 A 
ATOM     15  C   UNK d   0       1.770   5.698 -18.746  0.00  0.00     0.042 A 
ATOM     16  H   UNK d   0      -0.129   6.756 -19.075  0.00  0.00     0.166 HD
ATOM     17  C   UNK d   0       1.953   4.849 -19.855  0.00  0.00     0.062 C 
ATOM     18  C   UNK d   0       2.755   5.720 -17.739  0.00  0.00    -0.013 A 
ATOM     19  C   UNK d   0       1.046   4.020 -20.465  0.00  0.00     0.067 A 
ATOM     20  N   UNK d   0      -0.234   4.158 -20.109  0.00  0.00    -0.248 NA
ATOM     21  C   UNK d   0       1.104   2.951 -21.449  0.00  0.00    -0.011 A 
ATOM     22  C   UNK d   0      -1.017   3.256 -20.788  0.00  0.00     0.066 A 
ATOM     23  C   UNK d   0      -2.381   3.315 -20.541  0.00  0.00     0.062 C 
ATOM     24  C   UNK d   0      -0.106   2.506 -21.630  0.00  0.00    -0.020 A 
ATOM     25  C   UNK d   0      -3.072   4.245 -19.748  0.00  0.00     0.041 A 
ATOM     26  N   UNK d   0      -2.772   4.804 -18.570  0.00  0.00    -0.355 N 
ATOM     27  C   UNK d   0      -4.307   4.743 -20.216  0.00  0.00    -0.022 A 
ATOM     28  C   UNK d   0      -3.773   5.647 -18.272  0.00  0.00     0.042 A 
ATOM     29  H   UNK d   0      -1.874   4.587 -17.941  0.00  0.00     0.166 HD
ATOM     30  C   UNK d   0      -3.972   6.490 -17.167  0.00  0.00     0.062 C 
ATOM     31  C   UNK d   0      -4.758   5.631 -19.288  0.00  0.00    -0.013 A 
ATOM     32  C   UNK d   0      -3.033   7.261 -16.501  0.00  0.00     0.066 A 
BRANCH   8  33
ATOM     33  C   UNK d   0      -1.437   9.645 -14.201  0.00  0.00     0.151 C 
BRANCH  33  34
ATOM     34  C   UNK d   0      -1.006  10.920 -14.802  0.00  0.00     0.143 C 
ATOM     35  O   UNK d   0       0.131  11.369 -14.596  0.00  0.00    -0.650 OA
BRANCH  34  36
ATOM     36  O   UNK d   0      -1.881  11.620 -15.601  0.00  0.00    -0.776 OA
ATOM     37  H   UNK d   0      -2.868  11.341 -15.685  0.00  0.00     0.167 HD
ENDBRANCH  34  36
ENDBRANCH  33  34
ENDBRANCH   8  33
BRANCH  31  38
ATOM     38  C   UNK d   0      -6.039   6.429 -19.366  0.00  0.00     0.151 C 
BRANCH  38  39
ATOM     39  C   UNK d   0      -5.849   7.741 -19.947  0.00  0.00     0.143 C 
ATOM     40  O   UNK d   0      -5.021   7.956 -20.850  0.00  0.00    -0.650 OA
BRANCH  39  41
ATOM     41  O   UNK d   0      -6.615   8.812 -19.488  0.00  0.00    -0.776 OA
ATOM     42  H   UNK d   0      -7.300   8.608 -18.753  0.00  0.00     0.167 HD
ENDBRANCH  39  41
ENDBRANCH  38  39
ENDBRANCH  31  38
BRANCH  27  43
ATOM     43  C   UNK d   0      -5.057   4.412 -21.482  0.00  0.00     0.052 C 
BRANCH  43  44
ATOM     44  C   UNK d   0      -6.247   3.537 -21.252  0.00  0.00     0.115 C 
BRANCH  44  45
ATOM     45  C   UNK d   0      -5.817   2.148 -21.556  0.00  0.00     0.139 C 
ATOM     46  O   UNK d   0      -6.103   1.672 -22.682  0.00  0.00    -0.650 OA
BRANCH  45  47
ATOM     47  O   UNK d   0      -5.117   1.369 -20.659  0.00  0.00    -0.776 OA
ATOM     48  H   UNK d   0      -4.090   1.413 -20.561  0.00  0.00     0.167 HD
ENDBRANCH  45  47
ENDBRANCH  44  45
ENDBRANCH  43  44
ENDBRANCH  27  43
BRANCH  24  49
ATOM     49  C   UNK d   0      -0.510   1.447 -22.571  0.00  0.00     0.052 C 
BRANCH  49  50
ATOM     50  C   UNK d   0      -1.355   2.023 -23.678  0.00  0.00     0.115 C 
BRANCH  50  51
ATOM     51  C   UNK d   0      -2.715   1.517 -23.808  0.00  0.00     0.139 C 
ATOM     52  O   UNK d   0      -3.483   1.873 -24.732  0.00  0.00    -0.650 OA
BRANCH  51  53
ATOM     53  O   UNK d   0      -3.200   0.606 -22.882  0.00  0.00    -0.776 OA
ATOM     54  H   UNK d   0      -3.859  -0.085 -23.195  0.00  0.00     0.167 HD
ENDBRANCH  51  53
ENDBRANCH  50  51
ENDBRANCH  49  50
ENDBRANCH  24  49
BRANCH  21  55
ATOM     55  C   UNK d   0       2.361   2.490 -22.108  0.00  0.00     0.151 C 
BRANCH  55  56
ATOM     56  C   UNK d   0       3.181   1.659 -21.212  0.00  0.00     0.143 C 
ATOM     57  O   UNK d   0       4.411   1.520 -21.358  0.00  0.00    -0.650 OA
BRANCH  56  58
ATOM     58  O   UNK d   0       2.537   1.007 -20.162  0.00  0.00    -0.776 OA
ATOM     59  H   UNK d   0       1.700   1.495 -19.793  0.00  0.00     0.167 HD
ENDBRANCH  56  58
ENDBRANCH  55  56
ENDBRANCH  21  55
BRANCH  18  60
ATOM     60  C   UNK d   0       4.042   4.939 -17.637  0.00  0.00     0.151 C 
BRANCH  60  61
ATOM     61  C   UNK d   0       3.692   3.666 -16.990  0.00  0.00     0.143 C 
ATOM     62  O   UNK d   0       3.505   3.471 -15.788  0.00  0.00    -0.650 OA
BRANCH  61  63
ATOM     63  O   UNK d   0       3.560   2.561 -17.865  0.00  0.00    -0.776 OA
ATOM     64  H   UNK d   0       2.655   2.222 -18.140  0.00  0.00     0.167 HD
ENDBRANCH  61  63
ENDBRANCH  60  61
ENDBRANCH  18  60
BRANCH  14  65
ATOM     65  C   UNK d   0       3.139   7.019 -15.620  0.00  0.00     0.052 C 
BRANCH  65  66
ATOM     66  C   UNK d   0       4.096   8.120 -15.913  0.00  0.00     0.115 C 
BRANCH  66  67
ATOM     67  C   UNK d   0       3.689   9.484 -15.730  0.00  0.00     0.139 C 
ATOM     68  O   UNK d   0       4.273  10.397 -16.422  0.00  0.00    -0.650 OA
BRANCH  67  69
ATOM     69  O   UNK d   0       2.707   9.974 -14.869  0.00  0.00    -0.776 OA
ATOM     70  H   UNK d   0       2.485  10.975 -14.967  0.00  0.00     0.167 HD
ENDBRANCH  67  69
ENDBRANCH  66  67
ENDBRANCH  65  66
ENDBRANCH  14  65
ENDBRANCH   6   7
ENDBRANCH   5   6
ENDBRANCH   2   5
TORSDOF 28
ENDMDL
