MODEL 1
REMARK VINA RESULT:      -8.9      0.000      0.000
REMARK  28 active torsions:
REMARK  status: ('A' for Active; 'I' for Inactive)
REMARK    1  A    between atoms: C_2  and  O_3 
REMARK    2  A    between atoms: C_2  and  C_4 
REMARK    3  A    between atoms: C_4  and  C_5 
REMARK    4  A    between atoms: C_5  and  C_6 
REMARK    5  A    between atoms: C_7  and  C_8 
REMARK    6  A    between atoms: C_8  and  C_9 
REMARK    7  A    between atoms: C_9  and  O_11 
REMARK    8  A    between atoms: C_28  and  C_29 
REMARK    9  A    between atoms: C_29  and  C_30 
REMARK   10  A    between atoms: C_30  and  O_32 
REMARK   11  A    between atoms: C_33  and  C_34 
REMARK   12  A    between atoms: C_34  and  C_35 
REMARK   13  A    between atoms: C_35  and  C_36 
REMARK   14  A    between atoms: C_36  and  O_38 
REMARK   15  A    between atoms: C_39  and  C_40 
REMARK   16  A    between atoms: C_40  and  C_41 
REMARK   17  A    between atoms: C_41  and  C_42 
REMARK   18  A    between atoms: C_42  and  O_44 
REMARK   19  A    between atoms: C_45  and  C_46 
REMARK   20  A    between atoms: C_46  and  C_47 
REMARK   21  A    between atoms: C_47  and  O_49 
REMARK   22  A    between atoms: C_50  and  C_51 
REMARK   23  A    between atoms: C_51  and  C_52 
REMARK   24  A    between atoms: C_52  and  O_54 
REMARK   25  A    between atoms: C_55  and  C_56 
REMARK   26  A    between atoms: C_56  and  C_57 
REMARK   27  A    between atoms: C_57  and  C_58 
REMARK   28  A    between atoms: C_58  and  O_60 
ROOT
ATOM      1  O   UNK d   0     -34.973   1.849   4.210  0.00  0.00    -0.650 OA
ATOM      2  C   UNK d   0     -35.320   0.983   5.043  0.00  0.00     0.139 C 
ENDROOT
BRANCH   2   3
ATOM      3  O   UNK d   0     -35.493  -0.317   4.631  0.00  0.00    -0.776 OA
ATOM      4  H   UNK d   0     -36.095  -0.542   3.836  0.00  0.00     0.167 HD
ENDBRANCH   2   3
BRANCH   2   5
ATOM      5  C   UNK d   0     -35.543   1.360   6.468  0.00  0.00     0.115 C 
BRANCH   5   6
ATOM      6  C   UNK d   0     -34.226   1.464   7.188  0.00  0.00     0.052 C 
BRANCH   6   7
ATOM      7  C   UNK d   0     -34.044   0.381   8.224  0.00  0.00    -0.020 A 
ATOM      8  C   UNK d   0     -34.266   0.463   9.511  0.00  0.00    -0.011 A 
ATOM      9  C   UNK d   0     -33.942  -0.825  10.102  0.00  0.00     0.067 A 
ATOM     10  C   UNK d   0     -33.978  -1.388  11.387  0.00  0.00     0.062 C 
ATOM     11  N   UNK d   0     -33.524  -1.630   9.102  0.00  0.00    -0.248 NA
ATOM     12  C   UNK d   0     -33.889  -2.743  11.721  0.00  0.00     0.041 A 
ATOM     13  N   UNK d   0     -33.087  -3.720  11.256  0.00  0.00    -0.355 N 
ATOM     14  C   UNK d   0     -34.793  -3.274  12.659  0.00  0.00    -0.022 A 
ATOM     15  C   UNK d   0     -33.464  -4.858  11.869  0.00  0.00     0.042 A 
ATOM     16  H   UNK d   0     -32.257  -3.603  10.524  0.00  0.00     0.166 HD
ATOM     17  C   UNK d   0     -32.960  -6.169  11.751  0.00  0.00     0.062 C 
ATOM     18  C   UNK d   0     -34.532  -4.618  12.755  0.00  0.00    -0.013 A 
ATOM     19  C   UNK d   0     -32.629  -6.867  10.618  0.00  0.00     0.067 A 
ATOM     20  N   UNK d   0     -32.581  -6.178   9.475  0.00  0.00    -0.248 NA
ATOM     21  C   UNK d   0     -32.309  -8.248  10.298  0.00  0.00    -0.011 A 
ATOM     22  C   UNK d   0     -32.253  -7.008   8.431  0.00  0.00     0.066 A 
ATOM     23  C   UNK d   0     -32.131  -6.412   7.185  0.00  0.00     0.062 C 
ATOM     24  C   UNK d   0     -32.094  -8.325   9.017  0.00  0.00    -0.020 A 
ATOM     25  C   UNK d   0     -32.212  -5.046   6.873  0.00  0.00     0.041 A 
ATOM     26  N   UNK d   0     -33.019  -4.079   7.324  0.00  0.00    -0.355 N 
ATOM     27  C   UNK d   0     -31.301  -4.513   5.935  0.00  0.00    -0.022 A 
ATOM     28  C   UNK d   0     -32.651  -2.944   6.707  0.00  0.00     0.042 A 
ATOM     29  H   UNK d   0     -33.859  -4.199   8.051  0.00  0.00     0.166 HD
ATOM     30  C   UNK d   0     -33.149  -1.636   6.808  0.00  0.00     0.062 C 
ATOM     31  C   UNK d   0     -31.571  -3.184   5.825  0.00  0.00    -0.013 A 
ATOM     32  C   UNK d   0     -33.562  -0.964   7.947  0.00  0.00     0.066 A 
BRANCH   8  33
ATOM     33  C   UNK d   0     -34.753   1.641  10.252  0.00  0.00     0.151 C 
BRANCH  33  34
ATOM     34  C   UNK d   0     -36.103   1.446  10.811  0.00  0.00     0.143 C 
ATOM     35  O   UNK d   0     -36.285   1.397  12.036  0.00  0.00    -0.650 OA
BRANCH  34  36
ATOM     36  O   UNK d   0     -37.175   1.315   9.958  0.00  0.00    -0.776 OA
ATOM     37  H   UNK d   0     -37.221   1.838   9.073  0.00  0.00     0.167 HD
ENDBRANCH  34  36
ENDBRANCH  33  34
ENDBRANCH   8  33
BRANCH  31  38
ATOM     38  C   UNK d   0     -30.841  -2.196   4.945  0.00  0.00     0.151 C 
BRANCH  38  39
ATOM     39  C   UNK d   0     -29.708  -1.584   5.608  0.00  0.00     0.143 C 
ATOM     40  O   UNK d   0     -29.835  -0.635   6.401  0.00  0.00    -0.650 OA
BRANCH  39  41
ATOM     41  O   UNK d   0     -28.424  -2.067   5.358  0.00  0.00    -0.776 OA
ATOM     42  H   UNK d   0     -28.353  -2.909   4.778  0.00  0.00     0.167 HD
ENDBRANCH  39  41
ENDBRANCH  38  39
ENDBRANCH  31  38
BRANCH  27  43
ATOM     43  C   UNK d   0     -30.210  -5.207   5.157  0.00  0.00     0.052 C 
BRANCH  43  44
ATOM     44  C   UNK d   0     -30.716  -5.941   3.957  0.00  0.00     0.115 C 
BRANCH  44  45
ATOM     45  C   UNK d   0     -30.226  -7.339   4.077  0.00  0.00     0.139 C 
ATOM     46  O   UNK d   0     -31.064  -8.270   3.989  0.00  0.00    -0.650 OA
BRANCH  45  47
ATOM     47  O   UNK d   0     -28.898  -7.651   4.274  0.00  0.00    -0.776 OA
ATOM     48  H   UNK d   0     -28.554  -8.623   4.336  0.00  0.00     0.167 HD
ENDBRANCH  45  47
ENDBRANCH  44  45
ENDBRANCH  43  44
ENDBRANCH  27  43
BRANCH  24  49
ATOM     49  C   UNK d   0     -31.702  -9.534   8.272  0.00  0.00     0.052 C 
BRANCH  49  50
ATOM     50  C   UNK d   0     -30.205  -9.583   8.103  0.00  0.00     0.115 C 
BRANCH  50  51
ATOM     51  C   UNK d   0     -29.696  -9.905   6.777  0.00  0.00     0.139 C 
ATOM     52  O   UNK d   0     -28.501  -9.719   6.447  0.00  0.00    -0.650 OA
BRANCH  51  53
ATOM     53  O   UNK d   0     -30.552 -10.437   5.824  0.00  0.00    -0.776 OA
ATOM     54  H   UNK d   0     -31.482 -10.691   6.109  0.00  0.00     0.167 HD
ENDBRANCH  51  53
ENDBRANCH  50  51
ENDBRANCH  49  50
ENDBRANCH  24  49
BRANCH  21  55
ATOM     55  C   UNK d   0     -32.247  -9.346  11.308  0.00  0.00     0.151 C 
BRANCH  55  56
ATOM     56  C   UNK d   0     -32.999 -10.535  10.877  0.00  0.00     0.143 C 
ATOM     57  O   UNK d   0     -34.084 -10.462  10.267  0.00  0.00    -0.650 OA
BRANCH  56  58
ATOM     58  O   UNK d   0     -32.460 -11.786  11.172  0.00  0.00    -0.776 OA
ATOM     59  H   UNK d   0     -31.829 -11.807  11.993  0.00  0.00     0.167 HD
ENDBRANCH  56  58
ENDBRANCH  55  56
ENDBRANCH  21  55
BRANCH  18  60
ATOM     60  C   UNK d   0     -35.276  -5.582  13.646  0.00  0.00     0.151 C 
BRANCH  60  61
ATOM     61  C   UNK d   0     -36.359  -6.140  12.821  0.00  0.00     0.143 C 
ATOM     62  O   UNK d   0     -36.665  -5.808  11.675  0.00  0.00    -0.650 OA
BRANCH  61  63
ATOM     63  O   UNK d   0     -37.115  -7.168  13.434  0.00  0.00    -0.776 OA
ATOM     64  H   UNK d   0     -36.674  -7.861  14.012  0.00  0.00     0.167 HD
ENDBRANCH  61  63
ENDBRANCH  60  61
ENDBRANCH  18  60
BRANCH  14  65
ATOM     65  C   UNK d   0     -35.810  -2.597  13.533  0.00  0.00     0.052 C 
BRANCH  65  66
ATOM     66  C   UNK d   0     -37.176  -2.596  12.945  0.00  0.00     0.115 C 
BRANCH  66  67
ATOM     67  C   UNK d   0     -37.341  -2.407  11.531  0.00  0.00     0.139 C 
ATOM     68  O   UNK d   0     -37.714  -1.252  11.105  0.00  0.00    -0.650 OA
BRANCH  67  69
ATOM     69  O   UNK d   0     -37.145  -3.343  10.516  0.00  0.00    -0.776 OA
ATOM     70  H   UNK d   0     -36.384  -3.134   9.855  0.00  0.00     0.167 HD
ENDBRANCH  67  69
ENDBRANCH  66  67
ENDBRANCH  65  66
ENDBRANCH  14  65
ENDBRANCH   6   7
ENDBRANCH   5   6
ENDBRANCH   2   5
TORSDOF 28
ENDMDL
MODEL 2
REMARK VINA RESULT:      -8.0      1.618      6.911
REMARK  28 active torsions:
REMARK  status: ('A' for Active; 'I' for Inactive)
REMARK    1  A    between atoms: C_2  and  O_3 
REMARK    2  A    between atoms: C_2  and  C_4 
REMARK    3  A    between atoms: C_4  and  C_5 
REMARK    4  A    between atoms: C_5  and  C_6 
REMARK    5  A    between atoms: C_7  and  C_8 
REMARK    6  A    between atoms: C_8  and  C_9 
REMARK    7  A    between atoms: C_9  and  O_11 
REMARK    8  A    between atoms: C_28  and  C_29 
REMARK    9  A    between atoms: C_29  and  C_30 
REMARK   10  A    between atoms: C_30  and  O_32 
REMARK   11  A    between atoms: C_33  and  C_34 
REMARK   12  A    between atoms: C_34  and  C_35 
REMARK   13  A    between atoms: C_35  and  C_36 
REMARK   14  A    between atoms: C_36  and  O_38 
REMARK   15  A    between atoms: C_39  and  C_40 
REMARK   16  A    between atoms: C_40  and  C_41 
REMARK   17  A    between atoms: C_41  and  C_42 
REMARK   18  A    between atoms: C_42  and  O_44 
REMARK   19  A    between atoms: C_45  and  C_46 
REMARK   20  A    between atoms: C_46  and  C_47 
REMARK   21  A    between atoms: C_47  and  O_49 
REMARK   22  A    between atoms: C_50  and  C_51 
REMARK   23  A    between atoms: C_51  and  C_52 
REMARK   24  A    between atoms: C_52  and  O_54 
REMARK   25  A    between atoms: C_55  and  C_56 
REMARK   26  A    between atoms: C_56  and  C_57 
REMARK   27  A    between atoms: C_57  and  C_58 
REMARK   28  A    between atoms: C_58  and  O_60 
ROOT
ATOM      1  O   UNK d   0     -37.504  -0.750  13.344  0.00  0.00    -0.650 OA
ATOM      2  C   UNK d   0     -36.807  -1.789  13.355  0.00  0.00     0.139 C 
ENDROOT
BRANCH   2   3
ATOM      3  O   UNK d   0     -37.276  -2.921  12.732  0.00  0.00    -0.776 OA
ATOM      4  H   UNK d   0     -38.178  -2.924  12.253  0.00  0.00     0.167 HD
ENDBRANCH   2   3
BRANCH   2   5
ATOM      5  C   UNK d   0     -35.483  -1.795  14.040  0.00  0.00     0.115 C 
BRANCH   5   6
ATOM      6  C   UNK d   0     -34.575  -0.769  13.419  0.00  0.00     0.052 C 
BRANCH   6   7
ATOM      7  C   UNK d   0     -34.438  -0.943  11.925  0.00  0.00    -0.020 A 
ATOM      8  C   UNK d   0     -34.716  -0.069  10.991  0.00  0.00    -0.011 A 
ATOM      9  C   UNK d   0     -34.435  -0.686   9.706  0.00  0.00     0.067 A 
ATOM     10  C   UNK d   0     -34.497  -0.295   8.359  0.00  0.00     0.062 C 
ATOM     11  N   UNK d   0     -33.997  -1.939   9.951  0.00  0.00    -0.248 NA
ATOM     12  C   UNK d   0     -33.918  -0.941   7.262  0.00  0.00     0.041 A 
ATOM     13  N   UNK d   0     -33.847  -2.246   6.937  0.00  0.00    -0.355 N 
ATOM     14  C   UNK d   0     -33.220  -0.173   6.311  0.00  0.00    -0.022 A 
ATOM     15  C   UNK d   0     -33.116  -2.326   5.809  0.00  0.00     0.042 A 
ATOM     16  H   UNK d   0     -34.321  -3.091   7.483  0.00  0.00     0.166 HD
ATOM     17  C   UNK d   0     -32.739  -3.448   5.044  0.00  0.00     0.062 C 
ATOM     18  C   UNK d   0     -32.705  -1.047   5.387  0.00  0.00    -0.013 A 
ATOM     19  C   UNK d   0     -32.251  -4.657   5.468  0.00  0.00     0.067 A 
ATOM     20  N   UNK d   0     -32.313  -4.908   6.778  0.00  0.00    -0.248 NA
ATOM     21  C   UNK d   0     -31.629  -5.812   4.841  0.00  0.00    -0.011 A 
ATOM     22  C   UNK d   0     -31.776  -6.142   7.053  0.00  0.00     0.066 A 
ATOM     23  C   UNK d   0     -31.811  -6.547   8.379  0.00  0.00     0.062 C 
ATOM     24  C   UNK d   0     -31.350  -6.675   5.774  0.00  0.00    -0.020 A 
ATOM     25  C   UNK d   0     -32.409  -5.890   9.465  0.00  0.00     0.041 A 
ATOM     26  N   UNK d   0     -32.467  -4.594   9.796  0.00  0.00    -0.355 N 
ATOM     27  C   UNK d   0     -33.113  -6.660  10.416  0.00  0.00    -0.022 A 
ATOM     28  C   UNK d   0     -33.188  -4.512  10.926  0.00  0.00     0.042 A 
ATOM     29  H   UNK d   0     -31.981  -3.747   9.252  0.00  0.00     0.166 HD
ATOM     30  C   UNK d   0     -33.563  -3.404  11.702  0.00  0.00     0.062 C 
ATOM     31  C   UNK d   0     -33.609  -5.796  11.344  0.00  0.00    -0.013 A 
ATOM     32  C   UNK d   0     -33.975  -2.155  11.267  0.00  0.00     0.066 A 
BRANCH   8  33
ATOM     33  C   UNK d   0     -35.228   1.301  11.185  0.00  0.00     0.151 C 
BRANCH  33  34
ATOM     34  C   UNK d   0     -36.502   1.538  10.483  0.00  0.00     0.143 C 
ATOM     35  O   UNK d   0     -36.630   2.492   9.702  0.00  0.00    -0.650 OA
BRANCH  34  36
ATOM     36  O   UNK d   0     -37.562   0.688  10.700  0.00  0.00    -0.776 OA
ATOM     37  H   UNK d   0     -37.823  -0.027  10.008  0.00  0.00     0.167 HD
ENDBRANCH  34  36
ENDBRANCH  33  34
ENDBRANCH   8  33
BRANCH  31  38
ATOM     38  C   UNK d   0     -34.444  -6.164  12.548  0.00  0.00     0.151 C 
BRANCH  38  39
ATOM     39  C   UNK d   0     -35.866  -6.042  12.303  0.00  0.00     0.143 C 
ATOM     40  O   UNK d   0     -36.326  -5.332  11.392  0.00  0.00    -0.650 OA
BRANCH  39  41
ATOM     41  O   UNK d   0     -36.763  -6.742  13.109  0.00  0.00    -0.776 OA
ATOM     42  H   UNK d   0     -36.711  -6.568  14.118  0.00  0.00     0.167 HD
ENDBRANCH  39  41
ENDBRANCH  38  39
ENDBRANCH  31  38
BRANCH  27  43
ATOM     43  C   UNK d   0     -33.323  -8.153  10.475  0.00  0.00     0.052 C 
BRANCH  43  44
ATOM     44  C   UNK d   0     -32.614  -8.805  11.617  0.00  0.00     0.115 C 
BRANCH  44  45
ATOM     45  C   UNK d   0     -31.169  -8.503  11.448  0.00  0.00     0.139 C 
ATOM     46  O   UNK d   0     -30.626  -7.726  12.273  0.00  0.00    -0.650 OA
BRANCH  45  47
ATOM     47  O   UNK d   0     -30.406  -9.040  10.433  0.00  0.00    -0.776 OA
ATOM     48  H   UNK d   0     -30.692  -9.009   9.441  0.00  0.00     0.167 HD
ENDBRANCH  45  47
ENDBRANCH  44  45
ENDBRANCH  43  44
ENDBRANCH  27  43
BRANCH  24  49
ATOM     49  C   UNK d   0     -30.747  -8.004   5.576  0.00  0.00     0.052 C 
BRANCH  49  50
ATOM     50  C   UNK d   0     -31.161  -8.938   6.683  0.00  0.00     0.115 C 
BRANCH  50  51
ATOM     51  C   UNK d   0     -30.244 -10.020   7.018  0.00  0.00     0.139 C 
ATOM     52  O   UNK d   0     -30.189 -10.530   8.162  0.00  0.00    -0.650 OA
BRANCH  51  53
ATOM     53  O   UNK d   0     -29.388 -10.518   6.048  0.00  0.00    -0.776 OA
ATOM     54  H   UNK d   0     -28.974 -11.422   6.199  0.00  0.00     0.167 HD
ENDBRANCH  51  53
ENDBRANCH  50  51
ENDBRANCH  49  50
ENDBRANCH  24  49
BRANCH  21  55
ATOM     55  C   UNK d   0     -31.384  -5.933   3.373  0.00  0.00     0.151 C 
BRANCH  55  56
ATOM     56  C   UNK d   0     -30.103  -6.595   3.082  0.00  0.00     0.143 C 
ATOM     57  O   UNK d   0     -30.030  -7.721   2.553  0.00  0.00    -0.650 OA
BRANCH  56  58
ATOM     58  O   UNK d   0     -28.931  -5.918   3.417  0.00  0.00    -0.776 OA
ATOM     59  H   UNK d   0     -29.039  -4.895   3.541  0.00  0.00     0.167 HD
ENDBRANCH  56  58
ENDBRANCH  55  56
ENDBRANCH  21  55
BRANCH  18  60
ATOM     60  C   UNK d   0     -31.876  -0.651   4.190  0.00  0.00     0.151 C 
BRANCH  60  61
ATOM     61  C   UNK d   0     -30.531  -0.362   4.710  0.00  0.00     0.143 C 
ATOM     62  O   UNK d   0     -29.992   0.742   4.801  0.00  0.00    -0.650 OA
BRANCH  61  63
ATOM     63  O   UNK d   0     -29.798  -1.491   5.147  0.00  0.00    -0.776 OA
ATOM     64  H   UNK d   0     -30.220  -2.402   5.179  0.00  0.00     0.167 HD
ENDBRANCH  61  63
ENDBRANCH  60  61
ENDBRANCH  18  60
BRANCH  14  65
ATOM     65  C   UNK d   0     -33.089   1.315   6.158  0.00  0.00     0.052 C 
BRANCH  65  66
ATOM     66  C   UNK d   0     -34.259   1.936   5.482  0.00  0.00     0.115 C 
BRANCH  66  67
ATOM     67  C   UNK d   0     -35.201   2.701   6.249  0.00  0.00     0.139 C 
ATOM     68  O   UNK d   0     -36.388   2.231   6.409  0.00  0.00    -0.650 OA
BRANCH  67  69
ATOM     69  O   UNK d   0     -34.997   3.933   6.870  0.00  0.00    -0.776 OA
ATOM     70  H   UNK d   0     -34.483   4.634   6.316  0.00  0.00     0.167 HD
ENDBRANCH  67  69
ENDBRANCH  66  67
ENDBRANCH  65  66
ENDBRANCH  14  65
ENDBRANCH   6   7
ENDBRANCH   5   6
ENDBRANCH   2   5
TORSDOF 28
ENDMDL
MODEL 3
REMARK VINA RESULT:      -7.7      1.870      7.721
REMARK  28 active torsions:
REMARK  status: ('A' for Active; 'I' for Inactive)
REMARK    1  A    between atoms: C_2  and  O_3 
REMARK    2  A    between atoms: C_2  and  C_4 
REMARK    3  A    between atoms: C_4  and  C_5 
REMARK    4  A    between atoms: C_5  and  C_6 
REMARK    5  A    between atoms: C_7  and  C_8 
REMARK    6  A    between atoms: C_8  and  C_9 
REMARK    7  A    between atoms: C_9  and  O_11 
REMARK    8  A    between atoms: C_28  and  C_29 
REMARK    9  A    between atoms: C_29  and  C_30 
REMARK   10  A    between atoms: C_30  and  O_32 
REMARK   11  A    between atoms: C_33  and  C_34 
REMARK   12  A    between atoms: C_34  and  C_35 
REMARK   13  A    between atoms: C_35  and  C_36 
REMARK   14  A    between atoms: C_36  and  O_38 
REMARK   15  A    between atoms: C_39  and  C_40 
REMARK   16  A    between atoms: C_40  and  C_41 
REMARK   17  A    between atoms: C_41  and  C_42 
REMARK   18  A    between atoms: C_42  and  O_44 
REMARK   19  A    between atoms: C_45  and  C_46 
REMARK   20  A    between atoms: C_46  and  C_47 
REMARK   21  A    between atoms: C_47  and  O_49 
REMARK   22  A    between atoms: C_50  and  C_51 
REMARK   23  A    between atoms: C_51  and  C_52 
REMARK   24  A    between atoms: C_52  and  O_54 
REMARK   25  A    between atoms: C_55  and  C_56 
REMARK   26  A    between atoms: C_56  and  C_57 
REMARK   27  A    between atoms: C_57  and  C_58 
REMARK   28  A    between atoms: C_58  and  O_60 
ROOT
ATOM      1  O   UNK d   0     -33.555 -10.403  10.886  0.00  0.00    -0.650 OA
ATOM      2  C   UNK d   0     -32.468  -9.786  10.947  0.00  0.00     0.139 C 
ENDROOT
BRANCH   2   3
ATOM      3  O   UNK d   0     -31.315 -10.411  10.538  0.00  0.00    -0.776 OA
ATOM      4  H   UNK d   0     -31.286 -10.950   9.670  0.00  0.00     0.167 HD
ENDBRANCH   2   3
BRANCH   2   5
ATOM      5  C   UNK d   0     -32.430  -8.387  11.461  0.00  0.00     0.115 C 
BRANCH   5   6
ATOM      6  C   UNK d   0     -33.828  -7.875  11.673  0.00  0.00     0.052 C 
BRANCH   6   7
ATOM      7  C   UNK d   0     -34.022  -6.476  11.138  0.00  0.00    -0.020 A 
ATOM      8  C   UNK d   0     -34.872  -5.573  11.555  0.00  0.00    -0.011 A 
ATOM      9  C   UNK d   0     -34.700  -4.387  10.734  0.00  0.00     0.067 A 
ATOM     10  C   UNK d   0     -35.266  -3.103  10.676  0.00  0.00     0.062 C 
ATOM     11  N   UNK d   0     -33.728  -4.658   9.838  0.00  0.00    -0.248 NA
ATOM     12  C   UNK d   0     -34.773  -1.990   9.988  0.00  0.00     0.041 A 
ATOM     13  N   UNK d   0     -34.246  -1.873   8.754  0.00  0.00    -0.355 N 
ATOM     14  C   UNK d   0     -34.735  -0.746  10.643  0.00  0.00    -0.022 A 
ATOM     15  C   UNK d   0     -33.867  -0.588   8.613  0.00  0.00     0.042 A 
ATOM     16  H   UNK d   0     -34.161  -2.677   7.991  0.00  0.00     0.166 HD
ATOM     17  C   UNK d   0     -33.264   0.072   7.524  0.00  0.00     0.062 C 
ATOM     18  C   UNK d   0     -34.158   0.149   9.777  0.00  0.00    -0.013 A 
ATOM     19  C   UNK d   0     -32.221  -0.341   6.736  0.00  0.00     0.067 A 
ATOM     20  N   UNK d   0     -31.831  -1.612   6.865  0.00  0.00    -0.248 NA
ATOM     21  C   UNK d   0     -31.356   0.273   5.741  0.00  0.00    -0.011 A 
ATOM     22  C   UNK d   0     -30.774  -1.873   6.028  0.00  0.00     0.066 A 
ATOM     23  C   UNK d   0     -30.291  -3.174   6.033  0.00  0.00     0.062 C 
ATOM     24  C   UNK d   0     -30.509  -0.628   5.335  0.00  0.00    -0.020 A 
ATOM     25  C   UNK d   0     -30.809  -4.281   6.723  0.00  0.00     0.041 A 
ATOM     26  N   UNK d   0     -31.319  -4.401   7.955  0.00  0.00    -0.355 N 
ATOM     27  C   UNK d   0     -30.850  -5.528   6.062  0.00  0.00    -0.022 A 
ATOM     28  C   UNK d   0     -31.689  -5.683   8.101  0.00  0.00     0.042 A 
ATOM     29  H   UNK d   0     -31.394  -3.593   8.724  0.00  0.00     0.166 HD
ATOM     30  C   UNK d   0     -32.281  -6.355   9.181  0.00  0.00     0.062 C 
ATOM     31  C   UNK d   0     -31.406  -6.421   6.927  0.00  0.00    -0.013 A 
ATOM     32  C   UNK d   0     -33.278  -5.899  10.029  0.00  0.00     0.066 A 
BRANCH   8  33
ATOM     33  C   UNK d   0     -35.844  -5.714  12.655  0.00  0.00     0.151 C 
BRANCH  33  34
ATOM     34  C   UNK d   0     -37.241  -5.590  12.202  0.00  0.00     0.143 C 
ATOM     35  O   UNK d   0     -37.688  -4.505  11.803  0.00  0.00    -0.650 OA
BRANCH  34  36
ATOM     36  O   UNK d   0     -38.059  -6.697  12.224  0.00  0.00    -0.776 OA
ATOM     37  H   UNK d   0     -39.051  -6.633  11.959  0.00  0.00     0.167 HD
ENDBRANCH  34  36
ENDBRANCH  33  34
ENDBRANCH   8  33
BRANCH  31  38
ATOM     38  C   UNK d   0     -31.667  -7.883   6.652  0.00  0.00     0.151 C 
BRANCH  38  39
ATOM     39  C   UNK d   0     -30.538  -8.727   6.981  0.00  0.00     0.143 C 
ATOM     40  O   UNK d   0     -30.350  -9.170   8.128  0.00  0.00    -0.650 OA
BRANCH  39  41
ATOM     41  O   UNK d   0     -29.620  -9.063   5.987  0.00  0.00    -0.776 OA
ATOM     42  H   UNK d   0     -28.652  -8.758   6.129  0.00  0.00     0.167 HD
ENDBRANCH  39  41
ENDBRANCH  38  39
ENDBRANCH  31  38
BRANCH  27  43
ATOM     43  C   UNK d   0     -30.389  -5.893   4.673  0.00  0.00     0.052 C 
BRANCH  43  44
ATOM     44  C   UNK d   0     -31.513  -6.226   3.746  0.00  0.00     0.115 C 
BRANCH  44  45
ATOM     45  C   UNK d   0     -31.236  -7.587   3.216  0.00  0.00     0.139 C 
ATOM     46  O   UNK d   0     -32.190  -8.234   2.718  0.00  0.00    -0.650 OA
BRANCH  45  47
ATOM     47  O   UNK d   0     -29.982  -8.158   3.243  0.00  0.00    -0.776 OA
ATOM     48  H   UNK d   0     -29.829  -9.166   3.406  0.00  0.00     0.167 HD
ENDBRANCH  45  47
ENDBRANCH  44  45
ENDBRANCH  43  44
ENDBRANCH  27  43
BRANCH  24  49
ATOM     49  C   UNK d   0     -29.476  -0.445   4.301  0.00  0.00     0.052 C 
BRANCH  49  50
ATOM     50  C   UNK d   0     -28.181   0.004   4.927  0.00  0.00     0.115 C 
BRANCH  50  51
ATOM     51  C   UNK d   0     -26.982  -0.752   4.589  0.00  0.00     0.139 C 
ATOM     52  O   UNK d   0     -26.804  -1.270   3.462  0.00  0.00    -0.650 OA
BRANCH  51  53
ATOM     53  O   UNK d   0     -25.985  -0.919   5.539  0.00  0.00    -0.776 OA
ATOM     54  H   UNK d   0     -25.235  -1.554   5.333  0.00  0.00     0.167 HD
ENDBRANCH  51  53
ENDBRANCH  50  51
ENDBRANCH  49  50
ENDBRANCH  24  49
BRANCH  21  55
ATOM     55  C   UNK d   0     -31.470   1.694   5.299  0.00  0.00     0.151 C 
BRANCH  55  56
ATOM     56  C   UNK d   0     -32.538   1.878   4.305  0.00  0.00     0.143 C 
ATOM     57  O   UNK d   0     -32.379   1.643   3.091  0.00  0.00    -0.650 OA
BRANCH  56  58
ATOM     58  O   UNK d   0     -33.775   2.335   4.758  0.00  0.00    -0.776 OA
ATOM     59  H   UNK d   0     -34.046   3.274   4.412  0.00  0.00     0.167 HD
ENDBRANCH  56  58
ENDBRANCH  55  56
ENDBRANCH  21  55
BRANCH  18  60
ATOM     60  C   UNK d   0     -33.912   1.607  10.078  0.00  0.00     0.151 C 
BRANCH  60  61
ATOM     61  C   UNK d   0     -35.043   2.337   9.486  0.00  0.00     0.143 C 
ATOM     62  O   UNK d   0     -36.187   2.423   9.934  0.00  0.00    -0.650 OA
BRANCH  61  63
ATOM     63  O   UNK d   0     -34.759   3.006   8.271  0.00  0.00    -0.776 OA
ATOM     64  H   UNK d   0     -34.176   3.823   8.253  0.00  0.00     0.167 HD
ENDBRANCH  61  63
ENDBRANCH  60  61
ENDBRANCH  18  60
BRANCH  14  65
ATOM     65  C   UNK d   0     -35.287  -0.322  11.975  0.00  0.00     0.052 C 
BRANCH  65  66
ATOM     66  C   UNK d   0     -34.535  -0.893  13.125  0.00  0.00     0.115 C 
BRANCH  66  67
ATOM     67  C   UNK d   0     -35.181  -1.826  14.004  0.00  0.00     0.139 C 
ATOM     68  O   UNK d   0     -36.440  -2.041  13.853  0.00  0.00    -0.650 OA
BRANCH  67  69
ATOM     69  O   UNK d   0     -34.606  -2.560  15.041  0.00  0.00    -0.776 OA
ATOM     70  H   UNK d   0     -35.020  -3.487  15.217  0.00  0.00     0.167 HD
ENDBRANCH  67  69
ENDBRANCH  66  67
ENDBRANCH  65  66
ENDBRANCH  14  65
ENDBRANCH   6   7
ENDBRANCH   5   6
ENDBRANCH   2   5
TORSDOF 28
ENDMDL
MODEL 4
REMARK VINA RESULT:      -7.5      1.581      4.196
REMARK  28 active torsions:
REMARK  status: ('A' for Active; 'I' for Inactive)
REMARK    1  A    between atoms: C_2  and  O_3 
REMARK    2  A    between atoms: C_2  and  C_4 
REMARK    3  A    between atoms: C_4  and  C_5 
REMARK    4  A    between atoms: C_5  and  C_6 
REMARK    5  A    between atoms: C_7  and  C_8 
REMARK    6  A    between atoms: C_8  and  C_9 
REMARK    7  A    between atoms: C_9  and  O_11 
REMARK    8  A    between atoms: C_28  and  C_29 
REMARK    9  A    between atoms: C_29  and  C_30 
REMARK   10  A    between atoms: C_30  and  O_32 
REMARK   11  A    between atoms: C_33  and  C_34 
REMARK   12  A    between atoms: C_34  and  C_35 
REMARK   13  A    between atoms: C_35  and  C_36 
REMARK   14  A    between atoms: C_36  and  O_38 
REMARK   15  A    between atoms: C_39  and  C_40 
REMARK   16  A    between atoms: C_40  and  C_41 
REMARK   17  A    between atoms: C_41  and  C_42 
REMARK   18  A    between atoms: C_42  and  O_44 
REMARK   19  A    between atoms: C_45  and  C_46 
REMARK   20  A    between atoms: C_46  and  C_47 
REMARK   21  A    between atoms: C_47  and  O_49 
REMARK   22  A    between atoms: C_50  and  C_51 
REMARK   23  A    between atoms: C_51  and  C_52 
REMARK   24  A    between atoms: C_52  and  O_54 
REMARK   25  A    between atoms: C_55  and  C_56 
REMARK   26  A    between atoms: C_56  and  C_57 
REMARK   27  A    between atoms: C_57  and  C_58 
REMARK   28  A    between atoms: C_58  and  O_60 
ROOT
ATOM      1  O   UNK d   0     -37.366   3.144   8.834  0.00  0.00    -0.650 OA
ATOM      2  C   UNK d   0     -36.614   2.168   8.614  0.00  0.00     0.139 C 
ENDROOT
BRANCH   2   3
ATOM      3  O   UNK d   0     -37.055   1.146   7.808  0.00  0.00    -0.776 OA
ATOM      4  H   UNK d   0     -36.395   0.522   7.339  0.00  0.00     0.167 HD
ENDBRANCH   2   3
BRANCH   2   5
ATOM      5  C   UNK d   0     -35.254   2.119   9.222  0.00  0.00     0.115 C 
BRANCH   5   6
ATOM      6  C   UNK d   0     -35.324   1.518  10.599  0.00  0.00     0.052 C 
BRANCH   6   7
ATOM      7  C   UNK d   0     -34.758   0.119  10.652  0.00  0.00    -0.020 A 
ATOM      8  C   UNK d   0     -34.640  -0.656  11.699  0.00  0.00    -0.011 A 
ATOM      9  C   UNK d   0     -34.032  -1.903  11.265  0.00  0.00     0.067 A 
ATOM     10  C   UNK d   0     -33.667  -3.115  11.870  0.00  0.00     0.062 C 
ATOM     11  N   UNK d   0     -33.808  -1.798   9.938  0.00  0.00    -0.248 NA
ATOM     12  C   UNK d   0     -33.345  -4.318  11.231  0.00  0.00     0.041 A 
ATOM     13  N   UNK d   0     -32.592  -4.569  10.143  0.00  0.00    -0.355 N 
ATOM     14  C   UNK d   0     -33.906  -5.515  11.711  0.00  0.00    -0.022 A 
ATOM     15  C   UNK d   0     -32.668  -5.894   9.915  0.00  0.00     0.042 A 
ATOM     16  H   UNK d   0     -32.004  -3.828   9.559  0.00  0.00     0.166 HD
ATOM     17  C   UNK d   0     -32.073  -6.684   8.911  0.00  0.00     0.062 C 
ATOM     18  C   UNK d   0     -33.483  -6.521  10.878  0.00  0.00    -0.013 A 
ATOM     19  C   UNK d   0     -31.979  -6.440   7.565  0.00  0.00     0.067 A 
ATOM     20  N   UNK d   0     -32.309  -5.215   7.148  0.00  0.00    -0.248 NA
ATOM     21  C   UNK d   0     -31.606  -7.207   6.388  0.00  0.00    -0.011 A 
ATOM     22  C   UNK d   0     -32.181  -5.126   5.783  0.00  0.00     0.066 A 
ATOM     23  C   UNK d   0     -32.458  -3.890   5.218  0.00  0.00     0.062 C 
ATOM     24  C   UNK d   0     -31.730  -6.434   5.348  0.00  0.00    -0.020 A 
ATOM     25  C   UNK d   0     -32.767  -2.691   5.879  0.00  0.00     0.041 A 
ATOM     26  N   UNK d   0     -33.527  -2.439   6.951  0.00  0.00    -0.355 N 
ATOM     27  C   UNK d   0     -32.200  -1.491   5.399  0.00  0.00    -0.022 A 
ATOM     28  C   UNK d   0     -33.461  -1.117   7.174  0.00  0.00     0.042 A 
ATOM     29  H   UNK d   0     -34.126  -3.184   7.530  0.00  0.00     0.166 HD
ATOM     30  C   UNK d   0     -34.054  -0.317   8.163  0.00  0.00     0.062 C 
ATOM     31  C   UNK d   0     -32.633  -0.490   6.213  0.00  0.00    -0.013 A 
ATOM     32  C   UNK d   0     -34.223  -0.606   9.508  0.00  0.00     0.066 A 
BRANCH   8  33
ATOM     33  C   UNK d   0     -35.040  -0.339  13.083  0.00  0.00     0.151 C 
BRANCH  33  34
ATOM     34  C   UNK d   0     -36.455  -0.651  13.353  0.00  0.00     0.143 C 
ATOM     35  O   UNK d   0     -37.363   0.022  12.844  0.00  0.00    -0.650 OA
BRANCH  34  36
ATOM     36  O   UNK d   0     -36.769  -1.701  14.184  0.00  0.00    -0.776 OA
ATOM     37  H   UNK d   0     -36.527  -2.670  13.935  0.00  0.00     0.167 HD
ENDBRANCH  34  36
ENDBRANCH  33  34
ENDBRANCH   8  33
BRANCH  31  38
ATOM     38  C   UNK d   0     -32.274   0.973   6.096  0.00  0.00     0.151 C 
BRANCH  38  39
ATOM     39  C   UNK d   0     -33.217   1.720   5.292  0.00  0.00     0.143 C 
ATOM     40  O   UNK d   0     -34.175   2.337   5.791  0.00  0.00    -0.650 OA
BRANCH  39  41
ATOM     41  O   UNK d   0     -33.058   1.760   3.907  0.00  0.00    -0.776 OA
ATOM     42  H   UNK d   0     -33.905   1.640   3.342  0.00  0.00     0.167 HD
ENDBRANCH  39  41
ENDBRANCH  38  39
ENDBRANCH  31  38
BRANCH  27  43
ATOM     43  C   UNK d   0     -31.285  -1.266   4.221  0.00  0.00     0.052 C 
BRANCH  43  44
ATOM     44  C   UNK d   0     -30.059  -0.485   4.565  0.00  0.00     0.115 C 
BRANCH  44  45
ATOM     45  C   UNK d   0     -29.352  -1.250   5.626  0.00  0.00     0.139 C 
ATOM     46  O   UNK d   0     -29.055  -0.652   6.689  0.00  0.00    -0.650 OA
BRANCH  45  47
ATOM     47  O   UNK d   0     -29.019  -2.581   5.491  0.00  0.00    -0.776 OA
ATOM     48  H   UNK d   0     -28.225  -3.013   5.991  0.00  0.00     0.167 HD
ENDBRANCH  45  47
ENDBRANCH  44  45
ENDBRANCH  43  44
ENDBRANCH  27  43
BRANCH  24  49
ATOM     49  C   UNK d   0     -31.419  -6.795   3.955  0.00  0.00     0.052 C 
BRANCH  49  50
ATOM     50  C   UNK d   0     -30.268  -5.968   3.443  0.00  0.00     0.115 C 
BRANCH  50  51
ATOM     51  C   UNK d   0     -29.238  -6.661   2.681  0.00  0.00     0.139 C 
ATOM     52  O   UNK d   0     -29.411  -7.802   2.192  0.00  0.00    -0.650 OA
BRANCH  51  53
ATOM     53  O   UNK d   0     -28.008  -6.053   2.479  0.00  0.00    -0.776 OA
ATOM     54  H   UNK d   0     -27.184  -6.527   2.806  0.00  0.00     0.167 HD
ENDBRANCH  51  53
ENDBRANCH  50  51
ENDBRANCH  49  50
ENDBRANCH  24  49
BRANCH  21  55
ATOM     55  C   UNK d   0     -31.159  -8.631   6.426  0.00  0.00     0.151 C 
BRANCH  55  56
ATOM     56  C   UNK d   0     -30.040  -8.883   5.506  0.00  0.00     0.143 C 
ATOM     57  O   UNK d   0     -28.921  -8.352   5.643  0.00  0.00    -0.650 OA
BRANCH  56  58
ATOM     58  O   UNK d   0     -30.259  -9.756   4.441  0.00  0.00    -0.776 OA
ATOM     59  H   UNK d   0     -29.704  -9.554   3.590  0.00  0.00     0.167 HD
ENDBRANCH  56  58
ENDBRANCH  55  56
ENDBRANCH  21  55
BRANCH  18  60
ATOM     60  C   UNK d   0     -33.855  -7.976  11.021  0.00  0.00     0.151 C 
BRANCH  60  61
ATOM     61  C   UNK d   0     -32.591  -8.699  11.221  0.00  0.00     0.143 C 
ATOM     62  O   UNK d   0     -31.656  -8.371  11.953  0.00  0.00    -0.650 OA
BRANCH  61  63
ATOM     63  O   UNK d   0     -32.459  -9.898  10.481  0.00  0.00    -0.776 OA
ATOM     64  H   UNK d   0     -33.099 -10.662  10.612  0.00  0.00     0.167 HD
ENDBRANCH  61  63
ENDBRANCH  60  61
ENDBRANCH  18  60
BRANCH  14  65
ATOM     65  C   UNK d   0     -34.722  -5.791  12.941  0.00  0.00     0.052 C 
BRANCH  65  66
ATOM     66  C   UNK d   0     -36.183  -5.850  12.668  0.00  0.00     0.115 C 
BRANCH  66  67
ATOM     67  C   UNK d   0     -36.790  -4.860  11.823  0.00  0.00     0.139 C 
ATOM     68  O   UNK d   0     -37.274  -3.801  12.369  0.00  0.00    -0.650 OA
BRANCH  67  69
ATOM     69  O   UNK d   0     -36.932  -4.893  10.437  0.00  0.00    -0.776 OA
ATOM     70  H   UNK d   0     -36.105  -5.206   9.909  0.00  0.00     0.167 HD
ENDBRANCH  67  69
ENDBRANCH  66  67
ENDBRANCH  65  66
ENDBRANCH  14  65
ENDBRANCH   6   7
ENDBRANCH   5   6
ENDBRANCH   2   5
TORSDOF 28
ENDMDL
MODEL 5
REMARK VINA RESULT:      -6.9      1.889      5.913
REMARK  28 active torsions:
REMARK  status: ('A' for Active; 'I' for Inactive)
REMARK    1  A    between atoms: C_2  and  O_3 
REMARK    2  A    between atoms: C_2  and  C_4 
REMARK    3  A    between atoms: C_4  and  C_5 
REMARK    4  A    between atoms: C_5  and  C_6 
REMARK    5  A    between atoms: C_7  and  C_8 
REMARK    6  A    between atoms: C_8  and  C_9 
REMARK    7  A    between atoms: C_9  and  O_11 
REMARK    8  A    between atoms: C_28  and  C_29 
REMARK    9  A    between atoms: C_29  and  C_30 
REMARK   10  A    between atoms: C_30  and  O_32 
REMARK   11  A    between atoms: C_33  and  C_34 
REMARK   12  A    between atoms: C_34  and  C_35 
REMARK   13  A    between atoms: C_35  and  C_36 
REMARK   14  A    between atoms: C_36  and  O_38 
REMARK   15  A    between atoms: C_39  and  C_40 
REMARK   16  A    between atoms: C_40  and  C_41 
REMARK   17  A    between atoms: C_41  and  C_42 
REMARK   18  A    between atoms: C_42  and  O_44 
REMARK   19  A    between atoms: C_45  and  C_46 
REMARK   20  A    between atoms: C_46  and  C_47 
REMARK   21  A    between atoms: C_47  and  O_49 
REMARK   22  A    between atoms: C_50  and  C_51 
REMARK   23  A    between atoms: C_51  and  C_52 
REMARK   24  A    between atoms: C_52  and  O_54 
REMARK   25  A    between atoms: C_55  and  C_56 
REMARK   26  A    between atoms: C_56  and  C_57 
REMARK   27  A    between atoms: C_57  and  C_58 
REMARK   28  A    between atoms: C_58  and  O_60 
ROOT
ATOM      1  O   UNK d   0     -35.469   1.795  10.218  0.00  0.00    -0.650 OA
ATOM      2  C   UNK d   0     -35.828   0.601  10.318  0.00  0.00     0.139 C 
ENDROOT
BRANCH   2   3
ATOM      3  O   UNK d   0     -36.874   0.145   9.552  0.00  0.00    -0.776 OA
ATOM      4  H   UNK d   0     -37.704  -0.266   9.984  0.00  0.00     0.167 HD
ENDBRANCH   2   3
BRANCH   2   5
ATOM      5  C   UNK d   0     -35.126  -0.315  11.261  0.00  0.00     0.115 C 
BRANCH   5   6
ATOM      6  C   UNK d   0     -35.881  -1.610  11.384  0.00  0.00     0.052 C 
BRANCH   6   7
ATOM      7  C   UNK d   0     -35.030  -2.813  11.053  0.00  0.00    -0.020 A 
ATOM      8  C   UNK d   0     -34.778  -3.846  11.815  0.00  0.00    -0.011 A 
ATOM      9  C   UNK d   0     -33.906  -4.743  11.075  0.00  0.00     0.067 A 
ATOM     10  C   UNK d   0     -33.306  -5.991  11.306  0.00  0.00     0.062 C 
ATOM     11  N   UNK d   0     -33.673  -4.174   9.874  0.00  0.00    -0.248 NA
ATOM     12  C   UNK d   0     -32.717  -6.835  10.358  0.00  0.00     0.041 A 
ATOM     13  N   UNK d   0     -31.898  -6.571   9.322  0.00  0.00    -0.355 N 
ATOM     14  C   UNK d   0     -33.022  -8.208  10.388  0.00  0.00    -0.022 A 
ATOM     15  C   UNK d   0     -31.682  -7.740   8.689  0.00  0.00     0.042 A 
ATOM     16  H   UNK d   0     -31.466  -5.581   9.055  0.00  0.00     0.166 HD
ATOM     17  C   UNK d   0     -30.905  -8.031   7.551  0.00  0.00     0.062 C 
ATOM     18  C   UNK d   0     -32.370  -8.789   9.328  0.00  0.00    -0.013 A 
ATOM     19  C   UNK d   0     -30.828  -7.352   6.362  0.00  0.00     0.067 A 
ATOM     20  N   UNK d   0     -31.402  -6.147   6.315  0.00  0.00    -0.248 NA
ATOM     21  C   UNK d   0     -30.268  -7.610   5.046  0.00  0.00    -0.011 A 
ATOM     22  C   UNK d   0     -31.258  -5.599   5.065  0.00  0.00     0.066 A 
ATOM     23  C   UNK d   0     -31.778  -4.325   4.887  0.00  0.00     0.062 C 
ATOM     24  C   UNK d   0     -30.526  -6.582   4.290  0.00  0.00    -0.020 A 
ATOM     25  C   UNK d   0     -32.354  -3.488   5.855  0.00  0.00     0.041 A 
ATOM     26  N   UNK d   0     -33.180  -3.748   6.875  0.00  0.00    -0.355 N 
ATOM     27  C   UNK d   0     -32.044  -2.110   5.827  0.00  0.00    -0.022 A 
ATOM     28  C   UNK d   0     -33.404  -2.583   7.503  0.00  0.00     0.042 A 
ATOM     29  H   UNK d   0     -33.621  -4.741   7.136  0.00  0.00     0.166 HD
ATOM     30  C   UNK d   0     -34.182  -2.277   8.631  0.00  0.00     0.062 C 
ATOM     31  C   UNK d   0     -32.704  -1.531   6.867  0.00  0.00    -0.013 A 
ATOM     32  C   UNK d   0     -34.322  -3.011   9.798  0.00  0.00     0.066 A 
BRANCH   8  33
ATOM     33  C   UNK d   0     -35.274  -4.078  13.185  0.00  0.00     0.151 C 
BRANCH  33  34
ATOM     34  C   UNK d   0     -34.691  -3.148  14.168  0.00  0.00     0.143 C 
ATOM     35  O   UNK d   0     -35.337  -2.177  14.587  0.00  0.00    -0.650 OA
BRANCH  34  36
ATOM     36  O   UNK d   0     -33.410  -3.362  14.623  0.00  0.00    -0.776 OA
ATOM     37  H   UNK d   0     -32.947  -2.691  15.251  0.00  0.00     0.167 HD
ENDBRANCH  34  36
ENDBRANCH  33  34
ENDBRANCH   8  33
BRANCH  31  38
ATOM     38  C   UNK d   0     -32.663  -0.068   7.244  0.00  0.00     0.151 C 
BRANCH  38  39
ATOM     39  C   UNK d   0     -33.840   0.656   6.813  0.00  0.00     0.143 C 
ATOM     40  O   UNK d   0     -34.559   0.261   5.879  0.00  0.00    -0.650 OA
BRANCH  39  41
ATOM     41  O   UNK d   0     -34.192   1.840   7.461  0.00  0.00    -0.776 OA
ATOM     42  H   UNK d   0     -35.118   2.225   7.248  0.00  0.00     0.167 HD
ENDBRANCH  39  41
ENDBRANCH  38  39
ENDBRANCH  31  38
BRANCH  27  43
ATOM     43  C   UNK d   0     -31.167  -1.345   4.869  0.00  0.00     0.052 C 
BRANCH  43  44
ATOM     44  C   UNK d   0     -30.077  -0.580   5.548  0.00  0.00     0.115 C 
BRANCH  44  45
ATOM     45  C   UNK d   0     -29.095  -1.582   6.035  0.00  0.00     0.139 C 
ATOM     46  O   UNK d   0     -29.063  -1.830   7.266  0.00  0.00    -0.650 OA
BRANCH  45  47
ATOM     47  O   UNK d   0     -28.229  -2.249   5.196  0.00  0.00    -0.776 OA
ATOM     48  H   UNK d   0     -27.260  -2.487   5.465  0.00  0.00     0.167 HD
ENDBRANCH  45  47
ENDBRANCH  44  45
ENDBRANCH  43  44
ENDBRANCH  27  43
BRANCH  24  49
ATOM     49  C   UNK d   0     -30.107  -6.406   2.889  0.00  0.00     0.052 C 
BRANCH  49  50
ATOM     50  C   UNK d   0     -30.105  -7.731   2.172  0.00  0.00     0.115 C 
BRANCH  50  51
ATOM     51  C   UNK d   0     -28.820  -8.231   1.702  0.00  0.00     0.139 C 
ATOM     52  O   UNK d   0     -28.698  -9.326   1.103  0.00  0.00    -0.650 OA
BRANCH  51  53
ATOM     53  O   UNK d   0     -27.672  -7.484   1.918  0.00  0.00    -0.776 OA
ATOM     54  H   UNK d   0     -27.764  -6.592   2.372  0.00  0.00     0.167 HD
ENDBRANCH  51  53
ENDBRANCH  50  51
ENDBRANCH  49  50
ENDBRANCH  24  49
BRANCH  21  55
ATOM     55  C   UNK d   0     -29.528  -8.855   4.682  0.00  0.00     0.151 C 
BRANCH  55  56
ATOM     56  C   UNK d   0     -28.199  -8.909   5.309  0.00  0.00     0.143 C 
ATOM     57  O   UNK d   0     -27.231  -8.239   4.899  0.00  0.00    -0.650 OA
BRANCH  56  58
ATOM     58  O   UNK d   0     -28.033  -9.752   6.407  0.00  0.00    -0.776 OA
ATOM     59  H   UNK d   0     -27.050  -9.987   6.632  0.00  0.00     0.167 HD
ENDBRANCH  56  58
ENDBRANCH  55  56
ENDBRANCH  21  55
BRANCH  18  60
ATOM     60  C   UNK d   0     -32.427 -10.255   8.977  0.00  0.00     0.151 C 
BRANCH  60  61
ATOM     61  C   UNK d   0     -31.035 -10.669   8.746  0.00  0.00     0.143 C 
ATOM     62  O   UNK d   0     -30.467 -10.791   7.660  0.00  0.00    -0.650 OA
BRANCH  61  63
ATOM     63  O   UNK d   0     -30.288 -10.952   9.915  0.00  0.00    -0.776 OA
ATOM     64  H   UNK d   0     -30.746 -11.139  10.789  0.00  0.00     0.167 HD
ENDBRANCH  61  63
ENDBRANCH  60  61
ENDBRANCH  18  60
BRANCH  14  65
ATOM     65  C   UNK d   0     -33.794  -9.021  11.389  0.00  0.00     0.052 C 
BRANCH  65  66
ATOM     66  C   UNK d   0     -33.430 -10.463  11.372  0.00  0.00     0.115 C 
BRANCH  66  67
ATOM     67  C   UNK d   0     -32.497 -10.973  12.337  0.00  0.00     0.139 C 
ATOM     68  O   UNK d   0     -31.402 -10.327  12.534  0.00  0.00    -0.650 OA
BRANCH  67  69
ATOM     69  O   UNK d   0     -32.621 -12.119  13.122  0.00  0.00    -0.776 OA
ATOM     70  H   UNK d   0     -33.581 -12.370  13.399  0.00  0.00     0.167 HD
ENDBRANCH  67  69
ENDBRANCH  66  67
ENDBRANCH  65  66
ENDBRANCH  14  65
ENDBRANCH   6   7
ENDBRANCH   5   6
ENDBRANCH   2   5
TORSDOF 28
ENDMDL
MODEL 6
REMARK VINA RESULT:      -6.8     20.262     23.145
REMARK  28 active torsions:
REMARK  status: ('A' for Active; 'I' for Inactive)
REMARK    1  A    between atoms: C_2  and  O_3 
REMARK    2  A    between atoms: C_2  and  C_4 
REMARK    3  A    between atoms: C_4  and  C_5 
REMARK    4  A    between atoms: C_5  and  C_6 
REMARK    5  A    between atoms: C_7  and  C_8 
REMARK    6  A    between atoms: C_8  and  C_9 
REMARK    7  A    between atoms: C_9  and  O_11 
REMARK    8  A    between atoms: C_28  and  C_29 
REMARK    9  A    between atoms: C_29  and  C_30 
REMARK   10  A    between atoms: C_30  and  O_32 
REMARK   11  A    between atoms: C_33  and  C_34 
REMARK   12  A    between atoms: C_34  and  C_35 
REMARK   13  A    between atoms: C_35  and  C_36 
REMARK   14  A    between atoms: C_36  and  O_38 
REMARK   15  A    between atoms: C_39  and  C_40 
REMARK   16  A    between atoms: C_40  and  C_41 
REMARK   17  A    between atoms: C_41  and  C_42 
REMARK   18  A    between atoms: C_42  and  O_44 
REMARK   19  A    between atoms: C_45  and  C_46 
REMARK   20  A    between atoms: C_46  and  C_47 
REMARK   21  A    between atoms: C_47  and  O_49 
REMARK   22  A    between atoms: C_50  and  C_51 
REMARK   23  A    between atoms: C_51  and  C_52 
REMARK   24  A    between atoms: C_52  and  O_54 
REMARK   25  A    between atoms: C_55  and  C_56 
REMARK   26  A    between atoms: C_56  and  C_57 
REMARK   27  A    between atoms: C_57  and  C_58 
REMARK   28  A    between atoms: C_58  and  O_60 
ROOT
ATOM      1  O   UNK d   0      -7.748   3.757  20.354  0.00  0.00    -0.650 OA
ATOM      2  C   UNK d   0      -7.485   2.546  20.524  0.00  0.00     0.139 C 
ENDROOT
BRANCH   2   3
ATOM      3  O   UNK d   0      -6.189   2.168  20.784  0.00  0.00    -0.776 OA
ATOM      4  H   UNK d   0      -5.450   2.310  20.093  0.00  0.00     0.167 HD
ENDBRANCH   2   3
BRANCH   2   5
ATOM      5  C   UNK d   0      -8.569   1.527  20.443  0.00  0.00     0.115 C 
BRANCH   5   6
ATOM      6  C   UNK d   0      -8.407   0.696  19.198  0.00  0.00     0.052 C 
BRANCH   6   7
ATOM      7  C   UNK d   0      -9.667   0.642  18.368  0.00  0.00    -0.020 A 
ATOM      8  C   UNK d   0     -10.022   1.452  17.403  0.00  0.00    -0.011 A 
ATOM      9  C   UNK d   0     -11.315   1.011  16.906  0.00  0.00     0.067 A 
ATOM     10  C   UNK d   0     -12.206   1.418  15.900  0.00  0.00     0.062 C 
ATOM     11  N   UNK d   0     -11.675  -0.070  17.629  0.00  0.00    -0.248 NA
ATOM     12  C   UNK d   0     -13.285   0.695  15.381  0.00  0.00     0.041 A 
ATOM     13  N   UNK d   0     -14.226  -0.052  15.989  0.00  0.00    -0.355 N 
ATOM     14  C   UNK d   0     -13.460   0.641  13.986  0.00  0.00    -0.022 A 
ATOM     15  C   UNK d   0     -14.989  -0.584  15.016  0.00  0.00     0.042 A 
ATOM     16  H   UNK d   0     -14.360  -0.185  17.085  0.00  0.00     0.166 HD
ATOM     17  C   UNK d   0     -16.108  -1.438  15.096  0.00  0.00     0.062 C 
ATOM     18  C   UNK d   0     -14.540  -0.173  13.747  0.00  0.00    -0.013 A 
ATOM     19  C   UNK d   0     -16.287  -2.555  15.872  0.00  0.00     0.067 A 
ATOM     20  N   UNK d   0     -15.382  -2.777  16.829  0.00  0.00    -0.248 NA
ATOM     21  C   UNK d   0     -17.249  -3.642  15.931  0.00  0.00    -0.011 A 
ATOM     22  C   UNK d   0     -15.682  -3.932  17.509  0.00  0.00     0.066 A 
ATOM     23  C   UNK d   0     -14.841  -4.265  18.560  0.00  0.00     0.062 C 
ATOM     24  C   UNK d   0     -16.888  -4.447  16.889  0.00  0.00    -0.020 A 
ATOM     25  C   UNK d   0     -13.770  -3.518  19.074  0.00  0.00     0.041 A 
ATOM     26  N   UNK d   0     -12.825  -2.788  18.469  0.00  0.00    -0.355 N 
ATOM     27  C   UNK d   0     -13.597  -3.462  20.474  0.00  0.00    -0.022 A 
ATOM     28  C   UNK d   0     -12.058  -2.264  19.437  0.00  0.00     0.042 A 
ATOM     29  H   UNK d   0     -12.685  -2.665  17.367  0.00  0.00     0.166 HD
ATOM     30  C   UNK d   0     -10.937  -1.421  19.371  0.00  0.00     0.062 C 
ATOM     31  C   UNK d   0     -12.516  -2.669  20.713  0.00  0.00    -0.013 A 
ATOM     32  C   UNK d   0     -10.726  -0.344  18.525  0.00  0.00     0.066 A 
BRANCH   8  33
ATOM     33  C   UNK d   0      -9.266   2.613  16.898  0.00  0.00     0.151 C 
BRANCH  33  34
ATOM     34  C   UNK d   0      -9.934   3.896  17.181  0.00  0.00     0.143 C 
ATOM     35  O   UNK d   0     -10.225   4.220  18.341  0.00  0.00    -0.650 OA
BRANCH  34  36
ATOM     36  O   UNK d   0     -10.240   4.742  16.140  0.00  0.00    -0.776 OA
ATOM     37  H   UNK d   0     -10.374   5.751  16.294  0.00  0.00     0.167 HD
ENDBRANCH  34  36
ENDBRANCH  33  34
ENDBRANCH   8  33
BRANCH  31  38
ATOM     38  C   UNK d   0     -11.959  -2.307  22.069  0.00  0.00     0.151 C 
BRANCH  38  39
ATOM     39  C   UNK d   0     -10.971  -3.253  22.542  0.00  0.00     0.143 C 
ATOM     40  O   UNK d   0      -9.799  -3.255  22.126  0.00  0.00    -0.650 OA
BRANCH  39  41
ATOM     41  O   UNK d   0     -11.332  -4.202  23.498  0.00  0.00    -0.776 OA
ATOM     42  H   UNK d   0     -10.942  -4.081  24.438  0.00  0.00     0.167 HD
ENDBRANCH  39  41
ENDBRANCH  38  39
ENDBRANCH  31  38
BRANCH  27  43
ATOM     43  C   UNK d   0     -14.402  -4.120  21.567  0.00  0.00     0.052 C 
BRANCH  43  44
ATOM     44  C   UNK d   0     -14.036  -5.552  21.789  0.00  0.00     0.115 C 
BRANCH  44  45
ATOM     45  C   UNK d   0     -15.308  -6.321  21.783  0.00  0.00     0.139 C 
ATOM     46  O   UNK d   0     -16.348  -5.741  21.383  0.00  0.00    -0.650 OA
BRANCH  45  47
ATOM     47  O   UNK d   0     -15.388  -7.635  22.191  0.00  0.00    -0.776 OA
ATOM     48  H   UNK d   0     -15.260  -8.430  21.545  0.00  0.00     0.167 HD
ENDBRANCH  45  47
ENDBRANCH  44  45
ENDBRANCH  43  44
ENDBRANCH  27  43
BRANCH  24  49
ATOM     49  C   UNK d   0     -17.603  -5.660  17.319  0.00  0.00     0.052 C 
BRANCH  49  50
ATOM     50  C   UNK d   0     -16.752  -6.882  17.084  0.00  0.00     0.115 C 
BRANCH  50  51
ATOM     51  C   UNK d   0     -16.617  -7.343  15.709  0.00  0.00     0.139 C 
ATOM     52  O   UNK d   0     -15.504  -7.577  15.180  0.00  0.00    -0.650 OA
BRANCH  51  53
ATOM     53  O   UNK d   0     -17.751  -7.537  14.936  0.00  0.00    -0.776 OA
ATOM     54  H   UNK d   0     -18.649  -7.450  15.378  0.00  0.00     0.167 HD
ENDBRANCH  51  53
ENDBRANCH  50  51
ENDBRANCH  49  50
ENDBRANCH  24  49
BRANCH  21  55
ATOM     55  C   UNK d   0     -18.432  -3.761  15.029  0.00  0.00     0.151 C 
BRANCH  55  56
ATOM     56  C   UNK d   0     -18.040  -4.048  13.640  0.00  0.00     0.143 C 
ATOM     57  O   UNK d   0     -17.659  -5.175  13.266  0.00  0.00    -0.650 OA
BRANCH  56  58
ATOM     58  O   UNK d   0     -18.102  -3.005  12.719  0.00  0.00    -0.776 OA
ATOM     59  H   UNK d   0     -17.191  -2.728  12.310  0.00  0.00     0.167 HD
ENDBRANCH  56  58
ENDBRANCH  55  56
ENDBRANCH  21  55
BRANCH  18  60
ATOM     60  C   UNK d   0     -15.077  -0.515  12.379  0.00  0.00     0.151 C 
BRANCH  60  61
ATOM     61  C   UNK d   0     -15.936   0.613  11.988  0.00  0.00     0.143 C 
ATOM     62  O   UNK d   0     -16.973   0.982  12.541  0.00  0.00    -0.650 OA
BRANCH  61  63
ATOM     63  O   UNK d   0     -15.501   1.336  10.852  0.00  0.00    -0.776 OA
ATOM     64  H   UNK d   0     -15.200   0.862  10.019  0.00  0.00     0.167 HD
ENDBRANCH  61  63
ENDBRANCH  60  61
ENDBRANCH  18  60
BRANCH  14  65
ATOM     65  C   UNK d   0     -12.754   1.372  12.880  0.00  0.00     0.052 C 
BRANCH  65  66
ATOM     66  C   UNK d   0     -11.698   0.554  12.225  0.00  0.00     0.115 C 
BRANCH  66  67
ATOM     67  C   UNK d   0     -11.313   0.841  10.872  0.00  0.00     0.139 C 
ATOM     68  O   UNK d   0     -10.182   0.400  10.449  0.00  0.00    -0.650 OA
BRANCH  67  69
ATOM     69  O   UNK d   0     -12.028   1.562   9.916  0.00  0.00    -0.776 OA
ATOM     70  H   UNK d   0     -12.748   1.033   9.403  0.00  0.00     0.167 HD
ENDBRANCH  67  69
ENDBRANCH  66  67
ENDBRANCH  65  66
ENDBRANCH  14  65
ENDBRANCH   6   7
ENDBRANCH   5   6
ENDBRANCH   2   5
TORSDOF 28
ENDMDL
MODEL 7
REMARK VINA RESULT:      -6.8      5.914     11.088
REMARK  28 active torsions:
REMARK  status: ('A' for Active; 'I' for Inactive)
REMARK    1  A    between atoms: C_2  and  O_3 
REMARK    2  A    between atoms: C_2  and  C_4 
REMARK    3  A    between atoms: C_4  and  C_5 
REMARK    4  A    between atoms: C_5  and  C_6 
REMARK    5  A    between atoms: C_7  and  C_8 
REMARK    6  A    between atoms: C_8  and  C_9 
REMARK    7  A    between atoms: C_9  and  O_11 
REMARK    8  A    between atoms: C_28  and  C_29 
REMARK    9  A    between atoms: C_29  and  C_30 
REMARK   10  A    between atoms: C_30  and  O_32 
REMARK   11  A    between atoms: C_33  and  C_34 
REMARK   12  A    between atoms: C_34  and  C_35 
REMARK   13  A    between atoms: C_35  and  C_36 
REMARK   14  A    between atoms: C_36  and  O_38 
REMARK   15  A    between atoms: C_39  and  C_40 
REMARK   16  A    between atoms: C_40  and  C_41 
REMARK   17  A    between atoms: C_41  and  C_42 
REMARK   18  A    between atoms: C_42  and  O_44 
REMARK   19  A    between atoms: C_45  and  C_46 
REMARK   20  A    between atoms: C_46  and  C_47 
REMARK   21  A    between atoms: C_47  and  O_49 
REMARK   22  A    between atoms: C_50  and  C_51 
REMARK   23  A    between atoms: C_51  and  C_52 
REMARK   24  A    between atoms: C_52  and  O_54 
REMARK   25  A    between atoms: C_55  and  C_56 
REMARK   26  A    between atoms: C_56  and  C_57 
REMARK   27  A    between atoms: C_57  and  C_58 
REMARK   28  A    between atoms: C_58  and  O_60 
ROOT
ATOM      1  O   UNK d   0     -21.542   3.913   4.810  0.00  0.00    -0.650 OA
ATOM      2  C   UNK d   0     -22.324   3.292   4.057  0.00  0.00     0.139 C 
ENDROOT
BRANCH   2   3
ATOM      3  O   UNK d   0     -22.420   1.925   4.165  0.00  0.00    -0.776 OA
ATOM      4  H   UNK d   0     -23.232   1.487   4.605  0.00  0.00     0.167 HD
ENDBRANCH   2   3
BRANCH   2   5
ATOM      5  C   UNK d   0     -23.140   4.031   3.052  0.00  0.00     0.115 C 
BRANCH   5   6
ATOM      6  C   UNK d   0     -23.765   3.065   2.082  0.00  0.00     0.052 C 
BRANCH   6   7
ATOM      7  C   UNK d   0     -25.267   2.998   2.214  0.00  0.00    -0.020 A 
ATOM      8  C   UNK d   0     -26.159   3.682   1.544  0.00  0.00    -0.011 A 
ATOM      9  C   UNK d   0     -27.474   3.287   2.022  0.00  0.00     0.067 A 
ATOM     10  C   UNK d   0     -28.804   3.615   1.715  0.00  0.00     0.062 C 
ATOM     11  N   UNK d   0     -27.288   2.362   2.987  0.00  0.00    -0.248 NA
ATOM     12  C   UNK d   0     -29.957   2.920   2.094  0.00  0.00     0.041 A 
ATOM     13  N   UNK d   0     -30.308   2.358   3.266  0.00  0.00    -0.355 N 
ATOM     14  C   UNK d   0     -30.951   2.674   1.129  0.00  0.00    -0.022 A 
ATOM     15  C   UNK d   0     -31.496   1.755   3.068  0.00  0.00     0.042 A 
ATOM     16  H   UNK d   0     -29.738   2.403   4.220  0.00  0.00     0.166 HD
ATOM     17  C   UNK d   0     -32.309   1.025   3.958  0.00  0.00     0.062 C 
ATOM     18  C   UNK d   0     -31.931   1.932   1.740  0.00  0.00    -0.013 A 
ATOM     19  C   UNK d   0     -31.948   0.057   4.859  0.00  0.00     0.067 A 
ATOM     20  N   UNK d   0     -30.641  -0.099   5.088  0.00  0.00    -0.248 NA
ATOM     21  C   UNK d   0     -32.645  -0.921   5.678  0.00  0.00    -0.011 A 
ATOM     22  C   UNK d   0     -30.433  -1.108   5.996  0.00  0.00     0.066 A 
ATOM     23  C   UNK d   0     -29.116  -1.352   6.356  0.00  0.00     0.062 C 
ATOM     24  C   UNK d   0     -31.753  -1.602   6.338  0.00  0.00    -0.020 A 
ATOM     25  C   UNK d   0     -27.973  -0.634   5.974  0.00  0.00     0.041 A 
ATOM     26  N   UNK d   0     -27.617  -0.088   4.805  0.00  0.00    -0.355 N 
ATOM     27  C   UNK d   0     -26.977  -0.384   6.943  0.00  0.00    -0.022 A 
ATOM     28  C   UNK d   0     -26.428   0.506   4.997  0.00  0.00     0.042 A 
ATOM     29  H   UNK d   0     -28.186  -0.144   3.844  0.00  0.00     0.166 HD
ATOM     30  C   UNK d   0     -25.604   1.228   4.119  0.00  0.00     0.062 C 
ATOM     31  C   UNK d   0     -25.997   0.337   6.334  0.00  0.00    -0.013 A 
ATOM     32  C   UNK d   0     -25.983   2.143   3.150  0.00  0.00     0.066 A 
BRANCH   8  33
ATOM     33  C   UNK d   0     -25.900   4.684   0.493  0.00  0.00     0.151 C 
BRANCH  33  34
ATOM     34  C   UNK d   0     -26.519   4.330  -0.797  0.00  0.00     0.143 C 
ATOM     35  O   UNK d   0     -27.414   5.033  -1.287  0.00  0.00    -0.650 OA
BRANCH  34  36
ATOM     36  O   UNK d   0     -26.096   3.203  -1.462  0.00  0.00    -0.776 OA
ATOM     37  H   UNK d   0     -25.211   3.193  -1.987  0.00  0.00     0.167 HD
ENDBRANCH  34  36
ENDBRANCH  33  34
ENDBRANCH   8  33
BRANCH  31  38
ATOM     38  C   UNK d   0     -24.732   0.849   6.984  0.00  0.00     0.151 C 
BRANCH  38  39
ATOM     39  C   UNK d   0     -24.818   2.244   7.358  0.00  0.00     0.143 C 
ATOM     40  O   UNK d   0     -23.845   3.015   7.278  0.00  0.00    -0.650 OA
BRANCH  39  41
ATOM     41  O   UNK d   0     -26.027   2.757   7.825  0.00  0.00    -0.776 OA
ATOM     42  H   UNK d   0     -26.041   3.100   8.791  0.00  0.00     0.167 HD
ENDBRANCH  39  41
ENDBRANCH  38  39
ENDBRANCH  31  38
BRANCH  27  43
ATOM     43  C   UNK d   0     -26.926  -0.798   8.393  0.00  0.00     0.052 C 
BRANCH  43  44
ATOM     44  C   UNK d   0     -26.275  -2.127   8.605  0.00  0.00     0.115 C 
BRANCH  44  45
ATOM     45  C   UNK d   0     -24.928  -1.854   9.170  0.00  0.00     0.139 C 
ATOM     46  O   UNK d   0     -24.858  -1.254  10.271  0.00  0.00    -0.650 OA
BRANCH  45  47
ATOM     47  O   UNK d   0     -23.762  -2.235   8.541  0.00  0.00    -0.776 OA
ATOM     48  H   UNK d   0     -23.728  -2.514   7.547  0.00  0.00     0.167 HD
ENDBRANCH  45  47
ENDBRANCH  44  45
ENDBRANCH  43  44
ENDBRANCH  27  43
BRANCH  24  49
ATOM     49  C   UNK d   0     -32.024  -2.670   7.315  0.00  0.00     0.052 C 
BRANCH  49  50
ATOM     50  C   UNK d   0     -31.977  -4.019   6.645  0.00  0.00     0.115 C 
BRANCH  50  51
ATOM     51  C   UNK d   0     -30.722  -4.755   6.719  0.00  0.00     0.139 C 
ATOM     52  O   UNK d   0     -29.824  -4.479   7.549  0.00  0.00    -0.650 OA
BRANCH  51  53
ATOM     53  O   UNK d   0     -30.488  -5.804   5.842  0.00  0.00    -0.776 OA
ATOM     54  H   UNK d   0     -29.666  -6.364   5.980  0.00  0.00     0.167 HD
ENDBRANCH  51  53
ENDBRANCH  50  51
ENDBRANCH  49  50
ENDBRANCH  24  49
BRANCH  21  55
ATOM     55  C   UNK d   0     -34.130  -1.069   5.719  0.00  0.00     0.151 C 
BRANCH  55  56
ATOM     56  C   UNK d   0     -34.642  -1.811   4.557  0.00  0.00     0.143 C 
ATOM     57  O   UNK d   0     -35.049  -1.247   3.522  0.00  0.00    -0.650 OA
BRANCH  56  58
ATOM     58  O   UNK d   0     -34.665  -3.203   4.634  0.00  0.00    -0.776 OA
ATOM     59  H   UNK d   0     -35.136  -3.675   3.841  0.00  0.00     0.167 HD
ENDBRANCH  56  58
ENDBRANCH  55  56
ENDBRANCH  21  55
BRANCH  18  60
ATOM     60  C   UNK d   0     -33.187   1.437   1.067  0.00  0.00     0.151 C 
BRANCH  60  61
ATOM     61  C   UNK d   0     -34.145   2.550   1.132  0.00  0.00     0.143 C 
ATOM     62  O   UNK d   0     -34.306   3.338   2.064  0.00  0.00    -0.650 OA
BRANCH  61  63
ATOM     63  O   UNK d   0     -34.959   2.712  -0.015  0.00  0.00    -0.776 OA
ATOM     64  H   UNK d   0     -34.606   3.160  -0.843  0.00  0.00     0.167 HD
ENDBRANCH  61  63
ENDBRANCH  60  61
ENDBRANCH  18  60
BRANCH  14  65
ATOM     65  C   UNK d   0     -31.091   3.166  -0.283  0.00  0.00     0.052 C 
BRANCH  65  66
ATOM     66  C   UNK d   0     -30.702   2.148  -1.295  0.00  0.00     0.115 C 
BRANCH  66  67
ATOM     67  C   UNK d   0     -29.337   2.062  -1.732  0.00  0.00     0.139 C 
ATOM     68  O   UNK d   0     -28.509   1.374  -1.028  0.00  0.00    -0.650 OA
BRANCH  67  69
ATOM     69  O   UNK d   0     -28.764   2.649  -2.860  0.00  0.00    -0.776 OA
ATOM     70  H   UNK d   0     -27.740   2.568  -2.935  0.00  0.00     0.167 HD
ENDBRANCH  67  69
ENDBRANCH  66  67
ENDBRANCH  65  66
ENDBRANCH  14  65
ENDBRANCH   6   7
ENDBRANCH   5   6
ENDBRANCH   2   5
TORSDOF 28
ENDMDL
MODEL 8
REMARK VINA RESULT:      -6.7      5.283     11.179
REMARK  28 active torsions:
REMARK  status: ('A' for Active; 'I' for Inactive)
REMARK    1  A    between atoms: C_2  and  O_3 
REMARK    2  A    between atoms: C_2  and  C_4 
REMARK    3  A    between atoms: C_4  and  C_5 
REMARK    4  A    between atoms: C_5  and  C_6 
REMARK    5  A    between atoms: C_7  and  C_8 
REMARK    6  A    between atoms: C_8  and  C_9 
REMARK    7  A    between atoms: C_9  and  O_11 
REMARK    8  A    between atoms: C_28  and  C_29 
REMARK    9  A    between atoms: C_29  and  C_30 
REMARK   10  A    between atoms: C_30  and  O_32 
REMARK   11  A    between atoms: C_33  and  C_34 
REMARK   12  A    between atoms: C_34  and  C_35 
REMARK   13  A    between atoms: C_35  and  C_36 
REMARK   14  A    between atoms: C_36  and  O_38 
REMARK   15  A    between atoms: C_39  and  C_40 
REMARK   16  A    between atoms: C_40  and  C_41 
REMARK   17  A    between atoms: C_41  and  C_42 
REMARK   18  A    between atoms: C_42  and  O_44 
REMARK   19  A    between atoms: C_45  and  C_46 
REMARK   20  A    between atoms: C_46  and  C_47 
REMARK   21  A    between atoms: C_47  and  O_49 
REMARK   22  A    between atoms: C_50  and  C_51 
REMARK   23  A    between atoms: C_51  and  C_52 
REMARK   24  A    between atoms: C_52  and  O_54 
REMARK   25  A    between atoms: C_55  and  C_56 
REMARK   26  A    between atoms: C_56  and  C_57 
REMARK   27  A    between atoms: C_57  and  C_58 
REMARK   28  A    between atoms: C_58  and  O_60 
ROOT
ATOM      1  O   UNK d   0     -25.357  -0.180   8.797  0.00  0.00    -0.650 OA
ATOM      2  C   UNK d   0     -25.844  -0.293   7.650  0.00  0.00     0.139 C 
ENDROOT
BRANCH   2   3
ATOM      3  O   UNK d   0     -25.004  -0.346   6.564  0.00  0.00    -0.776 OA
ATOM      4  H   UNK d   0     -25.358  -0.204   5.615  0.00  0.00     0.167 HD
ENDBRANCH   2   3
BRANCH   2   5
ATOM      5  C   UNK d   0     -27.322  -0.369   7.468  0.00  0.00     0.115 C 
BRANCH   5   6
ATOM      6  C   UNK d   0     -27.650  -1.108   6.199  0.00  0.00     0.052 C 
BRANCH   6   7
ATOM      7  C   UNK d   0     -29.041  -0.807   5.695  0.00  0.00    -0.020 A 
ATOM      8  C   UNK d   0     -30.172  -1.302   6.128  0.00  0.00    -0.011 A 
ATOM      9  C   UNK d   0     -31.244  -0.726   5.334  0.00  0.00     0.067 A 
ATOM     10  C   UNK d   0     -32.644  -0.820   5.303  0.00  0.00     0.062 C 
ATOM     11  N   UNK d   0     -30.675   0.105   4.436  0.00  0.00    -0.248 NA
ATOM     12  C   UNK d   0     -33.536   0.031   4.641  0.00  0.00     0.041 A 
ATOM     13  N   UNK d   0     -33.490   0.580   3.412  0.00  0.00    -0.355 N 
ATOM     14  C   UNK d   0     -34.679   0.484   5.324  0.00  0.00    -0.022 A 
ATOM     15  C   UNK d   0     -34.571   1.376   3.301  0.00  0.00     0.042 A 
ATOM     16  H   UNK d   0     -32.720   0.394   2.632  0.00  0.00     0.166 HD
ATOM     17  C   UNK d   0     -35.007   2.180   2.229  0.00  0.00     0.062 C 
ATOM     18  C   UNK d   0     -35.340   1.341   4.480  0.00  0.00    -0.013 A 
ATOM     19  C   UNK d   0     -34.278   3.029   1.436  0.00  0.00     0.067 A 
ATOM     20  N   UNK d   0     -32.948   2.960   1.538  0.00  0.00    -0.248 NA
ATOM     21  C   UNK d   0     -34.579   4.062   0.459  0.00  0.00    -0.011 A 
ATOM     22  C   UNK d   0     -32.357   3.874   0.700  0.00  0.00     0.066 A 
ATOM     23  C   UNK d   0     -30.971   3.884   0.679  0.00  0.00     0.062 C 
ATOM     24  C   UNK d   0     -33.451   4.555   0.035  0.00  0.00    -0.020 A 
ATOM     25  C   UNK d   0     -30.093   3.012   1.342  0.00  0.00     0.041 A 
ATOM     26  N   UNK d   0     -30.131   2.478   2.568  0.00  0.00    -0.355 N 
ATOM     27  C   UNK d   0     -28.948   2.555   0.653  0.00  0.00    -0.022 A 
ATOM     28  C   UNK d   0     -29.050   1.691   2.684  0.00  0.00     0.042 A 
ATOM     29  H   UNK d   0     -30.900   2.674   3.355  0.00  0.00     0.166 HD
ATOM     30  C   UNK d   0     -28.599   0.893   3.748  0.00  0.00     0.062 C 
ATOM     31  C   UNK d   0     -28.283   1.718   1.495  0.00  0.00    -0.013 A 
ATOM     32  C   UNK d   0     -29.351   0.102   4.601  0.00  0.00     0.066 A 
BRANCH   8  33
ATOM     33  C   UNK d   0     -30.350  -2.276   7.221  0.00  0.00     0.151 C 
BRANCH  33  34
ATOM     34  C   UNK d   0     -30.238  -3.673   6.765  0.00  0.00     0.143 C 
ATOM     35  O   UNK d   0     -30.199  -4.607   7.578  0.00  0.00    -0.650 OA
BRANCH  34  36
ATOM     36  O   UNK d   0     -30.175  -3.940   5.417  0.00  0.00    -0.776 OA
ATOM     37  H   UNK d   0     -30.374  -3.212   4.718  0.00  0.00     0.167 HD
ENDBRANCH  34  36
ENDBRANCH  33  34
ENDBRANCH   8  33
BRANCH  31  38
ATOM     38  C   UNK d   0     -27.003   0.977   1.188  0.00  0.00     0.151 C 
BRANCH  38  39
ATOM     39  C   UNK d   0     -27.214  -0.436   0.952  0.00  0.00     0.143 C 
ATOM     40  O   UNK d   0     -27.694  -0.869  -0.110  0.00  0.00    -0.650 OA
BRANCH  39  41
ATOM     41  O   UNK d   0     -26.871  -1.355   1.943  0.00  0.00    -0.776 OA
ATOM     42  H   UNK d   0     -27.321  -2.275   1.895  0.00  0.00     0.167 HD
ENDBRANCH  39  41
ENDBRANCH  38  39
ENDBRANCH  31  38
BRANCH  27  43
ATOM     43  C   UNK d   0     -28.475   2.879  -0.742  0.00  0.00     0.052 C 
BRANCH  43  44
ATOM     44  C   UNK d   0     -28.993   1.933  -1.776  0.00  0.00     0.115 C 
BRANCH  44  45
ATOM     45  C   UNK d   0     -27.853   1.626  -2.678  0.00  0.00     0.139 C 
ATOM     46  O   UNK d   0     -26.718   2.068  -2.371  0.00  0.00    -0.650 OA
BRANCH  45  47
ATOM     47  O   UNK d   0     -27.990   0.876  -3.827  0.00  0.00    -0.776 OA
ATOM     48  H   UNK d   0     -27.248   0.807  -4.542  0.00  0.00     0.167 HD
ENDBRANCH  45  47
ENDBRANCH  44  45
ENDBRANCH  43  44
ENDBRANCH  27  43
BRANCH  24  49
ATOM     49  C   UNK d   0     -33.291   5.600  -0.990  0.00  0.00     0.052 C 
BRANCH  49  50
ATOM     50  C   UNK d   0     -32.552   5.054  -2.185  0.00  0.00     0.115 C 
BRANCH  50  51
ATOM     51  C   UNK d   0     -33.115   3.877  -2.834  0.00  0.00     0.139 C 
ATOM     52  O   UNK d   0     -32.539   2.763  -2.831  0.00  0.00    -0.650 OA
BRANCH  51  53
ATOM     53  O   UNK d   0     -34.334   3.971  -3.488  0.00  0.00    -0.776 OA
ATOM     54  H   UNK d   0     -34.520   4.796  -4.030  0.00  0.00     0.167 HD
ENDBRANCH  51  53
ENDBRANCH  50  51
ENDBRANCH  49  50
ENDBRANCH  24  49
BRANCH  21  55
ATOM     55  C   UNK d   0     -35.961   4.445   0.047  0.00  0.00     0.151 C 
BRANCH  55  56
ATOM     56  C   UNK d   0     -36.647   3.354  -0.664  0.00  0.00     0.143 C 
ATOM     57  O   UNK d   0     -36.109   2.703  -1.580  0.00  0.00    -0.650 OA
BRANCH  56  58
ATOM     58  O   UNK d   0     -37.953   3.051  -0.282  0.00  0.00    -0.776 OA
ATOM     59  H   UNK d   0     -38.062   2.761   0.707  0.00  0.00     0.167 HD
ENDBRANCH  56  58
ENDBRANCH  55  56
ENDBRANCH  21  55
BRANCH  18  60
ATOM     60  C   UNK d   0     -36.620   2.066   4.814  0.00  0.00     0.151 C 
BRANCH  60  61
ATOM     61  C   UNK d   0     -36.221   3.265   5.567  0.00  0.00     0.143 C 
ATOM     62  O   UNK d   0     -35.207   3.942   5.401  0.00  0.00    -0.650 OA
BRANCH  61  63
ATOM     63  O   UNK d   0     -37.118   3.660   6.589  0.00  0.00    -0.776 OA
ATOM     64  H   UNK d   0     -37.592   4.545   6.548  0.00  0.00     0.167 HD
ENDBRANCH  61  63
ENDBRANCH  60  61
ENDBRANCH  18  60
BRANCH  14  65
ATOM     65  C   UNK d   0     -35.240   0.095   6.662  0.00  0.00     0.052 C 
BRANCH  65  66
ATOM     66  C   UNK d   0     -34.784   0.983   7.765  0.00  0.00     0.115 C 
BRANCH  66  67
ATOM     67  C   UNK d   0     -35.730   1.456   8.735  0.00  0.00     0.139 C 
ATOM     68  O   UNK d   0     -35.292   1.854   9.877  0.00  0.00    -0.650 OA
BRANCH  67  69
ATOM     69  O   UNK d   0     -37.116   1.545   8.604  0.00  0.00    -0.776 OA
ATOM     70  H   UNK d   0     -37.472   1.594   7.638  0.00  0.00     0.167 HD
ENDBRANCH  67  69
ENDBRANCH  66  67
ENDBRANCH  65  66
ENDBRANCH  14  65
ENDBRANCH   6   7
ENDBRANCH   5   6
ENDBRANCH   2   5
TORSDOF 28
ENDMDL
MODEL 9
REMARK VINA RESULT:      -6.7     15.403     18.037
REMARK  28 active torsions:
REMARK  status: ('A' for Active; 'I' for Inactive)
REMARK    1  A    between atoms: C_2  and  O_3 
REMARK    2  A    between atoms: C_2  and  C_4 
REMARK    3  A    between atoms: C_4  and  C_5 
REMARK    4  A    between atoms: C_5  and  C_6 
REMARK    5  A    between atoms: C_7  and  C_8 
REMARK    6  A    between atoms: C_8  and  C_9 
REMARK    7  A    between atoms: C_9  and  O_11 
REMARK    8  A    between atoms: C_28  and  C_29 
REMARK    9  A    between atoms: C_29  and  C_30 
REMARK   10  A    between atoms: C_30  and  O_32 
REMARK   11  A    between atoms: C_33  and  C_34 
REMARK   12  A    between atoms: C_34  and  C_35 
REMARK   13  A    between atoms: C_35  and  C_36 
REMARK   14  A    between atoms: C_36  and  O_38 
REMARK   15  A    between atoms: C_39  and  C_40 
REMARK   16  A    between atoms: C_40  and  C_41 
REMARK   17  A    between atoms: C_41  and  C_42 
REMARK   18  A    between atoms: C_42  and  O_44 
REMARK   19  A    between atoms: C_45  and  C_46 
REMARK   20  A    between atoms: C_46  and  C_47 
REMARK   21  A    between atoms: C_47  and  O_49 
REMARK   22  A    between atoms: C_50  and  C_51 
REMARK   23  A    between atoms: C_51  and  C_52 
REMARK   24  A    between atoms: C_52  and  O_54 
REMARK   25  A    between atoms: C_55  and  C_56 
REMARK   26  A    between atoms: C_56  and  C_57 
REMARK   27  A    between atoms: C_57  and  C_58 
REMARK   28  A    between atoms: C_58  and  O_60 
ROOT
ATOM      1  O   UNK d   0     -12.921   4.904   8.381  0.00  0.00    -0.650 OA
ATOM      2  C   UNK d   0     -12.979   5.832   9.218  0.00  0.00     0.139 C 
ENDROOT
BRANCH   2   3
ATOM      3  O   UNK d   0     -11.836   6.218   9.876  0.00  0.00    -0.776 OA
ATOM      4  H   UNK d   0     -11.375   5.596  10.542  0.00  0.00     0.167 HD
ENDBRANCH   2   3
BRANCH   2   5
ATOM      5  C   UNK d   0     -14.277   6.510   9.495  0.00  0.00     0.115 C 
BRANCH   5   6
ATOM      6  C   UNK d   0     -15.396   5.796   8.786  0.00  0.00     0.052 C 
BRANCH   6   7
ATOM      7  C   UNK d   0     -16.320   5.074   9.737  0.00  0.00    -0.020 A 
ATOM      8  C   UNK d   0     -17.529   5.424  10.094  0.00  0.00    -0.011 A 
ATOM      9  C   UNK d   0     -18.022   4.428  11.031  0.00  0.00     0.067 A 
ATOM     10  C   UNK d   0     -19.210   4.210  11.746  0.00  0.00     0.062 C 
ATOM     11  N   UNK d   0     -17.045   3.511  11.192  0.00  0.00    -0.248 NA
ATOM     12  C   UNK d   0     -19.606   3.035  12.393  0.00  0.00     0.041 A 
ATOM     13  N   UNK d   0     -18.918   2.174  13.167  0.00  0.00    -0.355 N 
ATOM     14  C   UNK d   0     -20.922   2.570  12.215  0.00  0.00    -0.022 A 
ATOM     15  C   UNK d   0     -19.761   1.171  13.478  0.00  0.00     0.042 A 
ATOM     16  H   UNK d   0     -17.864   2.283  13.504  0.00  0.00     0.166 HD
ATOM     17  C   UNK d   0     -19.558   0.016  14.260  0.00  0.00     0.062 C 
ATOM     18  C   UNK d   0     -21.027   1.384  12.898  0.00  0.00    -0.013 A 
ATOM     19  C   UNK d   0     -18.496  -0.853  14.255  0.00  0.00     0.067 A 
ATOM     20  N   UNK d   0     -17.411  -0.477  13.574  0.00  0.00    -0.248 NA
ATOM     21  C   UNK d   0     -18.218  -2.164  14.815  0.00  0.00    -0.011 A 
ATOM     22  C   UNK d   0     -16.443  -1.449  13.647  0.00  0.00     0.066 A 
ATOM     23  C   UNK d   0     -15.242  -1.172  13.011  0.00  0.00     0.062 C 
ATOM     24  C   UNK d   0     -17.016  -2.510  14.452  0.00  0.00    -0.020 A 
ATOM     25  C   UNK d   0     -14.859   0.021  12.377  0.00  0.00     0.041 A 
ATOM     26  N   UNK d   0     -15.539   0.868  11.596  0.00  0.00    -0.355 N 
ATOM     27  C   UNK d   0     -13.540   0.489  12.560  0.00  0.00    -0.022 A 
ATOM     28  C   UNK d   0     -14.698   1.865  11.277  0.00  0.00     0.042 A 
ATOM     29  H   UNK d   0     -16.595   0.752  11.250  0.00  0.00     0.166 HD
ATOM     30  C   UNK d   0     -14.884   3.015  10.493  0.00  0.00     0.062 C 
ATOM     31  C   UNK d   0     -13.429   1.656  11.868  0.00  0.00    -0.013 A 
ATOM     32  C   UNK d   0     -15.994   3.842  10.440  0.00  0.00     0.066 A 
BRANCH   8  33
ATOM     33  C   UNK d   0     -18.276   6.613   9.644  0.00  0.00     0.151 C 
BRANCH  33  34
ATOM     34  C   UNK d   0     -18.071   7.781  10.519  0.00  0.00     0.143 C 
ATOM     35  O   UNK d   0     -17.125   8.559  10.330  0.00  0.00    -0.650 OA
BRANCH  34  36
ATOM     36  O   UNK d   0     -18.942   8.006  11.560  0.00  0.00    -0.776 OA
ATOM     37  H   UNK d   0     -18.676   7.802  12.533  0.00  0.00     0.167 HD
ENDBRANCH  34  36
ENDBRANCH  33  34
ENDBRANCH   8  33
BRANCH  31  38
ATOM     38  C   UNK d   0     -12.199   2.529  11.783  0.00  0.00     0.151 C 
BRANCH  38  39
ATOM     39  C   UNK d   0     -11.425   2.292  10.583  0.00  0.00     0.143 C 
ATOM     40  O   UNK d   0     -11.274   1.155  10.102  0.00  0.00    -0.650 OA
BRANCH  39  41
ATOM     41  O   UNK d   0     -10.821   3.368   9.933  0.00  0.00    -0.776 OA
ATOM     42  H   UNK d   0     -11.446   4.049   9.489  0.00  0.00     0.167 HD
ENDBRANCH  39  41
ENDBRANCH  38  39
ENDBRANCH  31  38
BRANCH  27  43
ATOM     43  C   UNK d   0     -12.407  -0.120  13.349  0.00  0.00     0.052 C 
BRANCH  43  44
ATOM     44  C   UNK d   0     -12.348   0.359  14.763  0.00  0.00     0.115 C 
BRANCH  44  45
ATOM     45  C   UNK d   0     -11.004  -0.009  15.280  0.00  0.00     0.139 C 
ATOM     46  O   UNK d   0     -10.054   0.787  15.078  0.00  0.00    -0.650 OA
BRANCH  45  47
ATOM     47  O   UNK d   0     -10.764  -1.177  15.971  0.00  0.00    -0.776 OA
ATOM     48  H   UNK d   0      -9.845  -1.405  16.384  0.00  0.00     0.167 HD
ENDBRANCH  45  47
ENDBRANCH  44  45
ENDBRANCH  43  44
ENDBRANCH  27  43
BRANCH  24  49
ATOM     49  C   UNK d   0     -16.317  -3.750  14.830  0.00  0.00     0.052 C 
BRANCH  49  50
ATOM     50  C   UNK d   0     -16.642  -4.853  13.857  0.00  0.00     0.115 C 
BRANCH  50  51
ATOM     51  C   UNK d   0     -16.858  -6.184  14.408  0.00  0.00     0.139 C 
ATOM     52  O   UNK d   0     -15.999  -6.776  15.103  0.00  0.00    -0.650 OA
BRANCH  51  53
ATOM     53  O   UNK d   0     -18.054  -6.842  14.164  0.00  0.00    -0.776 OA
ATOM     54  H   UNK d   0     -18.730  -6.890  14.906  0.00  0.00     0.167 HD
ENDBRANCH  51  53
ENDBRANCH  50  51
ENDBRANCH  49  50
ENDBRANCH  24  49
BRANCH  21  55
ATOM     55  C   UNK d   0     -19.180  -2.934  15.658  0.00  0.00     0.151 C 
BRANCH  55  56
ATOM     56  C   UNK d   0     -19.986  -3.870  14.860  0.00  0.00     0.143 C 
ATOM     57  O   UNK d   0     -20.455  -3.575  13.743  0.00  0.00    -0.650 OA
BRANCH  56  58
ATOM     58  O   UNK d   0     -20.226  -5.137  15.390  0.00  0.00    -0.776 OA
ATOM     59  H   UNK d   0     -21.225  -5.405  15.444  0.00  0.00     0.167 HD
ENDBRANCH  56  58
ENDBRANCH  55  56
ENDBRANCH  21  55
BRANCH  18  60
ATOM     60  C   UNK d   0     -22.271   0.534  12.969  0.00  0.00     0.151 C 
BRANCH  60  61
ATOM     61  C   UNK d   0     -22.212  -0.366  11.807  0.00  0.00     0.143 C 
ATOM     62  O   UNK d   0     -21.205  -0.715  11.189  0.00  0.00    -0.650 OA
BRANCH  61  63
ATOM     63  O   UNK d   0     -23.460  -0.872  11.373  0.00  0.00    -0.776 OA
ATOM     64  H   UNK d   0     -24.321  -0.539  11.769  0.00  0.00     0.167 HD
ENDBRANCH  61  63
ENDBRANCH  60  61
ENDBRANCH  18  60
BRANCH  14  65
ATOM     65  C   UNK d   0     -22.103   3.204  11.536  0.00  0.00     0.052 C 
BRANCH  65  66
ATOM     66  C   UNK d   0     -22.128   2.964  10.068  0.00  0.00     0.115 C 
BRANCH  66  67
ATOM     67  C   UNK d   0     -23.133   2.109   9.503  0.00  0.00     0.139 C 
ATOM     68  O   UNK d   0     -24.213   1.906  10.172  0.00  0.00    -0.650 OA
BRANCH  67  69
ATOM     69  O   UNK d   0     -23.097   1.442   8.280  0.00  0.00    -0.776 OA
ATOM     70  H   UNK d   0     -23.232   0.421   8.322  0.00  0.00     0.167 HD
ENDBRANCH  67  69
ENDBRANCH  66  67
ENDBRANCH  65  66
ENDBRANCH  14  65
ENDBRANCH   6   7
ENDBRANCH   5   6
ENDBRANCH   2   5
TORSDOF 28
ENDMDL
MODEL 10
REMARK VINA RESULT:      -6.7     21.003     23.269
REMARK  28 active torsions:
REMARK  status: ('A' for Active; 'I' for Inactive)
REMARK    1  A    between atoms: C_2  and  O_3 
REMARK    2  A    between atoms: C_2  and  C_4 
REMARK    3  A    between atoms: C_4  and  C_5 
REMARK    4  A    between atoms: C_5  and  C_6 
REMARK    5  A    between atoms: C_7  and  C_8 
REMARK    6  A    between atoms: C_8  and  C_9 
REMARK    7  A    between atoms: C_9  and  O_11 
REMARK    8  A    between atoms: C_28  and  C_29 
REMARK    9  A    between atoms: C_29  and  C_30 
REMARK   10  A    between atoms: C_30  and  O_32 
REMARK   11  A    between atoms: C_33  and  C_34 
REMARK   12  A    between atoms: C_34  and  C_35 
REMARK   13  A    between atoms: C_35  and  C_36 
REMARK   14  A    between atoms: C_36  and  O_38 
REMARK   15  A    between atoms: C_39  and  C_40 
REMARK   16  A    between atoms: C_40  and  C_41 
REMARK   17  A    between atoms: C_41  and  C_42 
REMARK   18  A    between atoms: C_42  and  O_44 
REMARK   19  A    between atoms: C_45  and  C_46 
REMARK   20  A    between atoms: C_46  and  C_47 
REMARK   21  A    between atoms: C_47  and  O_49 
REMARK   22  A    between atoms: C_50  and  C_51 
REMARK   23  A    between atoms: C_51  and  C_52 
REMARK   24  A    between atoms: C_52  and  O_54 
REMARK   25  A    between atoms: C_55  and  C_56 
REMARK   26  A    between atoms: C_56  and  C_57 
REMARK   27  A    between atoms: C_57  and  C_58 
REMARK   28  A    between atoms: C_58  and  O_60 
ROOT
ATOM      1  O   UNK d   0      -7.815   6.365  17.486  0.00  0.00    -0.650 OA
ATOM      2  C   UNK d   0      -7.919   5.265  18.073  0.00  0.00     0.139 C 
ENDROOT
BRANCH   2   3
ATOM      3  O   UNK d   0      -6.950   4.886  18.971  0.00  0.00    -0.776 OA
ATOM      4  H   UNK d   0      -7.175   4.289  19.769  0.00  0.00     0.167 HD
ENDBRANCH   2   3
BRANCH   2   5
ATOM      5  C   UNK d   0      -9.085   4.378  17.798  0.00  0.00     0.115 C 
BRANCH   5   6
ATOM      6  C   UNK d   0      -8.651   3.192  16.979  0.00  0.00     0.052 C 
BRANCH   6   7
ATOM      7  C   UNK d   0      -9.305   1.907  17.425  0.00  0.00    -0.020 A 
ATOM      8  C   UNK d   0      -8.913   1.099  18.377  0.00  0.00    -0.011 A 
ATOM      9  C   UNK d   0      -9.851  -0.009  18.436  0.00  0.00     0.067 A 
ATOM     10  C   UNK d   0     -10.008  -1.162  19.220  0.00  0.00     0.062 C 
ATOM     11  N   UNK d   0     -10.780   0.202  17.480  0.00  0.00    -0.248 NA
ATOM     12  C   UNK d   0     -11.142  -1.977  19.311  0.00  0.00     0.041 A 
ATOM     13  N   UNK d   0     -11.979  -2.440  18.364  0.00  0.00    -0.355 N 
ATOM     14  C   UNK d   0     -11.586  -2.385  20.582  0.00  0.00    -0.022 A 
ATOM     15  C   UNK d   0     -12.948  -3.125  19.001  0.00  0.00     0.042 A 
ATOM     16  H   UNK d   0     -11.877  -2.302  17.265  0.00  0.00     0.166 HD
ATOM     17  C   UNK d   0     -14.067  -3.812  18.492  0.00  0.00     0.062 C 
ATOM     18  C   UNK d   0     -12.735  -3.112  20.394  0.00  0.00    -0.013 A 
ATOM     19  C   UNK d   0     -14.959  -3.413  17.528  0.00  0.00     0.067 A 
ATOM     20  N   UNK d   0     -14.640  -2.324  16.824  0.00  0.00    -0.248 NA
ATOM     21  C   UNK d   0     -16.248  -3.876  17.042  0.00  0.00    -0.011 A 
ATOM     22  C   UNK d   0     -15.629  -2.040  15.913  0.00  0.00     0.066 A 
ATOM     23  C   UNK d   0     -15.408  -0.950  15.084  0.00  0.00     0.062 C 
ATOM     24  C   UNK d   0     -16.637  -3.066  16.100  0.00  0.00    -0.020 A 
ATOM     25  C   UNK d   0     -14.257  -0.153  14.999  0.00  0.00     0.041 A 
ATOM     26  N   UNK d   0     -13.433   0.320  15.942  0.00  0.00    -0.355 N 
ATOM     27  C   UNK d   0     -13.809   0.253  13.723  0.00  0.00    -0.022 A 
ATOM     28  C   UNK d   0     -12.471   1.011  15.309  0.00  0.00     0.042 A 
ATOM     29  H   UNK d   0     -13.543   0.190  17.047  0.00  0.00     0.166 HD
ATOM     30  C   UNK d   0     -11.357   1.707  15.804  0.00  0.00     0.062 C 
ATOM     31  C   UNK d   0     -12.680   0.989  13.910  0.00  0.00    -0.013 A 
ATOM     32  C   UNK d   0     -10.509   1.338  16.837  0.00  0.00     0.066 A 
BRANCH   8  33
ATOM     33  C   UNK d   0      -7.730   1.262  19.243  0.00  0.00     0.151 C 
BRANCH  33  34
ATOM     34  C   UNK d   0      -8.073   1.757  20.589  0.00  0.00     0.143 C 
ATOM     35  O   UNK d   0      -8.436   2.929  20.762  0.00  0.00    -0.650 OA
BRANCH  34  36
ATOM     36  O   UNK d   0      -7.985   0.904  21.665  0.00  0.00    -0.776 OA
ATOM     37  H   UNK d   0      -7.511   1.187  22.534  0.00  0.00     0.167 HD
ENDBRANCH  34  36
ENDBRANCH  33  34
ENDBRANCH   8  33
BRANCH  31  38
ATOM     38  C   UNK d   0     -11.839   1.623  12.826  0.00  0.00     0.151 C 
BRANCH  38  39
ATOM     39  C   UNK d   0     -10.939   0.683  12.192  0.00  0.00     0.143 C 
ATOM     40  O   UNK d   0     -10.290  -0.157  12.839  0.00  0.00    -0.650 OA
BRANCH  39  41
ATOM     41  O   UNK d   0     -10.785   0.710  10.806  0.00  0.00    -0.776 OA
ATOM     42  H   UNK d   0     -10.892  -0.181  10.312  0.00  0.00     0.167 HD
ENDBRANCH  39  41
ENDBRANCH  38  39
ENDBRANCH  31  38
BRANCH  27  43
ATOM     43  C   UNK d   0     -14.404  -0.026  12.365  0.00  0.00     0.052 C 
BRANCH  43  44
ATOM     44  C   UNK d   0     -15.671   0.723  12.110  0.00  0.00     0.115 C 
BRANCH  44  45
ATOM     45  C   UNK d   0     -15.314   1.878  11.245  0.00  0.00     0.139 C 
ATOM     46  O   UNK d   0     -14.989   2.956  11.802  0.00  0.00    -0.650 OA
BRANCH  45  47
ATOM     47  O   UNK d   0     -15.320   1.811   9.869  0.00  0.00    -0.776 OA
ATOM     48  H   UNK d   0     -14.861   2.517   9.272  0.00  0.00     0.167 HD
ENDBRANCH  45  47
ENDBRANCH  44  45
ENDBRANCH  43  44
ENDBRANCH  27  43
BRANCH  24  49
ATOM     49  C   UNK d   0     -17.872  -3.185  15.307  0.00  0.00     0.052 C 
BRANCH  49  50
ATOM     50  C   UNK d   0     -17.568  -3.762  13.948  0.00  0.00     0.115 C 
BRANCH  50  51
ATOM     51  C   UNK d   0     -18.588  -4.606  13.341  0.00  0.00     0.139 C 
ATOM     52  O   UNK d   0     -19.290  -5.404  14.007  0.00  0.00    -0.650 OA
BRANCH  51  53
ATOM     53  O   UNK d   0     -18.807  -4.543  11.973  0.00  0.00    -0.776 OA
ATOM     54  H   UNK d   0     -18.742  -5.393  11.441  0.00  0.00     0.167 HD
ENDBRANCH  51  53
ENDBRANCH  50  51
ENDBRANCH  49  50
ENDBRANCH  24  49
BRANCH  21  55
ATOM     55  C   UNK d   0     -16.955  -5.081  17.568  0.00  0.00     0.151 C 
BRANCH  55  56
ATOM     56  C   UNK d   0     -16.928  -6.197  16.609  0.00  0.00     0.143 C 
ATOM     57  O   UNK d   0     -15.888  -6.564  16.029  0.00  0.00    -0.650 OA
BRANCH  56  58
ATOM     58  O   UNK d   0     -18.127  -6.860  16.352  0.00  0.00    -0.776 OA
ATOM     59  H   UNK d   0     -18.028  -7.760  15.848  0.00  0.00     0.167 HD
ENDBRANCH  56  58
ENDBRANCH  55  56
ENDBRANCH  21  55
BRANCH  18  60
ATOM     60  C   UNK d   0     -13.553  -3.737  21.496  0.00  0.00     0.151 C 
BRANCH  60  61
ATOM     61  C   UNK d   0     -14.361  -2.648  22.067  0.00  0.00     0.143 C 
ATOM     62  O   UNK d   0     -14.285  -2.186  23.206  0.00  0.00    -0.650 OA
BRANCH  61  63
ATOM     63  O   UNK d   0     -15.321  -2.087  21.190  0.00  0.00    -0.776 OA
ATOM     64  H   UNK d   0     -15.067  -1.789  20.265  0.00  0.00     0.167 HD
ENDBRANCH  61  63
ENDBRANCH  60  61
ENDBRANCH  18  60
BRANCH  14  65
ATOM     65  C   UNK d   0     -10.960  -2.225  21.938  0.00  0.00     0.052 C 
BRANCH  65  66
ATOM     66  C   UNK d   0      -9.929  -3.257  22.229  0.00  0.00     0.115 C 
BRANCH  66  67
ATOM     67  C   UNK d   0      -8.555  -2.869  22.377  0.00  0.00     0.139 C 
ATOM     68  O   UNK d   0      -7.645  -3.628  21.876  0.00  0.00    -0.650 OA
BRANCH  67  69
ATOM     69  O   UNK d   0      -8.052  -1.736  23.016  0.00  0.00    -0.776 OA
ATOM     70  H   UNK d   0      -8.426  -0.834  22.688  0.00  0.00     0.167 HD
ENDBRANCH  67  69
ENDBRANCH  66  67
ENDBRANCH  65  66
ENDBRANCH  14  65
ENDBRANCH   6   7
ENDBRANCH   5   6
ENDBRANCH   2   5
TORSDOF 28
ENDMDL
MODEL 11
REMARK VINA RESULT:      -6.7     21.415     25.741
REMARK  28 active torsions:
REMARK  status: ('A' for Active; 'I' for Inactive)
REMARK    1  A    between atoms: C_2  and  O_3 
REMARK    2  A    between atoms: C_2  and  C_4 
REMARK    3  A    between atoms: C_4  and  C_5 
REMARK    4  A    between atoms: C_5  and  C_6 
REMARK    5  A    between atoms: C_7  and  C_8 
REMARK    6  A    between atoms: C_8  and  C_9 
REMARK    7  A    between atoms: C_9  and  O_11 
REMARK    8  A    between atoms: C_28  and  C_29 
REMARK    9  A    between atoms: C_29  and  C_30 
REMARK   10  A    between atoms: C_30  and  O_32 
REMARK   11  A    between atoms: C_33  and  C_34 
REMARK   12  A    between atoms: C_34  and  C_35 
REMARK   13  A    between atoms: C_35  and  C_36 
REMARK   14  A    between atoms: C_36  and  O_38 
REMARK   15  A    between atoms: C_39  and  C_40 
REMARK   16  A    between atoms: C_40  and  C_41 
REMARK   17  A    between atoms: C_41  and  C_42 
REMARK   18  A    between atoms: C_42  and  O_44 
REMARK   19  A    between atoms: C_45  and  C_46 
REMARK   20  A    between atoms: C_46  and  C_47 
REMARK   21  A    between atoms: C_47  and  O_49 
REMARK   22  A    between atoms: C_50  and  C_51 
REMARK   23  A    between atoms: C_51  and  C_52 
REMARK   24  A    between atoms: C_52  and  O_54 
REMARK   25  A    between atoms: C_55  and  C_56 
REMARK   26  A    between atoms: C_56  and  C_57 
REMARK   27  A    between atoms: C_57  and  C_58 
REMARK   28  A    between atoms: C_58  and  O_60 
ROOT
ATOM      1  O   UNK d   0     -10.326   0.847  20.032  0.00  0.00    -0.650 OA
ATOM      2  C   UNK d   0      -9.914   0.807  18.852  0.00  0.00     0.139 C 
ENDROOT
BRANCH   2   3
ATOM      3  O   UNK d   0      -9.183  -0.278  18.430  0.00  0.00    -0.776 OA
ATOM      4  H   UNK d   0      -8.831  -0.338  17.472  0.00  0.00     0.167 HD
ENDBRANCH   2   3
BRANCH   2   5
ATOM      5  C   UNK d   0     -10.215   1.926  17.915  0.00  0.00     0.115 C 
BRANCH   5   6
ATOM      6  C   UNK d   0      -9.396   1.786  16.661  0.00  0.00     0.052 C 
BRANCH   6   7
ATOM      7  C   UNK d   0     -10.134   2.252  15.429  0.00  0.00    -0.020 A 
ATOM      8  C   UNK d   0     -10.755   1.516  14.544  0.00  0.00    -0.011 A 
ATOM      9  C   UNK d   0     -11.308   2.403  13.534  0.00  0.00     0.067 A 
ATOM     10  C   UNK d   0     -12.076   2.258  12.369  0.00  0.00     0.062 C 
ATOM     11  N   UNK d   0     -10.970   3.663  13.881  0.00  0.00    -0.248 NA
ATOM     12  C   UNK d   0     -12.753   3.263  11.669  0.00  0.00     0.041 A 
ATOM     13  N   UNK d   0     -12.384   4.514  11.336  0.00  0.00    -0.355 N 
ATOM     14  C   UNK d   0     -14.076   3.027  11.251  0.00  0.00    -0.022 A 
ATOM     15  C   UNK d   0     -13.441   5.081  10.725  0.00  0.00     0.042 A 
ATOM     16  H   UNK d   0     -11.390   4.980  11.512  0.00  0.00     0.166 HD
ATOM     17  C   UNK d   0     -13.596   6.371  10.178  0.00  0.00     0.062 C 
ATOM     18  C   UNK d   0     -14.521   4.180  10.653  0.00  0.00    -0.013 A 
ATOM     19  C   UNK d   0     -13.229   7.582  10.708  0.00  0.00     0.067 A 
ATOM     20  N   UNK d   0     -12.446   7.557  11.789  0.00  0.00    -0.248 NA
ATOM     21  C   UNK d   0     -13.489   8.978  10.400  0.00  0.00    -0.011 A 
ATOM     22  C   UNK d   0     -12.177   8.835  12.212  0.00  0.00     0.066 A 
ATOM     23  C   UNK d   0     -11.339   8.957  13.311  0.00  0.00     0.062 C 
ATOM     24  C   UNK d   0     -12.874   9.707  11.287  0.00  0.00    -0.020 A 
ATOM     25  C   UNK d   0     -10.658   7.936  13.991  0.00  0.00     0.041 A 
ATOM     26  N   UNK d   0     -11.030   6.697  14.336  0.00  0.00    -0.355 N 
ATOM     27  C   UNK d   0      -9.329   8.171  14.407  0.00  0.00    -0.022 A 
ATOM     28  C   UNK d   0      -9.981   6.132  14.954  0.00  0.00     0.042 A 
ATOM     29  H   UNK d   0     -12.033   6.234  14.167  0.00  0.00     0.166 HD
ATOM     30  C   UNK d   0      -9.816   4.854  15.510  0.00  0.00     0.062 C 
ATOM     31  C   UNK d   0      -8.893   7.035  15.016  0.00  0.00    -0.013 A 
ATOM     32  C   UNK d   0     -10.264   3.641  15.012  0.00  0.00     0.066 A 
BRANCH   8  33
ATOM     33  C   UNK d   0     -10.880   0.046  14.547  0.00  0.00     0.151 C 
BRANCH  33  34
ATOM     34  C   UNK d   0     -11.616  -0.462  15.719  0.00  0.00     0.143 C 
ATOM     35  O   UNK d   0     -11.160  -1.389  16.403  0.00  0.00    -0.650 OA
BRANCH  34  36
ATOM     36  O   UNK d   0     -12.824   0.103  16.055  0.00  0.00    -0.776 OA
ATOM     37  H   UNK d   0     -13.041   1.081  15.820  0.00  0.00     0.167 HD
ENDBRANCH  34  36
ENDBRANCH  33  34
ENDBRANCH   8  33
BRANCH  31  38
ATOM     38  C   UNK d   0      -7.522   6.812  15.610  0.00  0.00     0.151 C 
BRANCH  38  39
ATOM     39  C   UNK d   0      -7.491   7.013  17.043  0.00  0.00     0.143 C 
ATOM     40  O   UNK d   0      -6.970   6.193  17.819  0.00  0.00    -0.650 OA
BRANCH  39  41
ATOM     41  O   UNK d   0      -8.062   8.163  17.587  0.00  0.00    -0.776 OA
ATOM     42  H   UNK d   0      -8.406   8.097  18.550  0.00  0.00     0.167 HD
ENDBRANCH  39  41
ENDBRANCH  38  39
ENDBRANCH  31  38
BRANCH  27  43
ATOM     43  C   UNK d   0      -8.481   9.409  14.251  0.00  0.00     0.052 C 
BRANCH  43  44
ATOM     44  C   UNK d   0      -9.276  10.633  13.931  0.00  0.00     0.115 C 
BRANCH  44  45
ATOM     45  C   UNK d   0      -8.353  11.788  14.077  0.00  0.00     0.139 C 
ATOM     46  O   UNK d   0      -8.205  12.556  13.094  0.00  0.00    -0.650 OA
BRANCH  45  47
ATOM     47  O   UNK d   0      -7.663  12.051  15.241  0.00  0.00    -0.776 OA
ATOM     48  H   UNK d   0      -8.038  12.655  15.991  0.00  0.00     0.167 HD
ENDBRANCH  45  47
ENDBRANCH  44  45
ENDBRANCH  43  44
ENDBRANCH  27  43
BRANCH  24  49
ATOM     49  C   UNK d   0     -12.838  11.178  11.328  0.00  0.00     0.052 C 
BRANCH  49  50
ATOM     50  C   UNK d   0     -13.852  11.700  12.314  0.00  0.00     0.115 C 
BRANCH  50  51
ATOM     51  C   UNK d   0     -13.341  12.304  13.537  0.00  0.00     0.139 C 
ATOM     52  O   UNK d   0     -12.927  13.486  13.585  0.00  0.00    -0.650 OA
BRANCH  51  53
ATOM     53  O   UNK d   0     -13.301  11.559  14.705  0.00  0.00    -0.776 OA
ATOM     54  H   UNK d   0     -14.132  11.513  15.269  0.00  0.00     0.167 HD
ENDBRANCH  51  53
ENDBRANCH  50  51
ENDBRANCH  49  50
ENDBRANCH  24  49
BRANCH  21  55
ATOM     55  C   UNK d   0     -14.321   9.439   9.250  0.00  0.00     0.151 C 
BRANCH  55  56
ATOM     56  C   UNK d   0     -15.759   9.256   9.501  0.00  0.00     0.143 C 
ATOM     57  O   UNK d   0     -16.384   9.911  10.358  0.00  0.00    -0.650 OA
BRANCH  56  58
ATOM     58  O   UNK d   0     -16.435   8.304   8.738  0.00  0.00    -0.776 OA
ATOM     59  H   UNK d   0     -17.278   8.656   8.249  0.00  0.00     0.167 HD
ENDBRANCH  56  58
ENDBRANCH  55  56
ENDBRANCH  21  55
BRANCH  18  60
ATOM     60  C   UNK d   0     -15.896   4.373  10.065  0.00  0.00     0.151 C 
BRANCH  60  61
ATOM     61  C   UNK d   0     -15.872   3.707   8.754  0.00  0.00     0.143 C 
ATOM     62  O   UNK d   0     -16.610   2.800   8.368  0.00  0.00    -0.650 OA
BRANCH  61  63
ATOM     63  O   UNK d   0     -14.884   4.180   7.856  0.00  0.00    -0.776 OA
ATOM     64  H   UNK d   0     -14.757   5.163   7.697  0.00  0.00     0.167 HD
ENDBRANCH  61  63
ENDBRANCH  60  61
ENDBRANCH  18  60
BRANCH  14  65
ATOM     65  C   UNK d   0     -14.908   1.777  11.286  0.00  0.00     0.052 C 
BRANCH  65  66
ATOM     66  C   UNK d   0     -15.732   1.661  12.519  0.00  0.00     0.115 C 
BRANCH  66  67
ATOM     67  C   UNK d   0     -15.131   1.190  13.735  0.00  0.00     0.139 C 
ATOM     68  O   UNK d   0     -15.010   2.010  14.718  0.00  0.00    -0.650 OA
BRANCH  67  69
ATOM     69  O   UNK d   0     -14.640  -0.087  14.005  0.00  0.00    -0.776 OA
ATOM     70  H   UNK d   0     -15.142  -0.615  14.734  0.00  0.00     0.167 HD
ENDBRANCH  67  69
ENDBRANCH  66  67
ENDBRANCH  65  66
ENDBRANCH  14  65
ENDBRANCH   6   7
ENDBRANCH   5   6
ENDBRANCH   2   5
TORSDOF 28
ENDMDL
MODEL 12
REMARK VINA RESULT:      -6.6     21.309     25.846
REMARK  28 active torsions:
REMARK  status: ('A' for Active; 'I' for Inactive)
REMARK    1  A    between atoms: C_2  and  O_3 
REMARK    2  A    between atoms: C_2  and  C_4 
REMARK    3  A    between atoms: C_4  and  C_5 
REMARK    4  A    between atoms: C_5  and  C_6 
REMARK    5  A    between atoms: C_7  and  C_8 
REMARK    6  A    between atoms: C_8  and  C_9 
REMARK    7  A    between atoms: C_9  and  O_11 
REMARK    8  A    between atoms: C_28  and  C_29 
REMARK    9  A    between atoms: C_29  and  C_30 
REMARK   10  A    between atoms: C_30  and  O_32 
REMARK   11  A    between atoms: C_33  and  C_34 
REMARK   12  A    between atoms: C_34  and  C_35 
REMARK   13  A    between atoms: C_35  and  C_36 
REMARK   14  A    between atoms: C_36  and  O_38 
REMARK   15  A    between atoms: C_39  and  C_40 
REMARK   16  A    between atoms: C_40  and  C_41 
REMARK   17  A    between atoms: C_41  and  C_42 
REMARK   18  A    between atoms: C_42  and  O_44 
REMARK   19  A    between atoms: C_45  and  C_46 
REMARK   20  A    between atoms: C_46  and  C_47 
REMARK   21  A    between atoms: C_47  and  O_49 
REMARK   22  A    between atoms: C_50  and  C_51 
REMARK   23  A    between atoms: C_51  and  C_52 
REMARK   24  A    between atoms: C_52  and  O_54 
REMARK   25  A    between atoms: C_55  and  C_56 
REMARK   26  A    between atoms: C_56  and  C_57 
REMARK   27  A    between atoms: C_57  and  C_58 
REMARK   28  A    between atoms: C_58  and  O_60 
ROOT
ATOM      1  O   UNK d   0      -9.955   3.933  18.827  0.00  0.00    -0.650 OA
ATOM      2  C   UNK d   0      -9.594   3.401  17.754  0.00  0.00     0.139 C 
ENDROOT
BRANCH   2   3
ATOM      3  O   UNK d   0      -8.327   3.636  17.278  0.00  0.00    -0.776 OA
ATOM      4  H   UNK d   0      -8.127   4.447  16.688  0.00  0.00     0.167 HD
ENDBRANCH   2   3
BRANCH   2   5
ATOM      5  C   UNK d   0     -10.533   2.521  17.002  0.00  0.00     0.115 C 
BRANCH   5   6
ATOM      6  C   UNK d   0      -9.935   2.139  15.676  0.00  0.00     0.052 C 
BRANCH   6   7
ATOM      7  C   UNK d   0     -10.677   2.743  14.508  0.00  0.00    -0.020 A 
ATOM      8  C   UNK d   0     -11.335   2.114  13.568  0.00  0.00    -0.011 A 
ATOM      9  C   UNK d   0     -11.874   3.110  12.658  0.00  0.00     0.067 A 
ATOM     10  C   UNK d   0     -12.664   3.100  11.498  0.00  0.00     0.062 C 
ATOM     11  N   UNK d   0     -11.490   4.320  13.116  0.00  0.00    -0.248 NA
ATOM     12  C   UNK d   0     -13.319   4.188  10.910  0.00  0.00     0.041 A 
ATOM     13  N   UNK d   0     -12.914   5.453  10.690  0.00  0.00    -0.355 N 
ATOM     14  C   UNK d   0     -14.655   4.035  10.496  0.00  0.00    -0.022 A 
ATOM     15  C   UNK d   0     -13.962   6.109  10.155  0.00  0.00     0.042 A 
ATOM     16  H   UNK d   0     -11.903   5.870  10.891  0.00  0.00     0.166 HD
ATOM     17  C   UNK d   0     -14.083   7.449   9.736  0.00  0.00     0.062 C 
ATOM     18  C   UNK d   0     -15.071   5.252  10.018  0.00  0.00    -0.013 A 
ATOM     19  C   UNK d   0     -13.669   8.592  10.371  0.00  0.00     0.067 A 
ATOM     20  N   UNK d   0     -12.871   8.439  11.431  0.00  0.00    -0.248 NA
ATOM     21  C   UNK d   0     -13.888  10.019  10.203  0.00  0.00    -0.011 A 
ATOM     22  C   UNK d   0     -12.553   9.663  11.969  0.00  0.00     0.066 A 
ATOM     23  C   UNK d   0     -11.695   9.653  13.058  0.00  0.00     0.062 C 
ATOM     24  C   UNK d   0     -13.236  10.640  11.143  0.00  0.00    -0.020 A 
ATOM     25  C   UNK d   0     -11.037   8.551  13.626  0.00  0.00     0.041 A 
ATOM     26  N   UNK d   0     -11.444   7.297  13.858  0.00  0.00    -0.355 N 
ATOM     27  C   UNK d   0      -9.695   8.705  14.037  0.00  0.00    -0.022 A 
ATOM     28  C   UNK d   0     -10.404   6.644  14.400  0.00  0.00     0.042 A 
ATOM     29  H   UNK d   0     -12.464   6.883  13.665  0.00  0.00     0.166 HD
ATOM     30  C   UNK d   0     -10.273   5.314  14.830  0.00  0.00     0.062 C 
ATOM     31  C   UNK d   0      -9.287   7.502  14.527  0.00  0.00    -0.013 A 
ATOM     32  C   UNK d   0     -10.767   4.168  14.227  0.00  0.00     0.066 A 
BRANCH   8  33
ATOM     33  C   UNK d   0     -11.508   0.655  13.434  0.00  0.00     0.151 C 
BRANCH  33  34
ATOM     34  C   UNK d   0     -10.452   0.028  12.619  0.00  0.00     0.143 C 
ATOM     35  O   UNK d   0      -9.583  -0.684  13.141  0.00  0.00    -0.650 OA
BRANCH  34  36
ATOM     36  O   UNK d   0     -10.433   0.240  11.259  0.00  0.00    -0.776 OA
ATOM     37  H   UNK d   0     -10.914  -0.399  10.612  0.00  0.00     0.167 HD
ENDBRANCH  34  36
ENDBRANCH  33  34
ENDBRANCH   8  33
BRANCH  31  38
ATOM     38  C   UNK d   0      -7.914   7.182  15.072  0.00  0.00     0.151 C 
BRANCH  38  39
ATOM     39  C   UNK d   0      -7.871   7.181  16.519  0.00  0.00     0.143 C 
ATOM     40  O   UNK d   0      -8.638   7.876  17.208  0.00  0.00    -0.650 OA
BRANCH  39  41
ATOM     41  O   UNK d   0      -6.942   6.375  17.177  0.00  0.00    -0.776 OA
ATOM     42  H   UNK d   0      -6.803   6.553  18.177  0.00  0.00     0.167 HD
ENDBRANCH  39  41
ENDBRANCH  38  39
ENDBRANCH  31  38
BRANCH  27  43
ATOM     43  C   UNK d   0      -8.810   9.925  13.984  0.00  0.00     0.052 C 
BRANCH  43  44
ATOM     44  C   UNK d   0      -9.573  11.209  13.995  0.00  0.00     0.115 C 
BRANCH  44  45
ATOM     45  C   UNK d   0      -8.565  12.301  14.007  0.00  0.00     0.139 C 
ATOM     46  O   UNK d   0      -8.223  12.803  12.908  0.00  0.00    -0.650 OA
BRANCH  45  47
ATOM     47  O   UNK d   0      -8.001  12.785  15.168  0.00  0.00    -0.776 OA
ATOM     48  H   UNK d   0      -8.133  13.756  15.493  0.00  0.00     0.167 HD
ENDBRANCH  45  47
ENDBRANCH  44  45
ENDBRANCH  43  44
ENDBRANCH  27  43
BRANCH  24  49
ATOM     49  C   UNK d   0     -13.152  12.099  11.323  0.00  0.00     0.052 C 
BRANCH  49  50
ATOM     50  C   UNK d   0     -12.147  12.689  10.367  0.00  0.00     0.115 C 
BRANCH  50  51
ATOM     51  C   UNK d   0     -11.564  13.974  10.724  0.00  0.00     0.139 C 
ATOM     52  O   UNK d   0     -10.571  14.456  10.128  0.00  0.00    -0.650 OA
BRANCH  51  53
ATOM     53  O   UNK d   0     -12.110  14.711  11.764  0.00  0.00    -0.776 OA
ATOM     54  H   UNK d   0     -12.814  14.277  12.336  0.00  0.00     0.167 HD
ENDBRANCH  51  53
ENDBRANCH  50  51
ENDBRANCH  49  50
ENDBRANCH  24  49
BRANCH  21  55
ATOM     55  C   UNK d   0     -14.722  10.613   9.117  0.00  0.00     0.151 C 
BRANCH  55  56
ATOM     56  C   UNK d   0     -16.128  10.190   9.207  0.00  0.00     0.143 C 
ATOM     57  O   UNK d   0     -16.852  10.457  10.186  0.00  0.00    -0.650 OA
BRANCH  56  58
ATOM     58  O   UNK d   0     -16.656   9.459   8.144  0.00  0.00    -0.776 OA
ATOM     59  H   UNK d   0     -16.906   8.479   8.369  0.00  0.00     0.167 HD
ENDBRANCH  56  58
ENDBRANCH  55  56
ENDBRANCH  21  55
BRANCH  18  60
ATOM     60  C   UNK d   0     -16.449   5.543   9.476  0.00  0.00     0.151 C 
BRANCH  60  61
ATOM     61  C   UNK d   0     -16.288   5.686   8.021  0.00  0.00     0.143 C 
ATOM     62  O   UNK d   0     -16.537   6.682   7.341  0.00  0.00    -0.650 OA
BRANCH  61  63
ATOM     63  O   UNK d   0     -15.792   4.540   7.354  0.00  0.00    -0.776 OA
ATOM     64  H   UNK d   0     -14.946   4.580   6.814  0.00  0.00     0.167 HD
ENDBRANCH  61  63
ENDBRANCH  60  61
ENDBRANCH  18  60
BRANCH  14  65
ATOM     65  C   UNK d   0     -15.526   2.813  10.427  0.00  0.00     0.052 C 
BRANCH  65  66
ATOM     66  C   UNK d   0     -16.147   2.467  11.734  0.00  0.00     0.115 C 
BRANCH  66  67
ATOM     67  C   UNK d   0     -15.928   1.168  12.304  0.00  0.00     0.139 C 
ATOM     68  O   UNK d   0     -14.984   1.028  13.167  0.00  0.00    -0.650 OA
BRANCH  67  69
ATOM     69  O   UNK d   0     -16.626  -0.009  12.040  0.00  0.00    -0.776 OA
ATOM     70  H   UNK d   0     -16.732  -0.656  12.834  0.00  0.00     0.167 HD
ENDBRANCH  67  69
ENDBRANCH  66  67
ENDBRANCH  65  66
ENDBRANCH  14  65
ENDBRANCH   6   7
ENDBRANCH   5   6
ENDBRANCH   2   5
TORSDOF 28
ENDMDL
MODEL 13
REMARK VINA RESULT:      -6.6     21.032     24.722
REMARK  28 active torsions:
REMARK  status: ('A' for Active; 'I' for Inactive)
REMARK    1  A    between atoms: C_2  and  O_3 
REMARK    2  A    between atoms: C_2  and  C_4 
REMARK    3  A    between atoms: C_4  and  C_5 
REMARK    4  A    between atoms: C_5  and  C_6 
REMARK    5  A    between atoms: C_7  and  C_8 
REMARK    6  A    between atoms: C_8  and  C_9 
REMARK    7  A    between atoms: C_9  and  O_11 
REMARK    8  A    between atoms: C_28  and  C_29 
REMARK    9  A    between atoms: C_29  and  C_30 
REMARK   10  A    between atoms: C_30  and  O_32 
REMARK   11  A    between atoms: C_33  and  C_34 
REMARK   12  A    between atoms: C_34  and  C_35 
REMARK   13  A    between atoms: C_35  and  C_36 
REMARK   14  A    between atoms: C_36  and  O_38 
REMARK   15  A    between atoms: C_39  and  C_40 
REMARK   16  A    between atoms: C_40  and  C_41 
REMARK   17  A    between atoms: C_41  and  C_42 
REMARK   18  A    between atoms: C_42  and  O_44 
REMARK   19  A    between atoms: C_45  and  C_46 
REMARK   20  A    between atoms: C_46  and  C_47 
REMARK   21  A    between atoms: C_47  and  O_49 
REMARK   22  A    between atoms: C_50  and  C_51 
REMARK   23  A    between atoms: C_51  and  C_52 
REMARK   24  A    between atoms: C_52  and  O_54 
REMARK   25  A    between atoms: C_55  and  C_56 
REMARK   26  A    between atoms: C_56  and  C_57 
REMARK   27  A    between atoms: C_57  and  C_58 
REMARK   28  A    between atoms: C_58  and  O_60 
ROOT
ATOM      1  O   UNK d   0      -9.297  -0.895  22.406  0.00  0.00    -0.650 OA
ATOM      2  C   UNK d   0      -9.215  -0.995  21.161  0.00  0.00     0.139 C 
ENDROOT
BRANCH   2   3
ATOM      3  O   UNK d   0      -9.004  -2.230  20.597  0.00  0.00    -0.776 OA
ATOM      4  H   UNK d   0      -9.720  -2.676  20.021  0.00  0.00     0.167 HD
ENDBRANCH   2   3
BRANCH   2   5
ATOM      5  C   UNK d   0      -9.345   0.217  20.303  0.00  0.00     0.115 C 
BRANCH   5   6
ATOM      6  C   UNK d   0     -10.787   0.639  20.220  0.00  0.00     0.052 C 
BRANCH   6   7
ATOM      7  C   UNK d   0     -11.341   0.540  18.819  0.00  0.00    -0.020 A 
ATOM      8  C   UNK d   0     -12.024  -0.447  18.298  0.00  0.00    -0.011 A 
ATOM      9  C   UNK d   0     -12.334  -0.097  16.922  0.00  0.00     0.067 A 
ATOM     10  C   UNK d   0     -13.033  -0.690  15.859  0.00  0.00     0.062 C 
ATOM     11  N   UNK d   0     -11.796   1.118  16.687  0.00  0.00    -0.248 NA
ATOM     12  C   UNK d   0     -13.466  -0.073  14.680  0.00  0.00     0.041 A 
ATOM     13  N   UNK d   0     -12.852   0.802  13.861  0.00  0.00    -0.355 N 
ATOM     14  C   UNK d   0     -14.777  -0.311  14.229  0.00  0.00    -0.022 A 
ATOM     15  C   UNK d   0     -13.742   1.131  12.906  0.00  0.00     0.042 A 
ATOM     16  H   UNK d   0     -11.804   1.164  13.945  0.00  0.00     0.166 HD
ATOM     17  C   UNK d   0     -13.621   2.002  11.806  0.00  0.00     0.062 C 
ATOM     18  C   UNK d   0     -14.961   0.453  13.104  0.00  0.00    -0.013 A 
ATOM     19  C   UNK d   0     -13.077   3.260  11.757  0.00  0.00     0.067 A 
ATOM     20  N   UNK d   0     -12.388   3.663  12.828  0.00  0.00    -0.248 NA
ATOM     21  C   UNK d   0     -13.055   4.353  10.799  0.00  0.00    -0.011 A 
ATOM     22  C   UNK d   0     -11.920   4.940  12.641  0.00  0.00     0.066 A 
ATOM     23  C   UNK d   0     -11.151   5.471  13.667  0.00  0.00     0.062 C 
ATOM     24  C   UNK d   0     -12.380   5.334  11.324  0.00  0.00    -0.020 A 
ATOM     25  C   UNK d   0     -10.717   4.830  14.837  0.00  0.00     0.041 A 
ATOM     26  N   UNK d   0     -11.332   3.972  15.660  0.00  0.00    -0.355 N 
ATOM     27  C   UNK d   0      -9.400   5.066  15.287  0.00  0.00    -0.022 A 
ATOM     28  C   UNK d   0     -10.449   3.649  16.618  0.00  0.00     0.042 A 
ATOM     29  H   UNK d   0     -12.389   3.617  15.581  0.00  0.00     0.166 HD
ATOM     30  C   UNK d   0     -10.559   2.791  17.724  0.00  0.00     0.062 C 
ATOM     31  C   UNK d   0      -9.221   4.322  16.412  0.00  0.00    -0.013 A 
ATOM     32  C   UNK d   0     -11.186   1.557  17.789  0.00  0.00     0.066 A 
BRANCH   8  33
ATOM     33  C   UNK d   0     -12.415  -1.702  18.967  0.00  0.00     0.151 C 
BRANCH  33  34
ATOM     34  C   UNK d   0     -11.767  -2.888  18.379  0.00  0.00     0.143 C 
ATOM     35  O   UNK d   0     -12.436  -3.871  18.029  0.00  0.00    -0.650 OA
BRANCH  34  36
ATOM     36  O   UNK d   0     -10.401  -2.902  18.220  0.00  0.00    -0.776 OA
ATOM     37  H   UNK d   0      -9.905  -3.757  17.934  0.00  0.00     0.167 HD
ENDBRANCH  34  36
ENDBRANCH  33  34
ENDBRANCH   8  33
BRANCH  31  38
ATOM     38  C   UNK d   0      -7.958   4.243  17.238  0.00  0.00     0.151 C 
BRANCH  38  39
ATOM     39  C   UNK d   0      -7.894   5.261  18.265  0.00  0.00     0.143 C 
ATOM     40  O   UNK d   0      -8.912   5.798  18.734  0.00  0.00    -0.650 OA
BRANCH  39  41
ATOM     41  O   UNK d   0      -6.652   5.663  18.755  0.00  0.00    -0.776 OA
ATOM     42  H   UNK d   0      -6.142   4.986  19.332  0.00  0.00     0.167 HD
ENDBRANCH  39  41
ENDBRANCH  38  39
ENDBRANCH  31  38
BRANCH  27  43
ATOM     43  C   UNK d   0      -8.331   5.954  14.699  0.00  0.00     0.052 C 
BRANCH  43  44
ATOM     44  C   UNK d   0      -8.356   7.346  15.242  0.00  0.00     0.115 C 
BRANCH  44  45
ATOM     45  C   UNK d   0      -6.970   7.655  15.681  0.00  0.00     0.139 C 
ATOM     46  O   UNK d   0      -6.134   6.717  15.707  0.00  0.00    -0.650 OA
BRANCH  45  47
ATOM     47  O   UNK d   0      -6.568   8.919  16.054  0.00  0.00    -0.776 OA
ATOM     48  H   UNK d   0      -5.816   9.434  15.568  0.00  0.00     0.167 HD
ENDBRANCH  45  47
ENDBRANCH  44  45
ENDBRANCH  43  44
ENDBRANCH  27  43
BRANCH  24  49
ATOM     49  C   UNK d   0     -12.079   6.624  10.680  0.00  0.00     0.052 C 
BRANCH  49  50
ATOM     50  C   UNK d   0     -13.179   7.617  10.954  0.00  0.00     0.115 C 
BRANCH  50  51
ATOM     51  C   UNK d   0     -13.919   8.123   9.805  0.00  0.00     0.139 C 
ATOM     52  O   UNK d   0     -14.846   7.478   9.260  0.00  0.00    -0.650 OA
BRANCH  51  53
ATOM     53  O   UNK d   0     -13.601   9.365   9.277  0.00  0.00    -0.776 OA
ATOM     54  H   UNK d   0     -13.721   9.506   8.289  0.00  0.00     0.167 HD
ENDBRANCH  51  53
ENDBRANCH  50  51
ENDBRANCH  49  50
ENDBRANCH  24  49
BRANCH  21  55
ATOM     55  C   UNK d   0     -13.708   4.300   9.458  0.00  0.00     0.151 C 
BRANCH  55  56
ATOM     56  C   UNK d   0     -12.804   3.770   8.425  0.00  0.00     0.143 C 
ATOM     57  O   UNK d   0     -12.087   4.501   7.715  0.00  0.00    -0.650 OA
BRANCH  56  58
ATOM     58  O   UNK d   0     -12.762   2.388   8.248  0.00  0.00    -0.776 OA
ATOM     59  H   UNK d   0     -12.482   1.849   9.087  0.00  0.00     0.167 HD
ENDBRANCH  56  58
ENDBRANCH  55  56
ENDBRANCH  21  55
BRANCH  18  60
ATOM     60  C   UNK d   0     -16.234   0.510  12.297  0.00  0.00     0.151 C 
BRANCH  60  61
ATOM     61  C   UNK d   0     -16.966   1.691  12.780  0.00  0.00     0.143 C 
ATOM     62  O   UNK d   0     -17.458   1.854  13.897  0.00  0.00    -0.650 OA
BRANCH  61  63
ATOM     63  O   UNK d   0     -17.106   2.740  11.840  0.00  0.00    -0.776 OA
ATOM     64  H   UNK d   0     -17.759   3.488  11.991  0.00  0.00     0.167 HD
ENDBRANCH  61  63
ENDBRANCH  60  61
ENDBRANCH  18  60
BRANCH  14  65
ATOM     65  C   UNK d   0     -15.824  -1.271  14.719  0.00  0.00     0.052 C 
BRANCH  65  66
ATOM     66  C   UNK d   0     -15.869  -2.533  13.934  0.00  0.00     0.115 C 
BRANCH  66  67
ATOM     67  C   UNK d   0     -16.639  -3.645  14.416  0.00  0.00     0.139 C 
ATOM     68  O   UNK d   0     -16.491  -4.788  13.846  0.00  0.00    -0.650 OA
BRANCH  67  69
ATOM     69  O   UNK d   0     -17.563  -3.653  15.461  0.00  0.00    -0.776 OA
ATOM     70  H   UNK d   0     -18.261  -2.895  15.448  0.00  0.00     0.167 HD
ENDBRANCH  67  69
ENDBRANCH  66  67
ENDBRANCH  65  66
ENDBRANCH  14  65
ENDBRANCH   6   7
ENDBRANCH   5   6
ENDBRANCH   2   5
TORSDOF 28
ENDMDL
MODEL 14
REMARK VINA RESULT:      -6.6     21.440     25.047
REMARK  28 active torsions:
REMARK  status: ('A' for Active; 'I' for Inactive)
REMARK    1  A    between atoms: C_2  and  O_3 
REMARK    2  A    between atoms: C_2  and  C_4 
REMARK    3  A    between atoms: C_4  and  C_5 
REMARK    4  A    between atoms: C_5  and  C_6 
REMARK    5  A    between atoms: C_7  and  C_8 
REMARK    6  A    between atoms: C_8  and  C_9 
REMARK    7  A    between atoms: C_9  and  O_11 
REMARK    8  A    between atoms: C_28  and  C_29 
REMARK    9  A    between atoms: C_29  and  C_30 
REMARK   10  A    between atoms: C_30  and  O_32 
REMARK   11  A    between atoms: C_33  and  C_34 
REMARK   12  A    between atoms: C_34  and  C_35 
REMARK   13  A    between atoms: C_35  and  C_36 
REMARK   14  A    between atoms: C_36  and  O_38 
REMARK   15  A    between atoms: C_39  and  C_40 
REMARK   16  A    between atoms: C_40  and  C_41 
REMARK   17  A    between atoms: C_41  and  C_42 
REMARK   18  A    between atoms: C_42  and  O_44 
REMARK   19  A    between atoms: C_45  and  C_46 
REMARK   20  A    between atoms: C_46  and  C_47 
REMARK   21  A    between atoms: C_47  and  O_49 
REMARK   22  A    between atoms: C_50  and  C_51 
REMARK   23  A    between atoms: C_51  and  C_52 
REMARK   24  A    between atoms: C_52  and  O_54 
REMARK   25  A    between atoms: C_55  and  C_56 
REMARK   26  A    between atoms: C_56  and  C_57 
REMARK   27  A    between atoms: C_57  and  C_58 
REMARK   28  A    between atoms: C_58  and  O_60 
ROOT
ATOM      1  O   UNK d   0     -18.771   8.689   8.622  0.00  0.00    -0.650 OA
ATOM      2  C   UNK d   0     -17.531   8.783   8.485  0.00  0.00     0.139 C 
ENDROOT
BRANCH   2   3
ATOM      3  O   UNK d   0     -17.022   9.400   7.368  0.00  0.00    -0.776 OA
ATOM      4  H   UNK d   0     -17.288   9.095   6.429  0.00  0.00     0.167 HD
ENDBRANCH   2   3
BRANCH   2   5
ATOM      5  C   UNK d   0     -16.620   8.230   9.526  0.00  0.00     0.115 C 
BRANCH   5   6
ATOM      6  C   UNK d   0     -15.818   7.090   8.960  0.00  0.00     0.052 C 
BRANCH   6   7
ATOM      7  C   UNK d   0     -15.131   6.274  10.029  0.00  0.00    -0.020 A 
ATOM      8  C   UNK d   0     -15.414   5.054  10.407  0.00  0.00    -0.011 A 
ATOM      9  C   UNK d   0     -14.491   4.693  11.471  0.00  0.00     0.067 A 
ATOM     10  C   UNK d   0     -14.254   3.560  12.264  0.00  0.00     0.062 C 
ATOM     11  N   UNK d   0     -13.685   5.755  11.680  0.00  0.00    -0.248 NA
ATOM     12  C   UNK d   0     -13.129   3.299  13.054  0.00  0.00     0.041 A 
ATOM     13  N   UNK d   0     -12.423   4.094  13.881  0.00  0.00    -0.355 N 
ATOM     14  C   UNK d   0     -12.536   2.025  12.994  0.00  0.00    -0.022 A 
ATOM     15  C   UNK d   0     -11.392   3.359  14.341  0.00  0.00     0.042 A 
ATOM     16  H   UNK d   0     -12.659   5.147  14.149  0.00  0.00     0.166 HD
ATOM     17  C   UNK d   0     -10.355   3.698  15.232  0.00  0.00     0.062 C 
ATOM     18  C   UNK d   0     -11.429   2.057  13.807  0.00  0.00    -0.013 A 
ATOM     19  C   UNK d   0      -9.585   4.833  15.267  0.00  0.00     0.067 A 
ATOM     20  N   UNK d   0      -9.973   5.851  14.495  0.00  0.00    -0.248 NA
ATOM     21  C   UNK d   0      -8.373   5.252  15.951  0.00  0.00    -0.011 A 
ATOM     22  C   UNK d   0      -9.102   6.906  14.623  0.00  0.00     0.066 A 
ATOM     23  C   UNK d   0      -9.409   8.050  13.901  0.00  0.00     0.062 C 
ATOM     24  C   UNK d   0      -8.094   6.465  15.567  0.00  0.00    -0.020 A 
ATOM     25  C   UNK d   0     -10.551   8.296  13.123  0.00  0.00     0.041 A 
ATOM     26  N   UNK d   0     -11.243   7.511  12.290  0.00  0.00    -0.355 N 
ATOM     27  C   UNK d   0     -11.148   9.574  13.188  0.00  0.00    -0.022 A 
ATOM     28  C   UNK d   0     -12.267   8.244  11.823  0.00  0.00     0.042 A 
ATOM     29  H   UNK d   0     -10.999   6.456  12.013  0.00  0.00     0.166 HD
ATOM     30  C   UNK d   0     -13.301   7.922  10.930  0.00  0.00     0.062 C 
ATOM     31  C   UNK d   0     -12.235   9.549  12.369  0.00  0.00    -0.013 A 
ATOM     32  C   UNK d   0     -14.019   6.740  10.844  0.00  0.00     0.066 A 
BRANCH   8  33
ATOM     33  C   UNK d   0     -16.476   4.184   9.870  0.00  0.00     0.151 C 
BRANCH  33  34
ATOM     34  C   UNK d   0     -16.006   3.323   8.770  0.00  0.00     0.143 C 
ATOM     35  O   UNK d   0     -16.133   3.674   7.588  0.00  0.00    -0.650 OA
BRANCH  34  36
ATOM     36  O   UNK d   0     -15.420   2.113   9.062  0.00  0.00    -0.776 OA
ATOM     37  H   UNK d   0     -14.505   2.062   9.530  0.00  0.00     0.167 HD
ENDBRANCH  34  36
ENDBRANCH  33  34
ENDBRANCH   8  33
BRANCH  31  38
ATOM     38  C   UNK d   0     -13.195  10.691  12.127  0.00  0.00     0.151 C 
BRANCH  38  39
ATOM     39  C   UNK d   0     -14.176  10.832  13.181  0.00  0.00     0.143 C 
ATOM     40  O   UNK d   0     -14.410  11.922  13.731  0.00  0.00    -0.650 OA
BRANCH  39  41
ATOM     41  O   UNK d   0     -14.894   9.714  13.604  0.00  0.00    -0.776 OA
ATOM     42  H   UNK d   0     -15.088   8.996  12.899  0.00  0.00     0.167 HD
ENDBRANCH  39  41
ENDBRANCH  38  39
ENDBRANCH  31  38
BRANCH  27  43
ATOM     43  C   UNK d   0     -10.731  10.788  13.979  0.00  0.00     0.052 C 
BRANCH  43  44
ATOM     44  C   UNK d   0      -9.759  11.661  13.253  0.00  0.00     0.115 C 
BRANCH  44  45
ATOM     45  C   UNK d   0      -8.639  11.922  14.194  0.00  0.00     0.139 C 
ATOM     46  O   UNK d   0      -8.413  13.111  14.530  0.00  0.00    -0.650 OA
BRANCH  45  47
ATOM     47  O   UNK d   0      -7.849  10.919  14.712  0.00  0.00    -0.776 OA
ATOM     48  H   UNK d   0      -7.491  10.136  14.141  0.00  0.00     0.167 HD
ENDBRANCH  45  47
ENDBRANCH  44  45
ENDBRANCH  43  44
ENDBRANCH  27  43
BRANCH  24  49
ATOM     49  C   UNK d   0      -6.969   7.288  16.041  0.00  0.00     0.052 C 
BRANCH  49  50
ATOM     50  C   UNK d   0      -7.382   8.097  17.245  0.00  0.00     0.115 C 
BRANCH  50  51
ATOM     51  C   UNK d   0      -6.490   9.170  17.663  0.00  0.00     0.139 C 
ATOM     52  O   UNK d   0      -6.126   9.322  18.853  0.00  0.00    -0.650 OA
BRANCH  51  53
ATOM     53  O   UNK d   0      -6.014  10.072  16.724  0.00  0.00    -0.776 OA
ATOM     54  H   UNK d   0      -6.682  10.630  16.220  0.00  0.00     0.167 HD
ENDBRANCH  51  53
ENDBRANCH  50  51
ENDBRANCH  49  50
ENDBRANCH  24  49
BRANCH  21  55
ATOM     55  C   UNK d   0      -7.623   4.400  16.920  0.00  0.00     0.151 C 
BRANCH  55  56
ATOM     56  C   UNK d   0      -8.354   4.231  18.186  0.00  0.00     0.143 C 
ATOM     57  O   UNK d   0      -8.411   3.143  18.792  0.00  0.00    -0.650 OA
BRANCH  56  58
ATOM     58  O   UNK d   0      -9.003   5.345  18.714  0.00  0.00    -0.776 OA
ATOM     59  H   UNK d   0      -9.630   5.839  18.054  0.00  0.00     0.167 HD
ENDBRANCH  56  58
ENDBRANCH  55  56
ENDBRANCH  21  55
BRANCH  18  60
ATOM     60  C   UNK d   0     -10.489   0.899  14.032  0.00  0.00     0.151 C 
BRANCH  60  61
ATOM     61  C   UNK d   0     -11.037   0.150  15.173  0.00  0.00     0.143 C 
ATOM     62  O   UNK d   0     -11.972   0.485  15.901  0.00  0.00    -0.650 OA
BRANCH  61  63
ATOM     63  O   UNK d   0     -10.403  -1.088  15.442  0.00  0.00    -0.776 OA
ATOM     64  H   UNK d   0     -10.500  -1.536  16.336  0.00  0.00     0.167 HD
ENDBRANCH  61  63
ENDBRANCH  60  61
ENDBRANCH  18  60
BRANCH  14  65
ATOM     65  C   UNK d   0     -12.986   0.764  12.312  0.00  0.00     0.052 C 
BRANCH  65  66
ATOM     66  C   UNK d   0     -14.105   0.088  13.020  0.00  0.00     0.115 C 
BRANCH  66  67
ATOM     67  C   UNK d   0     -15.332  -0.176  12.322  0.00  0.00     0.139 C 
ATOM     68  O   UNK d   0     -15.710   0.650  11.412  0.00  0.00    -0.650 OA
BRANCH  67  69
ATOM     69  O   UNK d   0     -16.205  -1.248  12.506  0.00  0.00    -0.776 OA
ATOM     70  H   UNK d   0     -15.786  -2.186  12.423  0.00  0.00     0.167 HD
ENDBRANCH  67  69
ENDBRANCH  66  67
ENDBRANCH  65  66
ENDBRANCH  14  65
ENDBRANCH   6   7
ENDBRANCH   5   6
ENDBRANCH   2   5
TORSDOF 28
ENDMDL
MODEL 15
REMARK VINA RESULT:      -6.6      6.075     11.238
REMARK  28 active torsions:
REMARK  status: ('A' for Active; 'I' for Inactive)
REMARK    1  A    between atoms: C_2  and  O_3 
REMARK    2  A    between atoms: C_2  and  C_4 
REMARK    3  A    between atoms: C_4  and  C_5 
REMARK    4  A    between atoms: C_5  and  C_6 
REMARK    5  A    between atoms: C_7  and  C_8 
REMARK    6  A    between atoms: C_8  and  C_9 
REMARK    7  A    between atoms: C_9  and  O_11 
REMARK    8  A    between atoms: C_28  and  C_29 
REMARK    9  A    between atoms: C_29  and  C_30 
REMARK   10  A    between atoms: C_30  and  O_32 
REMARK   11  A    between atoms: C_33  and  C_34 
REMARK   12  A    between atoms: C_34  and  C_35 
REMARK   13  A    between atoms: C_35  and  C_36 
REMARK   14  A    between atoms: C_36  and  O_38 
REMARK   15  A    between atoms: C_39  and  C_40 
REMARK   16  A    between atoms: C_40  and  C_41 
REMARK   17  A    between atoms: C_41  and  C_42 
REMARK   18  A    between atoms: C_42  and  O_44 
REMARK   19  A    between atoms: C_45  and  C_46 
REMARK   20  A    between atoms: C_46  and  C_47 
REMARK   21  A    between atoms: C_47  and  O_49 
REMARK   22  A    between atoms: C_50  and  C_51 
REMARK   23  A    between atoms: C_51  and  C_52 
REMARK   24  A    between atoms: C_52  and  O_54 
REMARK   25  A    between atoms: C_55  and  C_56 
REMARK   26  A    between atoms: C_56  and  C_57 
REMARK   27  A    between atoms: C_57  and  C_58 
REMARK   28  A    between atoms: C_58  and  O_60 
ROOT
ATOM      1  O   UNK d   0     -26.692   5.420  -1.490  0.00  0.00    -0.650 OA
ATOM      2  C   UNK d   0     -26.022   4.365  -1.426  0.00  0.00     0.139 C 
ENDROOT
BRANCH   2   3
ATOM      3  O   UNK d   0     -26.406   3.277  -2.173  0.00  0.00    -0.776 OA
ATOM      4  H   UNK d   0     -26.668   2.396  -1.726  0.00  0.00     0.167 HD
ENDBRANCH   2   3
BRANCH   2   5
ATOM      5  C   UNK d   0     -24.821   4.293  -0.546  0.00  0.00     0.115 C 
BRANCH   5   6
ATOM      6  C   UNK d   0     -25.182   4.700   0.857  0.00  0.00     0.052 C 
BRANCH   6   7
ATOM      7  C   UNK d   0     -25.754   3.559   1.664  0.00  0.00    -0.020 A 
ATOM      8  C   UNK d   0     -25.097   2.655   2.344  0.00  0.00    -0.011 A 
ATOM      9  C   UNK d   0     -26.069   1.759   2.947  0.00  0.00     0.067 A 
ATOM     10  C   UNK d   0     -26.026   0.634   3.785  0.00  0.00     0.062 C 
ATOM     11  N   UNK d   0     -27.294   2.189   2.577  0.00  0.00    -0.248 NA
ATOM     12  C   UNK d   0     -27.089   0.064   4.494  0.00  0.00     0.041 A 
ATOM     13  N   UNK d   0     -28.362  -0.185   4.134  0.00  0.00    -0.355 N 
ATOM     14  C   UNK d   0     -26.896  -0.291   5.842  0.00  0.00    -0.022 A 
ATOM     15  C   UNK d   0     -28.984  -0.681   5.221  0.00  0.00     0.042 A 
ATOM     16  H   UNK d   0     -28.808  -0.031   3.127  0.00  0.00     0.166 HD
ATOM     17  C   UNK d   0     -30.316  -1.107   5.396  0.00  0.00     0.062 C 
ATOM     18  C   UNK d   0     -28.096  -0.763   6.311  0.00  0.00    -0.013 A 
ATOM     19  C   UNK d   0     -31.476  -0.501   4.987  0.00  0.00     0.067 A 
ATOM     20  N   UNK d   0     -31.356   0.525   4.140  0.00  0.00    -0.248 NA
ATOM     21  C   UNK d   0     -32.895  -0.674   5.251  0.00  0.00    -0.011 A 
ATOM     22  C   UNK d   0     -32.593   1.037   3.834  0.00  0.00     0.066 A 
ATOM     23  C   UNK d   0     -32.618   2.089   2.930  0.00  0.00     0.062 C 
ATOM     24  C   UNK d   0     -33.543   0.232   4.577  0.00  0.00    -0.020 A 
ATOM     25  C   UNK d   0     -31.540   2.638   2.219  0.00  0.00     0.041 A 
ATOM     26  N   UNK d   0     -30.279   2.899   2.581  0.00  0.00    -0.355 N 
ATOM     27  C   UNK d   0     -31.734   2.990   0.866  0.00  0.00    -0.022 A 
ATOM     28  C   UNK d   0     -29.659   3.403   1.502  0.00  0.00     0.042 A 
ATOM     29  H   UNK d   0     -29.835   2.754   3.597  0.00  0.00     0.166 HD
ATOM     30  C   UNK d   0     -28.338   3.839   1.316  0.00  0.00     0.062 C 
ATOM     31  C   UNK d   0     -30.549   3.474   0.404  0.00  0.00    -0.013 A 
ATOM     32  C   UNK d   0     -27.173   3.269   1.805  0.00  0.00     0.066 A 
BRANCH   8  33
ATOM     33  C   UNK d   0     -23.633   2.542   2.482  0.00  0.00     0.151 C 
BRANCH  33  34
ATOM     34  C   UNK d   0     -23.179   2.683   3.878  0.00  0.00     0.143 C 
ATOM     35  O   UNK d   0     -23.603   3.601   4.595  0.00  0.00    -0.650 OA
BRANCH  34  36
ATOM     36  O   UNK d   0     -22.272   1.784   4.387  0.00  0.00    -0.776 OA
ATOM     37  H   UNK d   0     -21.856   1.051   3.796  0.00  0.00     0.167 HD
ENDBRANCH  34  36
ENDBRANCH  33  34
ENDBRANCH   8  33
BRANCH  31  38
ATOM     38  C   UNK d   0     -30.271   3.963  -0.998  0.00  0.00     0.151 C 
BRANCH  38  39
ATOM     39  C   UNK d   0     -29.858   2.902  -1.892  0.00  0.00     0.143 C 
ATOM     40  O   UNK d   0     -29.057   2.015  -1.547  0.00  0.00    -0.650 OA
BRANCH  39  41
ATOM     41  O   UNK d   0     -30.371   2.858  -3.188  0.00  0.00    -0.776 OA
ATOM     42  H   UNK d   0     -31.122   3.519  -3.410  0.00  0.00     0.167 HD
ENDBRANCH  39  41
ENDBRANCH  38  39
ENDBRANCH  31  38
BRANCH  27  43
ATOM     43  C   UNK d   0     -32.977   2.888   0.017  0.00  0.00     0.052 C 
BRANCH  43  44
ATOM     44  C   UNK d   0     -33.068   1.605  -0.745  0.00  0.00     0.115 C 
BRANCH  44  45
ATOM     45  C   UNK d   0     -33.538   1.955  -2.110  0.00  0.00     0.139 C 
ATOM     46  O   UNK d   0     -34.208   1.101  -2.742  0.00  0.00    -0.650 OA
BRANCH  45  47
ATOM     47  O   UNK d   0     -33.275   3.171  -2.703  0.00  0.00    -0.776 OA
ATOM     48  H   UNK d   0     -33.983   3.918  -2.787  0.00  0.00     0.167 HD
ENDBRANCH  45  47
ENDBRANCH  44  45
ENDBRANCH  43  44
ENDBRANCH  27  43
BRANCH  24  49
ATOM     49  C   UNK d   0     -35.006   0.395   4.525  0.00  0.00     0.052 C 
BRANCH  49  50
ATOM     50  C   UNK d   0     -35.434   1.560   5.380  0.00  0.00     0.115 C 
BRANCH  50  51
ATOM     51  C   UNK d   0     -36.390   2.493   4.800  0.00  0.00     0.139 C 
ATOM     52  O   UNK d   0     -36.179   3.094   3.720  0.00  0.00    -0.650 OA
BRANCH  51  53
ATOM     53  O   UNK d   0     -37.587   2.744   5.453  0.00  0.00    -0.776 OA
ATOM     54  H   UNK d   0     -37.552   3.146   6.373  0.00  0.00     0.167 HD
ENDBRANCH  51  53
ENDBRANCH  50  51
ENDBRANCH  49  50
ENDBRANCH  24  49
BRANCH  21  55
ATOM     55  C   UNK d   0     -33.454  -1.729   6.147  0.00  0.00     0.151 C 
BRANCH  55  56
ATOM     56  C   UNK d   0     -33.716  -2.983   5.425  0.00  0.00     0.143 C 
ATOM     57  O   UNK d   0     -34.629  -3.100   4.584  0.00  0.00    -0.650 OA
BRANCH  56  58
ATOM     58  O   UNK d   0     -32.899  -4.077   5.706  0.00  0.00    -0.776 OA
ATOM     59  H   UNK d   0     -32.748  -4.724   4.912  0.00  0.00     0.167 HD
ENDBRANCH  56  58
ENDBRANCH  55  56
ENDBRANCH  21  55
BRANCH  18  60
ATOM     60  C   UNK d   0     -28.345  -1.248   7.718  0.00  0.00     0.151 C 
BRANCH  60  61
ATOM     61  C   UNK d   0     -28.940  -0.112   8.438  0.00  0.00     0.143 C 
ATOM     62  O   UNK d   0     -30.139   0.119   8.597  0.00  0.00    -0.650 OA
BRANCH  61  63
ATOM     63  O   UNK d   0     -28.013   0.798   8.999  0.00  0.00    -0.776 OA
ATOM     64  H   UNK d   0     -27.432   0.534   9.775  0.00  0.00     0.167 HD
ENDBRANCH  61  63
ENDBRANCH  60  61
ENDBRANCH  18  60
BRANCH  14  65
ATOM     65  C   UNK d   0     -25.650  -0.311   6.682  0.00  0.00     0.052 C 
BRANCH  65  66
ATOM     66  C   UNK d   0     -25.147   1.050   7.008  0.00  0.00     0.115 C 
BRANCH  66  67
ATOM     67  C   UNK d   0     -23.756   1.241   7.308  0.00  0.00     0.139 C 
ATOM     68  O   UNK d   0     -23.043   0.211   7.597  0.00  0.00    -0.650 OA
BRANCH  67  69
ATOM     69  O   UNK d   0     -23.045   2.441   7.331  0.00  0.00    -0.776 OA
ATOM     70  H   UNK d   0     -23.573   3.280   7.051  0.00  0.00     0.167 HD
ENDBRANCH  67  69
ENDBRANCH  66  67
ENDBRANCH  65  66
ENDBRANCH  14  65
ENDBRANCH   6   7
ENDBRANCH   5   6
ENDBRANCH   2   5
TORSDOF 28
ENDMDL
MODEL 16
REMARK VINA RESULT:      -6.6     21.855     25.698
REMARK  28 active torsions:
REMARK  status: ('A' for Active; 'I' for Inactive)
REMARK    1  A    between atoms: C_2  and  O_3 
REMARK    2  A    between atoms: C_2  and  C_4 
REMARK    3  A    between atoms: C_4  and  C_5 
REMARK    4  A    between atoms: C_5  and  C_6 
REMARK    5  A    between atoms: C_7  and  C_8 
REMARK    6  A    between atoms: C_8  and  C_9 
REMARK    7  A    between atoms: C_9  and  O_11 
REMARK    8  A    between atoms: C_28  and  C_29 
REMARK    9  A    between atoms: C_29  and  C_30 
REMARK   10  A    between atoms: C_30  and  O_32 
REMARK   11  A    between atoms: C_33  and  C_34 
REMARK   12  A    between atoms: C_34  and  C_35 
REMARK   13  A    between atoms: C_35  and  C_36 
REMARK   14  A    between atoms: C_36  and  O_38 
REMARK   15  A    between atoms: C_39  and  C_40 
REMARK   16  A    between atoms: C_40  and  C_41 
REMARK   17  A    between atoms: C_41  and  C_42 
REMARK   18  A    between atoms: C_42  and  O_44 
REMARK   19  A    between atoms: C_45  and  C_46 
REMARK   20  A    between atoms: C_46  and  C_47 
REMARK   21  A    between atoms: C_47  and  O_49 
REMARK   22  A    between atoms: C_50  and  C_51 
REMARK   23  A    between atoms: C_51  and  C_52 
REMARK   24  A    between atoms: C_52  and  O_54 
REMARK   25  A    between atoms: C_55  and  C_56 
REMARK   26  A    between atoms: C_56  and  C_57 
REMARK   27  A    between atoms: C_57  and  C_58 
REMARK   28  A    between atoms: C_58  and  O_60 
ROOT
ATOM      1  O   UNK d   0     -18.636  -1.695  16.274  0.00  0.00    -0.650 OA
ATOM      2  C   UNK d   0     -17.622  -1.487  15.572  0.00  0.00     0.139 C 
ENDROOT
BRANCH   2   3
ATOM      3  O   UNK d   0     -17.517  -2.093  14.344  0.00  0.00    -0.776 OA
ATOM      4  H   UNK d   0     -16.774  -1.836  13.690  0.00  0.00     0.167 HD
ENDBRANCH   2   3
BRANCH   2   5
ATOM      5  C   UNK d   0     -16.540  -0.590  16.069  0.00  0.00     0.115 C 
BRANCH   5   6
ATOM      6  C   UNK d   0     -15.193  -1.153  15.704  0.00  0.00     0.052 C 
BRANCH   6   7
ATOM      7  C   UNK d   0     -14.302  -0.137  15.031  0.00  0.00    -0.020 A 
ATOM      8  C   UNK d   0     -14.180   0.093  13.748  0.00  0.00    -0.011 A 
ATOM      9  C   UNK d   0     -13.200   1.152  13.577  0.00  0.00     0.067 A 
ATOM     10  C   UNK d   0     -12.649   1.856  12.495  0.00  0.00     0.062 C 
ATOM     11  N   UNK d   0     -12.772   1.505  14.807  0.00  0.00    -0.248 NA
ATOM     12  C   UNK d   0     -11.914   3.045  12.544  0.00  0.00     0.041 A 
ATOM     13  N   UNK d   0     -10.935   3.449  13.377  0.00  0.00    -0.355 N 
ATOM     14  C   UNK d   0     -12.222   4.074  11.635  0.00  0.00    -0.022 A 
ATOM     15  C   UNK d   0     -10.621   4.710  13.025  0.00  0.00     0.042 A 
ATOM     16  H   UNK d   0     -10.463   2.848  14.185  0.00  0.00     0.166 HD
ATOM     17  C   UNK d   0      -9.667   5.598  13.563  0.00  0.00     0.062 C 
ATOM     18  C   UNK d   0     -11.407   5.136  11.937  0.00  0.00    -0.013 A 
ATOM     19  C   UNK d   0      -9.395   5.878  14.878  0.00  0.00     0.067 A 
ATOM     20  N   UNK d   0      -9.951   5.080  15.794  0.00  0.00    -0.248 NA
ATOM     21  C   UNK d   0      -8.627   6.881  15.595  0.00  0.00    -0.011 A 
ATOM     22  C   UNK d   0      -9.603   5.490  17.057  0.00  0.00     0.066 A 
ATOM     23  C   UNK d   0     -10.083   4.723  18.108  0.00  0.00     0.062 C 
ATOM     24  C   UNK d   0      -8.755   6.652  16.870  0.00  0.00    -0.020 A 
ATOM     25  C   UNK d   0     -10.809   3.524  18.037  0.00  0.00     0.041 A 
ATOM     26  N   UNK d   0     -11.792   3.129  17.219  0.00  0.00    -0.355 N 
ATOM     27  C   UNK d   0     -10.496   2.491  18.947  0.00  0.00    -0.022 A 
ATOM     28  C   UNK d   0     -12.114   1.875  17.574  0.00  0.00     0.042 A 
ATOM     29  H   UNK d   0     -12.272   3.738  16.415  0.00  0.00     0.166 HD
ATOM     30  C   UNK d   0     -13.065   0.984  17.054  0.00  0.00     0.062 C 
ATOM     31  C   UNK d   0     -11.316   1.443  18.661  0.00  0.00    -0.013 A 
ATOM     32  C   UNK d   0     -13.397   0.766  15.726  0.00  0.00     0.066 A 
BRANCH   8  33
ATOM     33  C   UNK d   0     -14.895  -0.592  12.655  0.00  0.00     0.151 C 
BRANCH  33  34
ATOM     34  C   UNK d   0     -15.949   0.243  12.052  0.00  0.00     0.143 C 
ATOM     35  O   UNK d   0     -17.112   0.205  12.477  0.00  0.00    -0.650 OA
BRANCH  34  36
ATOM     36  O   UNK d   0     -15.634   1.074  11.001  0.00  0.00    -0.776 OA
ATOM     37  H   UNK d   0     -15.401   0.696  10.073  0.00  0.00     0.167 HD
ENDBRANCH  34  36
ENDBRANCH  33  34
ENDBRANCH   8  33
BRANCH  31  38
ATOM     38  C   UNK d   0     -11.335   0.107  19.366  0.00  0.00     0.151 C 
BRANCH  38  39
ATOM     39  C   UNK d   0     -10.409  -0.845  18.789  0.00  0.00     0.143 C 
ATOM     40  O   UNK d   0     -10.414  -1.128  17.578  0.00  0.00    -0.650 OA
BRANCH  39  41
ATOM     41  O   UNK d   0      -9.473  -1.475  19.609  0.00  0.00    -0.776 OA
ATOM     42  H   UNK d   0      -8.492  -1.414  19.321  0.00  0.00     0.167 HD
ENDBRANCH  39  41
ENDBRANCH  38  39
ENDBRANCH  31  38
BRANCH  27  43
ATOM     43  C   UNK d   0      -9.471   2.466  20.054  0.00  0.00     0.052 C 
BRANCH  43  44
ATOM     44  C   UNK d   0      -8.185   1.819  19.653  0.00  0.00     0.115 C 
BRANCH  44  45
ATOM     45  C   UNK d   0      -7.215   2.919  19.410  0.00  0.00     0.139 C 
ATOM     46  O   UNK d   0      -6.930   3.204  18.221  0.00  0.00    -0.650 OA
BRANCH  45  47
ATOM     47  O   UNK d   0      -6.626   3.634  20.430  0.00  0.00    -0.776 OA
ATOM     48  H   UNK d   0      -5.613   3.832  20.463  0.00  0.00     0.167 HD
ENDBRANCH  45  47
ENDBRANCH  44  45
ENDBRANCH  43  44
ENDBRANCH  27  43
BRANCH  24  49
ATOM     49  C   UNK d   0      -8.111   7.407  17.958  0.00  0.00     0.052 C 
BRANCH  49  50
ATOM     50  C   UNK d   0      -6.982   6.607  18.555  0.00  0.00     0.115 C 
BRANCH  50  51
ATOM     51  C   UNK d   0      -6.406   7.095  19.800  0.00  0.00     0.139 C 
ATOM     52  O   UNK d   0      -6.775   8.165  20.342  0.00  0.00    -0.650 OA
BRANCH  51  53
ATOM     53  O   UNK d   0      -5.408   6.366  20.428  0.00  0.00    -0.776 OA
ATOM     54  H   UNK d   0      -4.642   6.867  20.842  0.00  0.00     0.167 HD
ENDBRANCH  51  53
ENDBRANCH  50  51
ENDBRANCH  49  50
ENDBRANCH  24  49
BRANCH  21  55
ATOM     55  C   UNK d   0      -7.840   7.962  14.931  0.00  0.00     0.151 C 
BRANCH  55  56
ATOM     56  C   UNK d   0      -8.655   9.160  14.676  0.00  0.00     0.143 C 
ATOM     57  O   UNK d   0      -9.889   9.113  14.507  0.00  0.00    -0.650 OA
BRANCH  56  58
ATOM     58  O   UNK d   0      -8.002  10.391  14.626  0.00  0.00    -0.776 OA
ATOM     59  H   UNK d   0      -6.974  10.344  14.741  0.00  0.00     0.167 HD
ENDBRANCH  56  58
ENDBRANCH  55  56
ENDBRANCH  21  55
BRANCH  18  60
ATOM     60  C   UNK d   0     -11.408   6.460  11.213  0.00  0.00     0.151 C 
BRANCH  60  61
ATOM     61  C   UNK d   0     -12.201   7.376  12.046  0.00  0.00     0.143 C 
ATOM     62  O   UNK d   0     -13.288   7.144  12.576  0.00  0.00    -0.650 OA
BRANCH  61  63
ATOM     63  O   UNK d   0     -11.630   8.656  12.246  0.00  0.00    -0.776 OA
ATOM     64  H   UNK d   0     -11.730   9.381  11.558  0.00  0.00     0.167 HD
ENDBRANCH  61  63
ENDBRANCH  60  61
ENDBRANCH  18  60
BRANCH  14  65
ATOM     65  C   UNK d   0     -13.149   4.093  10.454  0.00  0.00     0.052 C 
BRANCH  65  66
ATOM     66  C   UNK d   0     -12.715   3.185   9.359  0.00  0.00     0.115 C 
BRANCH  66  67
ATOM     67  C   UNK d   0     -13.642   2.826   8.322  0.00  0.00     0.139 C 
ATOM     68  O   UNK d   0     -14.887   2.716   8.623  0.00  0.00    -0.650 OA
BRANCH  67  69
ATOM     69  O   UNK d   0     -13.363   2.571   6.980  0.00  0.00    -0.776 OA
ATOM     70  H   UNK d   0     -12.404   2.260   6.773  0.00  0.00     0.167 HD
ENDBRANCH  67  69
ENDBRANCH  66  67
ENDBRANCH  65  66
ENDBRANCH  14  65
ENDBRANCH   6   7
ENDBRANCH   5   6
ENDBRANCH   2   5
TORSDOF 28
ENDMDL
MODEL 17
REMARK VINA RESULT:      -6.6     25.628     28.845
REMARK  28 active torsions:
REMARK  status: ('A' for Active; 'I' for Inactive)
REMARK    1  A    between atoms: C_2  and  O_3 
REMARK    2  A    between atoms: C_2  and  C_4 
REMARK    3  A    between atoms: C_4  and  C_5 
REMARK    4  A    between atoms: C_5  and  C_6 
REMARK    5  A    between atoms: C_7  and  C_8 
REMARK    6  A    between atoms: C_8  and  C_9 
REMARK    7  A    between atoms: C_9  and  O_11 
REMARK    8  A    between atoms: C_28  and  C_29 
REMARK    9  A    between atoms: C_29  and  C_30 
REMARK   10  A    between atoms: C_30  and  O_32 
REMARK   11  A    between atoms: C_33  and  C_34 
REMARK   12  A    between atoms: C_34  and  C_35 
REMARK   13  A    between atoms: C_35  and  C_36 
REMARK   14  A    between atoms: C_36  and  O_38 
REMARK   15  A    between atoms: C_39  and  C_40 
REMARK   16  A    between atoms: C_40  and  C_41 
REMARK   17  A    between atoms: C_41  and  C_42 
REMARK   18  A    between atoms: C_42  and  O_44 
REMARK   19  A    between atoms: C_45  and  C_46 
REMARK   20  A    between atoms: C_46  and  C_47 
REMARK   21  A    between atoms: C_47  and  O_49 
REMARK   22  A    between atoms: C_50  and  C_51 
REMARK   23  A    between atoms: C_51  and  C_52 
REMARK   24  A    between atoms: C_52  and  O_54 
REMARK   25  A    between atoms: C_55  and  C_56 
REMARK   26  A    between atoms: C_56  and  C_57 
REMARK   27  A    between atoms: C_57  and  C_58 
REMARK   28  A    between atoms: C_58  and  O_60 
ROOT
ATOM      1  O   UNK d   0      -2.729   3.079  24.072  0.00  0.00    -0.650 OA
ATOM      2  C   UNK d   0      -2.409   3.166  22.866  0.00  0.00     0.139 C 
ENDROOT
BRANCH   2   3
ATOM      3  O   UNK d   0      -1.096   3.398  22.533  0.00  0.00    -0.776 OA
ATOM      4  H   UNK d   0      -0.739   4.349  22.424  0.00  0.00     0.167 HD
ENDBRANCH   2   3
BRANCH   2   5
ATOM      5  C   UNK d   0      -3.444   3.019  21.804  0.00  0.00     0.115 C 
BRANCH   5   6
ATOM      6  C   UNK d   0      -4.770   3.528  22.300  0.00  0.00     0.052 C 
BRANCH   6   7
ATOM      7  C   UNK d   0      -5.588   4.178  21.210  0.00  0.00    -0.020 A 
ATOM      8  C   UNK d   0      -5.594   5.439  20.860  0.00  0.00    -0.011 A 
ATOM      9  C   UNK d   0      -6.544   5.594  19.771  0.00  0.00     0.067 A 
ATOM     10  C   UNK d   0      -6.991   6.649  18.960  0.00  0.00     0.062 C 
ATOM     11  N   UNK d   0      -7.076   4.378  19.527  0.00  0.00    -0.248 NA
ATOM     12  C   UNK d   0      -7.715   6.552  17.767  0.00  0.00     0.041 A 
ATOM     13  N   UNK d   0      -8.759   5.773  17.425  0.00  0.00    -0.355 N 
ATOM     14  C   UNK d   0      -7.318   7.330  16.664  0.00  0.00    -0.022 A 
ATOM     15  C   UNK d   0      -9.029   6.031  16.131  0.00  0.00     0.042 A 
ATOM     16  H   UNK d   0      -9.307   5.069  18.090  0.00  0.00     0.166 HD
ATOM     17  C   UNK d   0     -10.017   5.497  15.280  0.00  0.00     0.062 C 
ATOM     18  C   UNK d   0      -8.146   7.001  15.620  0.00  0.00    -0.013 A 
ATOM     19  C   UNK d   0     -10.401   4.190  15.119  0.00  0.00     0.067 A 
ATOM     20  N   UNK d   0      -9.937   3.309  16.008  0.00  0.00    -0.248 NA
ATOM     21  C   UNK d   0     -11.220   3.451  14.172  0.00  0.00    -0.011 A 
ATOM     22  C   UNK d   0     -10.391   2.047  15.711  0.00  0.00     0.066 A 
ATOM     23  C   UNK d   0     -10.013   1.035  16.581  0.00  0.00     0.062 C 
ATOM     24  C   UNK d   0     -11.207   2.197  14.522  0.00  0.00    -0.020 A 
ATOM     25  C   UNK d   0      -9.296   1.155  17.781  0.00  0.00     0.041 A 
ATOM     26  N   UNK d   0      -8.249   1.918  18.117  0.00  0.00    -0.355 N 
ATOM     27  C   UNK d   0      -9.699   0.378  18.888  0.00  0.00    -0.022 A 
ATOM     28  C   UNK d   0      -7.972   1.657  19.404  0.00  0.00     0.042 A 
ATOM     29  H   UNK d   0      -7.693   2.617  17.444  0.00  0.00     0.166 HD
ATOM     30  C   UNK d   0      -6.987   2.174  20.260  0.00  0.00     0.062 C 
ATOM     31  C   UNK d   0      -8.867   0.689  19.920  0.00  0.00    -0.013 A 
ATOM     32  C   UNK d   0      -6.542   3.482  20.359  0.00  0.00     0.066 A 
BRANCH   8  33
ATOM     33  C   UNK d   0      -4.792   6.525  21.453  0.00  0.00     0.151 C 
BRANCH  33  34
ATOM     34  C   UNK d   0      -5.620   7.543  22.125  0.00  0.00     0.143 C 
ATOM     35  O   UNK d   0      -6.225   7.280  23.174  0.00  0.00    -0.650 OA
BRANCH  34  36
ATOM     36  O   UNK d   0      -5.721   8.801  21.578  0.00  0.00    -0.776 OA
ATOM     37  H   UNK d   0      -4.949   9.478  21.649  0.00  0.00     0.167 HD
ENDBRANCH  34  36
ENDBRANCH  33  34
ENDBRANCH   8  33
BRANCH  31  38
ATOM     38  C   UNK d   0      -8.924   0.114  21.316  0.00  0.00     0.151 C 
BRANCH  38  39
ATOM     39  C   UNK d   0      -9.620   0.974  22.249  0.00  0.00     0.143 C 
ATOM     40  O   UNK d   0      -9.149   1.266  23.363  0.00  0.00    -0.650 OA
BRANCH  39  41
ATOM     41  O   UNK d   0     -10.862   1.503  21.901  0.00  0.00    -0.776 OA
ATOM     42  H   UNK d   0     -10.869   2.230  21.179  0.00  0.00     0.167 HD
ENDBRANCH  39  41
ENDBRANCH  38  39
ENDBRANCH  31  38
BRANCH  27  43
ATOM     43  C   UNK d   0     -10.817  -0.628  18.997  0.00  0.00     0.052 C 
BRANCH  43  44
ATOM     44  C   UNK d   0     -10.336  -2.040  19.084  0.00  0.00     0.115 C 
BRANCH  44  45
ATOM     45  C   UNK d   0     -10.735  -2.703  17.815  0.00  0.00     0.139 C 
ATOM     46  O   UNK d   0     -11.800  -3.368  17.805  0.00  0.00    -0.650 OA
BRANCH  45  47
ATOM     47  O   UNK d   0      -9.992  -2.612  16.658  0.00  0.00    -0.776 OA
ATOM     48  H   UNK d   0     -10.406  -2.371  15.744  0.00  0.00     0.167 HD
ENDBRANCH  45  47
ENDBRANCH  44  45
ENDBRANCH  43  44
ENDBRANCH  27  43
BRANCH  24  49
ATOM     49  C   UNK d   0     -11.937   1.103  13.859  0.00  0.00     0.052 C 
BRANCH  49  50
ATOM     50  C   UNK d   0     -11.032   0.374  12.900  0.00  0.00     0.115 C 
BRANCH  50  51
ATOM     51  C   UNK d   0     -11.254   0.595  11.477  0.00  0.00     0.139 C 
ATOM     52  O   UNK d   0     -10.386   0.339  10.609  0.00  0.00    -0.650 OA
BRANCH  51  53
ATOM     53  O   UNK d   0     -12.466   1.111  11.044  0.00  0.00    -0.776 OA
ATOM     54  H   UNK d   0     -12.658   2.082  11.215  0.00  0.00     0.167 HD
ENDBRANCH  51  53
ENDBRANCH  50  51
ENDBRANCH  49  50
ENDBRANCH  24  49
BRANCH  21  55
ATOM     55  C   UNK d   0     -11.934   4.077  13.020  0.00  0.00     0.151 C 
BRANCH  55  56
ATOM     56  C   UNK d   0     -11.037   4.904  12.198  0.00  0.00     0.143 C 
ATOM     57  O   UNK d   0     -10.069   4.432  11.570  0.00  0.00    -0.650 OA
BRANCH  56  58
ATOM     58  O   UNK d   0     -11.296   6.272  12.132  0.00  0.00    -0.776 OA
ATOM     59  H   UNK d   0     -10.490   6.855  11.841  0.00  0.00     0.167 HD
ENDBRANCH  56  58
ENDBRANCH  55  56
ENDBRANCH  21  55
BRANCH  18  60
ATOM     60  C   UNK d   0      -8.067   7.595  14.235  0.00  0.00     0.151 C 
BRANCH  60  61
ATOM     61  C   UNK d   0      -9.249   8.460  14.099  0.00  0.00     0.143 C 
ATOM     62  O   UNK d   0      -9.883   8.999  15.006  0.00  0.00    -0.650 OA
BRANCH  61  63
ATOM     63  O   UNK d   0      -9.685   8.680  12.770  0.00  0.00    -0.776 OA
ATOM     64  H   UNK d   0      -9.050   8.596  11.996  0.00  0.00     0.167 HD
ENDBRANCH  61  63
ENDBRANCH  60  61
ENDBRANCH  18  60
BRANCH  14  65
ATOM     65  C   UNK d   0      -6.289   8.419  16.552  0.00  0.00     0.052 C 
BRANCH  65  66
ATOM     66  C   UNK d   0      -6.760   9.721  17.095  0.00  0.00     0.115 C 
BRANCH  66  67
ATOM     67  C   UNK d   0      -6.529  10.042  18.475  0.00  0.00     0.139 C 
ATOM     68  O   UNK d   0      -5.320  10.235  18.867  0.00  0.00    -0.650 OA
BRANCH  67  69
ATOM     69  O   UNK d   0      -7.477  10.178  19.489  0.00  0.00    -0.776 OA
ATOM     70  H   UNK d   0      -8.388  10.564  19.202  0.00  0.00     0.167 HD
ENDBRANCH  67  69
ENDBRANCH  66  67
ENDBRANCH  65  66
ENDBRANCH  14  65
ENDBRANCH   6   7
ENDBRANCH   5   6
ENDBRANCH   2   5
TORSDOF 28
ENDMDL
MODEL 18
REMARK VINA RESULT:      -6.6     19.655     21.973
REMARK  28 active torsions:
REMARK  status: ('A' for Active; 'I' for Inactive)
REMARK    1  A    between atoms: C_2  and  O_3 
REMARK    2  A    between atoms: C_2  and  C_4 
REMARK    3  A    between atoms: C_4  and  C_5 
REMARK    4  A    between atoms: C_5  and  C_6 
REMARK    5  A    between atoms: C_7  and  C_8 
REMARK    6  A    between atoms: C_8  and  C_9 
REMARK    7  A    between atoms: C_9  and  O_11 
REMARK    8  A    between atoms: C_28  and  C_29 
REMARK    9  A    between atoms: C_29  and  C_30 
REMARK   10  A    between atoms: C_30  and  O_32 
REMARK   11  A    between atoms: C_33  and  C_34 
REMARK   12  A    between atoms: C_34  and  C_35 
REMARK   13  A    between atoms: C_35  and  C_36 
REMARK   14  A    between atoms: C_36  and  O_38 
REMARK   15  A    between atoms: C_39  and  C_40 
REMARK   16  A    between atoms: C_40  and  C_41 
REMARK   17  A    between atoms: C_41  and  C_42 
REMARK   18  A    between atoms: C_42  and  O_44 
REMARK   19  A    between atoms: C_45  and  C_46 
REMARK   20  A    between atoms: C_46  and  C_47 
REMARK   21  A    between atoms: C_47  and  O_49 
REMARK   22  A    between atoms: C_50  and  C_51 
REMARK   23  A    between atoms: C_51  and  C_52 
REMARK   24  A    between atoms: C_52  and  O_54 
REMARK   25  A    between atoms: C_55  and  C_56 
REMARK   26  A    between atoms: C_56  and  C_57 
REMARK   27  A    between atoms: C_57  and  C_58 
REMARK   28  A    between atoms: C_58  and  O_60 
ROOT
ATOM      1  O   UNK d   0      -6.343   1.637  18.763  0.00  0.00    -0.650 OA
ATOM      2  C   UNK d   0      -7.212   2.242  18.097  0.00  0.00     0.139 C 
ENDROOT
BRANCH   2   3
ATOM      3  O   UNK d   0      -7.014   3.563  17.774  0.00  0.00    -0.776 OA
ATOM      4  H   UNK d   0      -6.958   3.865  16.799  0.00  0.00     0.167 HD
ENDBRANCH   2   3
BRANCH   2   5
ATOM      5  C   UNK d   0      -8.448   1.534  17.661  0.00  0.00     0.115 C 
BRANCH   5   6
ATOM      6  C   UNK d   0      -9.471   1.550  18.765  0.00  0.00     0.052 C 
BRANCH   6   7
ATOM      7  C   UNK d   0     -10.392   0.355  18.722  0.00  0.00    -0.020 A 
ATOM      8  C   UNK d   0     -10.406  -0.672  19.533  0.00  0.00    -0.011 A 
ATOM      9  C   UNK d   0     -11.458  -1.572  19.094  0.00  0.00     0.067 A 
ATOM     10  C   UNK d   0     -11.989  -2.797  19.528  0.00  0.00     0.062 C 
ATOM     11  N   UNK d   0     -12.031  -1.018  18.004  0.00  0.00    -0.248 NA
ATOM     12  C   UNK d   0     -13.198  -3.383  19.135  0.00  0.00     0.041 A 
ATOM     13  N   UNK d   0     -13.775  -3.499  17.924  0.00  0.00    -0.355 N 
ATOM     14  C   UNK d   0     -14.045  -3.922  20.121  0.00  0.00    -0.022 A 
ATOM     15  C   UNK d   0     -14.969  -4.090  18.117  0.00  0.00     0.042 A 
ATOM     16  H   UNK d   0     -13.338  -3.186  16.950  0.00  0.00     0.166 HD
ATOM     17  C   UNK d   0     -15.971  -4.446  17.192  0.00  0.00     0.062 C 
ATOM     18  C   UNK d   0     -15.174  -4.370  19.481  0.00  0.00    -0.013 A 
ATOM     19  C   UNK d   0     -16.481  -3.717  16.148  0.00  0.00     0.067 A 
ATOM     20  N   UNK d   0     -15.829  -2.600  15.816  0.00  0.00    -0.248 NA
ATOM     21  C   UNK d   0     -17.621  -3.829  15.254  0.00  0.00    -0.011 A 
ATOM     22  C   UNK d   0     -16.460  -1.972  14.771  0.00  0.00     0.066 A 
ATOM     23  C   UNK d   0     -15.865  -0.813  14.297  0.00  0.00     0.062 C 
ATOM     24  C   UNK d   0     -17.605  -2.803  14.453  0.00  0.00    -0.020 A 
ATOM     25  C   UNK d   0     -14.644  -0.248  14.696  0.00  0.00     0.041 A 
ATOM     26  N   UNK d   0     -14.077  -0.119  15.902  0.00  0.00    -0.355 N 
ATOM     27  C   UNK d   0     -13.792   0.289  13.706  0.00  0.00    -0.022 A 
ATOM     28  C   UNK d   0     -12.889   0.478  15.714  0.00  0.00     0.042 A 
ATOM     29  H   UNK d   0     -14.522  -0.424  16.881  0.00  0.00     0.166 HD
ATOM     30  C   UNK d   0     -11.887   0.847  16.624  0.00  0.00     0.062 C 
ATOM     31  C   UNK d   0     -12.680   0.750  14.341  0.00  0.00    -0.013 A 
ATOM     32  C   UNK d   0     -11.435   0.143  17.729  0.00  0.00     0.066 A 
BRANCH   8  33
ATOM     33  C   UNK d   0      -9.518  -0.898  20.689  0.00  0.00     0.151 C 
BRANCH  33  34
ATOM     34  C   UNK d   0      -9.800   0.015  21.812  0.00  0.00     0.143 C 
ATOM     35  O   UNK d   0      -8.882   0.608  22.396  0.00  0.00    -0.650 OA
BRANCH  34  36
ATOM     36  O   UNK d   0     -11.101   0.207  22.216  0.00  0.00    -0.776 OA
ATOM     37  H   UNK d   0     -11.501   1.152  22.297  0.00  0.00     0.167 HD
ENDBRANCH  34  36
ENDBRANCH  33  34
ENDBRANCH   8  33
BRANCH  31  38
ATOM     38  C   UNK d   0     -11.483   1.397  13.684  0.00  0.00     0.151 C 
BRANCH  38  39
ATOM     39  C   UNK d   0     -10.504   0.434  13.228  0.00  0.00     0.143 C 
ATOM     40  O   UNK d   0     -10.463   0.033  12.051  0.00  0.00    -0.650 OA
BRANCH  39  41
ATOM     41  O   UNK d   0      -9.565  -0.070  14.128  0.00  0.00    -0.776 OA
ATOM     42  H   UNK d   0      -8.651   0.393  14.148  0.00  0.00     0.167 HD
ENDBRANCH  39  41
ENDBRANCH  38  39
ENDBRANCH  31  38
BRANCH  27  43
ATOM     43  C   UNK d   0     -13.995   0.379  12.214  0.00  0.00     0.052 C 
BRANCH  43  44
ATOM     44  C   UNK d   0     -14.120   1.783  11.719  0.00  0.00     0.115 C 
BRANCH  44  45
ATOM     45  C   UNK d   0     -15.511   1.935  11.218  0.00  0.00     0.139 C 
ATOM     46  O   UNK d   0     -15.676   2.226  10.008  0.00  0.00    -0.650 OA
BRANCH  45  47
ATOM     47  O   UNK d   0     -16.617   1.766  12.023  0.00  0.00    -0.776 OA
ATOM     48  H   UNK d   0     -17.036   0.841  12.212  0.00  0.00     0.167 HD
ENDBRANCH  45  47
ENDBRANCH  44  45
ENDBRANCH  43  44
ENDBRANCH  27  43
BRANCH  24  49
ATOM     49  C   UNK d   0     -18.559  -2.539  13.361  0.00  0.00     0.052 C 
BRANCH  49  50
ATOM     50  C   UNK d   0     -19.441  -1.367  13.708  0.00  0.00     0.115 C 
BRANCH  50  51
ATOM     51  C   UNK d   0     -19.680  -0.382  12.662  0.00  0.00     0.139 C 
ATOM     52  O   UNK d   0     -19.232   0.787  12.719  0.00  0.00    -0.650 OA
BRANCH  51  53
ATOM     53  O   UNK d   0     -20.433  -0.730  11.551  0.00  0.00    -0.776 OA
ATOM     54  H   UNK d   0     -19.994  -1.278  10.832  0.00  0.00     0.167 HD
ENDBRANCH  51  53
ENDBRANCH  50  51
ENDBRANCH  49  50
ENDBRANCH  24  49
BRANCH  21  55
ATOM     55  C   UNK d   0     -18.603  -4.952  15.290  0.00  0.00     0.151 C 
BRANCH  55  56
ATOM     56  C   UNK d   0     -18.134  -6.120  14.530  0.00  0.00     0.143 C 
ATOM     57  O   UNK d   0     -18.175  -6.177  13.285  0.00  0.00    -0.650 OA
BRANCH  56  58
ATOM     58  O   UNK d   0     -17.625  -7.201  15.248  0.00  0.00    -0.776 OA
ATOM     59  H   UNK d   0     -17.747  -7.138  16.275  0.00  0.00     0.167 HD
ENDBRANCH  56  58
ENDBRANCH  55  56
ENDBRANCH  21  55
BRANCH  18  60
ATOM     60  C   UNK d   0     -16.354  -5.016  20.163  0.00  0.00     0.151 C 
BRANCH  60  61
ATOM     61  C   UNK d   0     -17.316  -3.933  20.418  0.00  0.00     0.143 C 
ATOM     62  O   UNK d   0     -17.806  -3.166  19.590  0.00  0.00    -0.650 OA
BRANCH  61  63
ATOM     63  O   UNK d   0     -17.704  -3.779  21.771  0.00  0.00    -0.776 OA
ATOM     64  H   UNK d   0     -18.608  -3.414  22.012  0.00  0.00     0.167 HD
ENDBRANCH  61  63
ENDBRANCH  60  61
ENDBRANCH  18  60
BRANCH  14  65
ATOM     65  C   UNK d   0     -13.827  -4.133  21.592  0.00  0.00     0.052 C 
BRANCH  65  66
ATOM     66  C   UNK d   0     -14.513  -3.115  22.433  0.00  0.00     0.115 C 
BRANCH  66  67
ATOM     67  C   UNK d   0     -14.599  -1.756  21.977  0.00  0.00     0.139 C 
ATOM     68  O   UNK d   0     -15.754  -1.288  21.658  0.00  0.00    -0.650 OA
BRANCH  67  69
ATOM     69  O   UNK d   0     -13.560  -0.839  21.825  0.00  0.00    -0.776 OA
ATOM     70  H   UNK d   0     -13.162  -0.765  20.878  0.00  0.00     0.167 HD
ENDBRANCH  67  69
ENDBRANCH  66  67
ENDBRANCH  65  66
ENDBRANCH  14  65
ENDBRANCH   6   7
ENDBRANCH   5   6
ENDBRANCH   2   5
TORSDOF 28
ENDMDL
MODEL 19
REMARK VINA RESULT:      -6.5     22.801     26.765
REMARK  28 active torsions:
REMARK  status: ('A' for Active; 'I' for Inactive)
REMARK    1  A    between atoms: C_2  and  O_3 
REMARK    2  A    between atoms: C_2  and  C_4 
REMARK    3  A    between atoms: C_4  and  C_5 
REMARK    4  A    between atoms: C_5  and  C_6 
REMARK    5  A    between atoms: C_7  and  C_8 
REMARK    6  A    between atoms: C_8  and  C_9 
REMARK    7  A    between atoms: C_9  and  O_11 
REMARK    8  A    between atoms: C_28  and  C_29 
REMARK    9  A    between atoms: C_29  and  C_30 
REMARK   10  A    between atoms: C_30  and  O_32 
REMARK   11  A    between atoms: C_33  and  C_34 
REMARK   12  A    between atoms: C_34  and  C_35 
REMARK   13  A    between atoms: C_35  and  C_36 
REMARK   14  A    between atoms: C_36  and  O_38 
REMARK   15  A    between atoms: C_39  and  C_40 
REMARK   16  A    between atoms: C_40  and  C_41 
REMARK   17  A    between atoms: C_41  and  C_42 
REMARK   18  A    between atoms: C_42  and  O_44 
REMARK   19  A    between atoms: C_45  and  C_46 
REMARK   20  A    between atoms: C_46  and  C_47 
REMARK   21  A    between atoms: C_47  and  O_49 
REMARK   22  A    between atoms: C_50  and  C_51 
REMARK   23  A    between atoms: C_51  and  C_52 
REMARK   24  A    between atoms: C_52  and  O_54 
REMARK   25  A    between atoms: C_55  and  C_56 
REMARK   26  A    between atoms: C_56  and  C_57 
REMARK   27  A    between atoms: C_57  and  C_58 
REMARK   28  A    between atoms: C_58  and  O_60 
ROOT
ATOM      1  O   UNK d   0     -11.091  -2.300  21.910  0.00  0.00    -0.650 OA
ATOM      2  C   UNK d   0     -10.345  -1.605  21.186  0.00  0.00     0.139 C 
ENDROOT
BRANCH   2   3
ATOM      3  O   UNK d   0      -9.180  -2.149  20.700  0.00  0.00    -0.776 OA
ATOM      4  H   UNK d   0      -9.103  -3.151  20.516  0.00  0.00     0.167 HD
ENDBRANCH   2   3
BRANCH   2   5
ATOM      5  C   UNK d   0     -10.718  -0.200  20.857  0.00  0.00     0.115 C 
BRANCH   5   6
ATOM      6  C   UNK d   0     -11.980  -0.178  20.037  0.00  0.00     0.052 C 
BRANCH   6   7
ATOM      7  C   UNK d   0     -11.753   0.337  18.636  0.00  0.00    -0.020 A 
ATOM      8  C   UNK d   0     -11.791  -0.344  17.520  0.00  0.00    -0.011 A 
ATOM      9  C   UNK d   0     -11.502   0.572  16.429  0.00  0.00     0.067 A 
ATOM     10  C   UNK d   0     -11.413   0.486  15.031  0.00  0.00     0.062 C 
ATOM     11  N   UNK d   0     -11.295   1.789  16.973  0.00  0.00    -0.248 NA
ATOM     12  C   UNK d   0     -11.397   1.544  14.116  0.00  0.00     0.041 A 
ATOM     13  N   UNK d   0     -10.753   2.727  14.140  0.00  0.00    -0.355 N 
ATOM     14  C   UNK d   0     -12.209   1.466  12.970  0.00  0.00    -0.022 A 
ATOM     15  C   UNK d   0     -11.141   3.403  13.042  0.00  0.00     0.042 A 
ATOM     16  H   UNK d   0     -10.024   3.068  14.907  0.00  0.00     0.166 HD
ATOM     17  C   UNK d   0     -10.773   4.683  12.580  0.00  0.00     0.062 C 
ATOM     18  C   UNK d   0     -12.054   2.645  12.284  0.00  0.00    -0.013 A 
ATOM     19  C   UNK d   0     -10.660   5.854  13.285  0.00  0.00     0.067 A 
ATOM     20  N   UNK d   0     -10.708   5.766  14.616  0.00  0.00    -0.248 NA
ATOM     21  C   UNK d   0     -10.507   7.261  12.954  0.00  0.00    -0.011 A 
ATOM     22  C   UNK d   0     -10.598   7.014  15.180  0.00  0.00     0.066 A 
ATOM     23  C   UNK d   0     -10.594   7.065  16.567  0.00  0.00     0.062 C 
ATOM     24  C   UNK d   0     -10.476   7.935  14.068  0.00  0.00    -0.020 A 
ATOM     25  C   UNK d   0     -10.598   5.989  17.467  0.00  0.00     0.041 A 
ATOM     26  N   UNK d   0     -11.250   4.820  17.452  0.00  0.00    -0.355 N 
ATOM     27  C   UNK d   0      -9.780   6.067  18.616  0.00  0.00    -0.022 A 
ATOM     28  C   UNK d   0     -10.872   4.147  18.550  0.00  0.00     0.042 A 
ATOM     29  H   UNK d   0     -11.991   4.483  16.686  0.00  0.00     0.166 HD
ATOM     30  C   UNK d   0     -11.236   2.878  19.026  0.00  0.00     0.062 C 
ATOM     31  C   UNK d   0      -9.946   4.906  19.306  0.00  0.00    -0.013 A 
ATOM     32  C   UNK d   0     -11.432   1.715  18.298  0.00  0.00     0.066 A 
BRANCH   8  33
ATOM     33  C   UNK d   0     -12.070  -1.785  17.371  0.00  0.00     0.151 C 
BRANCH  33  34
ATOM     34  C   UNK d   0     -10.857  -2.615  17.488  0.00  0.00     0.143 C 
ATOM     35  O   UNK d   0     -10.676  -3.342  18.475  0.00  0.00    -0.650 OA
BRANCH  34  36
ATOM     36  O   UNK d   0      -9.916  -2.580  16.485  0.00  0.00    -0.776 OA
ATOM     37  H   UNK d   0      -8.933  -2.823  16.667  0.00  0.00     0.167 HD
ENDBRANCH  34  36
ENDBRANCH  33  34
ENDBRANCH   8  33
BRANCH  31  38
ATOM     38  C   UNK d   0      -9.259   4.530  20.598  0.00  0.00     0.151 C 
BRANCH  38  39
ATOM     39  C   UNK d   0      -8.137   3.638  20.399  0.00  0.00     0.143 C 
ATOM     40  O   UNK d   0      -8.244   2.403  20.497  0.00  0.00    -0.650 OA
BRANCH  39  41
ATOM     41  O   UNK d   0      -6.886   4.168  20.085  0.00  0.00    -0.776 OA
ATOM     42  H   UNK d   0      -6.525   3.973  19.146  0.00  0.00     0.167 HD
ENDBRANCH  39  41
ENDBRANCH  38  39
ENDBRANCH  31  38
BRANCH  27  43
ATOM     43  C   UNK d   0      -8.869   7.180  19.070  0.00  0.00     0.052 C 
BRANCH  43  44
ATOM     44  C   UNK d   0      -7.491   7.086  18.500  0.00  0.00     0.115 C 
BRANCH  44  45
ATOM     45  C   UNK d   0      -6.569   7.640  19.525  0.00  0.00     0.139 C 
ATOM     46  O   UNK d   0      -5.856   6.837  20.175  0.00  0.00    -0.650 OA
BRANCH  45  47
ATOM     47  O   UNK d   0      -6.463   8.990  19.783  0.00  0.00    -0.776 OA
ATOM     48  H   UNK d   0      -7.206   9.666  19.544  0.00  0.00     0.167 HD
ENDBRANCH  45  47
ENDBRANCH  44  45
ENDBRANCH  43  44
ENDBRANCH  27  43
BRANCH  24  49
ATOM     49  C   UNK d   0     -10.294   9.391  14.197  0.00  0.00     0.052 C 
BRANCH  49  50
ATOM     50  C   UNK d   0      -8.828   9.739  14.187  0.00  0.00     0.115 C 
BRANCH  50  51
ATOM     51  C   UNK d   0      -8.480  11.153  14.223  0.00  0.00     0.139 C 
ATOM     52  O   UNK d   0      -8.862  11.966  13.348  0.00  0.00    -0.650 OA
BRANCH  51  53
ATOM     53  O   UNK d   0      -7.695  11.641  15.256  0.00  0.00    -0.776 OA
ATOM     54  H   UNK d   0      -7.701  11.148  16.132  0.00  0.00     0.167 HD
ENDBRANCH  51  53
ENDBRANCH  50  51
ENDBRANCH  49  50
ENDBRANCH  24  49
BRANCH  21  55
ATOM     55  C   UNK d   0     -10.404   7.785  11.560  0.00  0.00     0.151 C 
BRANCH  55  56
ATOM     56  C   UNK d   0     -11.690   7.715  10.848  0.00  0.00     0.143 C 
ATOM     57  O   UNK d   0     -12.642   8.480  11.097  0.00  0.00    -0.650 OA
BRANCH  56  58
ATOM     58  O   UNK d   0     -11.830   6.746   9.856  0.00  0.00    -0.776 OA
ATOM     59  H   UNK d   0     -11.092   6.755   9.130  0.00  0.00     0.167 HD
ENDBRANCH  56  58
ENDBRANCH  55  56
ENDBRANCH  21  55
BRANCH  18  60
ATOM     60  C   UNK d   0     -12.751   2.991  10.992  0.00  0.00     0.151 C 
BRANCH  60  61
ATOM     61  C   UNK d   0     -11.751   2.804   9.930  0.00  0.00     0.143 C 
ATOM     62  O   UNK d   0     -11.060   1.804   9.729  0.00  0.00    -0.650 OA
BRANCH  61  63
ATOM     63  O   UNK d   0     -11.584   3.906   9.058  0.00  0.00    -0.776 OA
ATOM     64  H   UNK d   0     -10.771   4.494   9.114  0.00  0.00     0.167 HD
ENDBRANCH  61  63
ENDBRANCH  60  61
ENDBRANCH  18  60
BRANCH  14  65
ATOM     65  C   UNK d   0     -13.035   0.333  12.429  0.00  0.00     0.052 C 
BRANCH  65  66
ATOM     66  C   UNK d   0     -14.442   0.358  12.911  0.00  0.00     0.115 C 
BRANCH  66  67
ATOM     67  C   UNK d   0     -15.518   0.425  11.962  0.00  0.00     0.139 C 
ATOM     68  O   UNK d   0     -16.540  -0.336  12.138  0.00  0.00    -0.650 OA
BRANCH  67  69
ATOM     69  O   UNK d   0     -15.608   1.235  10.831  0.00  0.00    -0.776 OA
ATOM     70  H   UNK d   0     -16.337   0.975  10.151  0.00  0.00     0.167 HD
ENDBRANCH  67  69
ENDBRANCH  66  67
ENDBRANCH  65  66
ENDBRANCH  14  65
ENDBRANCH   6   7
ENDBRANCH   5   6
ENDBRANCH   2   5
TORSDOF 28
ENDMDL
MODEL 20
REMARK VINA RESULT:      -6.5     20.541     23.841
REMARK  28 active torsions:
REMARK  status: ('A' for Active; 'I' for Inactive)
REMARK    1  A    between atoms: C_2  and  O_3 
REMARK    2  A    between atoms: C_2  and  C_4 
REMARK    3  A    between atoms: C_4  and  C_5 
REMARK    4  A    between atoms: C_5  and  C_6 
REMARK    5  A    between atoms: C_7  and  C_8 
REMARK    6  A    between atoms: C_8  and  C_9 
REMARK    7  A    between atoms: C_9  and  O_11 
REMARK    8  A    between atoms: C_28  and  C_29 
REMARK    9  A    between atoms: C_29  and  C_30 
REMARK   10  A    between atoms: C_30  and  O_32 
REMARK   11  A    between atoms: C_33  and  C_34 
REMARK   12  A    between atoms: C_34  and  C_35 
REMARK   13  A    between atoms: C_35  and  C_36 
REMARK   14  A    between atoms: C_36  and  O_38 
REMARK   15  A    between atoms: C_39  and  C_40 
REMARK   16  A    between atoms: C_40  and  C_41 
REMARK   17  A    between atoms: C_41  and  C_42 
REMARK   18  A    between atoms: C_42  and  O_44 
REMARK   19  A    between atoms: C_45  and  C_46 
REMARK   20  A    between atoms: C_46  and  C_47 
REMARK   21  A    between atoms: C_47  and  O_49 
REMARK   22  A    between atoms: C_50  and  C_51 
REMARK   23  A    between atoms: C_51  and  C_52 
REMARK   24  A    between atoms: C_52  and  O_54 
REMARK   25  A    between atoms: C_55  and  C_56 
REMARK   26  A    between atoms: C_56  and  C_57 
REMARK   27  A    between atoms: C_57  and  C_58 
REMARK   28  A    between atoms: C_58  and  O_60 
ROOT
ATOM      1  O   UNK d   0     -19.151  -0.536  12.908  0.00  0.00    -0.650 OA
ATOM      2  C   UNK d   0     -18.101  -1.215  12.876  0.00  0.00     0.139 C 
ENDROOT
BRANCH   2   3
ATOM      3  O   UNK d   0     -17.242  -1.076  11.812  0.00  0.00    -0.776 OA
ATOM      4  H   UNK d   0     -16.339  -0.610  11.920  0.00  0.00     0.167 HD
ENDBRANCH   2   3
BRANCH   2   5
ATOM      5  C   UNK d   0     -17.789  -2.164  13.981  0.00  0.00     0.115 C 
BRANCH   5   6
ATOM      6  C   UNK d   0     -16.335  -2.551  13.937  0.00  0.00     0.052 C 
BRANCH   6   7
ATOM      7  C   UNK d   0     -15.489  -1.744  14.893  0.00  0.00    -0.020 A 
ATOM      8  C   UNK d   0     -15.317  -1.949  16.173  0.00  0.00    -0.011 A 
ATOM      9  C   UNK d   0     -14.428  -0.914  16.674  0.00  0.00     0.067 A 
ATOM     10  C   UNK d   0     -13.849  -0.587  17.910  0.00  0.00     0.062 C 
ATOM     11  N   UNK d   0     -14.112  -0.118  15.630  0.00  0.00    -0.248 NA
ATOM     12  C   UNK d   0     -12.787   0.294  18.141  0.00  0.00     0.041 A 
ATOM     13  N   UNK d   0     -12.517   1.511  17.630  0.00  0.00    -0.355 N 
ATOM     14  C   UNK d   0     -11.748  -0.102  19.003  0.00  0.00    -0.022 A 
ATOM     15  C   UNK d   0     -11.330   1.892  18.140  0.00  0.00     0.042 A 
ATOM     16  H   UNK d   0     -13.161   2.097  16.939  0.00  0.00     0.166 HD
ATOM     17  C   UNK d   0     -10.587   3.073  17.939  0.00  0.00     0.062 C 
ATOM     18  C   UNK d   0     -10.818   0.906  19.005  0.00  0.00    -0.013 A 
ATOM     19  C   UNK d   0     -10.317   3.733  16.768  0.00  0.00     0.067 A 
ATOM     20  N   UNK d   0     -10.992   3.343  15.684  0.00  0.00    -0.248 NA
ATOM     21  C   UNK d   0      -9.425   4.803  16.354  0.00  0.00    -0.011 A 
ATOM     22  C   UNK d   0     -10.606   4.080  14.591  0.00  0.00     0.066 A 
ATOM     23  C   UNK d   0     -11.260   3.803  13.399  0.00  0.00     0.062 C 
ATOM     24  C   UNK d   0      -9.596   4.998  15.078  0.00  0.00    -0.020 A 
ATOM     25  C   UNK d   0     -12.333   2.923  13.191  0.00  0.00     0.041 A 
ATOM     26  N   UNK d   0     -12.594   1.708  13.687  0.00  0.00    -0.355 N 
ATOM     27  C   UNK d   0     -13.377   3.324  12.329  0.00  0.00    -0.022 A 
ATOM     28  C   UNK d   0     -13.772   1.321  13.173  0.00  0.00     0.042 A 
ATOM     29  H   UNK d   0     -11.940   1.116  14.373  0.00  0.00     0.166 HD
ATOM     30  C   UNK d   0     -14.518   0.146  13.357  0.00  0.00     0.062 C 
ATOM     31  C   UNK d   0     -14.292   2.317  12.312  0.00  0.00    -0.013 A 
ATOM     32  C   UNK d   0     -14.719  -0.565  14.529  0.00  0.00     0.066 A 
BRANCH   8  33
ATOM     33  C   UNK d   0     -15.912  -3.026  16.986  0.00  0.00     0.151 C 
BRANCH  33  34
ATOM     34  C   UNK d   0     -17.240  -2.672  17.518  0.00  0.00     0.143 C 
ATOM     35  O   UNK d   0     -17.408  -1.629  18.167  0.00  0.00    -0.650 OA
BRANCH  34  36
ATOM     36  O   UNK d   0     -18.305  -3.513  17.292  0.00  0.00    -0.776 OA
ATOM     37  H   UNK d   0     -18.312  -4.164  16.495  0.00  0.00     0.167 HD
ENDBRANCH  34  36
ENDBRANCH  33  34
ENDBRANCH   8  33
BRANCH  31  38
ATOM     38  C   UNK d   0     -15.589   2.303  11.537  0.00  0.00     0.151 C 
BRANCH  38  39
ATOM     39  C   UNK d   0     -16.713   2.776  12.316  0.00  0.00     0.143 C 
ATOM     40  O   UNK d   0     -16.700   3.869  12.909  0.00  0.00    -0.650 OA
BRANCH  39  41
ATOM     41  O   UNK d   0     -17.860   1.988  12.414  0.00  0.00    -0.776 OA
ATOM     42  H   UNK d   0     -17.836   1.078  11.943  0.00  0.00     0.167 HD
ENDBRANCH  39  41
ENDBRANCH  38  39
ENDBRANCH  31  38
BRANCH  27  43
ATOM     43  C   UNK d   0     -13.530   4.599  11.537  0.00  0.00     0.052 C 
BRANCH  43  44
ATOM     44  C   UNK d   0     -13.047   4.481  10.128  0.00  0.00     0.115 C 
BRANCH  44  45
ATOM     45  C   UNK d   0     -11.586   4.749  10.156  0.00  0.00     0.139 C 
ATOM     46  O   UNK d   0     -10.809   3.827   9.803  0.00  0.00    -0.650 OA
BRANCH  45  47
ATOM     47  O   UNK d   0     -11.055   5.960  10.545  0.00  0.00    -0.776 OA
ATOM     48  H   UNK d   0     -11.612   6.689  11.018  0.00  0.00     0.167 HD
ENDBRANCH  45  47
ENDBRANCH  44  45
ENDBRANCH  43  44
ENDBRANCH  27  43
BRANCH  24  49
ATOM     49  C   UNK d   0      -8.920   6.017  14.257  0.00  0.00     0.052 C 
BRANCH  49  50
ATOM     50  C   UNK d   0      -9.893   7.095  13.852  0.00  0.00     0.115 C 
BRANCH  50  51
ATOM     51  C   UNK d   0      -9.924   8.303  14.666  0.00  0.00     0.139 C 
ATOM     52  O   UNK d   0     -10.939   8.658  15.311  0.00  0.00    -0.650 OA
BRANCH  51  53
ATOM     53  O   UNK d   0      -8.798   9.108  14.741  0.00  0.00    -0.776 OA
ATOM     54  H   UNK d   0      -8.206   9.174  13.933  0.00  0.00     0.167 HD
ENDBRANCH  51  53
ENDBRANCH  50  51
ENDBRANCH  49  50
ENDBRANCH  24  49
BRANCH  21  55
ATOM     55  C   UNK d   0      -8.498   5.522  17.277  0.00  0.00     0.151 C 
BRANCH  55  56
ATOM     56  C   UNK d   0      -8.991   6.865  17.618  0.00  0.00     0.143 C 
ATOM     57  O   UNK d   0      -8.254   7.870  17.636  0.00  0.00    -0.650 OA
BRANCH  56  58
ATOM     58  O   UNK d   0     -10.343   7.001  17.931  0.00  0.00    -0.776 OA
ATOM     59  H   UNK d   0     -10.539   7.552  18.786  0.00  0.00     0.167 HD
ENDBRANCH  56  58
ENDBRANCH  55  56
ENDBRANCH  21  55
BRANCH  18  60
ATOM     60  C   UNK d   0      -9.531   0.894  19.792  0.00  0.00     0.151 C 
BRANCH  60  61
ATOM     61  C   UNK d   0      -8.451   0.778  18.800  0.00  0.00     0.143 C 
ATOM     62  O   UNK d   0      -7.315   1.244  18.882  0.00  0.00    -0.650 OA
BRANCH  61  63
ATOM     63  O   UNK d   0      -8.781   0.045  17.635  0.00  0.00    -0.776 OA
ATOM     64  H   UNK d   0      -8.104  -0.104  16.907  0.00  0.00     0.167 HD
ENDBRANCH  61  63
ENDBRANCH  60  61
ENDBRANCH  18  60
BRANCH  14  65
ATOM     65  C   UNK d   0     -11.618  -1.307  19.892  0.00  0.00     0.052 C 
BRANCH  65  66
ATOM     66  C   UNK d   0     -10.675  -2.325  19.357  0.00  0.00     0.115 C 
BRANCH  66  67
ATOM     67  C   UNK d   0     -10.817  -2.785  18.004  0.00  0.00     0.139 C 
ATOM     68  O   UNK d   0     -11.859  -3.473  17.696  0.00  0.00    -0.650 OA
BRANCH  67  69
ATOM     69  O   UNK d   0      -9.943  -2.580  16.937  0.00  0.00    -0.776 OA
ATOM     70  H   UNK d   0      -9.418  -3.408  16.623  0.00  0.00     0.167 HD
ENDBRANCH  67  69
ENDBRANCH  66  67
ENDBRANCH  65  66
ENDBRANCH  14  65
ENDBRANCH   6   7
ENDBRANCH   5   6
ENDBRANCH   2   5
TORSDOF 28
ENDMDL
