MODEL 1
REMARK VINA RESULT:     -10.3      0.000      0.000
REMARK  28 active torsions:
REMARK  status: ('A' for Active; 'I' for Inactive)
REMARK    1  A    between atoms: C_2  and  O_3 
REMARK    2  A    between atoms: C_2  and  C_4 
REMARK    3  A    between atoms: C_4  and  C_5 
REMARK    4  A    between atoms: C_5  and  C_6 
REMARK    5  A    between atoms: C_7  and  C_8 
REMARK    6  A    between atoms: C_8  and  C_9 
REMARK    7  A    between atoms: C_9  and  O_11 
REMARK    8  A    between atoms: C_28  and  C_29 
REMARK    9  A    between atoms: C_29  and  C_30 
REMARK   10  A    between atoms: C_30  and  O_32 
REMARK   11  A    between atoms: C_33  and  C_34 
REMARK   12  A    between atoms: C_34  and  C_35 
REMARK   13  A    between atoms: C_35  and  C_36 
REMARK   14  A    between atoms: C_36  and  O_38 
REMARK   15  A    between atoms: C_39  and  C_40 
REMARK   16  A    between atoms: C_40  and  C_41 
REMARK   17  A    between atoms: C_41  and  C_42 
REMARK   18  A    between atoms: C_42  and  O_44 
REMARK   19  A    between atoms: C_45  and  C_46 
REMARK   20  A    between atoms: C_46  and  C_47 
REMARK   21  A    between atoms: C_47  and  O_49 
REMARK   22  A    between atoms: C_50  and  C_51 
REMARK   23  A    between atoms: C_51  and  C_52 
REMARK   24  A    between atoms: C_52  and  O_54 
REMARK   25  A    between atoms: C_55  and  C_56 
REMARK   26  A    between atoms: C_56  and  C_57 
REMARK   27  A    between atoms: C_57  and  C_58 
REMARK   28  A    between atoms: C_58  and  O_60 
ROOT
ATOM      1  O   UNK d   0      14.148  15.120 -12.161  0.00  0.00    -0.650 OA
ATOM      2  C   UNK d   0      13.400  14.261 -11.643  0.00  0.00     0.139 C 
ENDROOT
BRANCH   2   3
ATOM      3  O   UNK d   0      12.670  13.426 -12.454  0.00  0.00    -0.776 OA
ATOM      4  H   UNK d   0      11.829  13.758 -12.932  0.00  0.00     0.167 HD
ENDBRANCH   2   3
BRANCH   2   5
ATOM      5  C   UNK d   0      13.305  14.149 -10.160  0.00  0.00     0.115 C 
BRANCH   5   6
ATOM      6  C   UNK d   0      14.663  13.877  -9.573  0.00  0.00     0.052 C 
BRANCH   6   7
ATOM      7  C   UNK d   0      14.665  12.691  -8.639  0.00  0.00    -0.020 A 
ATOM      8  C   UNK d   0      14.271  12.657  -7.391  0.00  0.00    -0.011 A 
ATOM      9  C   UNK d   0      14.469  11.303  -6.899  0.00  0.00     0.067 A 
ATOM     10  C   UNK d   0      14.238  10.620  -5.695  0.00  0.00     0.062 C 
ATOM     11  N   UNK d   0      14.992  10.581  -7.912  0.00  0.00    -0.248 NA
ATOM     12  C   UNK d   0      14.235   9.235  -5.494  0.00  0.00     0.041 A 
ATOM     13  N   UNK d   0      15.060   8.272  -5.946  0.00  0.00    -0.355 N 
ATOM     14  C   UNK d   0      13.193   8.659  -4.745  0.00  0.00    -0.022 A 
ATOM     15  C   UNK d   0      14.565   7.099  -5.510  0.00  0.00     0.042 A 
ATOM     16  H   UNK d   0      15.985   8.421  -6.546  0.00  0.00     0.166 HD
ATOM     17  C   UNK d   0      15.036   5.784  -5.694  0.00  0.00     0.062 C 
ATOM     18  C   UNK d   0      13.394   7.301  -4.753  0.00  0.00    -0.013 A 
ATOM     19  C   UNK d   0      15.495   5.184  -6.839  0.00  0.00     0.067 A 
ATOM     20  N   UNK d   0      15.723   5.979  -7.888  0.00  0.00    -0.248 NA
ATOM     21  C   UNK d   0      15.810   3.828  -7.254  0.00  0.00    -0.011 A 
ATOM     22  C   UNK d   0      16.162   5.240  -8.959  0.00  0.00     0.066 A 
ATOM     23  C   UNK d   0      16.474   5.949 -10.110  0.00  0.00     0.062 C 
ATOM     24  C   UNK d   0      16.196   3.867  -8.497  0.00  0.00    -0.020 A 
ATOM     25  C   UNK d   0      16.483   7.341 -10.288  0.00  0.00     0.041 A 
ATOM     26  N   UNK d   0      15.654   8.297  -9.851  0.00  0.00    -0.355 N 
ATOM     27  C   UNK d   0      17.531   7.920 -11.036  0.00  0.00    -0.022 A 
ATOM     28  C   UNK d   0      16.141   9.467 -10.292  0.00  0.00     0.042 A 
ATOM     29  H   UNK d   0      14.719   8.145  -9.258  0.00  0.00     0.166 HD
ATOM     30  C   UNK d   0      15.678  10.782 -10.124  0.00  0.00     0.062 C 
ATOM     31  C   UNK d   0      17.323   9.265 -11.043  0.00  0.00    -0.013 A 
ATOM     32  C   UNK d   0      15.135  11.358  -8.987  0.00  0.00     0.066 A 
BRANCH   8  33
ATOM     33  C   UNK d   0      13.727  13.778  -6.604  0.00  0.00     0.151 C 
BRANCH  33  34
ATOM     34  C   UNK d   0      14.739  14.805  -6.298  0.00  0.00     0.143 C 
ATOM     35  O   UNK d   0      14.404  15.956  -5.983  0.00  0.00    -0.650 OA
BRANCH  34  36
ATOM     36  O   UNK d   0      16.074  14.478  -6.364  0.00  0.00    -0.776 OA
ATOM     37  H   UNK d   0      16.702  14.930  -7.042  0.00  0.00     0.167 HD
ENDBRANCH  34  36
ENDBRANCH  33  34
ENDBRANCH   8  33
BRANCH  31  38
ATOM     38  C   UNK d   0      18.199  10.299 -11.711  0.00  0.00     0.151 C 
BRANCH  38  39
ATOM     39  C   UNK d   0      19.338  10.676 -10.902  0.00  0.00     0.143 C 
ATOM     40  O   UNK d   0      19.756   9.968  -9.969  0.00  0.00    -0.650 OA
BRANCH  39  41
ATOM     41  O   UNK d   0      20.002  11.873 -11.169  0.00  0.00    -0.776 OA
ATOM     42  H   UNK d   0      20.578  11.904 -12.016  0.00  0.00     0.167 HD
ENDBRANCH  39  41
ENDBRANCH  38  39
ENDBRANCH  31  38
BRANCH  27  43
ATOM     43  C   UNK d   0      18.693   7.255 -11.730  0.00  0.00     0.052 C 
BRANCH  43  44
ATOM     44  C   UNK d   0      18.278   6.356 -12.849  0.00  0.00     0.115 C 
BRANCH  44  45
ATOM     45  C   UNK d   0      17.699   7.229 -13.903  0.00  0.00     0.139 C 
ATOM     46  O   UNK d   0      18.474   7.992 -14.532  0.00  0.00    -0.650 OA
BRANCH  45  47
ATOM     47  O   UNK d   0      16.357   7.232 -14.217  0.00  0.00    -0.776 OA
ATOM     48  H   UNK d   0      15.981   6.788 -15.071  0.00  0.00     0.167 HD
ENDBRANCH  45  47
ENDBRANCH  44  45
ENDBRANCH  43  44
ENDBRANCH  27  43
BRANCH  24  49
ATOM     49  C   UNK d   0      16.645   2.719  -9.303  0.00  0.00     0.052 C 
BRANCH  49  50
ATOM     50  C   UNK d   0      17.923   3.056 -10.029  0.00  0.00     0.115 C 
BRANCH  50  51
ATOM     51  C   UNK d   0      19.151   2.456  -9.528  0.00  0.00     0.139 C 
ATOM     52  O   UNK d   0      19.701   1.476 -10.084  0.00  0.00    -0.650 OA
BRANCH  51  53
ATOM     53  O   UNK d   0      19.752   2.971  -8.389  0.00  0.00    -0.776 OA
ATOM     54  H   UNK d   0      19.761   2.405  -7.559  0.00  0.00     0.167 HD
ENDBRANCH  51  53
ENDBRANCH  50  51
ENDBRANCH  49  50
ENDBRANCH  24  49
BRANCH  21  55
ATOM     55  C   UNK d   0      15.697   2.635  -6.364  0.00  0.00     0.151 C 
BRANCH  55  56
ATOM     56  C   UNK d   0      16.864   1.747  -6.481  0.00  0.00     0.143 C 
ATOM     57  O   UNK d   0      16.774   0.559  -6.851  0.00  0.00    -0.650 OA
BRANCH  56  58
ATOM     58  O   UNK d   0      18.114   2.272  -6.161  0.00  0.00    -0.776 OA
ATOM     59  H   UNK d   0      18.524   2.894  -6.881  0.00  0.00     0.167 HD
ENDBRANCH  56  58
ENDBRANCH  55  56
ENDBRANCH  21  55
BRANCH  18  60
ATOM     60  C   UNK d   0      12.503   6.291  -4.074  0.00  0.00     0.151 C 
BRANCH  60  61
ATOM     61  C   UNK d   0      13.311   5.701  -2.995  0.00  0.00     0.143 C 
ATOM     62  O   UNK d   0      13.942   6.304  -2.126  0.00  0.00    -0.650 OA
BRANCH  61  63
ATOM     63  O   UNK d   0      13.348   4.286  -2.975  0.00  0.00    -0.776 OA
ATOM     64  H   UNK d   0      14.131   3.794  -2.581  0.00  0.00     0.167 HD
ENDBRANCH  61  63
ENDBRANCH  60  61
ENDBRANCH  18  60
BRANCH  14  65
ATOM     65  C   UNK d   0      12.090   9.294  -3.947  0.00  0.00     0.052 C 
BRANCH  65  66
ATOM     66  C   UNK d   0      12.443   9.484  -2.515  0.00  0.00     0.115 C 
BRANCH  66  67
ATOM     67  C   UNK d   0      11.644   8.862  -1.497  0.00  0.00     0.139 C 
ATOM     68  O   UNK d   0      10.364   8.973  -1.567  0.00  0.00    -0.650 OA
BRANCH  67  69
ATOM     69  O   UNK d   0      12.084   8.125  -0.398  0.00  0.00    -0.776 OA
ATOM     70  H   UNK d   0      12.266   7.126  -0.572  0.00  0.00     0.167 HD
ENDBRANCH  67  69
ENDBRANCH  66  67
ENDBRANCH  65  66
ENDBRANCH  14  65
ENDBRANCH   6   7
ENDBRANCH   5   6
ENDBRANCH   2   5
TORSDOF 28
ENDMDL
MODEL 2
REMARK VINA RESULT:      -9.4      1.350      1.924
REMARK  28 active torsions:
REMARK  status: ('A' for Active; 'I' for Inactive)
REMARK    1  A    between atoms: C_2  and  O_3 
REMARK    2  A    between atoms: C_2  and  C_4 
REMARK    3  A    between atoms: C_4  and  C_5 
REMARK    4  A    between atoms: C_5  and  C_6 
REMARK    5  A    between atoms: C_7  and  C_8 
REMARK    6  A    between atoms: C_8  and  C_9 
REMARK    7  A    between atoms: C_9  and  O_11 
REMARK    8  A    between atoms: C_28  and  C_29 
REMARK    9  A    between atoms: C_29  and  C_30 
REMARK   10  A    between atoms: C_30  and  O_32 
REMARK   11  A    between atoms: C_33  and  C_34 
REMARK   12  A    between atoms: C_34  and  C_35 
REMARK   13  A    between atoms: C_35  and  C_36 
REMARK   14  A    between atoms: C_36  and  O_38 
REMARK   15  A    between atoms: C_39  and  C_40 
REMARK   16  A    between atoms: C_40  and  C_41 
REMARK   17  A    between atoms: C_41  and  C_42 
REMARK   18  A    between atoms: C_42  and  O_44 
REMARK   19  A    between atoms: C_45  and  C_46 
REMARK   20  A    between atoms: C_46  and  C_47 
REMARK   21  A    between atoms: C_47  and  O_49 
REMARK   22  A    between atoms: C_50  and  C_51 
REMARK   23  A    between atoms: C_51  and  C_52 
REMARK   24  A    between atoms: C_52  and  O_54 
REMARK   25  A    between atoms: C_55  and  C_56 
REMARK   26  A    between atoms: C_56  and  C_57 
REMARK   27  A    between atoms: C_57  and  C_58 
REMARK   28  A    between atoms: C_58  and  O_60 
ROOT
ATOM      1  O   UNK d   0      16.327  13.756 -12.600  0.00  0.00    -0.650 OA
ATOM      2  C   UNK d   0      15.466  14.301 -11.874  0.00  0.00     0.139 C 
ENDROOT
BRANCH   2   3
ATOM      3  O   UNK d   0      14.345  14.846 -12.452  0.00  0.00    -0.776 OA
ATOM      4  H   UNK d   0      14.354  15.798 -12.824  0.00  0.00     0.167 HD
ENDBRANCH   2   3
BRANCH   2   5
ATOM      5  C   UNK d   0      15.659  14.356 -10.397  0.00  0.00     0.115 C 
BRANCH   5   6
ATOM      6  C   UNK d   0      14.366  14.046  -9.694  0.00  0.00     0.052 C 
BRANCH   6   7
ATOM      7  C   UNK d   0      14.473  12.847  -8.782  0.00  0.00    -0.020 A 
ATOM      8  C   UNK d   0      14.050  12.743  -7.548  0.00  0.00    -0.011 A 
ATOM      9  C   UNK d   0      14.382  11.409  -7.075  0.00  0.00     0.067 A 
ATOM     10  C   UNK d   0      14.194  10.678  -5.891  0.00  0.00     0.062 C 
ATOM     11  N   UNK d   0      15.012  10.772  -8.084  0.00  0.00    -0.248 NA
ATOM     12  C   UNK d   0      14.340   9.298  -5.716  0.00  0.00     0.041 A 
ATOM     13  N   UNK d   0      15.280   8.442  -6.160  0.00  0.00    -0.355 N 
ATOM     14  C   UNK d   0      13.348   8.593  -5.010  0.00  0.00    -0.022 A 
ATOM     15  C   UNK d   0      14.906   7.212  -5.761  0.00  0.00     0.042 A 
ATOM     16  H   UNK d   0      16.200   8.705  -6.727  0.00  0.00     0.166 HD
ATOM     17  C   UNK d   0      15.526   5.961  -5.954  0.00  0.00     0.062 C 
ATOM     18  C   UNK d   0      13.699   7.267  -5.037  0.00  0.00    -0.013 A 
ATOM     19  C   UNK d   0      16.082   5.442  -7.095  0.00  0.00     0.067 A 
ATOM     20  N   UNK d   0      16.250   6.279  -8.122  0.00  0.00    -0.248 NA
ATOM     21  C   UNK d   0      16.557   4.137  -7.525  0.00  0.00    -0.011 A 
ATOM     22  C   UNK d   0      16.799   5.617  -9.192  0.00  0.00     0.066 A 
ATOM     23  C   UNK d   0      17.063   6.381 -10.320  0.00  0.00     0.062 C 
ATOM     24  C   UNK d   0      16.972   4.246  -8.754  0.00  0.00    -0.020 A 
ATOM     25  C   UNK d   0      16.921   7.769 -10.471  0.00  0.00     0.041 A 
ATOM     26  N   UNK d   0      15.979   8.617 -10.043  0.00  0.00    -0.355 N 
ATOM     27  C   UNK d   0      17.920   8.476 -11.176  0.00  0.00    -0.022 A 
ATOM     28  C   UNK d   0      16.345   9.844 -10.447  0.00  0.00     0.042 A 
ATOM     29  H   UNK d   0      15.050   8.350  -9.482  0.00  0.00     0.166 HD
ATOM     30  C   UNK d   0      15.734  11.095 -10.270  0.00  0.00     0.062 C 
ATOM     31  C   UNK d   0      17.564   9.789 -11.165  0.00  0.00    -0.013 A 
ATOM     32  C   UNK d   0      15.098  11.583  -9.139  0.00  0.00     0.066 A 
BRANCH   8  33
ATOM     33  C   UNK d   0      13.361  13.780  -6.758  0.00  0.00     0.151 C 
BRANCH  33  34
ATOM     34  C   UNK d   0      14.242  14.909  -6.408  0.00  0.00     0.143 C 
ATOM     35  O   UNK d   0      13.770  16.018  -6.119  0.00  0.00    -0.650 OA
BRANCH  34  36
ATOM     36  O   UNK d   0      15.605  14.726  -6.405  0.00  0.00    -0.776 OA
ATOM     37  H   UNK d   0      16.080  14.263  -5.618  0.00  0.00     0.167 HD
ENDBRANCH  34  36
ENDBRANCH  33  34
ENDBRANCH   8  33
BRANCH  31  38
ATOM     38  C   UNK d   0      18.338  10.928 -11.786  0.00  0.00     0.151 C 
BRANCH  38  39
ATOM     39  C   UNK d   0      18.296  10.912 -13.233  0.00  0.00     0.143 C 
ATOM     40  O   UNK d   0      17.291  10.545 -13.866  0.00  0.00    -0.650 OA
BRANCH  39  41
ATOM     41  O   UNK d   0      19.416  11.322 -13.957  0.00  0.00    -0.776 OA
ATOM     42  H   UNK d   0      19.270  11.543 -14.947  0.00  0.00     0.167 HD
ENDBRANCH  39  41
ENDBRANCH  38  39
ENDBRANCH  31  38
BRANCH  27  43
ATOM     43  C   UNK d   0      19.169   7.959 -11.846  0.00  0.00     0.052 C 
BRANCH  43  44
ATOM     44  C   UNK d   0      20.407   8.182 -11.039  0.00  0.00     0.115 C 
BRANCH  44  45
ATOM     45  C   UNK d   0      21.177   6.912 -11.084  0.00  0.00     0.139 C 
ATOM     46  O   UNK d   0      20.680   5.940 -11.704  0.00  0.00    -0.650 OA
BRANCH  45  47
ATOM     47  O   UNK d   0      22.408   6.763 -10.481  0.00  0.00    -0.776 OA
ATOM     48  H   UNK d   0      22.935   7.556 -10.081  0.00  0.00     0.167 HD
ENDBRANCH  45  47
ENDBRANCH  44  45
ENDBRANCH  43  44
ENDBRANCH  27  43
BRANCH  24  49
ATOM     49  C   UNK d   0      17.570   3.173  -9.567  0.00  0.00     0.052 C 
BRANCH  49  50
ATOM     50  C   UNK d   0      19.074   3.257  -9.523  0.00  0.00     0.115 C 
BRANCH  50  51
ATOM     51  C   UNK d   0      19.812   2.494 -10.520  0.00  0.00     0.139 C 
ATOM     52  O   UNK d   0      19.818   1.241 -10.544  0.00  0.00    -0.650 OA
BRANCH  51  53
ATOM     53  O   UNK d   0      20.547   3.161 -11.488  0.00  0.00    -0.776 OA
ATOM     54  H   UNK d   0      20.084   3.419 -12.342  0.00  0.00     0.167 HD
ENDBRANCH  51  53
ENDBRANCH  50  51
ENDBRANCH  49  50
ENDBRANCH  24  49
BRANCH  21  55
ATOM     55  C   UNK d   0      16.552   2.920  -6.661  0.00  0.00     0.151 C 
BRANCH  55  56
ATOM     56  C   UNK d   0      15.804   1.812  -7.274  0.00  0.00     0.143 C 
ATOM     57  O   UNK d   0      16.258   0.654  -7.355  0.00  0.00    -0.650 OA
BRANCH  56  58
ATOM     58  O   UNK d   0      14.534   2.087  -7.780  0.00  0.00    -0.776 OA
ATOM     59  H   UNK d   0      14.000   1.257  -8.092  0.00  0.00     0.167 HD
ENDBRANCH  56  58
ENDBRANCH  55  56
ENDBRANCH  21  55
BRANCH  18  60
ATOM     60  C   UNK d   0      12.907   6.150  -4.404  0.00  0.00     0.151 C 
BRANCH  60  61
ATOM     61  C   UNK d   0      13.795   5.543  -3.401  0.00  0.00     0.143 C 
ATOM     62  O   UNK d   0      14.136   4.362  -3.329  0.00  0.00    -0.650 OA
BRANCH  61  63
ATOM     63  O   UNK d   0      14.298   6.435  -2.424  0.00  0.00    -0.776 OA
ATOM     64  H   UNK d   0      14.396   6.152  -1.465  0.00  0.00     0.167 HD
ENDBRANCH  61  63
ENDBRANCH  60  61
ENDBRANCH  18  60
BRANCH  14  65
ATOM     65  C   UNK d   0      12.158   9.086  -4.235  0.00  0.00     0.052 C 
BRANCH  65  66
ATOM     66  C   UNK d   0      12.492   9.468  -2.837  0.00  0.00     0.115 C 
BRANCH  66  67
ATOM     67  C   UNK d   0      11.785   8.861  -1.745  0.00  0.00     0.139 C 
ATOM     68  O   UNK d   0      12.460   8.218  -0.859  0.00  0.00    -0.650 OA
BRANCH  67  69
ATOM     69  O   UNK d   0      10.411   8.872  -1.506  0.00  0.00    -0.776 OA
ATOM     70  H   UNK d   0      10.024   9.763  -1.163  0.00  0.00     0.167 HD
ENDBRANCH  67  69
ENDBRANCH  66  67
ENDBRANCH  65  66
ENDBRANCH  14  65
ENDBRANCH   6   7
ENDBRANCH   5   6
ENDBRANCH   2   5
TORSDOF 28
ENDMDL
MODEL 3
REMARK VINA RESULT:      -8.8      1.325      7.650
REMARK  28 active torsions:
REMARK  status: ('A' for Active; 'I' for Inactive)
REMARK    1  A    between atoms: C_2  and  O_3 
REMARK    2  A    between atoms: C_2  and  C_4 
REMARK    3  A    between atoms: C_4  and  C_5 
REMARK    4  A    between atoms: C_5  and  C_6 
REMARK    5  A    between atoms: C_7  and  C_8 
REMARK    6  A    between atoms: C_8  and  C_9 
REMARK    7  A    between atoms: C_9  and  O_11 
REMARK    8  A    between atoms: C_28  and  C_29 
REMARK    9  A    between atoms: C_29  and  C_30 
REMARK   10  A    between atoms: C_30  and  O_32 
REMARK   11  A    between atoms: C_33  and  C_34 
REMARK   12  A    between atoms: C_34  and  C_35 
REMARK   13  A    between atoms: C_35  and  C_36 
REMARK   14  A    between atoms: C_36  and  O_38 
REMARK   15  A    between atoms: C_39  and  C_40 
REMARK   16  A    between atoms: C_40  and  C_41 
REMARK   17  A    between atoms: C_41  and  C_42 
REMARK   18  A    between atoms: C_42  and  O_44 
REMARK   19  A    between atoms: C_45  and  C_46 
REMARK   20  A    between atoms: C_46  and  C_47 
REMARK   21  A    between atoms: C_47  and  O_49 
REMARK   22  A    between atoms: C_50  and  C_51 
REMARK   23  A    between atoms: C_51  and  C_52 
REMARK   24  A    between atoms: C_52  and  O_54 
REMARK   25  A    between atoms: C_55  and  C_56 
REMARK   26  A    between atoms: C_56  and  C_57 
REMARK   27  A    between atoms: C_57  and  C_58 
REMARK   28  A    between atoms: C_58  and  O_60 
ROOT
ATOM      1  O   UNK d   0      14.095  16.280  -5.996  0.00  0.00    -0.650 OA
ATOM      2  C   UNK d   0      13.543  15.811  -7.016  0.00  0.00     0.139 C 
ENDROOT
BRANCH   2   3
ATOM      3  O   UNK d   0      13.437  16.590  -8.143  0.00  0.00    -0.776 OA
ATOM      4  H   UNK d   0      12.568  16.626  -8.680  0.00  0.00     0.167 HD
ENDBRANCH   2   3
BRANCH   2   5
ATOM      5  C   UNK d   0      13.006  14.420  -7.004  0.00  0.00     0.115 C 
BRANCH   5   6
ATOM      6  C   UNK d   0      13.979  13.496  -6.324  0.00  0.00     0.052 C 
BRANCH   6   7
ATOM      7  C   UNK d   0      14.428  12.364  -7.218  0.00  0.00    -0.020 A 
ATOM      8  C   UNK d   0      14.893  12.447  -8.438  0.00  0.00    -0.011 A 
ATOM      9  C   UNK d   0      15.183  11.099  -8.896  0.00  0.00     0.067 A 
ATOM     10  C   UNK d   0      15.704  10.516 -10.062  0.00  0.00     0.062 C 
ATOM     11  N   UNK d   0      14.858  10.256  -7.893  0.00  0.00    -0.248 NA
ATOM     12  C   UNK d   0      16.173   9.207 -10.217  0.00  0.00     0.041 A 
ATOM     13  N   UNK d   0      15.681   8.031  -9.783  0.00  0.00    -0.355 N 
ATOM     14  C   UNK d   0      17.394   8.996 -10.884  0.00  0.00    -0.022 A 
ATOM     15  C   UNK d   0      16.561   7.081 -10.151  0.00  0.00     0.042 A 
ATOM     16  H   UNK d   0      14.720   7.874  -9.245  0.00  0.00     0.166 HD
ATOM     17  C   UNK d   0      16.535   5.686  -9.952  0.00  0.00     0.062 C 
ATOM     18  C   UNK d   0      17.648   7.647 -10.843  0.00  0.00    -0.013 A 
ATOM     19  C   UNK d   0      16.222   4.982  -8.817  0.00  0.00     0.067 A 
ATOM     20  N   UNK d   0      15.677   5.670  -7.810  0.00  0.00    -0.248 NA
ATOM     21  C   UNK d   0      16.341   3.602  -8.377  0.00  0.00    -0.011 A 
ATOM     22  C   UNK d   0      15.433   4.840  -6.743  0.00  0.00     0.066 A 
ATOM     23  C   UNK d   0      14.831   5.420  -5.637  0.00  0.00     0.062 C 
ATOM     24  C   UNK d   0      15.882   3.526  -7.162  0.00  0.00    -0.020 A 
ATOM     25  C   UNK d   0      14.356   6.734  -5.505  0.00  0.00     0.041 A 
ATOM     26  N   UNK d   0      14.853   7.904  -5.924  0.00  0.00    -0.355 N 
ATOM     27  C   UNK d   0      13.128   6.944  -4.839  0.00  0.00    -0.022 A 
ATOM     28  C   UNK d   0      13.981   8.854  -5.550  0.00  0.00     0.042 A 
ATOM     29  H   UNK d   0      15.823   8.061  -6.455  0.00  0.00     0.166 HD
ATOM     30  C   UNK d   0      13.999  10.246  -5.733  0.00  0.00     0.062 C 
ATOM     31  C   UNK d   0      12.884   8.283  -4.864  0.00  0.00    -0.013 A 
ATOM     32  C   UNK d   0      14.398  10.955  -6.855  0.00  0.00     0.066 A 
BRANCH   8  33
ATOM     33  C   UNK d   0      15.092  13.677  -9.228  0.00  0.00     0.151 C 
BRANCH  33  34
ATOM     34  C   UNK d   0      14.178  13.768 -10.381  0.00  0.00     0.143 C 
ATOM     35  O   UNK d   0      13.080  14.335 -10.279  0.00  0.00    -0.650 OA
BRANCH  34  36
ATOM     36  O   UNK d   0      14.551  13.214 -11.584  0.00  0.00    -0.776 OA
ATOM     37  H   UNK d   0      15.373  13.559 -12.098  0.00  0.00     0.167 HD
ENDBRANCH  34  36
ENDBRANCH  33  34
ENDBRANCH   8  33
BRANCH  31  38
ATOM     38  C   UNK d   0      11.675   8.979  -4.283  0.00  0.00     0.151 C 
BRANCH  38  39
ATOM     39  C   UNK d   0      11.758   9.144  -2.848  0.00  0.00     0.143 C 
ATOM     40  O   UNK d   0      10.828   8.825  -2.086  0.00  0.00    -0.650 OA
BRANCH  39  41
ATOM     41  O   UNK d   0      12.916   9.679  -2.284  0.00  0.00    -0.776 OA
ATOM     42  H   UNK d   0      13.379   9.119  -1.561  0.00  0.00     0.167 HD
ENDBRANCH  39  41
ENDBRANCH  38  39
ENDBRANCH  31  38
BRANCH  27  43
ATOM     43  C   UNK d   0      12.204   5.942  -4.195  0.00  0.00     0.052 C 
BRANCH  43  44
ATOM     44  C   UNK d   0      12.482   5.730  -2.742  0.00  0.00     0.115 C 
BRANCH  44  45
ATOM     45  C   UNK d   0      11.511   4.710  -2.267  0.00  0.00     0.139 C 
ATOM     46  O   UNK d   0      11.428   3.631  -2.905  0.00  0.00    -0.650 OA
BRANCH  45  47
ATOM     47  O   UNK d   0      10.710   4.898  -1.162  0.00  0.00    -0.776 OA
ATOM     48  H   UNK d   0      10.686   4.237  -0.369  0.00  0.00     0.167 HD
ENDBRANCH  45  47
ENDBRANCH  44  45
ENDBRANCH  43  44
ENDBRANCH  27  43
BRANCH  24  49
ATOM     49  C   UNK d   0      15.780   2.304  -6.346  0.00  0.00     0.052 C 
BRANCH  49  50
ATOM     50  C   UNK d   0      17.135   1.661  -6.193  0.00  0.00     0.115 C 
BRANCH  50  51
ATOM     51  C   UNK d   0      17.195   0.208  -6.284  0.00  0.00     0.139 C 
ATOM     52  O   UNK d   0      18.210  -0.448  -5.949  0.00  0.00    -0.650 OA
BRANCH  51  53
ATOM     53  O   UNK d   0      16.099  -0.496  -6.758  0.00  0.00    -0.776 OA
ATOM     54  H   UNK d   0      15.466  -0.897  -6.089  0.00  0.00     0.167 HD
ENDBRANCH  51  53
ENDBRANCH  50  51
ENDBRANCH  49  50
ENDBRANCH  24  49
BRANCH  21  55
ATOM     55  C   UNK d   0      16.898   2.503  -9.220  0.00  0.00     0.151 C 
BRANCH  55  56
ATOM     56  C   UNK d   0      18.361   2.588  -9.341  0.00  0.00     0.143 C 
ATOM     57  O   UNK d   0      19.059   3.315  -8.606  0.00  0.00    -0.650 OA
BRANCH  56  58
ATOM     58  O   UNK d   0      18.977   1.815 -10.324  0.00  0.00    -0.776 OA
ATOM     59  H   UNK d   0      18.814   0.795 -10.244  0.00  0.00     0.167 HD
ENDBRANCH  56  58
ENDBRANCH  55  56
ENDBRANCH  21  55
BRANCH  18  60
ATOM     60  C   UNK d   0      18.864   6.979 -11.435  0.00  0.00     0.151 C 
BRANCH  60  61
ATOM     61  C   UNK d   0      18.428   6.415 -12.722  0.00  0.00     0.143 C 
ATOM     62  O   UNK d   0      18.001   7.035 -13.697  0.00  0.00    -0.650 OA
BRANCH  61  63
ATOM     63  O   UNK d   0      18.521   5.006 -12.825  0.00  0.00    -0.776 OA
ATOM     64  H   UNK d   0      18.885   4.570 -13.653  0.00  0.00     0.167 HD
ENDBRANCH  61  63
ENDBRANCH  60  61
ENDBRANCH  18  60
BRANCH  14  65
ATOM     65  C   UNK d   0      18.279   9.950 -11.635  0.00  0.00     0.052 C 
BRANCH  65  66
ATOM     66  C   UNK d   0      17.643  10.484 -12.869  0.00  0.00     0.115 C 
BRANCH  66  67
ATOM     67  C   UNK d   0      17.867  11.850 -13.251  0.00  0.00     0.139 C 
ATOM     68  O   UNK d   0      19.012  12.170 -13.742  0.00  0.00    -0.650 OA
BRANCH  67  69
ATOM     69  O   UNK d   0      16.977  12.919 -13.157  0.00  0.00    -0.776 OA
ATOM     70  H   UNK d   0      17.319  13.743 -12.641  0.00  0.00     0.167 HD
ENDBRANCH  67  69
ENDBRANCH  66  67
ENDBRANCH  65  66
ENDBRANCH  14  65
ENDBRANCH   6   7
ENDBRANCH   5   6
ENDBRANCH   2   5
TORSDOF 28
ENDMDL
MODEL 4
REMARK VINA RESULT:      -8.7      2.156      7.842
REMARK  28 active torsions:
REMARK  status: ('A' for Active; 'I' for Inactive)
REMARK    1  A    between atoms: C_2  and  O_3 
REMARK    2  A    between atoms: C_2  and  C_4 
REMARK    3  A    between atoms: C_4  and  C_5 
REMARK    4  A    between atoms: C_5  and  C_6 
REMARK    5  A    between atoms: C_7  and  C_8 
REMARK    6  A    between atoms: C_8  and  C_9 
REMARK    7  A    between atoms: C_9  and  O_11 
REMARK    8  A    between atoms: C_28  and  C_29 
REMARK    9  A    between atoms: C_29  and  C_30 
REMARK   10  A    between atoms: C_30  and  O_32 
REMARK   11  A    between atoms: C_33  and  C_34 
REMARK   12  A    between atoms: C_34  and  C_35 
REMARK   13  A    between atoms: C_35  and  C_36 
REMARK   14  A    between atoms: C_36  and  O_38 
REMARK   15  A    between atoms: C_39  and  C_40 
REMARK   16  A    between atoms: C_40  and  C_41 
REMARK   17  A    between atoms: C_41  and  C_42 
REMARK   18  A    between atoms: C_42  and  O_44 
REMARK   19  A    between atoms: C_45  and  C_46 
REMARK   20  A    between atoms: C_46  and  C_47 
REMARK   21  A    between atoms: C_47  and  O_49 
REMARK   22  A    between atoms: C_50  and  C_51 
REMARK   23  A    between atoms: C_51  and  C_52 
REMARK   24  A    between atoms: C_52  and  O_54 
REMARK   25  A    between atoms: C_55  and  C_56 
REMARK   26  A    between atoms: C_56  and  C_57 
REMARK   27  A    between atoms: C_57  and  C_58 
REMARK   28  A    between atoms: C_58  and  O_60 
ROOT
ATOM      1  O   UNK d   0      17.763  15.791 -12.636  0.00  0.00    -0.650 OA
ATOM      2  C   UNK d   0      17.694  14.549 -12.773  0.00  0.00     0.139 C 
ENDROOT
BRANCH   2   3
ATOM      3  O   UNK d   0      17.642  14.013 -14.037  0.00  0.00    -0.776 OA
ATOM      4  H   UNK d   0      18.369  13.377 -14.371  0.00  0.00     0.167 HD
ENDBRANCH   2   3
BRANCH   2   5
ATOM      5  C   UNK d   0      17.666  13.665 -11.574  0.00  0.00     0.115 C 
BRANCH   5   6
ATOM      6  C   UNK d   0      16.315  13.017 -11.440  0.00  0.00     0.052 C 
BRANCH   6   7
ATOM      7  C   UNK d   0      16.403  11.521 -11.256  0.00  0.00    -0.020 A 
ATOM      8  C   UNK d   0      16.881  10.640 -12.098  0.00  0.00    -0.011 A 
ATOM      9  C   UNK d   0      16.748   9.326 -11.491  0.00  0.00     0.067 A 
ATOM     10  C   UNK d   0      17.076   8.009 -11.847  0.00  0.00     0.062 C 
ATOM     11  N   UNK d   0      16.174   9.500 -10.282  0.00  0.00    -0.248 NA
ATOM     12  C   UNK d   0      17.124   6.891 -11.006  0.00  0.00     0.041 A 
ATOM     13  N   UNK d   0      16.292   6.480 -10.030  0.00  0.00    -0.355 N 
ATOM     14  C   UNK d   0      18.227   6.022 -11.092  0.00  0.00    -0.022 A 
ATOM     15  C   UNK d   0      16.843   5.376  -9.490  0.00  0.00     0.042 A 
ATOM     16  H   UNK d   0      15.326   6.948  -9.743  0.00  0.00     0.166 HD
ATOM     17  C   UNK d   0      16.391   4.550  -8.442  0.00  0.00     0.062 C 
ATOM     18  C   UNK d   0      18.057   5.059 -10.129  0.00  0.00    -0.013 A 
ATOM     19  C   UNK d   0      15.869   4.907  -7.225  0.00  0.00     0.067 A 
ATOM     20  N   UNK d   0      15.553   6.194  -7.057  0.00  0.00    -0.248 NA
ATOM     21  C   UNK d   0      15.558   4.225  -5.980  0.00  0.00    -0.011 A 
ATOM     22  C   UNK d   0      15.059   6.403  -5.793  0.00  0.00     0.066 A 
ATOM     23  C   UNK d   0      14.654   7.695  -5.495  0.00  0.00     0.062 C 
ATOM     24  C   UNK d   0      15.089   5.106  -5.145  0.00  0.00    -0.020 A 
ATOM     25  C   UNK d   0      14.602   8.801  -6.357  0.00  0.00     0.041 A 
ATOM     26  N   UNK d   0      15.436   9.218  -7.317  0.00  0.00    -0.355 N 
ATOM     27  C   UNK d   0      13.492   9.670  -6.274  0.00  0.00    -0.022 A 
ATOM     28  C   UNK d   0      14.893  10.324  -7.852  0.00  0.00     0.042 A 
ATOM     29  H   UNK d   0      16.412   8.752  -7.598  0.00  0.00     0.166 HD
ATOM     30  C   UNK d   0      15.336  11.161  -8.888  0.00  0.00     0.062 C 
ATOM     31  C   UNK d   0      13.668  10.636  -7.216  0.00  0.00    -0.013 A 
ATOM     32  C   UNK d   0      15.942  10.798 -10.081  0.00  0.00     0.066 A 
BRANCH   8  33
ATOM     33  C   UNK d   0      17.451  10.909 -13.431  0.00  0.00     0.151 C 
BRANCH  33  34
ATOM     34  C   UNK d   0      18.922  10.809 -13.453  0.00  0.00     0.143 C 
ATOM     35  O   UNK d   0      19.631  11.820 -13.347  0.00  0.00    -0.650 OA
BRANCH  34  36
ATOM     36  O   UNK d   0      19.512   9.574 -13.596  0.00  0.00    -0.776 OA
ATOM     37  H   UNK d   0      19.068   8.723 -13.226  0.00  0.00     0.167 HD
ENDBRANCH  34  36
ENDBRANCH  33  34
ENDBRANCH   8  33
BRANCH  31  38
ATOM     38  C   UNK d   0      12.725  11.780  -7.507  0.00  0.00     0.151 C 
BRANCH  38  39
ATOM     39  C   UNK d   0      11.609  11.390  -8.342  0.00  0.00     0.143 C 
ATOM     40  O   UNK d   0      10.764  12.207  -8.748  0.00  0.00    -0.650 OA
BRANCH  39  41
ATOM     41  O   UNK d   0      11.464  10.053  -8.712  0.00  0.00    -0.776 OA
ATOM     42  H   UNK d   0      10.555   9.778  -9.097  0.00  0.00     0.167 HD
ENDBRANCH  39  41
ENDBRANCH  38  39
ENDBRANCH  31  38
BRANCH  27  43
ATOM     43  C   UNK d   0      12.301   9.618  -5.350  0.00  0.00     0.052 C 
BRANCH  43  44
ATOM     44  C   UNK d   0      12.631   9.979  -3.938  0.00  0.00     0.115 C 
BRANCH  44  45
ATOM     45  C   UNK d   0      11.663   9.253  -3.076  0.00  0.00     0.139 C 
ATOM     46  O   UNK d   0      11.905   9.178  -1.846  0.00  0.00    -0.650 OA
BRANCH  45  47
ATOM     47  O   UNK d   0      10.516   8.668  -3.569  0.00  0.00    -0.776 OA
ATOM     48  H   UNK d   0      10.262   8.690  -4.570  0.00  0.00     0.167 HD
ENDBRANCH  45  47
ENDBRANCH  44  45
ENDBRANCH  43  44
ENDBRANCH  27  43
BRANCH  24  49
ATOM     49  C   UNK d   0      14.612   4.838  -3.777  0.00  0.00     0.052 C 
BRANCH  49  50
ATOM     50  C   UNK d   0      13.622   5.892  -3.351  0.00  0.00     0.115 C 
BRANCH  50  51
ATOM     51  C   UNK d   0      12.214   5.518  -3.348  0.00  0.00     0.139 C 
ATOM     52  O   UNK d   0      11.401   5.937  -4.206  0.00  0.00    -0.650 OA
BRANCH  51  53
ATOM     53  O   UNK d   0      11.732   4.668  -2.365  0.00  0.00    -0.776 OA
ATOM     54  H   UNK d   0      12.007   3.702  -2.394  0.00  0.00     0.167 HD
ENDBRANCH  51  53
ENDBRANCH  50  51
ENDBRANCH  49  50
ENDBRANCH  24  49
BRANCH  21  55
ATOM     55  C   UNK d   0      15.759   2.763  -5.757  0.00  0.00     0.151 C 
BRANCH  55  56
ATOM     56  C   UNK d   0      16.779   2.202  -6.657  0.00  0.00     0.143 C 
ATOM     57  O   UNK d   0      18.000   2.393  -6.495  0.00  0.00    -0.650 OA
BRANCH  56  58
ATOM     58  O   UNK d   0      16.342   1.428  -7.730  0.00  0.00    -0.776 OA
ATOM     59  H   UNK d   0      15.845   0.558  -7.467  0.00  0.00     0.167 HD
ENDBRANCH  56  58
ENDBRANCH  55  56
ENDBRANCH  21  55
BRANCH  18  60
ATOM     60  C   UNK d   0      19.015   3.924  -9.863  0.00  0.00     0.151 C 
BRANCH  60  61
ATOM     61  C   UNK d   0      18.610   2.834 -10.763  0.00  0.00     0.143 C 
ATOM     62  O   UNK d   0      18.989   2.646 -11.919  0.00  0.00    -0.650 OA
BRANCH  61  63
ATOM     63  O   UNK d   0      17.683   1.914 -10.215  0.00  0.00    -0.776 OA
ATOM     64  H   UNK d   0      17.943   0.961 -10.034  0.00  0.00     0.167 HD
ENDBRANCH  61  63
ENDBRANCH  60  61
ENDBRANCH  18  60
BRANCH  14  65
ATOM     65  C   UNK d   0      19.367   5.977 -12.070  0.00  0.00     0.052 C 
BRANCH  65  66
ATOM     66  C   UNK d   0      20.700   5.995 -11.410  0.00  0.00     0.115 C 
BRANCH  66  67
ATOM     67  C   UNK d   0      21.270   7.245 -10.991  0.00  0.00     0.139 C 
ATOM     68  O   UNK d   0      20.629   8.329 -11.251  0.00  0.00    -0.650 OA
BRANCH  67  69
ATOM     69  O   UNK d   0      22.471   7.451 -10.313  0.00  0.00    -0.776 OA
ATOM     70  H   UNK d   0      23.221   7.899 -10.858  0.00  0.00     0.167 HD
ENDBRANCH  67  69
ENDBRANCH  66  67
ENDBRANCH  65  66
ENDBRANCH  14  65
ENDBRANCH   6   7
ENDBRANCH   5   6
ENDBRANCH   2   5
TORSDOF 28
ENDMDL
MODEL 5
REMARK VINA RESULT:      -8.7      1.889      8.167
REMARK  28 active torsions:
REMARK  status: ('A' for Active; 'I' for Inactive)
REMARK    1  A    between atoms: C_2  and  O_3 
REMARK    2  A    between atoms: C_2  and  C_4 
REMARK    3  A    between atoms: C_4  and  C_5 
REMARK    4  A    between atoms: C_5  and  C_6 
REMARK    5  A    between atoms: C_7  and  C_8 
REMARK    6  A    between atoms: C_8  and  C_9 
REMARK    7  A    between atoms: C_9  and  O_11 
REMARK    8  A    between atoms: C_28  and  C_29 
REMARK    9  A    between atoms: C_29  and  C_30 
REMARK   10  A    between atoms: C_30  and  O_32 
REMARK   11  A    between atoms: C_33  and  C_34 
REMARK   12  A    between atoms: C_34  and  C_35 
REMARK   13  A    between atoms: C_35  and  C_36 
REMARK   14  A    between atoms: C_36  and  O_38 
REMARK   15  A    between atoms: C_39  and  C_40 
REMARK   16  A    between atoms: C_40  and  C_41 
REMARK   17  A    between atoms: C_41  and  C_42 
REMARK   18  A    between atoms: C_42  and  O_44 
REMARK   19  A    between atoms: C_45  and  C_46 
REMARK   20  A    between atoms: C_46  and  C_47 
REMARK   21  A    between atoms: C_47  and  O_49 
REMARK   22  A    between atoms: C_50  and  C_51 
REMARK   23  A    between atoms: C_51  and  C_52 
REMARK   24  A    between atoms: C_52  and  O_54 
REMARK   25  A    between atoms: C_55  and  C_56 
REMARK   26  A    between atoms: C_56  and  C_57 
REMARK   27  A    between atoms: C_57  and  C_58 
REMARK   28  A    between atoms: C_58  and  O_60 
ROOT
ATOM      1  O   UNK d   0      19.754   4.166 -13.074  0.00  0.00    -0.650 OA
ATOM      2  C   UNK d   0      19.849   5.235 -12.432  0.00  0.00     0.139 C 
ENDROOT
BRANCH   2   3
ATOM      3  O   UNK d   0      20.255   5.199 -11.120  0.00  0.00    -0.776 OA
ATOM      4  H   UNK d   0      19.705   4.709 -10.411  0.00  0.00     0.167 HD
ENDBRANCH   2   3
BRANCH   2   5
ATOM      5  C   UNK d   0      19.522   6.533 -13.087  0.00  0.00     0.115 C 
BRANCH   5   6
ATOM      6  C   UNK d   0      18.031   6.695 -13.201  0.00  0.00     0.052 C 
BRANCH   6   7
ATOM      7  C   UNK d   0      17.442   7.480 -12.053  0.00  0.00    -0.020 A 
ATOM      8  C   UNK d   0      17.284   8.776 -11.970  0.00  0.00    -0.011 A 
ATOM      9  C   UNK d   0      16.687   9.070 -10.678  0.00  0.00     0.067 A 
ATOM     10  C   UNK d   0      16.257  10.221  -9.999  0.00  0.00     0.062 C 
ATOM     11  N   UNK d   0      16.520   7.894 -10.037  0.00  0.00    -0.248 NA
ATOM     12  C   UNK d   0      15.443  10.280  -8.862  0.00  0.00     0.041 A 
ATOM     13  N   UNK d   0      15.444   9.546  -7.733  0.00  0.00    -0.355 N 
ATOM     14  C   UNK d   0      14.381  11.201  -8.833  0.00  0.00    -0.022 A 
ATOM     15  C   UNK d   0      14.405   9.974  -6.991  0.00  0.00     0.042 A 
ATOM     16  H   UNK d   0      16.176   8.756  -7.457  0.00  0.00     0.166 HD
ATOM     17  C   UNK d   0      13.951   9.552  -5.725  0.00  0.00     0.062 C 
ATOM     18  C   UNK d   0      13.714  11.010  -7.648  0.00  0.00    -0.013 A 
ATOM     19  C   UNK d   0      13.791   8.276  -5.248  0.00  0.00     0.067 A 
ATOM     20  N   UNK d   0      14.306   7.286  -5.982  0.00  0.00    -0.248 NA
ATOM     21  C   UNK d   0      13.158   7.665  -4.091  0.00  0.00    -0.011 A 
ATOM     22  C   UNK d   0      14.055   6.073  -5.390  0.00  0.00     0.066 A 
ATOM     23  C   UNK d   0      14.571   4.956  -6.030  0.00  0.00     0.062 C 
ATOM     24  C   UNK d   0      13.312   6.376  -4.182  0.00  0.00    -0.020 A 
ATOM     25  C   UNK d   0      15.397   4.919  -7.164  0.00  0.00     0.041 A 
ATOM     26  N   UNK d   0      15.387   5.637  -8.293  0.00  0.00    -0.355 N 
ATOM     27  C   UNK d   0      16.466   3.997  -7.191  0.00  0.00    -0.022 A 
ATOM     28  C   UNK d   0      16.417   5.207  -9.039  0.00  0.00     0.042 A 
ATOM     29  H   UNK d   0      14.644   6.424  -8.574  0.00  0.00     0.166 HD
ATOM     30  C   UNK d   0      16.874   5.612 -10.303  0.00  0.00     0.062 C 
ATOM     31  C   UNK d   0      17.117   4.173  -8.373  0.00  0.00    -0.013 A 
ATOM     32  C   UNK d   0      16.954   6.898 -10.811  0.00  0.00     0.066 A 
BRANCH   8  33
ATOM     33  C   UNK d   0      17.646   9.779 -12.989  0.00  0.00     0.151 C 
BRANCH  33  34
ATOM     34  C   UNK d   0      18.970  10.382 -12.751  0.00  0.00     0.143 C 
ATOM     35  O   UNK d   0      19.345  11.369 -13.399  0.00  0.00    -0.650 OA
BRANCH  34  36
ATOM     36  O   UNK d   0      19.798   9.839 -11.797  0.00  0.00    -0.776 OA
ATOM     37  H   UNK d   0      20.819   9.960 -11.844  0.00  0.00     0.167 HD
ENDBRANCH  34  36
ENDBRANCH  33  34
ENDBRANCH   8  33
BRANCH  31  38
ATOM     38  C   UNK d   0      18.338   3.415  -8.839  0.00  0.00     0.151 C 
BRANCH  38  39
ATOM     39  C   UNK d   0      18.029   2.407  -9.831  0.00  0.00     0.143 C 
ATOM     40  O   UNK d   0      17.151   1.545  -9.653  0.00  0.00    -0.650 OA
BRANCH  39  41
ATOM     41  O   UNK d   0      18.732   2.391 -11.036  0.00  0.00    -0.776 OA
ATOM     42  H   UNK d   0      19.606   2.925 -11.067  0.00  0.00     0.167 HD
ENDBRANCH  39  41
ENDBRANCH  38  39
ENDBRANCH  31  38
BRANCH  27  43
ATOM     43  C   UNK d   0      16.878   2.977  -6.159  0.00  0.00     0.052 C 
BRANCH  43  44
ATOM     44  C   UNK d   0      16.190   1.661  -6.320  0.00  0.00     0.115 C 
BRANCH  44  45
ATOM     45  C   UNK d   0      17.250   0.620  -6.278  0.00  0.00     0.139 C 
ATOM     46  O   UNK d   0      16.897  -0.579  -6.159  0.00  0.00    -0.650 OA
BRANCH  45  47
ATOM     47  O   UNK d   0      18.593   0.917  -6.368  0.00  0.00    -0.776 OA
ATOM     48  H   UNK d   0      19.331   0.199  -6.289  0.00  0.00     0.167 HD
ENDBRANCH  45  47
ENDBRANCH  44  45
ENDBRANCH  43  44
ENDBRANCH  27  43
BRANCH  24  49
ATOM     49  C   UNK d   0      12.858   5.375  -3.201  0.00  0.00     0.052 C 
BRANCH  49  50
ATOM     50  C   UNK d   0      11.519   4.815  -3.605  0.00  0.00     0.115 C 
BRANCH  50  51
ATOM     51  C   UNK d   0      10.450   4.871  -2.617  0.00  0.00     0.139 C 
ATOM     52  O   UNK d   0       9.282   5.229  -2.903  0.00  0.00    -0.650 OA
BRANCH  51  53
ATOM     53  O   UNK d   0      10.712   4.522  -1.301  0.00  0.00    -0.776 OA
ATOM     54  H   UNK d   0      11.670   4.476  -1.004  0.00  0.00     0.167 HD
ENDBRANCH  51  53
ENDBRANCH  50  51
ENDBRANCH  49  50
ENDBRANCH  24  49
BRANCH  21  55
ATOM     55  C   UNK d   0      12.468   8.434  -3.014  0.00  0.00     0.151 C 
BRANCH  55  56
ATOM     56  C   UNK d   0      11.127   8.877  -3.424  0.00  0.00     0.143 C 
ATOM     57  O   UNK d   0      10.803  10.079  -3.489  0.00  0.00    -0.650 OA
BRANCH  56  58
ATOM     58  O   UNK d   0      10.191   7.896  -3.749  0.00  0.00    -0.776 OA
ATOM     59  H   UNK d   0       9.247   8.254  -3.981  0.00  0.00     0.167 HD
ENDBRANCH  56  58
ENDBRANCH  55  56
ENDBRANCH  21  55
BRANCH  18  60
ATOM     60  C   UNK d   0      12.497  11.785  -7.207  0.00  0.00     0.151 C 
BRANCH  60  61
ATOM     61  C   UNK d   0      11.408  11.371  -8.104  0.00  0.00     0.143 C 
ATOM     62  O   UNK d   0      10.475  12.066  -8.509  0.00  0.00    -0.650 OA
BRANCH  61  63
ATOM     63  O   UNK d   0      11.461  10.024  -8.534  0.00  0.00    -0.776 OA
ATOM     64  H   UNK d   0      11.572   9.273  -7.876  0.00  0.00     0.167 HD
ENDBRANCH  61  63
ENDBRANCH  60  61
ENDBRANCH  18  60
BRANCH  14  65
ATOM     65  C   UNK d   0      14.012  12.303  -9.785  0.00  0.00     0.052 C 
BRANCH  65  66
ATOM     66  C   UNK d   0      14.712  13.583  -9.494  0.00  0.00     0.115 C 
BRANCH  66  67
ATOM     67  C   UNK d   0      14.982  14.505 -10.560  0.00  0.00     0.139 C 
ATOM     68  O   UNK d   0      15.970  15.318 -10.434  0.00  0.00    -0.650 OA
BRANCH  67  69
ATOM     69  O   UNK d   0      14.289  14.646 -11.762  0.00  0.00    -0.776 OA
ATOM     70  H   UNK d   0      14.708  15.291 -12.448  0.00  0.00     0.167 HD
ENDBRANCH  67  69
ENDBRANCH  66  67
ENDBRANCH  65  66
ENDBRANCH  14  65
ENDBRANCH   6   7
ENDBRANCH   5   6
ENDBRANCH   2   5
TORSDOF 28
ENDMDL
MODEL 6
REMARK VINA RESULT:      -8.5      1.861      8.155
REMARK  28 active torsions:
REMARK  status: ('A' for Active; 'I' for Inactive)
REMARK    1  A    between atoms: C_2  and  O_3 
REMARK    2  A    between atoms: C_2  and  C_4 
REMARK    3  A    between atoms: C_4  and  C_5 
REMARK    4  A    between atoms: C_5  and  C_6 
REMARK    5  A    between atoms: C_7  and  C_8 
REMARK    6  A    between atoms: C_8  and  C_9 
REMARK    7  A    between atoms: C_9  and  O_11 
REMARK    8  A    between atoms: C_28  and  C_29 
REMARK    9  A    between atoms: C_29  and  C_30 
REMARK   10  A    between atoms: C_30  and  O_32 
REMARK   11  A    between atoms: C_33  and  C_34 
REMARK   12  A    between atoms: C_34  and  C_35 
REMARK   13  A    between atoms: C_35  and  C_36 
REMARK   14  A    between atoms: C_36  and  O_38 
REMARK   15  A    between atoms: C_39  and  C_40 
REMARK   16  A    between atoms: C_40  and  C_41 
REMARK   17  A    between atoms: C_41  and  C_42 
REMARK   18  A    between atoms: C_42  and  O_44 
REMARK   19  A    between atoms: C_45  and  C_46 
REMARK   20  A    between atoms: C_46  and  C_47 
REMARK   21  A    between atoms: C_47  and  O_49 
REMARK   22  A    between atoms: C_50  and  C_51 
REMARK   23  A    between atoms: C_51  and  C_52 
REMARK   24  A    between atoms: C_52  and  O_54 
REMARK   25  A    between atoms: C_55  and  C_56 
REMARK   26  A    between atoms: C_56  and  C_57 
REMARK   27  A    between atoms: C_57  and  C_58 
REMARK   28  A    between atoms: C_58  and  O_60 
ROOT
ATOM      1  O   UNK d   0      20.131  10.046 -11.542  0.00  0.00    -0.650 OA
ATOM      2  C   UNK d   0      19.687  11.211 -11.644  0.00  0.00     0.139 C 
ENDROOT
BRANCH   2   3
ATOM      3  O   UNK d   0      20.468  12.267 -11.241  0.00  0.00    -0.776 OA
ATOM      4  H   UNK d   0      21.224  12.137 -10.565  0.00  0.00     0.167 HD
ENDBRANCH   2   3
BRANCH   2   5
ATOM      5  C   UNK d   0      18.323  11.447 -12.196  0.00  0.00     0.115 C 
BRANCH   5   6
ATOM      6  C   UNK d   0      17.847  10.227 -12.937  0.00  0.00     0.052 C 
BRANCH   6   7
ATOM      7  C   UNK d   0      17.421   9.113 -12.010  0.00  0.00    -0.020 A 
ATOM      8  C   UNK d   0      17.659   7.833 -12.139  0.00  0.00    -0.011 A 
ATOM      9  C   UNK d   0      17.047   7.150 -11.011  0.00  0.00     0.067 A 
ATOM     10  C   UNK d   0      16.955   5.825 -10.558  0.00  0.00     0.062 C 
ATOM     11  N   UNK d   0      16.453   8.092 -10.248  0.00  0.00    -0.248 NA
ATOM     12  C   UNK d   0      16.556   5.389  -9.290  0.00  0.00     0.041 A 
ATOM     13  N   UNK d   0      15.549   5.791  -8.491  0.00  0.00    -0.355 N 
ATOM     14  C   UNK d   0      17.315   4.399  -8.641  0.00  0.00    -0.022 A 
ATOM     15  C   UNK d   0      15.655   5.086  -7.348  0.00  0.00     0.042 A 
ATOM     16  H   UNK d   0      14.768   6.543  -8.737  0.00  0.00     0.166 HD
ATOM     17  C   UNK d   0      14.862   5.111  -6.183  0.00  0.00     0.062 C 
ATOM     18  C   UNK d   0      16.750   4.203  -7.405  0.00  0.00    -0.013 A 
ATOM     19  C   UNK d   0      14.377   6.192  -5.493  0.00  0.00     0.067 A 
ATOM     20  N   UNK d   0      14.487   7.385  -6.083  0.00  0.00    -0.248 NA
ATOM     21  C   UNK d   0      13.746   6.410  -4.202  0.00  0.00    -0.011 A 
ATOM     22  C   UNK d   0      13.975   8.367  -5.271  0.00  0.00     0.066 A 
ATOM     23  C   UNK d   0      13.991   9.658  -5.779  0.00  0.00     0.062 C 
ATOM     24  C   UNK d   0      13.517   7.685  -4.076  0.00  0.00    -0.020 A 
ATOM     25  C   UNK d   0      14.384  10.073  -7.061  0.00  0.00     0.041 A 
ATOM     26  N   UNK d   0      15.394   9.685  -7.849  0.00  0.00    -0.355 N 
ATOM     27  C   UNK d   0      13.619  11.064  -7.714  0.00  0.00    -0.022 A 
ATOM     28  C   UNK d   0      15.296  10.392  -8.986  0.00  0.00     0.042 A 
ATOM     29  H   UNK d   0      16.184   8.936  -7.596  0.00  0.00     0.166 HD
ATOM     30  C   UNK d   0      16.083  10.385 -10.148  0.00  0.00     0.062 C 
ATOM     31  C   UNK d   0      14.189  11.272  -8.932  0.00  0.00    -0.013 A 
ATOM     32  C   UNK d   0      16.642   9.294 -10.794  0.00  0.00     0.066 A 
BRANCH   8  33
ATOM     33  C   UNK d   0      18.406   7.177 -13.228  0.00  0.00     0.151 C 
BRANCH  33  34
ATOM     34  C   UNK d   0      19.469   6.283 -12.734  0.00  0.00     0.143 C 
ATOM     35  O   UNK d   0      20.292   6.676 -11.895  0.00  0.00    -0.650 OA
BRANCH  34  36
ATOM     36  O   UNK d   0      19.545   4.995 -13.212  0.00  0.00    -0.776 OA
ATOM     37  H   UNK d   0      18.697   4.460 -13.444  0.00  0.00     0.167 HD
ENDBRANCH  34  36
ENDBRANCH  33  34
ENDBRANCH   8  33
BRANCH  31  38
ATOM     38  C   UNK d   0      13.705  12.236  -9.990  0.00  0.00     0.151 C 
BRANCH  38  39
ATOM     39  C   UNK d   0      14.287  13.555  -9.856  0.00  0.00     0.143 C 
ATOM     40  O   UNK d   0      15.428  13.824 -10.272  0.00  0.00    -0.650 OA
BRANCH  39  41
ATOM     41  O   UNK d   0      13.554  14.569  -9.240  0.00  0.00    -0.776 OA
ATOM     42  H   UNK d   0      13.978  15.503  -9.229  0.00  0.00     0.167 HD
ENDBRANCH  39  41
ENDBRANCH  38  39
ENDBRANCH  31  38
BRANCH  27  43
ATOM     43  C   UNK d   0      12.397  11.804  -7.230  0.00  0.00     0.052 C 
BRANCH  43  44
ATOM     44  C   UNK d   0      11.168  11.495  -8.021  0.00  0.00     0.115 C 
BRANCH  44  45
ATOM     45  C   UNK d   0      10.371  12.748  -8.076  0.00  0.00     0.139 C 
ATOM     46  O   UNK d   0       9.172  12.704  -7.706  0.00  0.00    -0.650 OA
BRANCH  45  47
ATOM     47  O   UNK d   0      10.894  13.948  -8.507  0.00  0.00    -0.776 OA
ATOM     48  H   UNK d   0      11.824  14.290  -8.216  0.00  0.00     0.167 HD
ENDBRANCH  45  47
ENDBRANCH  44  45
ENDBRANCH  43  44
ENDBRANCH  27  43
BRANCH  24  49
ATOM     49  C   UNK d   0      12.855   8.341  -2.935  0.00  0.00     0.052 C 
BRANCH  49  50
ATOM     50  C   UNK d   0      13.829   8.525  -1.799  0.00  0.00     0.115 C 
BRANCH  50  51
ATOM     51  C   UNK d   0      13.414   8.054  -0.485  0.00  0.00     0.139 C 
ATOM     52  O   UNK d   0      12.211   7.879  -0.178  0.00  0.00    -0.650 OA
BRANCH  51  53
ATOM     53  O   UNK d   0      14.371   7.785   0.481  0.00  0.00    -0.776 OA
ATOM     54  H   UNK d   0      15.029   7.046   0.306  0.00  0.00     0.167 HD
ENDBRANCH  51  53
ENDBRANCH  50  51
ENDBRANCH  49  50
ENDBRANCH  24  49
BRANCH  21  55
ATOM     55  C   UNK d   0      13.434   5.320  -3.231  0.00  0.00     0.151 C 
BRANCH  55  56
ATOM     56  C   UNK d   0      11.985   5.143  -3.047  0.00  0.00     0.143 C 
ATOM     57  O   UNK d   0      11.223   4.809  -3.975  0.00  0.00    -0.650 OA
BRANCH  56  58
ATOM     58  O   UNK d   0      11.461   5.363  -1.775  0.00  0.00    -0.776 OA
ATOM     59  H   UNK d   0      10.596   4.834  -1.562  0.00  0.00     0.167 HD
ENDBRANCH  56  58
ENDBRANCH  55  56
ENDBRANCH  21  55
BRANCH  18  60
ATOM     60  C   UNK d   0      17.254   3.229  -6.369  0.00  0.00     0.151 C 
BRANCH  60  61
ATOM     61  C   UNK d   0      16.422   2.024  -6.510  0.00  0.00     0.143 C 
ATOM     62  O   UNK d   0      16.492   1.174  -7.398  0.00  0.00    -0.650 OA
BRANCH  61  63
ATOM     63  O   UNK d   0      15.444   1.846  -5.502  0.00  0.00    -0.776 OA
ATOM     64  H   UNK d   0      15.657   2.023  -4.536  0.00  0.00     0.167 HD
ENDBRANCH  61  63
ENDBRANCH  60  61
ENDBRANCH  18  60
BRANCH  14  65
ATOM     65  C   UNK d   0      18.462   3.562  -9.132  0.00  0.00     0.052 C 
BRANCH  65  66
ATOM     66  C   UNK d   0      18.121   2.759 -10.337  0.00  0.00     0.115 C 
BRANCH  66  67
ATOM     67  C   UNK d   0      19.171   2.224 -11.157  0.00  0.00     0.139 C 
ATOM     68  O   UNK d   0      20.160   2.987 -11.463  0.00  0.00    -0.650 OA
BRANCH  67  69
ATOM     69  O   UNK d   0      19.269   0.937 -11.686  0.00  0.00    -0.776 OA
ATOM     70  H   UNK d   0      18.785   0.784 -12.583  0.00  0.00     0.167 HD
ENDBRANCH  67  69
ENDBRANCH  66  67
ENDBRANCH  65  66
ENDBRANCH  14  65
ENDBRANCH   6   7
ENDBRANCH   5   6
ENDBRANCH   2   5
TORSDOF 28
ENDMDL
MODEL 7
REMARK VINA RESULT:      -7.6     31.472     34.532
REMARK  28 active torsions:
REMARK  status: ('A' for Active; 'I' for Inactive)
REMARK    1  A    between atoms: C_2  and  O_3 
REMARK    2  A    between atoms: C_2  and  C_4 
REMARK    3  A    between atoms: C_4  and  C_5 
REMARK    4  A    between atoms: C_5  and  C_6 
REMARK    5  A    between atoms: C_7  and  C_8 
REMARK    6  A    between atoms: C_8  and  C_9 
REMARK    7  A    between atoms: C_9  and  O_11 
REMARK    8  A    between atoms: C_28  and  C_29 
REMARK    9  A    between atoms: C_29  and  C_30 
REMARK   10  A    between atoms: C_30  and  O_32 
REMARK   11  A    between atoms: C_33  and  C_34 
REMARK   12  A    between atoms: C_34  and  C_35 
REMARK   13  A    between atoms: C_35  and  C_36 
REMARK   14  A    between atoms: C_36  and  O_38 
REMARK   15  A    between atoms: C_39  and  C_40 
REMARK   16  A    between atoms: C_40  and  C_41 
REMARK   17  A    between atoms: C_41  and  C_42 
REMARK   18  A    between atoms: C_42  and  O_44 
REMARK   19  A    between atoms: C_45  and  C_46 
REMARK   20  A    between atoms: C_46  and  C_47 
REMARK   21  A    between atoms: C_47  and  O_49 
REMARK   22  A    between atoms: C_50  and  C_51 
REMARK   23  A    between atoms: C_51  and  C_52 
REMARK   24  A    between atoms: C_52  and  O_54 
REMARK   25  A    between atoms: C_55  and  C_56 
REMARK   26  A    between atoms: C_56  and  C_57 
REMARK   27  A    between atoms: C_57  and  C_58 
REMARK   28  A    between atoms: C_58  and  O_60 
ROOT
ATOM      1  O   UNK d   0     -15.460  16.682  -2.198  0.00  0.00    -0.650 OA
ATOM      2  C   UNK d   0     -16.344  15.988  -1.649  0.00  0.00     0.139 C 
ENDROOT
BRANCH   2   3
ATOM      3  O   UNK d   0     -17.426  15.569  -2.385  0.00  0.00    -0.776 OA
ATOM      4  H   UNK d   0     -17.420  15.618  -3.406  0.00  0.00     0.167 HD
ENDBRANCH   2   3
BRANCH   2   5
ATOM      5  C   UNK d   0     -16.220  15.621  -0.209  0.00  0.00     0.115 C 
BRANCH   5   6
ATOM      6  C   UNK d   0     -14.894  14.956   0.043  0.00  0.00     0.052 C 
BRANCH   6   7
ATOM      7  C   UNK d   0     -14.316  15.305   1.394  0.00  0.00    -0.020 A 
ATOM      8  C   UNK d   0     -13.470  16.262   1.676  0.00  0.00    -0.011 A 
ATOM      9  C   UNK d   0     -13.196  16.207   3.103  0.00  0.00     0.067 A 
ATOM     10  C   UNK d   0     -12.419  16.939   4.014  0.00  0.00     0.062 C 
ATOM     11  N   UNK d   0     -13.914  15.182   3.609  0.00  0.00    -0.248 NA
ATOM     12  C   UNK d   0     -12.498  16.909   5.410  0.00  0.00     0.041 A 
ATOM     13  N   UNK d   0     -12.633  15.880   6.268  0.00  0.00    -0.355 N 
ATOM     14  C   UNK d   0     -12.496  18.125   6.118  0.00  0.00    -0.022 A 
ATOM     15  C   UNK d   0     -12.725  16.412   7.502  0.00  0.00     0.042 A 
ATOM     16  H   UNK d   0     -12.644  14.799   6.009  0.00  0.00     0.166 HD
ATOM     17  C   UNK d   0     -12.876  15.788   8.756  0.00  0.00     0.062 C 
ATOM     18  C   UNK d   0     -12.643  17.817   7.448  0.00  0.00    -0.013 A 
ATOM     19  C   UNK d   0     -13.716  14.765   9.115  0.00  0.00     0.067 A 
ATOM     20  N   UNK d   0     -14.344  14.123   8.126  0.00  0.00    -0.248 NA
ATOM     21  C   UNK d   0     -14.149  14.157  10.362  0.00  0.00    -0.011 A 
ATOM     22  C   UNK d   0     -15.157  13.141   8.637  0.00  0.00     0.066 A 
ATOM     23  C   UNK d   0     -15.844  12.368   7.713  0.00  0.00     0.062 C 
ATOM     24  C   UNK d   0     -14.996  13.211  10.076  0.00  0.00    -0.020 A 
ATOM     25  C   UNK d   0     -15.741  12.405   6.313  0.00  0.00     0.041 A 
ATOM     26  N   UNK d   0     -15.622  13.429   5.459  0.00  0.00    -0.355 N 
ATOM     27  C   UNK d   0     -15.739  11.185   5.604  0.00  0.00    -0.022 A 
ATOM     28  C   UNK d   0     -15.539  12.901   4.228  0.00  0.00     0.042 A 
ATOM     29  H   UNK d   0     -15.622  14.516   5.720  0.00  0.00     0.166 HD
ATOM     30  C   UNK d   0     -15.397  13.510   2.971  0.00  0.00     0.062 C 
ATOM     31  C   UNK d   0     -15.610  11.489   4.283  0.00  0.00    -0.013 A 
ATOM     32  C   UNK d   0     -14.610  14.599   2.632  0.00  0.00     0.066 A 
BRANCH   8  33
ATOM     33  C   UNK d   0     -12.881  17.230   0.733  0.00  0.00     0.151 C 
BRANCH  33  34
ATOM     34  C   UNK d   0     -13.763  18.383   0.475  0.00  0.00     0.143 C 
ATOM     35  O   UNK d   0     -14.304  18.992   1.409  0.00  0.00    -0.650 OA
BRANCH  34  36
ATOM     36  O   UNK d   0     -13.987  18.785  -0.822  0.00  0.00    -0.776 OA
ATOM     37  H   UNK d   0     -14.248  19.756  -1.043  0.00  0.00     0.167 HD
ENDBRANCH  34  36
ENDBRANCH  33  34
ENDBRANCH   8  33
BRANCH  31  38
ATOM     38  C   UNK d   0     -15.546  10.501   3.143  0.00  0.00     0.151 C 
BRANCH  38  39
ATOM     39  C   UNK d   0     -14.211   9.987   2.919  0.00  0.00     0.143 C 
ATOM     40  O   UNK d   0     -13.844   8.879   3.347  0.00  0.00    -0.650 OA
BRANCH  39  41
ATOM     41  O   UNK d   0     -13.293  10.752   2.200  0.00  0.00    -0.776 OA
ATOM     42  H   UNK d   0     -13.504  11.750   2.097  0.00  0.00     0.167 HD
ENDBRANCH  39  41
ENDBRANCH  38  39
ENDBRANCH  31  38
BRANCH  27  43
ATOM     43  C   UNK d   0     -15.854   9.773   6.124  0.00  0.00     0.052 C 
BRANCH  43  44
ATOM     44  C   UNK d   0     -17.166   9.491   6.779  0.00  0.00     0.115 C 
BRANCH  44  45
ATOM     45  C   UNK d   0     -16.908   8.460   7.819  0.00  0.00     0.139 C 
ATOM     46  O   UNK d   0     -17.775   7.569   7.997  0.00  0.00    -0.650 OA
BRANCH  45  47
ATOM     47  O   UNK d   0     -15.762   8.441   8.584  0.00  0.00    -0.776 OA
ATOM     48  H   UNK d   0     -15.306   9.300   8.931  0.00  0.00     0.167 HD
ENDBRANCH  45  47
ENDBRANCH  44  45
ENDBRANCH  43  44
ENDBRANCH  27  43
BRANCH  24  49
ATOM     49  C   UNK d   0     -15.653  12.312  11.040  0.00  0.00     0.052 C 
BRANCH  49  50
ATOM     50  C   UNK d   0     -15.001  10.953  11.019  0.00  0.00     0.115 C 
BRANCH  50  51
ATOM     51  C   UNK d   0     -14.319  10.523  12.232  0.00  0.00     0.139 C 
ATOM     52  O   UNK d   0     -14.696   9.536  12.906  0.00  0.00    -0.650 OA
BRANCH  51  53
ATOM     53  O   UNK d   0     -13.207  11.221  12.677  0.00  0.00    -0.776 OA
ATOM     54  H   UNK d   0     -12.911  12.027  12.156  0.00  0.00     0.167 HD
ENDBRANCH  51  53
ENDBRANCH  50  51
ENDBRANCH  49  50
ENDBRANCH  24  49
BRANCH  21  55
ATOM     55  C   UNK d   0     -13.669  14.584  11.710  0.00  0.00     0.151 C 
BRANCH  55  56
ATOM     56  C   UNK d   0     -14.389  15.768  12.203  0.00  0.00     0.143 C 
ATOM     57  O   UNK d   0     -15.429  16.198  11.666  0.00  0.00    -0.650 OA
BRANCH  56  58
ATOM     58  O   UNK d   0     -13.871  16.424  13.319  0.00  0.00    -0.776 OA
ATOM     59  H   UNK d   0     -14.530  16.521  14.112  0.00  0.00     0.167 HD
ENDBRANCH  56  58
ENDBRANCH  55  56
ENDBRANCH  21  55
BRANCH  18  60
ATOM     60  C   UNK d   0     -12.702  18.826   8.568  0.00  0.00     0.151 C 
BRANCH  60  61
ATOM     61  C   UNK d   0     -14.113  19.226   8.678  0.00  0.00     0.143 C 
ATOM     62  O   UNK d   0     -15.068  18.503   8.965  0.00  0.00    -0.650 OA
BRANCH  61  63
ATOM     63  O   UNK d   0     -14.374  20.593   8.423  0.00  0.00    -0.776 OA
ATOM     64  H   UNK d   0     -15.110  20.873   7.798  0.00  0.00     0.167 HD
ENDBRANCH  61  63
ENDBRANCH  60  61
ENDBRANCH  18  60
BRANCH  14  65
ATOM     65  C   UNK d   0     -12.268  19.533   5.648  0.00  0.00     0.052 C 
BRANCH  65  66
ATOM     66  C   UNK d   0     -13.301  19.998   4.684  0.00  0.00     0.115 C 
BRANCH  66  67
ATOM     67  C   UNK d   0     -14.685  19.700   4.923  0.00  0.00     0.139 C 
ATOM     68  O   UNK d   0     -15.336  20.434   5.753  0.00  0.00    -0.650 OA
BRANCH  67  69
ATOM     69  O   UNK d   0     -15.448  18.680   4.356  0.00  0.00    -0.776 OA
ATOM     70  H   UNK d   0     -14.919  17.937   3.877  0.00  0.00     0.167 HD
ENDBRANCH  67  69
ENDBRANCH  66  67
ENDBRANCH  65  66
ENDBRANCH  14  65
ENDBRANCH   6   7
ENDBRANCH   5   6
ENDBRANCH   2   5
TORSDOF 28
ENDMDL
MODEL 8
REMARK VINA RESULT:      -7.5      2.085      4.326
REMARK  28 active torsions:
REMARK  status: ('A' for Active; 'I' for Inactive)
REMARK    1  A    between atoms: C_2  and  O_3 
REMARK    2  A    between atoms: C_2  and  C_4 
REMARK    3  A    between atoms: C_4  and  C_5 
REMARK    4  A    between atoms: C_5  and  C_6 
REMARK    5  A    between atoms: C_7  and  C_8 
REMARK    6  A    between atoms: C_8  and  C_9 
REMARK    7  A    between atoms: C_9  and  O_11 
REMARK    8  A    between atoms: C_28  and  C_29 
REMARK    9  A    between atoms: C_29  and  C_30 
REMARK   10  A    between atoms: C_30  and  O_32 
REMARK   11  A    between atoms: C_33  and  C_34 
REMARK   12  A    between atoms: C_34  and  C_35 
REMARK   13  A    between atoms: C_35  and  C_36 
REMARK   14  A    between atoms: C_36  and  O_38 
REMARK   15  A    between atoms: C_39  and  C_40 
REMARK   16  A    between atoms: C_40  and  C_41 
REMARK   17  A    between atoms: C_41  and  C_42 
REMARK   18  A    between atoms: C_42  and  O_44 
REMARK   19  A    between atoms: C_45  and  C_46 
REMARK   20  A    between atoms: C_46  and  C_47 
REMARK   21  A    between atoms: C_47  and  O_49 
REMARK   22  A    between atoms: C_50  and  C_51 
REMARK   23  A    between atoms: C_51  and  C_52 
REMARK   24  A    between atoms: C_52  and  O_54 
REMARK   25  A    between atoms: C_55  and  C_56 
REMARK   26  A    between atoms: C_56  and  C_57 
REMARK   27  A    between atoms: C_57  and  C_58 
REMARK   28  A    between atoms: C_58  and  O_60 
ROOT
ATOM      1  O   UNK d   0      19.727  13.728 -14.185  0.00  0.00    -0.650 OA
ATOM      2  C   UNK d   0      19.035  12.872 -13.589  0.00  0.00     0.139 C 
ENDROOT
BRANCH   2   3
ATOM      3  O   UNK d   0      19.536  11.605 -13.413  0.00  0.00    -0.776 OA
ATOM      4  H   UNK d   0      20.307  11.427 -12.767  0.00  0.00     0.167 HD
ENDBRANCH   2   3
BRANCH   2   5
ATOM      5  C   UNK d   0      17.682  13.229 -13.076  0.00  0.00     0.115 C 
BRANCH   5   6
ATOM      6  C   UNK d   0      16.785  12.022 -13.098  0.00  0.00     0.052 C 
BRANCH   6   7
ATOM      7  C   UNK d   0      16.397  11.561 -11.713  0.00  0.00    -0.020 A 
ATOM      8  C   UNK d   0      15.879  12.278 -10.749  0.00  0.00    -0.011 A 
ATOM      9  C   UNK d   0      15.684  11.407  -9.602  0.00  0.00     0.067 A 
ATOM     10  C   UNK d   0      15.167  11.543  -8.304  0.00  0.00     0.062 C 
ATOM     11  N   UNK d   0      16.116  10.178  -9.955  0.00  0.00    -0.248 NA
ATOM     12  C   UNK d   0      14.802  10.517  -7.426  0.00  0.00     0.041 A 
ATOM     13  N   UNK d   0      15.406   9.352  -7.124  0.00  0.00    -0.355 N 
ATOM     14  C   UNK d   0      13.578  10.612  -6.739  0.00  0.00    -0.022 A 
ATOM     15  C   UNK d   0      14.594   8.703  -6.268  0.00  0.00     0.042 A 
ATOM     16  H   UNK d   0      16.396   9.004  -7.492  0.00  0.00     0.166 HD
ATOM     17  C   UNK d   0      14.742   7.450  -5.641  0.00  0.00     0.062 C 
ATOM     18  C   UNK d   0      13.437   9.462  -6.004  0.00  0.00    -0.013 A 
ATOM     19  C   UNK d   0      15.155   6.259  -6.180  0.00  0.00     0.067 A 
ATOM     20  N   UNK d   0      15.680   6.300  -7.408  0.00  0.00    -0.248 NA
ATOM     21  C   UNK d   0      15.166   4.868  -5.757  0.00  0.00    -0.011 A 
ATOM     22  C   UNK d   0      16.032   5.038  -7.819  0.00  0.00     0.066 A 
ATOM     23  C   UNK d   0      16.627   4.940  -9.068  0.00  0.00     0.062 C 
ATOM     24  C   UNK d   0      15.677   4.159  -6.722  0.00  0.00    -0.020 A 
ATOM     25  C   UNK d   0      16.998   5.985  -9.928  0.00  0.00     0.041 A 
ATOM     26  N   UNK d   0      16.390   7.135 -10.241  0.00  0.00    -0.355 N 
ATOM     27  C   UNK d   0      18.228   5.890 -10.614  0.00  0.00    -0.022 A 
ATOM     28  C   UNK d   0      17.194   7.781 -11.100  0.00  0.00     0.042 A 
ATOM     29  H   UNK d   0      15.390   7.479  -9.878  0.00  0.00     0.166 HD
ATOM     30  C   UNK d   0      17.055   9.023 -11.739  0.00  0.00     0.062 C 
ATOM     31  C   UNK d   0      18.361   7.022 -11.358  0.00  0.00    -0.013 A 
ATOM     32  C   UNK d   0      16.556  10.204 -11.213  0.00  0.00     0.066 A 
BRANCH   8  33
ATOM     33  C   UNK d   0      15.550  13.715 -10.794  0.00  0.00     0.151 C 
BRANCH  33  34
ATOM     34  C   UNK d   0      14.323  13.996 -11.561  0.00  0.00     0.143 C 
ATOM     35  O   UNK d   0      14.356  14.699 -12.581  0.00  0.00    -0.650 OA
BRANCH  34  36
ATOM     36  O   UNK d   0      13.125  13.469 -11.135  0.00  0.00    -0.776 OA
ATOM     37  H   UNK d   0      13.081  12.814 -10.343  0.00  0.00     0.167 HD
ENDBRANCH  34  36
ENDBRANCH  33  34
ENDBRANCH   8  33
BRANCH  31  38
ATOM     38  C   UNK d   0      19.530   7.372 -12.249  0.00  0.00     0.151 C 
BRANCH  38  39
ATOM     39  C   UNK d   0      20.552   8.133 -11.562  0.00  0.00     0.143 C 
ATOM     40  O   UNK d   0      21.494   7.589 -10.960  0.00  0.00    -0.650 OA
BRANCH  39  41
ATOM     41  O   UNK d   0      20.490   9.526 -11.568  0.00  0.00    -0.776 OA
ATOM     42  H   UNK d   0      20.449   9.990 -10.655  0.00  0.00     0.167 HD
ENDBRANCH  39  41
ENDBRANCH  38  39
ENDBRANCH  31  38
BRANCH  27  43
ATOM     43  C   UNK d   0      19.256   4.786 -10.590  0.00  0.00     0.052 C 
BRANCH  43  44
ATOM     44  C   UNK d   0      19.150   3.854 -11.753  0.00  0.00     0.115 C 
BRANCH  44  45
ATOM     45  C   UNK d   0      19.809   2.587 -11.343  0.00  0.00     0.139 C 
ATOM     46  O   UNK d   0      20.217   2.488 -10.159  0.00  0.00    -0.650 OA
BRANCH  45  47
ATOM     47  O   UNK d   0      19.983   1.523 -12.202  0.00  0.00    -0.776 OA
ATOM     48  H   UNK d   0      20.849   1.379 -12.746  0.00  0.00     0.167 HD
ENDBRANCH  45  47
ENDBRANCH  44  45
ENDBRANCH  43  44
ENDBRANCH  27  43
BRANCH  24  49
ATOM     49  C   UNK d   0      15.910   2.704  -6.701  0.00  0.00     0.052 C 
BRANCH  49  50
ATOM     50  C   UNK d   0      17.388   2.410  -6.736  0.00  0.00     0.115 C 
BRANCH  50  51
ATOM     51  C   UNK d   0      17.889   1.656  -7.877  0.00  0.00     0.139 C 
ATOM     52  O   UNK d   0      17.182   1.396  -8.879  0.00  0.00    -0.650 OA
BRANCH  51  53
ATOM     53  O   UNK d   0      19.197   1.197  -7.875  0.00  0.00    -0.776 OA
ATOM     54  H   UNK d   0      19.808   1.503  -7.138  0.00  0.00     0.167 HD
ENDBRANCH  51  53
ENDBRANCH  50  51
ENDBRANCH  49  50
ENDBRANCH  24  49
BRANCH  21  55
ATOM     55  C   UNK d   0      14.670   4.395  -4.432  0.00  0.00     0.151 C 
BRANCH  55  56
ATOM     56  C   UNK d   0      13.590   5.247  -3.910  0.00  0.00     0.143 C 
ATOM     57  O   UNK d   0      12.436   5.237  -4.381  0.00  0.00    -0.650 OA
BRANCH  56  58
ATOM     58  O   UNK d   0      13.890   6.095  -2.845  0.00  0.00    -0.776 OA
ATOM     59  H   UNK d   0      14.176   5.614  -1.973  0.00  0.00     0.167 HD
ENDBRANCH  56  58
ENDBRANCH  55  56
ENDBRANCH  21  55
BRANCH  18  60
ATOM     60  C   UNK d   0      12.258   9.140  -5.119  0.00  0.00     0.151 C 
BRANCH  60  61
ATOM     61  C   UNK d   0      12.623   9.612  -3.774  0.00  0.00     0.143 C 
ATOM     62  O   UNK d   0      11.936  10.299  -3.017  0.00  0.00    -0.650 OA
BRANCH  61  63
ATOM     63  O   UNK d   0      13.907   9.220  -3.325  0.00  0.00    -0.776 OA
ATOM     64  H   UNK d   0      14.636   9.897  -3.185  0.00  0.00     0.167 HD
ENDBRANCH  61  63
ENDBRANCH  60  61
ENDBRANCH  18  60
BRANCH  14  65
ATOM     65  C   UNK d   0      12.589  11.740  -6.649  0.00  0.00     0.052 C 
BRANCH  65  66
ATOM     66  C   UNK d   0      12.182  12.264  -7.981  0.00  0.00     0.115 C 
BRANCH  66  67
ATOM     67  C   UNK d   0      11.449  11.422  -8.883  0.00  0.00     0.139 C 
ATOM     68  O   UNK d   0      11.580  10.148  -8.777  0.00  0.00    -0.650 OA
BRANCH  67  69
ATOM     69  O   UNK d   0      10.581  11.815  -9.901  0.00  0.00    -0.776 OA
ATOM     70  H   UNK d   0      10.969  12.473 -10.593  0.00  0.00     0.167 HD
ENDBRANCH  67  69
ENDBRANCH  66  67
ENDBRANCH  65  66
ENDBRANCH  14  65
ENDBRANCH   6   7
ENDBRANCH   5   6
ENDBRANCH   2   5
TORSDOF 28
ENDMDL
MODEL 9
REMARK VINA RESULT:      -7.5      6.987     12.328
REMARK  28 active torsions:
REMARK  status: ('A' for Active; 'I' for Inactive)
REMARK    1  A    between atoms: C_2  and  O_3 
REMARK    2  A    between atoms: C_2  and  C_4 
REMARK    3  A    between atoms: C_4  and  C_5 
REMARK    4  A    between atoms: C_5  and  C_6 
REMARK    5  A    between atoms: C_7  and  C_8 
REMARK    6  A    between atoms: C_8  and  C_9 
REMARK    7  A    between atoms: C_9  and  O_11 
REMARK    8  A    between atoms: C_28  and  C_29 
REMARK    9  A    between atoms: C_29  and  C_30 
REMARK   10  A    between atoms: C_30  and  O_32 
REMARK   11  A    between atoms: C_33  and  C_34 
REMARK   12  A    between atoms: C_34  and  C_35 
REMARK   13  A    between atoms: C_35  and  C_36 
REMARK   14  A    between atoms: C_36  and  O_38 
REMARK   15  A    between atoms: C_39  and  C_40 
REMARK   16  A    between atoms: C_40  and  C_41 
REMARK   17  A    between atoms: C_41  and  C_42 
REMARK   18  A    between atoms: C_42  and  O_44 
REMARK   19  A    between atoms: C_45  and  C_46 
REMARK   20  A    between atoms: C_46  and  C_47 
REMARK   21  A    between atoms: C_47  and  O_49 
REMARK   22  A    between atoms: C_50  and  C_51 
REMARK   23  A    between atoms: C_51  and  C_52 
REMARK   24  A    between atoms: C_52  and  O_54 
REMARK   25  A    between atoms: C_55  and  C_56 
REMARK   26  A    between atoms: C_56  and  C_57 
REMARK   27  A    between atoms: C_57  and  C_58 
REMARK   28  A    between atoms: C_58  and  O_60 
ROOT
ATOM      1  O   UNK d   0       7.442  20.099  -3.424  0.00  0.00    -0.650 OA
ATOM      2  C   UNK d   0       8.232  19.402  -2.749  0.00  0.00     0.139 C 
ENDROOT
BRANCH   2   3
ATOM      3  O   UNK d   0       7.742  18.635  -1.720  0.00  0.00    -0.776 OA
ATOM      4  H   UNK d   0       7.988  18.836  -0.748  0.00  0.00     0.167 HD
ENDBRANCH   2   3
BRANCH   2   5
ATOM      5  C   UNK d   0       9.690  19.409  -3.061  0.00  0.00     0.115 C 
BRANCH   5   6
ATOM      6  C   UNK d   0       9.920  19.947  -4.447  0.00  0.00     0.052 C 
BRANCH   6   7
ATOM      7  C   UNK d   0      10.313  18.870  -5.430  0.00  0.00    -0.020 A 
ATOM      8  C   UNK d   0      11.518  18.557  -5.832  0.00  0.00    -0.011 A 
ATOM      9  C   UNK d   0      11.401  17.466  -6.785  0.00  0.00     0.067 A 
ATOM     10  C   UNK d   0      12.286  16.683  -7.542  0.00  0.00     0.062 C 
ATOM     11  N   UNK d   0      10.087  17.182  -6.908  0.00  0.00    -0.248 NA
ATOM     12  C   UNK d   0      12.003  15.482  -8.202  0.00  0.00     0.041 A 
ATOM     13  N   UNK d   0      10.946  15.109  -8.949  0.00  0.00    -0.355 N 
ATOM     14  C   UNK d   0      12.899  14.406  -8.071  0.00  0.00    -0.022 A 
ATOM     15  C   UNK d   0      11.145  13.822  -9.289  0.00  0.00     0.042 A 
ATOM     16  H   UNK d   0      10.086  15.749  -9.246  0.00  0.00     0.166 HD
ATOM     17  C   UNK d   0      10.354  12.948 -10.060  0.00  0.00     0.062 C 
ATOM     18  C   UNK d   0      12.359  13.346  -8.756  0.00  0.00    -0.013 A 
ATOM     19  C   UNK d   0       8.998  12.745 -10.015  0.00  0.00     0.067 A 
ATOM     20  N   UNK d   0       8.281  13.611  -9.296  0.00  0.00    -0.248 NA
ATOM     21  C   UNK d   0       8.069  11.771 -10.563  0.00  0.00    -0.011 A 
ATOM     22  C   UNK d   0       6.950  13.274  -9.332  0.00  0.00     0.066 A 
ATOM     23  C   UNK d   0       6.082  14.116  -8.653  0.00  0.00     0.062 C 
ATOM     24  C   UNK d   0       6.873  12.083 -10.155  0.00  0.00    -0.020 A 
ATOM     25  C   UNK d   0       6.385  15.325  -8.007  0.00  0.00     0.041 A 
ATOM     26  N   UNK d   0       7.428  15.691  -7.252  0.00  0.00    -0.355 N 
ATOM     27  C   UNK d   0       5.487  16.406  -8.143  0.00  0.00    -0.022 A 
ATOM     28  C   UNK d   0       7.227  16.972  -6.905  0.00  0.00     0.042 A 
ATOM     29  H   UNK d   0       8.286  15.044  -6.945  0.00  0.00     0.166 HD
ATOM     30  C   UNK d   0       8.001  17.850  -6.130  0.00  0.00     0.062 C 
ATOM     31  C   UNK d   0       6.012  17.452  -7.449  0.00  0.00    -0.013 A 
ATOM     32  C   UNK d   0       9.379  17.991  -6.119  0.00  0.00     0.066 A 
BRANCH   8  33
ATOM     33  C   UNK d   0      12.783  19.188  -5.411  0.00  0.00     0.151 C 
BRANCH  33  34
ATOM     34  C   UNK d   0      13.268  20.192  -6.375  0.00  0.00     0.143 C 
ATOM     35  O   UNK d   0      14.168  19.917  -7.181  0.00  0.00    -0.650 OA
BRANCH  34  36
ATOM     36  O   UNK d   0      12.714  21.451  -6.375  0.00  0.00    -0.776 OA
ATOM     37  H   UNK d   0      13.271  22.280  -6.127  0.00  0.00     0.167 HD
ENDBRANCH  34  36
ENDBRANCH  33  34
ENDBRANCH   8  33
BRANCH  31  38
ATOM     38  C   UNK d   0       5.406  18.830  -7.320  0.00  0.00     0.151 C 
BRANCH  38  39
ATOM     39  C   UNK d   0       5.699  19.681  -8.454  0.00  0.00     0.143 C 
ATOM     40  O   UNK d   0       4.807  20.145  -9.186  0.00  0.00    -0.650 OA
BRANCH  39  41
ATOM     41  O   UNK d   0       7.025  20.001  -8.747  0.00  0.00    -0.776 OA
ATOM     42  H   UNK d   0       7.224  20.981  -8.971  0.00  0.00     0.167 HD
ENDBRANCH  39  41
ENDBRANCH  38  39
ENDBRANCH  31  38
BRANCH  27  43
ATOM     43  C   UNK d   0       4.178  16.477  -8.889  0.00  0.00     0.052 C 
BRANCH  43  44
ATOM     44  C   UNK d   0       3.002  16.077  -8.057  0.00  0.00     0.115 C 
BRANCH  44  45
ATOM     45  C   UNK d   0       2.150  15.212  -8.915  0.00  0.00     0.139 C 
ATOM     46  O   UNK d   0       2.603  14.855 -10.030  0.00  0.00    -0.650 OA
BRANCH  45  47
ATOM     47  O   UNK d   0       0.897  14.785  -8.534  0.00  0.00    -0.776 OA
ATOM     48  H   UNK d   0       0.120  14.662  -9.203  0.00  0.00     0.167 HD
ENDBRANCH  45  47
ENDBRANCH  44  45
ENDBRANCH  43  44
ENDBRANCH  27  43
BRANCH  24  49
ATOM     49  C   UNK d   0       5.625  11.383 -10.506  0.00  0.00     0.052 C 
BRANCH  49  50
ATOM     50  C   UNK d   0       4.789  12.232 -11.430  0.00  0.00     0.115 C 
BRANCH  50  51
ATOM     51  C   UNK d   0       4.153  11.561 -12.555  0.00  0.00     0.139 C 
ATOM     52  O   UNK d   0       4.750  10.720 -13.267  0.00  0.00    -0.650 OA
BRANCH  51  53
ATOM     53  O   UNK d   0       2.834  11.852 -12.871  0.00  0.00    -0.776 OA
ATOM     54  H   UNK d   0       2.452  11.468 -13.717  0.00  0.00     0.167 HD
ENDBRANCH  51  53
ENDBRANCH  50  51
ENDBRANCH  49  50
ENDBRANCH  24  49
BRANCH  21  55
ATOM     55  C   UNK d   0       8.473  10.632 -11.439  0.00  0.00     0.151 C 
BRANCH  55  56
ATOM     56  C   UNK d   0       8.393  10.979 -12.866  0.00  0.00     0.143 C 
ATOM     57  O   UNK d   0       9.165  11.795 -13.407  0.00  0.00    -0.650 OA
BRANCH  56  58
ATOM     58  O   UNK d   0       7.406  10.358 -13.631  0.00  0.00    -0.776 OA
ATOM     59  H   UNK d   0       6.744  11.005 -14.096  0.00  0.00     0.167 HD
ENDBRANCH  56  58
ENDBRANCH  55  56
ENDBRANCH  21  55
BRANCH  18  60
ATOM     60  C   UNK d   0      12.989  11.980  -8.871  0.00  0.00     0.151 C 
BRANCH  60  61
ATOM     61  C   UNK d   0      12.257  11.118  -7.931  0.00  0.00     0.143 C 
ATOM     62  O   UNK d   0      12.237  11.207  -6.703  0.00  0.00    -0.650 OA
BRANCH  61  63
ATOM     63  O   UNK d   0      11.502  10.080  -8.528  0.00  0.00    -0.776 OA
ATOM     64  H   UNK d   0      10.515   9.994  -8.358  0.00  0.00     0.167 HD
ENDBRANCH  61  63
ENDBRANCH  60  61
ENDBRANCH  18  60
BRANCH  14  65
ATOM     65  C   UNK d   0      14.259  14.334  -7.437  0.00  0.00     0.052 C 
BRANCH  65  66
ATOM     66  C   UNK d   0      15.250  15.236  -8.083  0.00  0.00     0.115 C 
BRANCH  66  67
ATOM     67  C   UNK d   0      15.441  15.182  -9.505  0.00  0.00     0.139 C 
ATOM     68  O   UNK d   0      15.103  16.203 -10.208  0.00  0.00    -0.650 OA
BRANCH  67  69
ATOM     69  O   UNK d   0      15.964  14.130 -10.256  0.00  0.00    -0.776 OA
ATOM     70  H   UNK d   0      16.203  13.278  -9.729  0.00  0.00     0.167 HD
ENDBRANCH  67  69
ENDBRANCH  66  67
ENDBRANCH  65  66
ENDBRANCH  14  65
ENDBRANCH   6   7
ENDBRANCH   5   6
ENDBRANCH   2   5
TORSDOF 28
ENDMDL
MODEL 10
REMARK VINA RESULT:      -7.5     19.159     21.463
REMARK  28 active torsions:
REMARK  status: ('A' for Active; 'I' for Inactive)
REMARK    1  A    between atoms: C_2  and  O_3 
REMARK    2  A    between atoms: C_2  and  C_4 
REMARK    3  A    between atoms: C_4  and  C_5 
REMARK    4  A    between atoms: C_5  and  C_6 
REMARK    5  A    between atoms: C_7  and  C_8 
REMARK    6  A    between atoms: C_8  and  C_9 
REMARK    7  A    between atoms: C_9  and  O_11 
REMARK    8  A    between atoms: C_28  and  C_29 
REMARK    9  A    between atoms: C_29  and  C_30 
REMARK   10  A    between atoms: C_30  and  O_32 
REMARK   11  A    between atoms: C_33  and  C_34 
REMARK   12  A    between atoms: C_34  and  C_35 
REMARK   13  A    between atoms: C_35  and  C_36 
REMARK   14  A    between atoms: C_36  and  O_38 
REMARK   15  A    between atoms: C_39  and  C_40 
REMARK   16  A    between atoms: C_40  and  C_41 
REMARK   17  A    between atoms: C_41  and  C_42 
REMARK   18  A    between atoms: C_42  and  O_44 
REMARK   19  A    between atoms: C_45  and  C_46 
REMARK   20  A    between atoms: C_46  and  C_47 
REMARK   21  A    between atoms: C_47  and  O_49 
REMARK   22  A    between atoms: C_50  and  C_51 
REMARK   23  A    between atoms: C_51  and  C_52 
REMARK   24  A    between atoms: C_52  and  O_54 
REMARK   25  A    between atoms: C_55  and  C_56 
REMARK   26  A    between atoms: C_56  and  C_57 
REMARK   27  A    between atoms: C_57  and  C_58 
REMARK   28  A    between atoms: C_58  and  O_60 
ROOT
ATOM      1  O   UNK d   0      -2.365  14.114 -12.173  0.00  0.00    -0.650 OA
ATOM      2  C   UNK d   0      -2.813  14.263 -13.332  0.00  0.00     0.139 C 
ENDROOT
BRANCH   2   3
ATOM      3  O   UNK d   0      -3.750  15.238 -13.572  0.00  0.00    -0.776 OA
ATOM      4  H   UNK d   0      -4.677  15.196 -13.143  0.00  0.00     0.167 HD
ENDBRANCH   2   3
BRANCH   2   5
ATOM      5  C   UNK d   0      -2.332  13.387 -14.438  0.00  0.00     0.115 C 
BRANCH   5   6
ATOM      6  C   UNK d   0      -2.028  12.010 -13.913  0.00  0.00     0.052 C 
BRANCH   6   7
ATOM      7  C   UNK d   0      -2.868  10.940 -14.568  0.00  0.00    -0.020 A 
ATOM      8  C   UNK d   0      -4.167  10.796 -14.507  0.00  0.00    -0.011 A 
ATOM      9  C   UNK d   0      -4.522   9.621 -15.286  0.00  0.00     0.067 A 
ATOM     10  C   UNK d   0      -5.708   8.955 -15.631  0.00  0.00     0.062 C 
ATOM     11  N   UNK d   0      -3.376   9.108 -15.781  0.00  0.00    -0.248 NA
ATOM     12  C   UNK d   0      -5.878   7.989 -16.629  0.00  0.00     0.041 A 
ATOM     13  N   UNK d   0      -5.119   6.934 -16.980  0.00  0.00    -0.355 N 
ATOM     14  C   UNK d   0      -6.981   8.094 -17.496  0.00  0.00    -0.022 A 
ATOM     15  C   UNK d   0      -5.707   6.372 -18.053  0.00  0.00     0.042 A 
ATOM     16  H   UNK d   0      -4.196   6.583 -16.468  0.00  0.00     0.166 HD
ATOM     17  C   UNK d   0      -5.333   5.247 -18.814  0.00  0.00     0.062 C 
ATOM     18  C   UNK d   0      -6.877   7.072 -18.406  0.00  0.00    -0.013 A 
ATOM     19  C   UNK d   0      -4.094   4.900 -19.289  0.00  0.00     0.067 A 
ATOM     20  N   UNK d   0      -3.052   5.592 -18.822  0.00  0.00    -0.248 NA
ATOM     21  C   UNK d   0      -3.572   3.928 -20.235  0.00  0.00    -0.011 A 
ATOM     22  C   UNK d   0      -1.887   5.144 -19.395  0.00  0.00     0.066 A 
ATOM     23  C   UNK d   0      -0.716   5.755 -18.970  0.00  0.00     0.062 C 
ATOM     24  C   UNK d   0      -2.281   4.079 -20.296  0.00  0.00    -0.020 A 
ATOM     25  C   UNK d   0      -0.565   6.714 -17.957  0.00  0.00     0.041 A 
ATOM     26  N   UNK d   0      -1.312   7.771 -17.616  0.00  0.00    -0.355 N 
ATOM     27  C   UNK d   0       0.539   6.605 -17.084  0.00  0.00    -0.022 A 
ATOM     28  C   UNK d   0      -0.723   8.339 -16.552  0.00  0.00     0.042 A 
ATOM     29  H   UNK d   0      -2.233   8.129 -18.138  0.00  0.00     0.166 HD
ATOM     30  C   UNK d   0      -1.079   9.463 -15.791  0.00  0.00     0.062 C 
ATOM     31  C   UNK d   0       0.447   7.629 -16.192  0.00  0.00    -0.013 A 
ATOM     32  C   UNK d   0      -2.345   9.856 -15.386  0.00  0.00     0.066 A 
BRANCH   8  33
ATOM     33  C   UNK d   0      -5.120  11.656 -13.780  0.00  0.00     0.151 C 
BRANCH  33  34
ATOM     34  C   UNK d   0      -5.917  10.912 -12.789  0.00  0.00     0.143 C 
ATOM     35  O   UNK d   0      -7.115  10.667 -12.990  0.00  0.00    -0.650 OA
BRANCH  34  36
ATOM     36  O   UNK d   0      -5.321  10.487 -11.624  0.00  0.00    -0.776 OA
ATOM     37  H   UNK d   0      -4.300  10.387 -11.552  0.00  0.00     0.167 HD
ENDBRANCH  34  36
ENDBRANCH  33  34
ENDBRANCH   8  33
BRANCH  31  38
ATOM     38  C   UNK d   0       1.403   7.911 -15.056  0.00  0.00     0.151 C 
BRANCH  38  39
ATOM     39  C   UNK d   0       2.267   9.043 -15.317  0.00  0.00     0.143 C 
ATOM     40  O   UNK d   0       3.133   9.027 -16.210  0.00  0.00    -0.650 OA
BRANCH  39  41
ATOM     41  O   UNK d   0       2.135  10.199 -14.549  0.00  0.00    -0.776 OA
ATOM     42  H   UNK d   0       2.447  11.076 -14.978  0.00  0.00     0.167 HD
ENDBRANCH  39  41
ENDBRANCH  38  39
ENDBRANCH  31  38
BRANCH  27  43
ATOM     43  C   UNK d   0       1.654   5.589 -17.070  0.00  0.00     0.052 C 
BRANCH  43  44
ATOM     44  C   UNK d   0       2.814   5.972 -17.930  0.00  0.00     0.115 C 
BRANCH  44  45
ATOM     45  C   UNK d   0       4.024   5.894 -17.071  0.00  0.00     0.139 C 
ATOM     46  O   UNK d   0       5.020   6.589 -17.388  0.00  0.00    -0.650 OA
BRANCH  45  47
ATOM     47  O   UNK d   0       4.091   5.102 -15.945  0.00  0.00    -0.776 OA
ATOM     48  H   UNK d   0       4.385   4.112 -15.974  0.00  0.00     0.167 HD
ENDBRANCH  45  47
ENDBRANCH  44  45
ENDBRANCH  43  44
ENDBRANCH  27  43
BRANCH  24  49
ATOM     49  C   UNK d   0      -1.349   3.273 -21.104  0.00  0.00     0.052 C 
BRANCH  49  50
ATOM     50  C   UNK d   0      -0.600   2.302 -20.228  0.00  0.00     0.115 C 
BRANCH  50  51
ATOM     51  C   UNK d   0      -1.083   0.928 -20.195  0.00  0.00     0.139 C 
ATOM     52  O   UNK d   0      -0.908   0.126 -21.142  0.00  0.00    -0.650 OA
BRANCH  51  53
ATOM     53  O   UNK d   0      -1.770   0.469 -19.081  0.00  0.00    -0.776 OA
ATOM     54  H   UNK d   0      -2.768   0.582 -19.058  0.00  0.00     0.167 HD
ENDBRANCH  51  53
ENDBRANCH  50  51
ENDBRANCH  49  50
ENDBRANCH  24  49
BRANCH  21  55
ATOM     55  C   UNK d   0      -4.418   2.946 -20.976  0.00  0.00     0.151 C 
BRANCH  55  56
ATOM     56  C   UNK d   0      -4.451   1.634 -20.312  0.00  0.00     0.143 C 
ATOM     57  O   UNK d   0      -4.723   1.496 -19.103  0.00  0.00    -0.650 OA
BRANCH  56  58
ATOM     58  O   UNK d   0      -4.165   0.509 -21.083  0.00  0.00    -0.776 OA
ATOM     59  H   UNK d   0      -3.156   0.337 -21.247  0.00  0.00     0.167 HD
ENDBRANCH  56  58
ENDBRANCH  55  56
ENDBRANCH  21  55
BRANCH  18  60
ATOM     60  C   UNK d   0      -7.850   6.812 -19.529  0.00  0.00     0.151 C 
BRANCH  60  61
ATOM     61  C   UNK d   0      -7.282   7.471 -20.716  0.00  0.00     0.143 C 
ATOM     62  O   UNK d   0      -6.398   7.037 -21.454  0.00  0.00    -0.650 OA
BRANCH  61  63
ATOM     63  O   UNK d   0      -7.830   8.741 -21.019  0.00  0.00    -0.776 OA
ATOM     64  H   UNK d   0      -8.817   8.858 -21.166  0.00  0.00     0.167 HD
ENDBRANCH  61  63
ENDBRANCH  60  61
ENDBRANCH  18  60
BRANCH  14  65
ATOM     65  C   UNK d   0      -8.165   9.018 -17.470  0.00  0.00     0.052 C 
BRANCH  65  66
ATOM     66  C   UNK d   0      -7.887  10.339 -18.095  0.00  0.00     0.115 C 
BRANCH  66  67
ATOM     67  C   UNK d   0      -7.892  11.525 -17.285  0.00  0.00     0.139 C 
ATOM     68  O   UNK d   0      -7.887  12.669 -17.872  0.00  0.00    -0.650 OA
BRANCH  67  69
ATOM     69  O   UNK d   0      -7.901  11.607 -15.893  0.00  0.00    -0.776 OA
ATOM     70  H   UNK d   0      -6.976  11.634 -15.440  0.00  0.00     0.167 HD
ENDBRANCH  67  69
ENDBRANCH  66  67
ENDBRANCH  65  66
ENDBRANCH  14  65
ENDBRANCH   6   7
ENDBRANCH   5   6
ENDBRANCH   2   5
TORSDOF 28
ENDMDL
MODEL 11
REMARK VINA RESULT:      -7.4     21.516     24.349
REMARK  28 active torsions:
REMARK  status: ('A' for Active; 'I' for Inactive)
REMARK    1  A    between atoms: C_2  and  O_3 
REMARK    2  A    between atoms: C_2  and  C_4 
REMARK    3  A    between atoms: C_4  and  C_5 
REMARK    4  A    between atoms: C_5  and  C_6 
REMARK    5  A    between atoms: C_7  and  C_8 
REMARK    6  A    between atoms: C_8  and  C_9 
REMARK    7  A    between atoms: C_9  and  O_11 
REMARK    8  A    between atoms: C_28  and  C_29 
REMARK    9  A    between atoms: C_29  and  C_30 
REMARK   10  A    between atoms: C_30  and  O_32 
REMARK   11  A    between atoms: C_33  and  C_34 
REMARK   12  A    between atoms: C_34  and  C_35 
REMARK   13  A    between atoms: C_35  and  C_36 
REMARK   14  A    between atoms: C_36  and  O_38 
REMARK   15  A    between atoms: C_39  and  C_40 
REMARK   16  A    between atoms: C_40  and  C_41 
REMARK   17  A    between atoms: C_41  and  C_42 
REMARK   18  A    between atoms: C_42  and  O_44 
REMARK   19  A    between atoms: C_45  and  C_46 
REMARK   20  A    between atoms: C_46  and  C_47 
REMARK   21  A    between atoms: C_47  and  O_49 
REMARK   22  A    between atoms: C_50  and  C_51 
REMARK   23  A    between atoms: C_51  and  C_52 
REMARK   24  A    between atoms: C_52  and  O_54 
REMARK   25  A    between atoms: C_55  and  C_56 
REMARK   26  A    between atoms: C_56  and  C_57 
REMARK   27  A    between atoms: C_57  and  C_58 
REMARK   28  A    between atoms: C_58  and  O_60 
ROOT
ATOM      1  O   UNK d   0     -10.720   8.519 -22.907  0.00  0.00    -0.650 OA
ATOM      2  C   UNK d   0     -10.589   7.595 -22.073  0.00  0.00     0.139 C 
ENDROOT
BRANCH   2   3
ATOM      3  O   UNK d   0     -11.554   6.621 -21.990  0.00  0.00    -0.776 OA
ATOM      4  H   UNK d   0     -11.958   6.205 -22.832  0.00  0.00     0.167 HD
ENDBRANCH   2   3
BRANCH   2   5
ATOM      5  C   UNK d   0      -9.397   7.558 -21.179  0.00  0.00     0.115 C 
BRANCH   5   6
ATOM      6  C   UNK d   0      -9.426   6.316 -20.329  0.00  0.00     0.052 C 
BRANCH   6   7
ATOM      7  C   UNK d   0      -8.176   5.482 -20.477  0.00  0.00    -0.020 A 
ATOM      8  C   UNK d   0      -8.037   4.364 -21.142  0.00  0.00    -0.011 A 
ATOM      9  C   UNK d   0      -6.660   3.924 -20.990  0.00  0.00     0.067 A 
ATOM     10  C   UNK d   0      -5.883   2.851 -21.452  0.00  0.00     0.062 C 
ATOM     11  N   UNK d   0      -6.033   4.831 -20.211  0.00  0.00    -0.248 NA
ATOM     12  C   UNK d   0      -4.488   2.741 -21.426  0.00  0.00     0.041 A 
ATOM     13  N   UNK d   0      -3.592   3.050 -20.469  0.00  0.00    -0.355 N 
ATOM     14  C   UNK d   0      -3.819   2.290 -22.579  0.00  0.00    -0.022 A 
ATOM     15  C   UNK d   0      -2.372   2.813 -20.988  0.00  0.00     0.042 A 
ATOM     16  H   UNK d   0      -3.819   3.409 -19.441  0.00  0.00     0.166 HD
ATOM     17  C   UNK d   0      -1.093   2.964 -20.417  0.00  0.00     0.062 C 
ATOM     18  C   UNK d   0      -2.474   2.336 -22.309  0.00  0.00    -0.013 A 
ATOM     19  C   UNK d   0      -0.596   4.007 -19.678  0.00  0.00     0.067 A 
ATOM     20  N   UNK d   0      -1.473   4.924 -19.260  0.00  0.00    -0.248 NA
ATOM     21  C   UNK d   0       0.714   4.422 -19.204  0.00  0.00    -0.011 A 
ATOM     22  C   UNK d   0      -0.831   5.908 -18.549  0.00  0.00     0.066 A 
ATOM     23  C   UNK d   0      -1.632   6.910 -18.022  0.00  0.00     0.062 C 
ATOM     24  C   UNK d   0       0.571   5.537 -18.549  0.00  0.00    -0.020 A 
ATOM     25  C   UNK d   0      -3.033   6.994 -18.048  0.00  0.00     0.041 A 
ATOM     26  N   UNK d   0      -3.922   6.702 -19.004  0.00  0.00    -0.355 N 
ATOM     27  C   UNK d   0      -3.703   7.443 -16.889  0.00  0.00    -0.022 A 
ATOM     28  C   UNK d   0      -5.139   6.946 -18.493  0.00  0.00     0.042 A 
ATOM     29  H   UNK d   0      -3.693   6.352 -20.040  0.00  0.00     0.166 HD
ATOM     30  C   UNK d   0      -6.420   6.809 -19.052  0.00  0.00     0.062 C 
ATOM     31  C   UNK d   0      -5.036   7.415 -17.162  0.00  0.00    -0.013 A 
ATOM     32  C   UNK d   0      -6.891   5.794 -19.869  0.00  0.00     0.066 A 
BRANCH   8  33
ATOM     33  C   UNK d   0      -9.077   3.656 -21.911  0.00  0.00     0.151 C 
BRANCH  33  34
ATOM     34  C   UNK d   0      -9.048   3.985 -23.347  0.00  0.00     0.143 C 
ATOM     35  O   UNK d   0      -8.185   3.502 -24.094  0.00  0.00    -0.650 OA
BRANCH  34  36
ATOM     36  O   UNK d   0      -9.993   4.841 -23.863  0.00  0.00    -0.776 OA
ATOM     37  H   UNK d   0     -10.930   4.919 -23.444  0.00  0.00     0.167 HD
ENDBRANCH  34  36
ENDBRANCH  33  34
ENDBRANCH   8  33
BRANCH  31  38
ATOM     38  C   UNK d   0      -6.149   7.797 -16.213  0.00  0.00     0.151 C 
BRANCH  38  39
ATOM     39  C   UNK d   0      -6.514   6.723 -15.314  0.00  0.00     0.143 C 
ATOM     40  O   UNK d   0      -6.139   5.551 -15.491  0.00  0.00    -0.650 OA
BRANCH  39  41
ATOM     41  O   UNK d   0      -7.314   6.998 -14.206  0.00  0.00    -0.776 OA
ATOM     42  H   UNK d   0      -7.268   6.334 -13.427  0.00  0.00     0.167 HD
ENDBRANCH  39  41
ENDBRANCH  38  39
ENDBRANCH  31  38
BRANCH  27  43
ATOM     43  C   UNK d   0      -3.135   7.889 -15.565  0.00  0.00     0.052 C 
BRANCH  43  44
ATOM     44  C   UNK d   0      -2.834   9.352 -15.514  0.00  0.00     0.115 C 
BRANCH  44  45
ATOM     45  C   UNK d   0      -3.418   9.861 -14.245  0.00  0.00     0.139 C 
ATOM     46  O   UNK d   0      -2.721  10.634 -13.542  0.00  0.00    -0.650 OA
BRANCH  45  47
ATOM     47  O   UNK d   0      -4.684   9.526 -13.817  0.00  0.00    -0.776 OA
ATOM     48  H   UNK d   0      -5.088   9.876 -12.934  0.00  0.00     0.167 HD
ENDBRANCH  45  47
ENDBRANCH  44  45
ENDBRANCH  43  44
ENDBRANCH  27  43
BRANCH  24  49
ATOM     49  C   UNK d   0       1.639   6.287 -17.866  0.00  0.00     0.052 C 
BRANCH  49  50
ATOM     50  C   UNK d   0       1.685   5.921 -16.405  0.00  0.00     0.115 C 
BRANCH  50  51
ATOM     51  C   UNK d   0       1.543   7.007 -15.443  0.00  0.00     0.139 C 
ATOM     52  O   UNK d   0       2.524   7.646 -14.996  0.00  0.00    -0.650 OA
BRANCH  51  53
ATOM     53  O   UNK d   0       0.282   7.361 -14.989  0.00  0.00    -0.776 OA
ATOM     54  H   UNK d   0       0.208   8.121 -14.336  0.00  0.00     0.167 HD
ENDBRANCH  51  53
ENDBRANCH  50  51
ENDBRANCH  49  50
ENDBRANCH  24  49
BRANCH  21  55
ATOM     55  C   UNK d   0       1.972   3.657 -19.454  0.00  0.00     0.151 C 
BRANCH  55  56
ATOM     56  C   UNK d   0       2.195   2.616 -18.439  0.00  0.00     0.143 C 
ATOM     57  O   UNK d   0       1.601   2.603 -17.343  0.00  0.00    -0.650 OA
BRANCH  56  58
ATOM     58  O   UNK d   0       3.112   1.608 -18.734  0.00  0.00    -0.776 OA
ATOM     59  H   UNK d   0       3.431   1.583 -19.719  0.00  0.00     0.167 HD
ENDBRANCH  56  58
ENDBRANCH  55  56
ENDBRANCH  21  55
BRANCH  18  60
ATOM     60  C   UNK d   0      -1.384   1.945 -23.276  0.00  0.00     0.151 C 
BRANCH  60  61
ATOM     61  C   UNK d   0      -1.246   0.485 -23.159  0.00  0.00     0.143 C 
ATOM     62  O   UNK d   0      -1.021  -0.160 -22.134  0.00  0.00    -0.650 OA
BRANCH  61  63
ATOM     63  O   UNK d   0      -1.392  -0.233 -24.371  0.00  0.00    -0.776 OA
ATOM     64  H   UNK d   0      -2.128  -0.906 -24.489  0.00  0.00     0.167 HD
ENDBRANCH  61  63
ENDBRANCH  60  61
ENDBRANCH  18  60
BRANCH  14  65
ATOM     65  C   UNK d   0      -4.353   1.731 -23.867  0.00  0.00     0.052 C 
BRANCH  65  66
ATOM     66  C   UNK d   0      -5.225   0.542 -23.668  0.00  0.00     0.115 C 
BRANCH  66  67
ATOM     67  C   UNK d   0      -4.685  -0.644 -23.067  0.00  0.00     0.139 C 
ATOM     68  O   UNK d   0      -4.120  -1.515 -23.826  0.00  0.00    -0.650 OA
BRANCH  67  69
ATOM     69  O   UNK d   0      -4.689  -0.994 -21.717  0.00  0.00    -0.776 OA
ATOM     70  H   UNK d   0      -4.180  -0.358 -21.087  0.00  0.00     0.167 HD
ENDBRANCH  67  69
ENDBRANCH  66  67
ENDBRANCH  65  66
ENDBRANCH  14  65
ENDBRANCH   6   7
ENDBRANCH   5   6
ENDBRANCH   2   5
TORSDOF 28
ENDMDL
MODEL 12
REMARK VINA RESULT:      -7.4     21.589     23.931
REMARK  28 active torsions:
REMARK  status: ('A' for Active; 'I' for Inactive)
REMARK    1  A    between atoms: C_2  and  O_3 
REMARK    2  A    between atoms: C_2  and  C_4 
REMARK    3  A    between atoms: C_4  and  C_5 
REMARK    4  A    between atoms: C_5  and  C_6 
REMARK    5  A    between atoms: C_7  and  C_8 
REMARK    6  A    between atoms: C_8  and  C_9 
REMARK    7  A    between atoms: C_9  and  O_11 
REMARK    8  A    between atoms: C_28  and  C_29 
REMARK    9  A    between atoms: C_29  and  C_30 
REMARK   10  A    between atoms: C_30  and  O_32 
REMARK   11  A    between atoms: C_33  and  C_34 
REMARK   12  A    between atoms: C_34  and  C_35 
REMARK   13  A    between atoms: C_35  and  C_36 
REMARK   14  A    between atoms: C_36  and  O_38 
REMARK   15  A    between atoms: C_39  and  C_40 
REMARK   16  A    between atoms: C_40  and  C_41 
REMARK   17  A    between atoms: C_41  and  C_42 
REMARK   18  A    between atoms: C_42  and  O_44 
REMARK   19  A    between atoms: C_45  and  C_46 
REMARK   20  A    between atoms: C_46  and  C_47 
REMARK   21  A    between atoms: C_47  and  O_49 
REMARK   22  A    between atoms: C_50  and  C_51 
REMARK   23  A    between atoms: C_51  and  C_52 
REMARK   24  A    between atoms: C_52  and  O_54 
REMARK   25  A    between atoms: C_55  and  C_56 
REMARK   26  A    between atoms: C_56  and  C_57 
REMARK   27  A    between atoms: C_57  and  C_58 
REMARK   28  A    between atoms: C_58  and  O_60 
ROOT
ATOM      1  O   UNK d   0      -9.187   2.345 -25.024  0.00  0.00    -0.650 OA
ATOM      2  C   UNK d   0      -9.243   3.112 -24.037  0.00  0.00     0.139 C 
ENDROOT
BRANCH   2   3
ATOM      3  O   UNK d   0      -9.882   4.322 -24.160  0.00  0.00    -0.776 OA
ATOM      4  H   UNK d   0     -10.713   4.423 -24.747  0.00  0.00     0.167 HD
ENDBRANCH   2   3
BRANCH   2   5
ATOM      5  C   UNK d   0      -8.621   2.712 -22.743  0.00  0.00     0.115 C 
BRANCH   5   6
ATOM      6  C   UNK d   0      -9.223   3.504 -21.614  0.00  0.00     0.052 C 
BRANCH   6   7
ATOM      7  C   UNK d   0      -8.280   4.550 -21.070  0.00  0.00    -0.020 A 
ATOM      8  C   UNK d   0      -8.571   5.769 -20.693  0.00  0.00    -0.011 A 
ATOM      9  C   UNK d   0      -7.341   6.404 -20.252  0.00  0.00     0.067 A 
ATOM     10  C   UNK d   0      -6.979   7.654 -19.726  0.00  0.00     0.062 C 
ATOM     11  N   UNK d   0      -6.348   5.502 -20.401  0.00  0.00    -0.248 NA
ATOM     12  C   UNK d   0      -5.777   7.992 -19.095  0.00  0.00     0.041 A 
ATOM     13  N   UNK d   0      -4.501   7.689 -19.398  0.00  0.00    -0.355 N 
ATOM     14  C   UNK d   0      -5.821   8.731 -17.898  0.00  0.00    -0.022 A 
ATOM     15  C   UNK d   0      -3.734   8.209 -18.421  0.00  0.00     0.042 A 
ATOM     16  H   UNK d   0      -4.147   7.134 -20.295  0.00  0.00     0.166 HD
ATOM     17  C   UNK d   0      -2.336   8.186 -18.247  0.00  0.00     0.062 C 
ATOM     18  C   UNK d   0      -4.526   8.870 -17.463  0.00  0.00    -0.013 A 
ATOM     19  C   UNK d   0      -1.466   7.136 -18.395  0.00  0.00     0.067 A 
ATOM     20  N   UNK d   0      -1.946   6.029 -18.967  0.00  0.00    -0.248 NA
ATOM     21  C   UNK d   0      -0.074   6.878 -18.065  0.00  0.00    -0.011 A 
ATOM     22  C   UNK d   0      -0.969   5.065 -19.034  0.00  0.00     0.066 A 
ATOM     23  C   UNK d   0      -1.323   3.870 -19.643  0.00  0.00     0.062 C 
ATOM     24  C   UNK d   0       0.209   5.663 -18.437  0.00  0.00    -0.020 A 
ATOM     25  C   UNK d   0      -2.532   3.555 -20.282  0.00  0.00     0.041 A 
ATOM     26  N   UNK d   0      -3.802   3.844 -19.972  0.00  0.00    -0.355 N 
ATOM     27  C   UNK d   0      -2.487   2.818 -21.485  0.00  0.00    -0.022 A 
ATOM     28  C   UNK d   0      -4.569   3.319 -20.941  0.00  0.00     0.042 A 
ATOM     29  H   UNK d   0      -4.156   4.392 -19.065  0.00  0.00     0.166 HD
ATOM     30  C   UNK d   0      -5.961   3.326 -21.121  0.00  0.00     0.062 C 
ATOM     31  C   UNK d   0      -3.772   2.664 -21.909  0.00  0.00    -0.013 A 
ATOM     32  C   UNK d   0      -6.848   4.366 -20.888  0.00  0.00     0.066 A 
BRANCH   8  33
ATOM     33  C   UNK d   0      -9.901   6.406 -20.709  0.00  0.00     0.151 C 
BRANCH  33  34
ATOM     34  C   UNK d   0     -10.204   7.061 -21.994  0.00  0.00     0.143 C 
ATOM     35  O   UNK d   0      -9.615   8.097 -22.335  0.00  0.00    -0.650 OA
BRANCH  34  36
ATOM     36  O   UNK d   0     -11.156   6.514 -22.823  0.00  0.00    -0.776 OA
ATOM     37  H   UNK d   0     -11.398   6.953 -23.721  0.00  0.00     0.167 HD
ENDBRANCH  34  36
ENDBRANCH  33  34
ENDBRANCH   8  33
BRANCH  31  38
ATOM     38  C   UNK d   0      -4.217   1.950 -23.164  0.00  0.00     0.151 C 
BRANCH  38  39
ATOM     39  C   UNK d   0      -4.715   0.616 -22.905  0.00  0.00     0.143 C 
ATOM     40  O   UNK d   0      -5.437   0.007 -23.714  0.00  0.00    -0.650 OA
BRANCH  39  41
ATOM     41  O   UNK d   0      -4.382  -0.021 -21.710  0.00  0.00    -0.776 OA
ATOM     42  H   UNK d   0      -3.934   0.555 -20.990  0.00  0.00     0.167 HD
ENDBRANCH  39  41
ENDBRANCH  38  39
ENDBRANCH  31  38
BRANCH  27  43
ATOM     43  C   UNK d   0      -1.296   2.265 -22.227  0.00  0.00     0.052 C 
BRANCH  43  44
ATOM     44  C   UNK d   0      -0.855   0.929 -21.724  0.00  0.00     0.115 C 
BRANCH  44  45
ATOM     45  C   UNK d   0      -0.846   0.016 -22.897  0.00  0.00     0.139 C 
ATOM     46  O   UNK d   0      -1.725  -0.879 -22.957  0.00  0.00    -0.650 OA
BRANCH  45  47
ATOM     47  O   UNK d   0       0.077   0.116 -23.915  0.00  0.00    -0.776 OA
ATOM     48  H   UNK d   0       0.986  -0.373 -23.898  0.00  0.00     0.167 HD
ENDBRANCH  45  47
ENDBRANCH  44  45
ENDBRANCH  43  44
ENDBRANCH  27  43
BRANCH  24  49
ATOM     49  C   UNK d   0       1.521   5.004 -18.325  0.00  0.00     0.052 C 
BRANCH  49  50
ATOM     50  C   UNK d   0       1.486   3.942 -17.257  0.00  0.00     0.115 C 
BRANCH  50  51
ATOM     51  C   UNK d   0       2.036   4.291 -15.954  0.00  0.00     0.139 C 
ATOM     52  O   UNK d   0       3.268   4.294 -15.719  0.00  0.00    -0.650 OA
BRANCH  51  53
ATOM     53  O   UNK d   0       1.182   4.634 -14.917  0.00  0.00    -0.776 OA
ATOM     54  H   UNK d   0       1.564   5.127 -14.130  0.00  0.00     0.167 HD
ENDBRANCH  51  53
ENDBRANCH  50  51
ENDBRANCH  49  50
ENDBRANCH  24  49
BRANCH  21  55
ATOM     55  C   UNK d   0       0.829   7.874 -17.416  0.00  0.00     0.151 C 
BRANCH  55  56
ATOM     56  C   UNK d   0       0.425   8.165 -16.032  0.00  0.00     0.143 C 
ATOM     57  O   UNK d   0       0.706   7.417 -15.075  0.00  0.00    -0.650 OA
BRANCH  56  58
ATOM     58  O   UNK d   0      -0.303   9.330 -15.799  0.00  0.00    -0.776 OA
ATOM     59  H   UNK d   0      -1.282   9.308 -16.138  0.00  0.00     0.167 HD
ENDBRANCH  56  58
ENDBRANCH  55  56
ENDBRANCH  21  55
BRANCH  18  60
ATOM     60  C   UNK d   0      -4.110   9.592 -16.205  0.00  0.00     0.151 C 
BRANCH  60  61
ATOM     61  C   UNK d   0      -3.851   8.544 -15.205  0.00  0.00     0.143 C 
ATOM     62  O   UNK d   0      -4.465   7.486 -15.063  0.00  0.00    -0.650 OA
BRANCH  61  63
ATOM     63  O   UNK d   0      -2.775   8.806 -14.324  0.00  0.00    -0.776 OA
ATOM     64  H   UNK d   0      -2.818   8.534 -13.358  0.00  0.00     0.167 HD
ENDBRANCH  61  63
ENDBRANCH  60  61
ENDBRANCH  18  60
BRANCH  14  65
ATOM     65  C   UNK d   0      -6.972   9.393 -17.196  0.00  0.00     0.052 C 
BRANCH  65  66
ATOM     66  C   UNK d   0      -7.777   8.446 -16.379  0.00  0.00     0.115 C 
BRANCH  66  67
ATOM     67  C   UNK d   0      -7.748   8.539 -14.946  0.00  0.00     0.139 C 
ATOM     68  O   UNK d   0      -7.740   7.451 -14.260  0.00  0.00    -0.650 OA
BRANCH  67  69
ATOM     69  O   UNK d   0      -7.726   9.695 -14.166  0.00  0.00    -0.776 OA
ATOM     70  H   UNK d   0      -8.525   9.820 -13.529  0.00  0.00     0.167 HD
ENDBRANCH  67  69
ENDBRANCH  66  67
ENDBRANCH  65  66
ENDBRANCH  14  65
ENDBRANCH   6   7
ENDBRANCH   5   6
ENDBRANCH   2   5
TORSDOF 28
ENDMDL
MODEL 13
REMARK VINA RESULT:      -7.4     20.017     22.671
REMARK  28 active torsions:
REMARK  status: ('A' for Active; 'I' for Inactive)
REMARK    1  A    between atoms: C_2  and  O_3 
REMARK    2  A    between atoms: C_2  and  C_4 
REMARK    3  A    between atoms: C_4  and  C_5 
REMARK    4  A    between atoms: C_5  and  C_6 
REMARK    5  A    between atoms: C_7  and  C_8 
REMARK    6  A    between atoms: C_8  and  C_9 
REMARK    7  A    between atoms: C_9  and  O_11 
REMARK    8  A    between atoms: C_28  and  C_29 
REMARK    9  A    between atoms: C_29  and  C_30 
REMARK   10  A    between atoms: C_30  and  O_32 
REMARK   11  A    between atoms: C_33  and  C_34 
REMARK   12  A    between atoms: C_34  and  C_35 
REMARK   13  A    between atoms: C_35  and  C_36 
REMARK   14  A    between atoms: C_36  and  O_38 
REMARK   15  A    between atoms: C_39  and  C_40 
REMARK   16  A    between atoms: C_40  and  C_41 
REMARK   17  A    between atoms: C_41  and  C_42 
REMARK   18  A    between atoms: C_42  and  O_44 
REMARK   19  A    between atoms: C_45  and  C_46 
REMARK   20  A    between atoms: C_46  and  C_47 
REMARK   21  A    between atoms: C_47  and  O_49 
REMARK   22  A    between atoms: C_50  and  C_51 
REMARK   23  A    between atoms: C_51  and  C_52 
REMARK   24  A    between atoms: C_52  and  O_54 
REMARK   25  A    between atoms: C_55  and  C_56 
REMARK   26  A    between atoms: C_56  and  C_57 
REMARK   27  A    between atoms: C_57  and  C_58 
REMARK   28  A    between atoms: C_58  and  O_60 
ROOT
ATOM      1  O   UNK d   0      -5.715  10.381 -12.410  0.00  0.00    -0.650 OA
ATOM      2  C   UNK d   0      -6.772  10.658 -13.019  0.00  0.00     0.139 C 
ENDROOT
BRANCH   2   3
ATOM      3  O   UNK d   0      -7.951  10.743 -12.319  0.00  0.00    -0.776 OA
ATOM      4  H   UNK d   0      -8.853  10.678 -12.794  0.00  0.00     0.167 HD
ENDBRANCH   2   3
BRANCH   2   5
ATOM      5  C   UNK d   0      -6.747  10.892 -14.491  0.00  0.00     0.115 C 
BRANCH   5   6
ATOM      6  C   UNK d   0      -5.505  11.649 -14.875  0.00  0.00     0.052 C 
BRANCH   6   7
ATOM      7  C   UNK d   0      -4.468  10.770 -15.532  0.00  0.00    -0.020 A 
ATOM      8  C   UNK d   0      -3.166  10.866 -15.442  0.00  0.00    -0.011 A 
ATOM      9  C   UNK d   0      -2.585   9.809 -16.252  0.00  0.00     0.067 A 
ATOM     10  C   UNK d   0      -1.289   9.362 -16.555  0.00  0.00     0.062 C 
ATOM     11  N   UNK d   0      -3.606   9.120 -16.804  0.00  0.00    -0.248 NA
ATOM     12  C   UNK d   0      -0.929   8.143 -17.140  0.00  0.00     0.041 A 
ATOM     13  N   UNK d   0      -1.465   7.461 -18.170  0.00  0.00    -0.355 N 
ATOM     14  C   UNK d   0       0.135   7.410 -16.584  0.00  0.00    -0.022 A 
ATOM     15  C   UNK d   0      -0.774   6.310 -18.277  0.00  0.00     0.042 A 
ATOM     16  H   UNK d   0      -2.303   7.795 -18.821  0.00  0.00     0.166 HD
ATOM     17  C   UNK d   0      -0.916   5.240 -19.182  0.00  0.00     0.062 C 
ATOM     18  C   UNK d   0       0.238   6.242 -17.299  0.00  0.00    -0.013 A 
ATOM     19  C   UNK d   0      -2.061   4.612 -19.601  0.00  0.00     0.067 A 
ATOM     20  N   UNK d   0      -3.221   5.192 -19.282  0.00  0.00    -0.248 NA
ATOM     21  C   UNK d   0      -2.378   3.399 -20.336  0.00  0.00    -0.011 A 
ATOM     22  C   UNK d   0      -4.273   4.445 -19.753  0.00  0.00     0.066 A 
ATOM     23  C   UNK d   0      -5.542   4.955 -19.523  0.00  0.00     0.062 C 
ATOM     24  C   UNK d   0      -3.674   3.305 -20.418  0.00  0.00    -0.020 A 
ATOM     25  C   UNK d   0      -5.883   6.188 -18.945  0.00  0.00     0.041 A 
ATOM     26  N   UNK d   0      -5.359   6.859 -17.912  0.00  0.00    -0.355 N 
ATOM     27  C   UNK d   0      -6.948   6.925 -19.507  0.00  0.00    -0.022 A 
ATOM     28  C   UNK d   0      -6.053   8.002 -17.798  0.00  0.00     0.042 A 
ATOM     29  H   UNK d   0      -4.525   6.517 -17.252  0.00  0.00     0.166 HD
ATOM     30  C   UNK d   0      -5.928   9.072 -16.897  0.00  0.00     0.062 C 
ATOM     31  C   UNK d   0      -7.062   8.075 -18.787  0.00  0.00    -0.013 A 
ATOM     32  C   UNK d   0      -4.765   9.647 -16.410  0.00  0.00     0.066 A 
BRANCH   8  33
ATOM     33  C   UNK d   0      -2.404  11.863 -14.668  0.00  0.00     0.151 C 
BRANCH  33  34
ATOM     34  C   UNK d   0      -2.588  11.718 -13.212  0.00  0.00     0.143 C 
ATOM     35  O   UNK d   0      -2.581  12.709 -12.468  0.00  0.00    -0.650 OA
BRANCH  34  36
ATOM     36  O   UNK d   0      -2.769  10.464 -12.676  0.00  0.00    -0.776 OA
ATOM     37  H   UNK d   0      -3.232   9.716 -13.211  0.00  0.00     0.167 HD
ENDBRANCH  34  36
ENDBRANCH  33  34
ENDBRANCH   8  33
BRANCH  31  38
ATOM     38  C   UNK d   0      -8.059   9.184 -19.031  0.00  0.00     0.151 C 
BRANCH  38  39
ATOM     39  C   UNK d   0      -7.597  10.151 -20.003  0.00  0.00     0.143 C 
ATOM     40  O   UNK d   0      -6.907  11.136 -19.685  0.00  0.00    -0.650 OA
BRANCH  39  41
ATOM     41  O   UNK d   0      -7.928   9.985 -21.347  0.00  0.00    -0.776 OA
ATOM     42  H   UNK d   0      -8.800   9.488 -21.550  0.00  0.00     0.167 HD
ENDBRANCH  39  41
ENDBRANCH  38  39
ENDBRANCH  31  38
BRANCH  27  43
ATOM     43  C   UNK d   0      -7.841   6.582 -20.673  0.00  0.00     0.052 C 
BRANCH  43  44
ATOM     44  C   UNK d   0      -9.204   6.132 -20.261  0.00  0.00     0.115 C 
BRANCH  44  45
ATOM     45  C   UNK d   0     -10.162   6.750 -21.214  0.00  0.00     0.139 C 
ATOM     46  O   UNK d   0     -11.296   6.224 -21.339  0.00  0.00    -0.650 OA
BRANCH  45  47
ATOM     47  O   UNK d   0      -9.859   7.871 -21.956  0.00  0.00    -0.776 OA
ATOM     48  H   UNK d   0      -9.128   8.546 -21.679  0.00  0.00     0.167 HD
ENDBRANCH  45  47
ENDBRANCH  44  45
ENDBRANCH  43  44
ENDBRANCH  27  43
BRANCH  24  49
ATOM     49  C   UNK d   0      -4.426   2.247 -21.114  0.00  0.00     0.052 C 
BRANCH  49  50
ATOM     50  C   UNK d   0      -4.928   2.748 -22.443  0.00  0.00     0.115 C 
BRANCH  50  51
ATOM     51  C   UNK d   0      -6.371   2.766 -22.645  0.00  0.00     0.139 C 
ATOM     52  O   UNK d   0      -6.910   3.328 -23.627  0.00  0.00    -0.650 OA
BRANCH  51  53
ATOM     53  O   UNK d   0      -7.200   2.146 -21.723  0.00  0.00    -0.776 OA
ATOM     54  H   UNK d   0      -8.008   2.647 -21.397  0.00  0.00     0.167 HD
ENDBRANCH  51  53
ENDBRANCH  50  51
ENDBRANCH  49  50
ENDBRANCH  24  49
BRANCH  21  55
ATOM     55  C   UNK d   0      -1.352   2.462 -20.884  0.00  0.00     0.151 C 
BRANCH  55  56
ATOM     56  C   UNK d   0      -0.815   1.566 -19.849  0.00  0.00     0.143 C 
ATOM     57  O   UNK d   0      -1.408   0.535 -19.476  0.00  0.00    -0.650 OA
BRANCH  56  58
ATOM     58  O   UNK d   0       0.409   1.900 -19.273  0.00  0.00    -0.776 OA
ATOM     59  H   UNK d   0       0.624   2.913 -19.260  0.00  0.00     0.167 HD
ENDBRANCH  56  58
ENDBRANCH  55  56
ENDBRANCH  21  55
BRANCH  18  60
ATOM     60  C   UNK d   0       1.247   5.153 -17.035  0.00  0.00     0.151 C 
BRANCH  60  61
ATOM     61  C   UNK d   0       2.094   5.087 -18.235  0.00  0.00     0.143 C 
ATOM     62  O   UNK d   0       2.421   4.077 -18.859  0.00  0.00    -0.650 OA
BRANCH  61  63
ATOM     63  O   UNK d   0       2.572   6.335 -18.704  0.00  0.00    -0.776 OA
ATOM     64  H   UNK d   0       2.770   6.481 -19.678  0.00  0.00     0.167 HD
ENDBRANCH  61  63
ENDBRANCH  60  61
ENDBRANCH  18  60
BRANCH  14  65
ATOM     65  C   UNK d   0       1.115   7.769 -15.503  0.00  0.00     0.052 C 
BRANCH  65  66
ATOM     66  C   UNK d   0       2.309   8.492 -16.017  0.00  0.00     0.115 C 
BRANCH  66  67
ATOM     67  C   UNK d   0       3.622   7.973 -15.757  0.00  0.00     0.139 C 
ATOM     68  O   UNK d   0       4.294   7.483 -16.737  0.00  0.00    -0.650 OA
BRANCH  67  69
ATOM     69  O   UNK d   0       4.294   7.925 -14.536  0.00  0.00    -0.776 OA
ATOM     70  H   UNK d   0       5.322   7.958 -14.588  0.00  0.00     0.167 HD
ENDBRANCH  67  69
ENDBRANCH  66  67
ENDBRANCH  65  66
ENDBRANCH  14  65
ENDBRANCH   6   7
ENDBRANCH   5   6
ENDBRANCH   2   5
TORSDOF 28
ENDMDL
MODEL 14
REMARK VINA RESULT:      -7.3     19.655     21.914
REMARK  28 active torsions:
REMARK  status: ('A' for Active; 'I' for Inactive)
REMARK    1  A    between atoms: C_2  and  O_3 
REMARK    2  A    between atoms: C_2  and  C_4 
REMARK    3  A    between atoms: C_4  and  C_5 
REMARK    4  A    between atoms: C_5  and  C_6 
REMARK    5  A    between atoms: C_7  and  C_8 
REMARK    6  A    between atoms: C_8  and  C_9 
REMARK    7  A    between atoms: C_9  and  O_11 
REMARK    8  A    between atoms: C_28  and  C_29 
REMARK    9  A    between atoms: C_29  and  C_30 
REMARK   10  A    between atoms: C_30  and  O_32 
REMARK   11  A    between atoms: C_33  and  C_34 
REMARK   12  A    between atoms: C_34  and  C_35 
REMARK   13  A    between atoms: C_35  and  C_36 
REMARK   14  A    between atoms: C_36  and  O_38 
REMARK   15  A    between atoms: C_39  and  C_40 
REMARK   16  A    between atoms: C_40  and  C_41 
REMARK   17  A    between atoms: C_41  and  C_42 
REMARK   18  A    between atoms: C_42  and  O_44 
REMARK   19  A    between atoms: C_45  and  C_46 
REMARK   20  A    between atoms: C_46  and  C_47 
REMARK   21  A    between atoms: C_47  and  O_49 
REMARK   22  A    between atoms: C_50  and  C_51 
REMARK   23  A    between atoms: C_51  and  C_52 
REMARK   24  A    between atoms: C_52  and  O_54 
REMARK   25  A    between atoms: C_55  and  C_56 
REMARK   26  A    between atoms: C_56  and  C_57 
REMARK   27  A    between atoms: C_57  and  C_58 
REMARK   28  A    between atoms: C_58  and  O_60 
ROOT
ATOM      1  O   UNK d   0      -7.443  10.760 -12.888  0.00  0.00    -0.650 OA
ATOM      2  C   UNK d   0      -6.401  10.069 -12.870  0.00  0.00     0.139 C 
ENDROOT
BRANCH   2   3
ATOM      3  O   UNK d   0      -5.405  10.375 -11.974  0.00  0.00    -0.776 OA
ATOM      4  H   UNK d   0      -4.883  11.251 -12.044  0.00  0.00     0.167 HD
ENDBRANCH   2   3
BRANCH   2   5
ATOM      5  C   UNK d   0      -6.244   8.926 -13.814  0.00  0.00     0.115 C 
BRANCH   5   6
ATOM      6  C   UNK d   0      -5.880   9.433 -15.184  0.00  0.00     0.052 C 
BRANCH   6   7
ATOM      7  C   UNK d   0      -4.601   8.825 -15.707  0.00  0.00    -0.020 A 
ATOM      8  C   UNK d   0      -3.375   9.201 -15.450  0.00  0.00    -0.011 A 
ATOM      9  C   UNK d   0      -2.477   8.325 -16.184  0.00  0.00     0.067 A 
ATOM     10  C   UNK d   0      -1.087   8.184 -16.321  0.00  0.00     0.062 C 
ATOM     11  N   UNK d   0      -3.242   7.448 -16.867  0.00  0.00    -0.248 NA
ATOM     12  C   UNK d   0      -0.395   7.095 -16.861  0.00  0.00     0.041 A 
ATOM     13  N   UNK d   0      -0.634   6.347 -17.955  0.00  0.00    -0.355 N 
ATOM     14  C   UNK d   0       0.728   6.595 -16.177  0.00  0.00    -0.022 A 
ATOM     15  C   UNK d   0       0.303   5.380 -17.978  0.00  0.00     0.042 A 
ATOM     16  H   UNK d   0      -1.438   6.511 -18.707  0.00  0.00     0.166 HD
ATOM     17  C   UNK d   0       0.515   4.336 -18.900  0.00  0.00     0.062 C 
ATOM     18  C   UNK d   0       1.175   5.503 -16.879  0.00  0.00    -0.013 A 
ATOM     19  C   UNK d   0      -0.401   3.486 -19.466  0.00  0.00     0.067 A 
ATOM     20  N   UNK d   0      -1.691   3.786 -19.295  0.00  0.00    -0.248 NA
ATOM     21  C   UNK d   0      -0.346   2.259 -20.243  0.00  0.00    -0.011 A 
ATOM     22  C   UNK d   0      -2.484   2.844 -19.902  0.00  0.00     0.066 A 
ATOM     23  C   UNK d   0      -3.853   3.054 -19.834  0.00  0.00     0.062 C 
ATOM     24  C   UNK d   0      -1.569   1.885 -20.491  0.00  0.00    -0.020 A 
ATOM     25  C   UNK d   0      -4.528   4.162 -19.298  0.00  0.00     0.041 A 
ATOM     26  N   UNK d   0      -4.299   4.896 -18.202  0.00  0.00    -0.355 N 
ATOM     27  C   UNK d   0      -5.652   4.666 -19.988  0.00  0.00    -0.022 A 
ATOM     28  C   UNK d   0      -5.238   5.855 -18.172  0.00  0.00     0.042 A 
ATOM     29  H   UNK d   0      -3.498   4.724 -17.443  0.00  0.00     0.166 HD
ATOM     30  C   UNK d   0      -5.466   6.894 -17.257  0.00  0.00     0.062 C 
ATOM     31  C   UNK d   0      -6.107   5.737 -19.283  0.00  0.00    -0.013 A 
ATOM     32  C   UNK d   0      -4.530   7.695 -16.622  0.00  0.00     0.066 A 
BRANCH   8  33
ATOM     33  C   UNK d   0      -2.955  10.315 -14.579  0.00  0.00     0.151 C 
BRANCH  33  34
ATOM     34  C   UNK d   0      -2.172  11.337 -15.297  0.00  0.00     0.143 C 
ATOM     35  O   UNK d   0      -2.692  12.031 -16.183  0.00  0.00    -0.650 OA
BRANCH  34  36
ATOM     36  O   UNK d   0      -0.846  11.519 -14.979  0.00  0.00    -0.776 OA
ATOM     37  H   UNK d   0      -0.433  12.460 -14.931  0.00  0.00     0.167 HD
ENDBRANCH  34  36
ENDBRANCH  33  34
ENDBRANCH   8  33
BRANCH  31  38
ATOM     38  C   UNK d   0      -7.287   6.608 -19.647  0.00  0.00     0.151 C 
BRANCH  38  39
ATOM     39  C   UNK d   0      -6.955   7.627 -20.620  0.00  0.00     0.143 C 
ATOM     40  O   UNK d   0      -5.910   8.297 -20.551  0.00  0.00    -0.650 OA
BRANCH  39  41
ATOM     41  O   UNK d   0      -7.829   7.876 -21.678  0.00  0.00    -0.776 OA
ATOM     42  H   UNK d   0      -7.441   8.362 -22.492  0.00  0.00     0.167 HD
ENDBRANCH  39  41
ENDBRANCH  38  39
ENDBRANCH  31  38
BRANCH  27  43
ATOM     43  C   UNK d   0      -6.295   4.175 -21.261  0.00  0.00     0.052 C 
BRANCH  43  44
ATOM     44  C   UNK d   0      -7.539   3.381 -21.027  0.00  0.00     0.115 C 
BRANCH  44  45
ATOM     45  C   UNK d   0      -7.842   2.680 -22.302  0.00  0.00     0.139 C 
ATOM     46  O   UNK d   0      -8.965   2.133 -22.424  0.00  0.00    -0.650 OA
BRANCH  45  47
ATOM     47  O   UNK d   0      -6.947   2.612 -23.347  0.00  0.00    -0.776 OA
ATOM     48  H   UNK d   0      -6.740   3.417 -23.961  0.00  0.00     0.167 HD
ENDBRANCH  45  47
ENDBRANCH  44  45
ENDBRANCH  43  44
ENDBRANCH  27  43
BRANCH  24  49
ATOM     49  C   UNK d   0      -1.975   0.712 -21.282  0.00  0.00     0.052 C 
BRANCH  49  50
ATOM     50  C   UNK d   0      -2.327   1.124 -22.689  0.00  0.00     0.115 C 
BRANCH  50  51
ATOM     51  C   UNK d   0      -3.723   1.436 -22.960  0.00  0.00     0.139 C 
ATOM     52  O   UNK d   0      -4.667   0.709 -22.570  0.00  0.00    -0.650 OA
BRANCH  51  53
ATOM     53  O   UNK d   0      -4.045   2.577 -23.679  0.00  0.00    -0.776 OA
ATOM     54  H   UNK d   0      -4.189   3.433 -23.173  0.00  0.00     0.167 HD
ENDBRANCH  51  53
ENDBRANCH  50  51
ENDBRANCH  49  50
ENDBRANCH  24  49
BRANCH  21  55
ATOM     55  C   UNK d   0       0.921   1.589 -20.659  0.00  0.00     0.151 C 
BRANCH  55  56
ATOM     56  C   UNK d   0       1.516   2.223 -21.846  0.00  0.00     0.143 C 
ATOM     57  O   UNK d   0       2.337   3.158 -21.771  0.00  0.00    -0.650 OA
BRANCH  56  58
ATOM     58  O   UNK d   0       1.132   1.746 -23.098  0.00  0.00    -0.776 OA
ATOM     59  H   UNK d   0       0.755   2.464 -23.742  0.00  0.00     0.167 HD
ENDBRANCH  56  58
ENDBRANCH  55  56
ENDBRANCH  21  55
BRANCH  18  60
ATOM     60  C   UNK d   0       2.360   4.653 -16.493  0.00  0.00     0.151 C 
BRANCH  60  61
ATOM     61  C   UNK d   0       1.816   3.530 -15.715  0.00  0.00     0.143 C 
ATOM     62  O   UNK d   0       1.357   3.573 -14.573  0.00  0.00    -0.650 OA
BRANCH  61  63
ATOM     63  O   UNK d   0       1.832   2.277 -16.373  0.00  0.00    -0.776 OA
ATOM     64  H   UNK d   0       1.174   2.066 -17.102  0.00  0.00     0.167 HD
ENDBRANCH  61  63
ENDBRANCH  60  61
ENDBRANCH  18  60
BRANCH  14  65
ATOM     65  C   UNK d   0       1.461   7.124 -14.977  0.00  0.00     0.052 C 
BRANCH  65  66
ATOM     66  C   UNK d   0       2.417   8.213 -15.314  0.00  0.00     0.115 C 
BRANCH  66  67
ATOM     67  C   UNK d   0       3.828   7.945 -15.318  0.00  0.00     0.139 C 
ATOM     68  O   UNK d   0       4.360   7.475 -16.390  0.00  0.00    -0.650 OA
BRANCH  67  69
ATOM     69  O   UNK d   0       4.735   8.133 -14.276  0.00  0.00    -0.776 OA
ATOM     70  H   UNK d   0       5.658   7.693 -14.401  0.00  0.00     0.167 HD
ENDBRANCH  67  69
ENDBRANCH  66  67
ENDBRANCH  65  66
ENDBRANCH  14  65
ENDBRANCH   6   7
ENDBRANCH   5   6
ENDBRANCH   2   5
TORSDOF 28
ENDMDL
MODEL 15
REMARK VINA RESULT:      -7.3     27.238     32.513
REMARK  28 active torsions:
REMARK  status: ('A' for Active; 'I' for Inactive)
REMARK    1  A    between atoms: C_2  and  O_3 
REMARK    2  A    between atoms: C_2  and  C_4 
REMARK    3  A    between atoms: C_4  and  C_5 
REMARK    4  A    between atoms: C_5  and  C_6 
REMARK    5  A    between atoms: C_7  and  C_8 
REMARK    6  A    between atoms: C_8  and  C_9 
REMARK    7  A    between atoms: C_9  and  O_11 
REMARK    8  A    between atoms: C_28  and  C_29 
REMARK    9  A    between atoms: C_29  and  C_30 
REMARK   10  A    between atoms: C_30  and  O_32 
REMARK   11  A    between atoms: C_33  and  C_34 
REMARK   12  A    between atoms: C_34  and  C_35 
REMARK   13  A    between atoms: C_35  and  C_36 
REMARK   14  A    between atoms: C_36  and  O_38 
REMARK   15  A    between atoms: C_39  and  C_40 
REMARK   16  A    between atoms: C_40  and  C_41 
REMARK   17  A    between atoms: C_41  and  C_42 
REMARK   18  A    between atoms: C_42  and  O_44 
REMARK   19  A    between atoms: C_45  and  C_46 
REMARK   20  A    between atoms: C_46  and  C_47 
REMARK   21  A    between atoms: C_47  and  O_49 
REMARK   22  A    between atoms: C_50  and  C_51 
REMARK   23  A    between atoms: C_51  and  C_52 
REMARK   24  A    between atoms: C_52  and  O_54 
REMARK   25  A    between atoms: C_55  and  C_56 
REMARK   26  A    between atoms: C_56  and  C_57 
REMARK   27  A    between atoms: C_57  and  C_58 
REMARK   28  A    between atoms: C_58  and  O_60 
ROOT
ATOM      1  O   UNK d   0     -16.715   9.797   6.763  0.00  0.00    -0.650 OA
ATOM      2  C   UNK d   0     -15.853   9.720   5.860  0.00  0.00     0.139 C 
ENDROOT
BRANCH   2   3
ATOM      3  O   UNK d   0     -15.034   8.618   5.803  0.00  0.00    -0.776 OA
ATOM      4  H   UNK d   0     -14.225   8.529   6.420  0.00  0.00     0.167 HD
ENDBRANCH   2   3
BRANCH   2   5
ATOM      5  C   UNK d   0     -15.718  10.816   4.859  0.00  0.00     0.115 C 
BRANCH   5   6
ATOM      6  C   UNK d   0     -16.402  12.060   5.358  0.00  0.00     0.052 C 
BRANCH   6   7
ATOM      7  C   UNK d   0     -15.426  13.121   5.804  0.00  0.00    -0.020 A 
ATOM      8  C   UNK d   0     -15.078  13.421   7.030  0.00  0.00    -0.011 A 
ATOM      9  C   UNK d   0     -14.120  14.512   6.966  0.00  0.00     0.067 A 
ATOM     10  C   UNK d   0     -13.372  15.258   7.890  0.00  0.00     0.062 C 
ATOM     11  N   UNK d   0     -13.948  14.819   5.663  0.00  0.00    -0.248 NA
ATOM     12  C   UNK d   0     -12.282  16.093   7.621  0.00  0.00     0.041 A 
ATOM     13  N   UNK d   0     -12.078  16.997   6.643  0.00  0.00    -0.355 N 
ATOM     14  C   UNK d   0     -11.136  16.000   8.432  0.00  0.00    -0.022 A 
ATOM     15  C   UNK d   0     -10.829  17.473   6.808  0.00  0.00     0.042 A 
ATOM     16  H   UNK d   0     -12.809  17.305   5.864  0.00  0.00     0.166 HD
ATOM     17  C   UNK d   0     -10.114  18.434   6.067  0.00  0.00     0.062 C 
ATOM     18  C   UNK d   0     -10.208  16.871   7.919  0.00  0.00    -0.013 A 
ATOM     19  C   UNK d   0     -10.005  18.569   4.707  0.00  0.00     0.067 A 
ATOM     20  N   UNK d   0     -10.828  17.831   3.958  0.00  0.00    -0.248 NA
ATOM     21  C   UNK d   0      -9.172  19.338   3.796  0.00  0.00    -0.011 A 
ATOM     22  C   UNK d   0     -10.593  18.060   2.624  0.00  0.00     0.066 A 
ATOM     23  C   UNK d   0     -11.409  17.382   1.730  0.00  0.00     0.062 C 
ATOM     24  C   UNK d   0      -9.519  19.032   2.579  0.00  0.00    -0.020 A 
ATOM     25  C   UNK d   0     -12.506  16.557   2.021  0.00  0.00     0.041 A 
ATOM     26  N   UNK d   0     -12.704  15.649   2.984  0.00  0.00    -0.355 N 
ATOM     27  C   UNK d   0     -13.658  16.655   1.209  0.00  0.00    -0.022 A 
ATOM     28  C   UNK d   0     -13.945  15.166   2.816  0.00  0.00     0.042 A 
ATOM     29  H   UNK d   0     -11.964  15.332   3.760  0.00  0.00     0.166 HD
ATOM     30  C   UNK d   0     -14.666  14.203   3.540  0.00  0.00     0.062 C 
ATOM     31  C   UNK d   0     -14.573  15.778   1.706  0.00  0.00    -0.013 A 
ATOM     32  C   UNK d   0     -14.705  14.018   4.912  0.00  0.00     0.066 A 
BRANCH   8  33
ATOM     33  C   UNK d   0     -15.561  12.783   8.268  0.00  0.00     0.151 C 
BRANCH  33  34
ATOM     34  C   UNK d   0     -16.186  13.741   9.197  0.00  0.00     0.143 C 
ATOM     35  O   UNK d   0     -17.230  14.335   8.892  0.00  0.00    -0.650 OA
BRANCH  34  36
ATOM     36  O   UNK d   0     -15.599  13.978  10.419  0.00  0.00    -0.776 OA
ATOM     37  H   UNK d   0     -14.978  14.785  10.565  0.00  0.00     0.167 HD
ENDBRANCH  34  36
ENDBRANCH  33  34
ENDBRANCH   8  33
BRANCH  31  38
ATOM     38  C   UNK d   0     -15.966  15.544   1.169  0.00  0.00     0.151 C 
BRANCH  38  39
ATOM     39  C   UNK d   0     -15.966  14.937  -0.145  0.00  0.00     0.143 C 
ATOM     40  O   UNK d   0     -16.565  15.441  -1.111  0.00  0.00    -0.650 OA
BRANCH  39  41
ATOM     41  O   UNK d   0     -15.272  13.745  -0.350  0.00  0.00    -0.776 OA
ATOM     42  H   UNK d   0     -14.516  13.531   0.308  0.00  0.00     0.167 HD
ENDBRANCH  39  41
ENDBRANCH  38  39
ENDBRANCH  31  38
BRANCH  27  43
ATOM     43  C   UNK d   0     -13.911  17.529   0.007  0.00  0.00     0.052 C 
BRANCH  43  44
ATOM     44  C   UNK d   0     -14.860  18.651   0.281  0.00  0.00     0.115 C 
BRANCH  44  45
ATOM     45  C   UNK d   0     -14.099  19.673   1.045  0.00  0.00     0.139 C 
ATOM     46  O   UNK d   0     -14.299  19.756   2.282  0.00  0.00    -0.650 OA
BRANCH  45  47
ATOM     47  O   UNK d   0     -13.186  20.521   0.456  0.00  0.00    -0.776 OA
ATOM     48  H   UNK d   0     -13.367  21.528   0.315  0.00  0.00     0.167 HD
ENDBRANCH  45  47
ENDBRANCH  44  45
ENDBRANCH  43  44
ENDBRANCH  27  43
BRANCH  24  49
ATOM     49  C   UNK d   0      -8.957  19.608   1.346  0.00  0.00     0.052 C 
BRANCH  49  50
ATOM     50  C   UNK d   0      -7.775  18.798   0.879  0.00  0.00     0.115 C 
BRANCH  50  51
ATOM     51  C   UNK d   0      -7.967  17.958  -0.296  0.00  0.00     0.139 C 
ATOM     52  O   UNK d   0      -8.720  16.956  -0.295  0.00  0.00    -0.650 OA
BRANCH  51  53
ATOM     53  O   UNK d   0      -7.298  18.260  -1.472  0.00  0.00    -0.776 OA
ATOM     54  H   UNK d   0      -6.448  18.792  -1.411  0.00  0.00     0.167 HD
ENDBRANCH  51  53
ENDBRANCH  50  51
ENDBRANCH  49  50
ENDBRANCH  24  49
BRANCH  21  55
ATOM     55  C   UNK d   0      -8.121  20.301   4.238  0.00  0.00     0.151 C 
BRANCH  55  56
ATOM     56  C   UNK d   0      -6.765  19.763   4.046  0.00  0.00     0.143 C 
ATOM     57  O   UNK d   0      -5.881  20.372   3.413  0.00  0.00    -0.650 OA
BRANCH  56  58
ATOM     58  O   UNK d   0      -6.475  18.519   4.604  0.00  0.00    -0.776 OA
ATOM     59  H   UNK d   0      -5.580  18.471   5.122  0.00  0.00     0.167 HD
ENDBRANCH  56  58
ENDBRANCH  55  56
ENDBRANCH  21  55
BRANCH  18  60
ATOM     60  C   UNK d   0      -8.823  17.087   8.479  0.00  0.00     0.151 C 
BRANCH  60  61
ATOM     61  C   UNK d   0      -7.966  16.079   7.837  0.00  0.00     0.143 C 
ATOM     62  O   UNK d   0      -7.793  14.915   8.196  0.00  0.00    -0.650 OA
BRANCH  61  63
ATOM     63  O   UNK d   0      -7.278  16.522   6.682  0.00  0.00    -0.776 OA
ATOM     64  H   UNK d   0      -7.587  16.262   5.762  0.00  0.00     0.167 HD
ENDBRANCH  61  63
ENDBRANCH  60  61
ENDBRANCH  18  60
BRANCH  14  65
ATOM     65  C   UNK d   0     -10.891  15.231   9.698  0.00  0.00     0.052 C 
BRANCH  65  66
ATOM     66  C   UNK d   0     -11.538  15.847  10.888  0.00  0.00     0.115 C 
BRANCH  66  67
ATOM     67  C   UNK d   0     -12.153  15.008  11.878  0.00  0.00     0.139 C 
ATOM     68  O   UNK d   0     -12.800  13.969  11.485  0.00  0.00    -0.650 OA
BRANCH  67  69
ATOM     69  O   UNK d   0     -12.145  15.175  13.262  0.00  0.00    -0.776 OA
ATOM     70  H   UNK d   0     -12.891  15.772  13.646  0.00  0.00     0.167 HD
ENDBRANCH  67  69
ENDBRANCH  66  67
ENDBRANCH  65  66
ENDBRANCH  14  65
ENDBRANCH   6   7
ENDBRANCH   5   6
ENDBRANCH   2   5
TORSDOF 28
ENDMDL
