MODEL 1
REMARK VINA RESULT:     -10.0      0.000      0.000
REMARK  16 active torsions:
REMARK  status: ('A' for Active; 'I' for Inactive)
REMARK    1  A    between atoms: C_6  and  C_7 
REMARK    2  A    between atoms: C_7  and  C_8 
REMARK    3  A    between atoms: C_8  and  C_9 
REMARK    4  A    between atoms: C_9  and  O_11 
REMARK    5  A    between atoms: C_16  and  C_17 
REMARK    6  A    between atoms: C_17  and  C_18 
REMARK    7  A    between atoms: C_18  and  C_19 
REMARK    8  A    between atoms: C_19  and  O_21 
REMARK    9  A    between atoms: C_28  and  C_29 
REMARK   10  A    between atoms: C_29  and  C_30 
REMARK   11  A    between atoms: C_30  and  C_31 
REMARK   12  A    between atoms: C_31  and  O_33 
REMARK   13  A    between atoms: C_42  and  C_43 
REMARK   14  A    between atoms: C_43  and  C_44 
REMARK   15  A    between atoms: C_44  and  C_45 
REMARK   16  A    between atoms: C_45  and  O_47 
ROOT
HETATM    1  C   UNK     0     -23.164  -3.853  -1.777  0.00  0.00     0.051 C 
HETATM    2  C   UNK     0     -22.654  -4.681  -0.615  0.00  0.00    -0.031 A 
HETATM    3  C   UNK     0     -21.885  -5.834  -0.628  0.00  0.00     0.021 A 
HETATM    4  N   UNK     0     -21.693  -6.251   0.646  0.00  0.00    -0.361 N 
HETATM    5  C   UNK     0     -22.315  -5.384   1.471  0.00  0.00     0.022 A 
HETATM    6  C   UNK     0     -22.930  -4.391   0.715  0.00  0.00    -0.027 A 
HETATM    7  C   UNK     0     -22.331  -5.337   2.967  0.00  0.00     0.115 C 
HETATM    8  C   UNK     0     -21.010  -5.594   3.671  0.00  0.00     0.021 A 
HETATM    9  N   UNK     0     -19.774  -5.241   3.285  0.00  0.00    -0.361 N 
HETATM   10  C   UNK     0     -18.895  -5.758   4.169  0.00  0.00     0.022 A 
HETATM   11  C   UNK     0     -19.584  -6.455   5.157  0.00  0.00    -0.027 A 
HETATM   12  C   UNK     0     -20.917  -6.355   4.850  0.00  0.00    -0.031 A 
HETATM   13  C   UNK     0     -22.047  -6.959   5.653  0.00  0.00     0.051 C 
HETATM   14  C   UNK     0     -17.374  -5.661   4.089  0.00  0.00     0.115 C 
HETATM   15  C   UNK     0     -16.781  -6.299   2.843  0.00  0.00     0.021 A 
HETATM   16  N   UNK     0     -17.045  -5.993   1.559  0.00  0.00    -0.361 N 
HETATM   17  C   UNK     0     -16.374  -6.828   0.762  0.00  0.00     0.022 A 
HETATM   18  C   UNK     0     -15.631  -7.715   1.566  0.00  0.00    -0.027 A 
HETATM   19  C   UNK     0     -15.893  -7.372   2.867  0.00  0.00    -0.031 A 
HETATM   20  C   UNK     0     -15.262  -8.059   4.064  0.00  0.00     0.051 C 
HETATM   21  C   UNK     0     -16.383  -6.951  -0.744  0.00  0.00     0.115 C 
HETATM   22  C   UNK     0     -17.679  -6.655  -1.461  0.00  0.00     0.022 A 
HETATM   23  N   UNK     0     -18.924  -6.991  -1.098  0.00  0.00    -0.361 N 
HETATM   24  C   UNK     0     -19.787  -6.400  -1.949  0.00  0.00     0.021 A 
HETATM   25  C   UNK     0     -19.081  -5.675  -2.889  0.00  0.00    -0.031 A 
HETATM   26  C   UNK     0     -19.602  -4.878  -4.067  0.00  0.00     0.051 C 
HETATM   27  C   UNK     0     -17.729  -5.823  -2.598  0.00  0.00    -0.027 A 
HETATM   28  C   UNK     0     -21.305  -6.410  -1.889  0.00  0.00     0.115 C 
HETATM   29  H   UNK     0     -21.152  -7.176   0.952  0.00  0.00     0.165 HD
HETATM   30  H   UNK     0     -19.522  -4.585   2.416  0.00  0.00     0.165 HD
HETATM   31  H   UNK     0     -17.680  -5.139   1.205  0.00  0.00     0.165 HD
HETATM   32  H   UNK     0     -19.203  -7.684  -0.262  0.00  0.00     0.165 HD
ENDROOT
BRANCH   6  33
HETATM   33  C   UNK     0     -23.750  -3.204   1.154  0.00  0.00     0.051 C 
BRANCH  33  34
HETATM   34  C   UNK     0     -25.226  -3.510   1.060  0.00  0.00     0.114 C 
BRANCH  34  35
HETATM   35  C   UNK     0     -25.758  -3.573   2.452  0.00  0.00     0.139 C 
HETATM   36  O   UNK     0     -25.126  -3.025   3.401  0.00  0.00    -0.650 OA
BRANCH  35  37
HETATM   37  O   UNK     0     -26.946  -4.219   2.771  0.00  0.00    -0.776 OA
HETATM   38  H   UNK     0     -26.987  -5.212   2.938  0.00  0.00     0.167 HD
ENDBRANCH  35  37
ENDBRANCH  34  35
ENDBRANCH  33  34
ENDBRANCH   6  33
BRANCH  27  39
HETATM   39  C   UNK     0     -16.650  -5.241  -3.441  0.00  0.00     0.051 C 
BRANCH  39  40
HETATM   40  C   UNK     0     -15.573  -6.120  -3.895  0.00  0.00     0.114 C 
BRANCH  40  41
HETATM   41  C   UNK     0     -14.520  -5.659  -4.772  0.00  0.00     0.139 C 
HETATM   42  O   UNK     0     -13.368  -5.415  -4.387  0.00  0.00    -0.650 OA
BRANCH  41  43
HETATM   43  O   UNK     0     -14.805  -5.471  -6.154  0.00  0.00    -0.776 OA
HETATM   44  H   UNK     0     -15.740  -5.134  -6.347  0.00  0.00     0.167 HD
ENDBRANCH  41  43
ENDBRANCH  40  41
ENDBRANCH  39  40
ENDBRANCH  27  39
BRANCH  11  45
HETATM   45  C   UNK     0     -19.033  -7.188   6.350  0.00  0.00     0.051 C 
BRANCH  45  46
HETATM   46  C   UNK     0     -18.505  -6.299   7.417  0.00  0.00     0.114 C 
BRANCH  46  47
HETATM   47  C   UNK     0     -17.733  -7.155   8.363  0.00  0.00     0.139 C 
HETATM   48  O   UNK     0     -17.536  -8.341   8.062  0.00  0.00    -0.650 OA
BRANCH  47  49
HETATM   49  O   UNK     0     -17.251  -6.643   9.541  0.00  0.00    -0.776 OA
HETATM   50  H   UNK     0     -17.007  -7.244  10.337  0.00  0.00     0.167 HD
ENDBRANCH  47  49
ENDBRANCH  46  47
ENDBRANCH  45  46
ENDBRANCH  11  45
BRANCH  18  51
HETATM   51  C   UNK     0     -14.704  -8.816   1.118  0.00  0.00     0.051 C 
BRANCH  51  52
HETATM   52  C   UNK     0     -15.548 -10.080   1.047  0.00  0.00     0.114 C 
BRANCH  52  53
HETATM   53  C   UNK     0     -14.953 -11.182   1.827  0.00  0.00     0.139 C 
HETATM   54  O   UNK     0     -15.361 -12.344   1.672  0.00  0.00    -0.650 OA
BRANCH  53  55
HETATM   55  O   UNK     0     -13.949 -10.914   2.726  0.00  0.00    -0.776 OA
HETATM   56  H   UNK     0     -13.070 -11.372   2.774  0.00  0.00     0.167 HD
ENDBRANCH  53  55
ENDBRANCH  52  53
ENDBRANCH  51  52
ENDBRANCH  18  51
TORSDOF 16
ENDMDL
MODEL 2
REMARK VINA RESULT:      -9.8      4.923     10.495
REMARK  16 active torsions:
REMARK  status: ('A' for Active; 'I' for Inactive)
REMARK    1  A    between atoms: C_6  and  C_7 
REMARK    2  A    between atoms: C_7  and  C_8 
REMARK    3  A    between atoms: C_8  and  C_9 
REMARK    4  A    between atoms: C_9  and  O_11 
REMARK    5  A    between atoms: C_16  and  C_17 
REMARK    6  A    between atoms: C_17  and  C_18 
REMARK    7  A    between atoms: C_18  and  C_19 
REMARK    8  A    between atoms: C_19  and  O_21 
REMARK    9  A    between atoms: C_28  and  C_29 
REMARK   10  A    between atoms: C_29  and  C_30 
REMARK   11  A    between atoms: C_30  and  C_31 
REMARK   12  A    between atoms: C_31  and  O_33 
REMARK   13  A    between atoms: C_42  and  C_43 
REMARK   14  A    between atoms: C_43  and  C_44 
REMARK   15  A    between atoms: C_44  and  C_45 
REMARK   16  A    between atoms: C_45  and  O_47 
ROOT
HETATM    1  C   UNK     0     -28.030  -1.597   9.016  0.00  0.00     0.051 C 
HETATM    2  C   UNK     0     -27.326  -1.423   7.686  0.00  0.00    -0.031 A 
HETATM    3  C   UNK     0     -25.977  -1.525   7.384  0.00  0.00     0.021 A 
HETATM    4  N   UNK     0     -25.798  -1.258   6.069  0.00  0.00    -0.361 N 
HETATM    5  C   UNK     0     -27.004  -0.996   5.524  0.00  0.00     0.022 A 
HETATM    6  C   UNK     0     -27.982  -1.088   6.508  0.00  0.00    -0.027 A 
HETATM    7  C   UNK     0     -27.366  -0.736   4.095  0.00  0.00     0.115 C 
HETATM    8  C   UNK     0     -26.700  -1.615   3.052  0.00  0.00     0.021 A 
HETATM    9  N   UNK     0     -26.373  -2.914   3.138  0.00  0.00    -0.361 N 
HETATM   10  C   UNK     0     -25.716  -3.256   2.010  0.00  0.00     0.022 A 
HETATM   11  C   UNK     0     -25.627  -2.151   1.169  0.00  0.00    -0.027 A 
HETATM   12  C   UNK     0     -26.245  -1.113   1.819  0.00  0.00    -0.031 A 
HETATM   13  C   UNK     0     -26.395   0.291   1.280  0.00  0.00     0.051 C 
HETATM   14  C   UNK     0     -25.103  -4.620   1.702  0.00  0.00     0.115 C 
HETATM   15  C   UNK     0     -24.021  -5.043   2.683  0.00  0.00     0.021 A 
HETATM   16  N   UNK     0     -24.135  -5.198   4.015  0.00  0.00    -0.361 N 
HETATM   17  C   UNK     0     -22.941  -5.510   4.524  0.00  0.00     0.022 A 
HETATM   18  C   UNK     0     -22.006  -5.572   3.471  0.00  0.00    -0.027 A 
HETATM   19  C   UNK     0     -22.696  -5.279   2.323  0.00  0.00    -0.031 A 
HETATM   20  C   UNK     0     -22.069  -5.271   0.941  0.00  0.00     0.051 C 
HETATM   21  C   UNK     0     -22.520  -5.715   5.961  0.00  0.00     0.115 C 
HETATM   22  C   UNK     0     -23.207  -4.878   7.015  0.00  0.00     0.022 A 
HETATM   23  N   UNK     0     -23.549  -3.585   6.955  0.00  0.00    -0.361 N 
HETATM   24  C   UNK     0     -24.269  -3.285   8.054  0.00  0.00     0.021 A 
HETATM   25  C   UNK     0     -24.385  -4.411   8.847  0.00  0.00    -0.031 A 
HETATM   26  C   UNK     0     -25.063  -4.563  10.193  0.00  0.00     0.051 C 
HETATM   27  C   UNK     0     -23.713  -5.443   8.203  0.00  0.00    -0.027 A 
HETATM   28  C   UNK     0     -24.952  -1.970   8.388  0.00  0.00     0.115 C 
HETATM   29  H   UNK     0     -24.816  -1.218   5.543  0.00  0.00     0.165 HD
HETATM   30  H   UNK     0     -26.647  -3.604   3.973  0.00  0.00     0.165 HD
HETATM   31  H   UNK     0     -25.086  -5.131   4.604  0.00  0.00     0.165 HD
HETATM   32  H   UNK     0     -23.247  -2.859   6.155  0.00  0.00     0.165 HD
ENDROOT
BRANCH   6  33
HETATM   33  C   UNK     0     -29.473  -0.881   6.417  0.00  0.00     0.051 C 
BRANCH  33  34
HETATM   34  C   UNK     0     -29.803   0.588   6.296  0.00  0.00     0.114 C 
BRANCH  34  35
HETATM   35  C   UNK     0     -30.431   1.011   7.580  0.00  0.00     0.139 C 
HETATM   36  O   UNK     0     -29.799   1.756   8.384  0.00  0.00    -0.650 OA
BRANCH  35  37
HETATM   37  O   UNK     0     -31.713   0.622   7.952  0.00  0.00    -0.776 OA
HETATM   38  H   UNK     0     -31.928  -0.327   8.214  0.00  0.00     0.167 HD
ENDBRANCH  35  37
ENDBRANCH  34  35
ENDBRANCH  33  34
ENDBRANCH   6  33
BRANCH  27  39
HETATM   39  C   UNK     0     -23.559  -6.801   8.792  0.00  0.00     0.051 C 
BRANCH  39  40
HETATM   40  C   UNK     0     -24.480  -7.853   8.361  0.00  0.00     0.114 C 
BRANCH  40  41
HETATM   41  C   UNK     0     -25.442  -8.450   9.260  0.00  0.00     0.139 C 
HETATM   42  O   UNK     0     -26.328  -7.807   9.840  0.00  0.00    -0.650 OA
BRANCH  41  43
HETATM   43  O   UNK     0     -25.382  -9.852   9.504  0.00  0.00    -0.776 OA
HETATM   44  H   UNK     0     -24.584 -10.316   9.088  0.00  0.00     0.167 HD
ENDBRANCH  41  43
ENDBRANCH  40  41
ENDBRANCH  39  40
ENDBRANCH  27  39
BRANCH  11  45
HETATM   45  C   UNK     0     -24.994  -2.052  -0.193  0.00  0.00     0.051 C 
BRANCH  45  46
HETATM   46  C   UNK     0     -23.519  -2.225  -0.190  0.00  0.00     0.114 C 
BRANCH  46  47
HETATM   47  C   UNK     0     -23.169  -3.052  -1.380  0.00  0.00     0.139 C 
HETATM   48  O   UNK     0     -23.897  -4.011  -1.670  0.00  0.00    -0.650 OA
BRANCH  47  49
HETATM   49  O   UNK     0     -22.063  -2.760  -2.138  0.00  0.00    -0.776 OA
HETATM   50  H   UNK     0     -21.363  -3.471  -2.378  0.00  0.00     0.167 HD
ENDBRANCH  47  49
ENDBRANCH  46  47
ENDBRANCH  45  46
ENDBRANCH  11  45
BRANCH  18  51
HETATM   51  C   UNK     0     -20.541  -5.913   3.552  0.00  0.00     0.051 C 
BRANCH  51  52
HETATM   52  C   UNK     0     -19.800  -4.588   3.650  0.00  0.00     0.114 C 
BRANCH  52  53
HETATM   53  C   UNK     0     -18.336  -4.773   3.629  0.00  0.00     0.139 C 
HETATM   54  O   UNK     0     -17.685  -4.462   2.619  0.00  0.00    -0.650 OA
BRANCH  53  55
HETATM   55  O   UNK     0     -17.702  -5.296   4.729  0.00  0.00    -0.776 OA
HETATM   56  H   UNK     0     -18.128  -5.520   5.597  0.00  0.00     0.167 HD
ENDBRANCH  53  55
ENDBRANCH  52  53
ENDBRANCH  51  52
ENDBRANCH  18  51
TORSDOF 16
ENDMDL
MODEL 3
REMARK VINA RESULT:      -9.8      5.406     11.276
REMARK  16 active torsions:
REMARK  status: ('A' for Active; 'I' for Inactive)
REMARK    1  A    between atoms: C_6  and  C_7 
REMARK    2  A    between atoms: C_7  and  C_8 
REMARK    3  A    between atoms: C_8  and  C_9 
REMARK    4  A    between atoms: C_9  and  O_11 
REMARK    5  A    between atoms: C_16  and  C_17 
REMARK    6  A    between atoms: C_17  and  C_18 
REMARK    7  A    between atoms: C_18  and  C_19 
REMARK    8  A    between atoms: C_19  and  O_21 
REMARK    9  A    between atoms: C_28  and  C_29 
REMARK   10  A    between atoms: C_29  and  C_30 
REMARK   11  A    between atoms: C_30  and  C_31 
REMARK   12  A    between atoms: C_31  and  O_33 
REMARK   13  A    between atoms: C_42  and  C_43 
REMARK   14  A    between atoms: C_43  and  C_44 
REMARK   15  A    between atoms: C_44  and  C_45 
REMARK   16  A    between atoms: C_45  and  O_47 
ROOT
HETATM    1  C   UNK     0     -27.088  -2.388  11.036  0.00  0.00     0.051 C 
HETATM    2  C   UNK     0     -26.616  -1.887   9.687  0.00  0.00    -0.031 A 
HETATM    3  C   UNK     0     -25.427  -2.140   9.021  0.00  0.00     0.021 A 
HETATM    4  N   UNK     0     -25.420  -1.455   7.853  0.00  0.00    -0.361 N 
HETATM    5  C   UNK     0     -26.582  -0.777   7.756  0.00  0.00     0.022 A 
HETATM    6  C   UNK     0     -27.353  -1.022   8.888  0.00  0.00    -0.027 A 
HETATM    7  C   UNK     0     -27.109   0.052   6.627  0.00  0.00     0.115 C 
HETATM    8  C   UNK     0     -26.915  -0.501   5.226  0.00  0.00     0.021 A 
HETATM    9  N   UNK     0     -26.954  -1.780   4.820  0.00  0.00    -0.361 N 
HETATM   10  C   UNK     0     -26.634  -1.813   3.509  0.00  0.00     0.022 A 
HETATM   11  C   UNK     0     -26.392  -0.519   3.056  0.00  0.00    -0.027 A 
HETATM   12  C   UNK     0     -26.568   0.312   4.133  0.00  0.00    -0.031 A 
HETATM   13  C   UNK     0     -26.414   1.816   4.111  0.00  0.00     0.051 C 
HETATM   14  C   UNK     0     -26.493  -3.064   2.646  0.00  0.00     0.115 C 
HETATM   15  C   UNK     0     -25.414  -4.022   3.125  0.00  0.00     0.021 A 
HETATM   16  N   UNK     0     -25.324  -4.625   4.325  0.00  0.00    -0.361 N 
HETATM   17  C   UNK     0     -24.193  -5.333   4.377  0.00  0.00     0.022 A 
HETATM   18  C   UNK     0     -23.519  -5.193   3.147  0.00  0.00    -0.027 A 
HETATM   19  C   UNK     0     -24.295  -4.371   2.372  0.00  0.00    -0.031 A 
HETATM   20  C   UNK     0     -23.951  -3.987   0.944  0.00  0.00     0.051 C 
HETATM   21  C   UNK     0     -23.595  -6.127   5.516  0.00  0.00     0.115 C 
HETATM   22  C   UNK     0     -23.818  -5.611   6.918  0.00  0.00     0.022 A 
HETATM   23  N   UNK     0     -23.790  -4.344   7.351  0.00  0.00    -0.361 N 
HETATM   24  C   UNK     0     -24.187  -4.327   8.639  0.00  0.00     0.021 A 
HETATM   25  C   UNK     0     -24.468  -5.616   9.049  0.00  0.00    -0.031 A 
HETATM   26  C   UNK     0     -24.907  -6.108  10.413  0.00  0.00     0.051 C 
HETATM   27  C   UNK     0     -24.239  -6.456   7.965  0.00  0.00    -0.027 A 
HETATM   28  C   UNK     0     -24.403  -3.115   9.530  0.00  0.00     0.115 C 
HETATM   29  H   UNK     0     -24.578  -1.423   7.124  0.00  0.00     0.165 HD
HETATM   30  H   UNK     0     -27.255  -2.657   5.444  0.00  0.00     0.165 HD
HETATM   31  H   UNK     0     -26.096  -4.588   5.137  0.00  0.00     0.165 HD
HETATM   32  H   UNK     0     -23.447  -3.453   6.763  0.00  0.00     0.165 HD
ENDROOT
BRANCH   6  33
HETATM   33  C   UNK     0     -28.718  -0.503   9.264  0.00  0.00     0.051 C 
BRANCH  33  34
HETATM   34  C   UNK     0     -29.788  -1.512   8.920  0.00  0.00     0.114 C 
BRANCH  34  35
HETATM   35  C   UNK     0     -30.000  -1.453   7.445  0.00  0.00     0.139 C 
HETATM   36  O   UNK     0     -29.644  -2.421   6.712  0.00  0.00    -0.650 OA
BRANCH  35  37
HETATM   37  O   UNK     0     -30.587  -0.363   6.816  0.00  0.00    -0.776 OA
HETATM   38  H   UNK     0     -31.538  -0.384   6.486  0.00  0.00     0.167 HD
ENDBRANCH  35  37
ENDBRANCH  34  35
ENDBRANCH  33  34
ENDBRANCH   6  33
BRANCH  27  39
HETATM   39  C   UNK     0     -24.368  -7.936   8.045  0.00  0.00     0.051 C 
BRANCH  39  40
HETATM   40  C   UNK     0     -25.644  -8.543   7.670  0.00  0.00     0.114 C 
BRANCH  40  41
HETATM   41  C   UNK     0     -26.749  -8.649   8.597  0.00  0.00     0.139 C 
HETATM   42  O   UNK     0     -26.609  -8.903   9.801  0.00  0.00    -0.650 OA
BRANCH  41  43
HETATM   43  O   UNK     0     -28.075  -8.454   8.116  0.00  0.00    -0.776 OA
HETATM   44  H   UNK     0     -28.147  -8.362   7.110  0.00  0.00     0.167 HD
ENDBRANCH  41  43
ENDBRANCH  40  41
ENDBRANCH  39  40
ENDBRANCH  27  39
BRANCH  11  45
HETATM   45  C   UNK     0     -26.014  -0.060   1.673  0.00  0.00     0.051 C 
BRANCH  45  46
HETATM   46  C   UNK     0     -27.159   0.421   0.860  0.00  0.00     0.114 C 
BRANCH  46  47
HETATM   47  C   UNK     0     -27.271  -0.481  -0.322  0.00  0.00     0.139 C 
HETATM   48  O   UNK     0     -26.422  -1.371  -0.471  0.00  0.00    -0.650 OA
BRANCH  47  49
HETATM   49  O   UNK     0     -28.291  -0.329  -1.228  0.00  0.00    -0.776 OA
HETATM   50  H   UNK     0     -28.820   0.547  -1.312  0.00  0.00     0.167 HD
ENDBRANCH  47  49
ENDBRANCH  46  47
ENDBRANCH  45  46
ENDBRANCH  11  45
BRANCH  18  51
HETATM   51  C   UNK     0     -22.218  -5.826   2.727  0.00  0.00     0.051 C 
BRANCH  51  52
HETATM   52  C   UNK     0     -21.115  -4.916   3.246  0.00  0.00     0.114 C 
BRANCH  52  53
HETATM   53  C   UNK     0     -19.788  -5.556   3.159  0.00  0.00     0.139 C 
HETATM   54  O   UNK     0     -18.781  -4.869   2.926  0.00  0.00    -0.650 OA
BRANCH  53  55
HETATM   55  O   UNK     0     -19.676  -6.914   3.332  0.00  0.00    -0.776 OA
HETATM   56  H   UNK     0     -19.407  -7.571   2.638  0.00  0.00     0.167 HD
ENDBRANCH  53  55
ENDBRANCH  52  53
ENDBRANCH  51  52
ENDBRANCH  18  51
TORSDOF 16
ENDMDL
MODEL 4
REMARK VINA RESULT:      -9.7      2.307      6.985
REMARK  16 active torsions:
REMARK  status: ('A' for Active; 'I' for Inactive)
REMARK    1  A    between atoms: C_6  and  C_7 
REMARK    2  A    between atoms: C_7  and  C_8 
REMARK    3  A    between atoms: C_8  and  C_9 
REMARK    4  A    between atoms: C_9  and  O_11 
REMARK    5  A    between atoms: C_16  and  C_17 
REMARK    6  A    between atoms: C_17  and  C_18 
REMARK    7  A    between atoms: C_18  and  C_19 
REMARK    8  A    between atoms: C_19  and  O_21 
REMARK    9  A    between atoms: C_28  and  C_29 
REMARK   10  A    between atoms: C_29  and  C_30 
REMARK   11  A    between atoms: C_30  and  C_31 
REMARK   12  A    between atoms: C_31  and  O_33 
REMARK   13  A    between atoms: C_42  and  C_43 
REMARK   14  A    between atoms: C_43  and  C_44 
REMARK   15  A    between atoms: C_44  and  C_45 
REMARK   16  A    between atoms: C_45  and  O_47 
ROOT
HETATM    1  C   UNK     0     -17.944  -5.387  -3.976  0.00  0.00     0.051 C 
HETATM    2  C   UNK     0     -19.098  -5.769  -3.073  0.00  0.00    -0.031 A 
HETATM    3  C   UNK     0     -19.127  -6.660  -2.011  0.00  0.00     0.021 A 
HETATM    4  N   UNK     0     -20.384  -6.709  -1.511  0.00  0.00    -0.361 N 
HETATM    5  C   UNK     0     -21.156  -5.863  -2.224  0.00  0.00     0.022 A 
HETATM    6  C   UNK     0     -20.383  -5.260  -3.212  0.00  0.00    -0.027 A 
HETATM    7  C   UNK     0     -22.588  -5.479  -2.021  0.00  0.00     0.115 C 
HETATM    8  C   UNK     0     -23.029  -5.224  -0.591  0.00  0.00     0.021 A 
HETATM    9  N   UNK     0     -22.332  -4.667   0.412  0.00  0.00    -0.361 N 
HETATM   10  C   UNK     0     -23.087  -4.726   1.530  0.00  0.00     0.022 A 
HETATM   11  C   UNK     0     -24.306  -5.329   1.237  0.00  0.00    -0.027 A 
HETATM   12  C   UNK     0     -24.277  -5.645  -0.097  0.00  0.00    -0.031 A 
HETATM   13  C   UNK     0     -25.396  -6.314  -0.862  0.00  0.00     0.051 C 
HETATM   14  C   UNK     0     -22.669  -4.267   2.924  0.00  0.00     0.115 C 
HETATM   15  C   UNK     0     -21.459  -5.002   3.478  0.00  0.00     0.021 A 
HETATM   16  N   UNK     0     -20.227  -5.076   2.941  0.00  0.00    -0.361 N 
HETATM   17  C   UNK     0     -19.467  -5.874   3.694  0.00  0.00     0.022 A 
HETATM   18  C   UNK     0     -20.239  -6.334   4.780  0.00  0.00    -0.027 A 
HETATM   19  C   UNK     0     -21.484  -5.779   4.633  0.00  0.00    -0.031 A 
HETATM   20  C   UNK     0     -22.622  -5.988   5.616  0.00  0.00     0.051 C 
HETATM   21  C   UNK     0     -18.043  -6.338   3.489  0.00  0.00     0.115 C 
HETATM   22  C   UNK     0     -17.577  -6.554   2.069  0.00  0.00     0.022 A 
HETATM   23  N   UNK     0     -18.251  -7.102   1.049  0.00  0.00    -0.361 N 
HETATM   24  C   UNK     0     -17.512  -6.962  -0.070  0.00  0.00     0.021 A 
HETATM   25  C   UNK     0     -16.330  -6.317   0.238  0.00  0.00    -0.031 A 
HETATM   26  C   UNK     0     -15.167  -5.972  -0.669  0.00  0.00     0.051 C 
HETATM   27  C   UNK     0     -16.348  -6.046   1.602  0.00  0.00    -0.027 A 
HETATM   28  C   UNK     0     -17.895  -7.343  -1.490  0.00  0.00     0.115 C 
HETATM   29  H   UNK     0     -20.727  -7.371  -0.682  0.00  0.00     0.165 HD
HETATM   30  H   UNK     0     -21.327  -4.186   0.323  0.00  0.00     0.165 HD
HETATM   31  H   UNK     0     -19.871  -4.516   2.037  0.00  0.00     0.165 HD
HETATM   32  H   UNK     0     -19.236  -7.632   1.118  0.00  0.00     0.165 HD
ENDROOT
BRANCH   6  33
HETATM   33  C   UNK     0     -20.769  -4.253  -4.265  0.00  0.00     0.051 C 
BRANCH  33  34
HETATM   34  C   UNK     0     -21.801  -4.830  -5.205  0.00  0.00     0.114 C 
BRANCH  34  35
HETATM   35  C   UNK     0     -21.328  -4.579  -6.596  0.00  0.00     0.139 C 
HETATM   36  O   UNK     0     -20.102  -4.704  -6.885  0.00  0.00    -0.650 OA
BRANCH  35  37
HETATM   37  O   UNK     0     -22.186  -4.207  -7.624  0.00  0.00    -0.776 OA
HETATM   38  H   UNK     0     -22.588  -3.285  -7.678  0.00  0.00     0.167 HD
ENDBRANCH  35  37
ENDBRANCH  34  35
ENDBRANCH  33  34
ENDBRANCH   6  33
BRANCH  27  39
HETATM   39  C   UNK     0     -15.205  -5.418   2.319  0.00  0.00     0.051 C 
BRANCH  39  40
HETATM   40  C   UNK     0     -14.283  -6.287   3.049  0.00  0.00     0.114 C 
BRANCH  40  41
HETATM   41  C   UNK     0     -14.526  -6.695   4.414  0.00  0.00     0.139 C 
HETATM   42  O   UNK     0     -14.828  -7.851   4.739  0.00  0.00    -0.650 OA
BRANCH  41  43
HETATM   43  O   UNK     0     -14.417  -5.729   5.454  0.00  0.00    -0.776 OA
HETATM   44  H   UNK     0     -13.641  -5.086   5.350  0.00  0.00     0.167 HD
ENDBRANCH  41  43
ENDBRANCH  40  41
ENDBRANCH  39  40
ENDBRANCH  27  39
BRANCH  11  45
HETATM   45  C   UNK     0     -25.466  -5.603   2.156  0.00  0.00     0.051 C 
BRANCH  45  46
HETATM   46  C   UNK     0     -26.582  -4.632   2.031  0.00  0.00     0.114 C 
BRANCH  46  47
HETATM   47  C   UNK     0     -26.338  -3.548   3.025  0.00  0.00     0.139 C 
HETATM   48  O   UNK     0     -26.842  -3.654   4.153  0.00  0.00    -0.650 OA
BRANCH  47  49
HETATM   49  O   UNK     0     -25.574  -2.455   2.701  0.00  0.00    -0.776 OA
HETATM   50  H   UNK     0     -25.485  -2.121   1.734  0.00  0.00     0.167 HD
ENDBRANCH  47  49
ENDBRANCH  46  47
ENDBRANCH  45  46
ENDBRANCH  11  45
BRANCH  18  51
HETATM   51  C   UNK     0     -19.807  -7.235   5.908  0.00  0.00     0.051 C 
BRANCH  51  52
HETATM   52  C   UNK     0     -19.032  -6.359   6.881  0.00  0.00     0.114 C 
BRANCH  52  53
HETATM   53  C   UNK     0     -17.718  -6.940   7.217  0.00  0.00     0.139 C 
HETATM   54  O   UNK     0     -16.693  -6.243   7.143  0.00  0.00    -0.650 OA
BRANCH  53  55
HETATM   55  O   UNK     0     -17.636  -8.254   7.609  0.00  0.00    -0.776 OA
HETATM   56  H   UNK     0     -16.871  -8.677   8.079  0.00  0.00     0.167 HD
ENDBRANCH  53  55
ENDBRANCH  52  53
ENDBRANCH  51  52
ENDBRANCH  18  51
TORSDOF 16
ENDMDL
MODEL 5
REMARK VINA RESULT:      -9.6      2.124      4.984
REMARK  16 active torsions:
REMARK  status: ('A' for Active; 'I' for Inactive)
REMARK    1  A    between atoms: C_6  and  C_7 
REMARK    2  A    between atoms: C_7  and  C_8 
REMARK    3  A    between atoms: C_8  and  C_9 
REMARK    4  A    between atoms: C_9  and  O_11 
REMARK    5  A    between atoms: C_16  and  C_17 
REMARK    6  A    between atoms: C_17  and  C_18 
REMARK    7  A    between atoms: C_18  and  C_19 
REMARK    8  A    between atoms: C_19  and  O_21 
REMARK    9  A    between atoms: C_28  and  C_29 
REMARK   10  A    between atoms: C_29  and  C_30 
REMARK   11  A    between atoms: C_30  and  C_31 
REMARK   12  A    between atoms: C_31  and  O_33 
REMARK   13  A    between atoms: C_42  and  C_43 
REMARK   14  A    between atoms: C_43  and  C_44 
REMARK   15  A    between atoms: C_44  and  C_45 
REMARK   16  A    between atoms: C_45  and  O_47 
ROOT
HETATM    1  C   UNK     0     -24.258  -4.700   2.334  0.00  0.00     0.051 C 
HETATM    2  C   UNK     0     -22.883  -5.322   2.473  0.00  0.00    -0.031 A 
HETATM    3  C   UNK     0     -22.205  -6.161   1.604  0.00  0.00     0.021 A 
HETATM    4  N   UNK     0     -21.014  -6.497   2.153  0.00  0.00    -0.361 N 
HETATM    5  C   UNK     0     -20.914  -5.883   3.350  0.00  0.00     0.022 A 
HETATM    6  C   UNK     0     -22.068  -5.141   3.583  0.00  0.00    -0.027 A 
HETATM    7  C   UNK     0     -19.766  -5.849   4.310  0.00  0.00     0.115 C 
HETATM    8  C   UNK     0     -18.383  -5.665   3.712  0.00  0.00     0.021 A 
HETATM    9  N   UNK     0     -18.022  -4.928   2.650  0.00  0.00    -0.361 N 
HETATM   10  C   UNK     0     -16.708  -5.133   2.424  0.00  0.00     0.022 A 
HETATM   11  C   UNK     0     -16.205  -6.020   3.372  0.00  0.00    -0.027 A 
HETATM   12  C   UNK     0     -17.255  -6.359   4.187  0.00  0.00    -0.031 A 
HETATM   13  C   UNK     0     -17.177  -7.300   5.367  0.00  0.00     0.051 C 
HETATM   14  C   UNK     0     -15.888  -4.547   1.278  0.00  0.00     0.115 C 
HETATM   15  C   UNK     0     -16.379  -4.952  -0.102  0.00  0.00     0.021 A 
HETATM   16  N   UNK     0     -17.599  -4.744  -0.633  0.00  0.00    -0.361 N 
HETATM   17  C   UNK     0     -17.654  -5.313  -1.839  0.00  0.00     0.022 A 
HETATM   18  C   UNK     0     -16.408  -5.913  -2.111  0.00  0.00    -0.027 A 
HETATM   19  C   UNK     0     -15.619  -5.678  -1.015  0.00  0.00    -0.031 A 
HETATM   20  C   UNK     0     -14.172  -6.126  -0.906  0.00  0.00     0.051 C 
HETATM   21  C   UNK     0     -18.809  -5.427  -2.808  0.00  0.00     0.115 C 
HETATM   22  C   UNK     0     -20.197  -5.566  -2.226  0.00  0.00     0.022 A 
HETATM   23  N   UNK     0     -20.584  -6.290  -1.168  0.00  0.00    -0.361 N 
HETATM   24  C   UNK     0     -21.878  -6.009  -0.913  0.00  0.00     0.021 A 
HETATM   25  C   UNK     0     -22.338  -5.090  -1.837  0.00  0.00    -0.031 A 
HETATM   26  C   UNK     0     -23.726  -4.502  -1.986  0.00  0.00     0.051 C 
HETATM   27  C   UNK     0     -21.280  -4.792  -2.688  0.00  0.00    -0.027 A 
HETATM   28  C   UNK     0     -22.729  -6.513   0.240  0.00  0.00     0.115 C 
HETATM   29  H   UNK     0     -20.269  -7.197   1.709  0.00  0.00     0.165 HD
HETATM   30  H   UNK     0     -18.682  -4.222   2.089  0.00  0.00     0.165 HD
HETATM   31  H   UNK     0     -18.422  -4.142  -0.168  0.00  0.00     0.165 HD
HETATM   32  H   UNK     0     -19.958  -7.039  -0.616  0.00  0.00     0.165 HD
ENDROOT
BRANCH   6  33
HETATM   33  C   UNK     0     -22.450  -4.288   4.766  0.00  0.00     0.051 C 
BRANCH  33  34
HETATM   34  C   UNK     0     -23.122  -5.120   5.832  0.00  0.00     0.114 C 
BRANCH  34  35
HETATM   35  C   UNK     0     -24.515  -4.609   5.986  0.00  0.00     0.139 C 
HETATM   36  O   UNK     0     -25.500  -5.342   5.679  0.00  0.00    -0.650 OA
BRANCH  35  37
HETATM   37  O   UNK     0     -24.797  -3.336   6.464  0.00  0.00    -0.776 OA
HETATM   38  H   UNK     0     -24.144  -2.574   6.374  0.00  0.00     0.167 HD
ENDBRANCH  35  37
ENDBRANCH  34  35
ENDBRANCH  33  34
ENDBRANCH   6  33
BRANCH  27  39
HETATM   39  C   UNK     0     -21.415  -3.887  -3.861  0.00  0.00     0.051 C 
BRANCH  39  40
HETATM   40  C   UNK     0     -21.699  -4.481  -5.167  0.00  0.00     0.114 C 
BRANCH  40  41
HETATM   41  C   UNK     0     -20.777  -4.380  -6.277  0.00  0.00     0.139 C 
HETATM   42  O   UNK     0     -19.595  -4.745  -6.219  0.00  0.00    -0.650 OA
BRANCH  41  43
HETATM   43  O   UNK     0     -21.236  -3.835  -7.509  0.00  0.00    -0.776 OA
HETATM   44  H   UNK     0     -21.480  -4.527  -8.208  0.00  0.00     0.167 HD
ENDBRANCH  41  43
ENDBRANCH  40  41
ENDBRANCH  39  40
ENDBRANCH  27  39
BRANCH  11  45
HETATM   45  C   UNK     0     -14.801  -6.539   3.525  0.00  0.00     0.051 C 
BRANCH  45  46
HETATM   46  C   UNK     0     -14.421  -7.566   2.522  0.00  0.00     0.114 C 
BRANCH  46  47
HETATM   47  C   UNK     0     -15.122  -8.828   2.895  0.00  0.00     0.139 C 
HETATM   48  O   UNK     0     -14.716  -9.463   3.878  0.00  0.00    -0.650 OA
BRANCH  47  49
HETATM   49  O   UNK     0     -16.193  -9.278   2.165  0.00  0.00    -0.776 OA
HETATM   50  H   UNK     0     -16.408  -8.912   1.230  0.00  0.00     0.167 HD
ENDBRANCH  47  49
ENDBRANCH  46  47
ENDBRANCH  45  46
ENDBRANCH  11  45
BRANCH  18  51
HETATM   51  C   UNK     0     -15.987  -6.650  -3.355  0.00  0.00     0.051 C 
BRANCH  51  52
HETATM   52  C   UNK     0     -14.925  -5.789  -4.022  0.00  0.00     0.114 C 
BRANCH  52  53
HETATM   53  C   UNK     0     -15.453  -5.085  -5.207  0.00  0.00     0.139 C 
HETATM   54  O   UNK     0     -14.673  -4.635  -6.061  0.00  0.00    -0.650 OA
BRANCH  53  55
HETATM   55  O   UNK     0     -16.810  -4.930  -5.357  0.00  0.00    -0.776 OA
HETATM   56  H   UNK     0     -17.512  -5.456  -4.893  0.00  0.00     0.167 HD
ENDBRANCH  53  55
ENDBRANCH  52  53
ENDBRANCH  51  52
ENDBRANCH  18  51
TORSDOF 16
ENDMDL
MODEL 6
REMARK VINA RESULT:      -9.5      4.669      8.450
REMARK  16 active torsions:
REMARK  status: ('A' for Active; 'I' for Inactive)
REMARK    1  A    between atoms: C_6  and  C_7 
REMARK    2  A    between atoms: C_7  and  C_8 
REMARK    3  A    between atoms: C_8  and  C_9 
REMARK    4  A    between atoms: C_9  and  O_11 
REMARK    5  A    between atoms: C_16  and  C_17 
REMARK    6  A    between atoms: C_17  and  C_18 
REMARK    7  A    between atoms: C_18  and  C_19 
REMARK    8  A    between atoms: C_19  and  O_21 
REMARK    9  A    between atoms: C_28  and  C_29 
REMARK   10  A    between atoms: C_29  and  C_30 
REMARK   11  A    between atoms: C_30  and  C_31 
REMARK   12  A    between atoms: C_31  and  O_33 
REMARK   13  A    between atoms: C_42  and  C_43 
REMARK   14  A    between atoms: C_43  and  C_44 
REMARK   15  A    between atoms: C_44  and  C_45 
REMARK   16  A    between atoms: C_45  and  O_47 
ROOT
HETATM    1  C   UNK     0     -25.228  -1.625  -0.509  0.00  0.00     0.051 C 
HETATM    2  C   UNK     0     -25.781  -1.865   0.882  0.00  0.00    -0.031 A 
HETATM    3  C   UNK     0     -25.858  -3.044   1.606  0.00  0.00     0.021 A 
HETATM    4  N   UNK     0     -26.458  -2.793   2.794  0.00  0.00    -0.361 N 
HETATM    5  C   UNK     0     -26.756  -1.478   2.846  0.00  0.00     0.022 A 
HETATM    6  C   UNK     0     -26.349  -0.868   1.665  0.00  0.00    -0.027 A 
HETATM    7  C   UNK     0     -27.337  -0.678   3.970  0.00  0.00     0.115 C 
HETATM    8  C   UNK     0     -26.798  -0.964   5.360  0.00  0.00     0.021 A 
HETATM    9  N   UNK     0     -25.547  -1.289   5.722  0.00  0.00    -0.361 N 
HETATM   10  C   UNK     0     -25.547  -1.544   7.048  0.00  0.00     0.022 A 
HETATM   11  C   UNK     0     -26.831  -1.369   7.556  0.00  0.00    -0.027 A 
HETATM   12  C   UNK     0     -27.624  -1.003   6.498  0.00  0.00    -0.031 A 
HETATM   13  C   UNK     0     -29.103  -0.701   6.578  0.00  0.00     0.051 C 
HETATM   14  C   UNK     0     -24.353  -2.013   7.875  0.00  0.00     0.115 C 
HETATM   15  C   UNK     0     -23.781  -3.348   7.429  0.00  0.00     0.021 A 
HETATM   16  N   UNK     0     -23.291  -3.668   6.216  0.00  0.00    -0.361 N 
HETATM   17  C   UNK     0     -22.952  -4.959   6.207  0.00  0.00     0.022 A 
HETATM   18  C   UNK     0     -23.225  -5.505   7.478  0.00  0.00    -0.027 A 
HETATM   19  C   UNK     0     -23.743  -4.485   8.234  0.00  0.00    -0.031 A 
HETATM   20  C   UNK     0     -24.142  -4.634   9.690  0.00  0.00     0.051 C 
HETATM   21  C   UNK     0     -22.427  -5.818   5.079  0.00  0.00     0.115 C 
HETATM   22  C   UNK     0     -22.921  -5.516   3.684  0.00  0.00     0.022 A 
HETATM   23  N   UNK     0     -24.159  -5.185   3.296  0.00  0.00    -0.361 N 
HETATM   24  C   UNK     0     -24.120  -4.860   1.988  0.00  0.00     0.021 A 
HETATM   25  C   UNK     0     -22.827  -4.995   1.520  0.00  0.00    -0.031 A 
HETATM   26  C   UNK     0     -22.294  -4.785   0.118  0.00  0.00     0.051 C 
HETATM   27  C   UNK     0     -22.041  -5.414   2.587  0.00  0.00    -0.027 A 
HETATM   28  C   UNK     0     -25.255  -4.334   1.126  0.00  0.00     0.115 C 
HETATM   29  H   UNK     0     -26.702  -3.554   3.572  0.00  0.00     0.165 HD
HETATM   30  H   UNK     0     -24.652  -1.291   5.053  0.00  0.00     0.165 HD
HETATM   31  H   UNK     0     -23.137  -2.958   5.363  0.00  0.00     0.165 HD
HETATM   32  H   UNK     0     -25.082  -5.220   3.931  0.00  0.00     0.165 HD
ENDROOT
BRANCH   6  33
HETATM   33  C   UNK     0     -26.459   0.571   1.228  0.00  0.00     0.051 C 
BRANCH  33  34
HETATM   34  C   UNK     0     -25.517   1.444   2.021  0.00  0.00     0.114 C 
BRANCH  34  35
HETATM   35  C   UNK     0     -26.200   2.751   2.244  0.00  0.00     0.139 C 
HETATM   36  O   UNK     0     -25.784   3.795   1.664  0.00  0.00    -0.650 OA
BRANCH  35  37
HETATM   37  O   UNK     0     -27.304   2.886   3.078  0.00  0.00    -0.776 OA
HETATM   38  H   UNK     0     -27.845   3.734   3.115  0.00  0.00     0.167 HD
ENDBRANCH  35  37
ENDBRANCH  34  35
ENDBRANCH  33  34
ENDBRANCH   6  33
BRANCH  27  39
HETATM   39  C   UNK     0     -20.595  -5.736   2.452  0.00  0.00     0.051 C 
BRANCH  39  40
HETATM   40  C   UNK     0     -20.223  -7.037   1.898  0.00  0.00     0.114 C 
BRANCH  40  41
HETATM   41  C   UNK     0     -19.189  -7.182   0.897  0.00  0.00     0.139 C 
HETATM   42  O   UNK     0     -18.418  -8.150   0.846  0.00  0.00    -0.650 OA
BRANCH  41  43
HETATM   43  O   UNK     0     -19.035  -6.167  -0.089  0.00  0.00    -0.776 OA
HETATM   44  H   UNK     0     -18.723  -5.274   0.274  0.00  0.00     0.167 HD
ENDBRANCH  41  43
ENDBRANCH  40  41
ENDBRANCH  39  40
ENDBRANCH  27  39
BRANCH  11  45
HETATM   45  C   UNK     0     -27.313  -1.530   8.972  0.00  0.00     0.051 C 
BRANCH  45  46
HETATM   46  C   UNK     0     -27.157  -2.905   9.513  0.00  0.00     0.114 C 
BRANCH  46  47
HETATM   47  C   UNK     0     -28.163  -3.766   8.828  0.00  0.00     0.139 C 
HETATM   48  O   UNK     0     -29.359  -3.451   8.899  0.00  0.00    -0.650 OA
BRANCH  47  49
HETATM   49  O   UNK     0     -27.775  -4.884   8.134  0.00  0.00    -0.776 OA
HETATM   50  H   UNK     0     -26.821  -5.261   8.196  0.00  0.00     0.167 HD
ENDBRANCH  47  49
ENDBRANCH  46  47
ENDBRANCH  45  46
ENDBRANCH  11  45
BRANCH  18  51
HETATM   51  C   UNK     0     -22.986  -6.915   7.951  0.00  0.00     0.051 C 
BRANCH  51  52
HETATM   52  C   UNK     0     -24.199  -7.722   7.515  0.00  0.00     0.114 C 
BRANCH  52  53
HETATM   53  C   UNK     0     -25.078  -8.052   8.653  0.00  0.00     0.139 C 
HETATM   54  O   UNK     0     -26.115  -7.397   8.848  0.00  0.00    -0.650 OA
BRANCH  53  55
HETATM   55  O   UNK     0     -24.741  -9.083   9.496  0.00  0.00    -0.776 OA
HETATM   56  H   UNK     0     -24.170  -9.862   9.266  0.00  0.00     0.167 HD
ENDBRANCH  53  55
ENDBRANCH  52  53
ENDBRANCH  51  52
ENDBRANCH  18  51
TORSDOF 16
ENDMDL
MODEL 7
REMARK VINA RESULT:      -9.5      5.692      9.694
REMARK  16 active torsions:
REMARK  status: ('A' for Active; 'I' for Inactive)
REMARK    1  A    between atoms: C_6  and  C_7 
REMARK    2  A    between atoms: C_7  and  C_8 
REMARK    3  A    between atoms: C_8  and  C_9 
REMARK    4  A    between atoms: C_9  and  O_11 
REMARK    5  A    between atoms: C_16  and  C_17 
REMARK    6  A    between atoms: C_17  and  C_18 
REMARK    7  A    between atoms: C_18  and  C_19 
REMARK    8  A    between atoms: C_19  and  O_21 
REMARK    9  A    between atoms: C_28  and  C_29 
REMARK   10  A    between atoms: C_29  and  C_30 
REMARK   11  A    between atoms: C_30  and  C_31 
REMARK   12  A    between atoms: C_31  and  O_33 
REMARK   13  A    between atoms: C_42  and  C_43 
REMARK   14  A    between atoms: C_43  and  C_44 
REMARK   15  A    between atoms: C_44  and  C_45 
REMARK   16  A    between atoms: C_45  and  O_47 
ROOT
HETATM    1  C   UNK     0     -25.543  -1.199   1.452  0.00  0.00     0.051 C 
HETATM    2  C   UNK     0     -26.172  -1.538   2.788  0.00  0.00    -0.031 A 
HETATM    3  C   UNK     0     -26.438  -2.779   3.346  0.00  0.00     0.021 A 
HETATM    4  N   UNK     0     -27.038  -2.604   4.547  0.00  0.00    -0.361 N 
HETATM    5  C   UNK     0     -27.152  -1.278   4.771  0.00  0.00     0.022 A 
HETATM    6  C   UNK     0     -26.623  -0.582   3.689  0.00  0.00    -0.027 A 
HETATM    7  C   UNK     0     -27.655  -0.558   5.983  0.00  0.00     0.115 C 
HETATM    8  C   UNK     0     -27.210  -1.098   7.331  0.00  0.00     0.021 A 
HETATM    9  N   UNK     0     -26.030  -1.643   7.665  0.00  0.00    -0.361 N 
HETATM   10  C   UNK     0     -26.111  -2.067   8.944  0.00  0.00     0.022 A 
HETATM   11  C   UNK     0     -27.375  -1.779   9.450  0.00  0.00    -0.027 A 
HETATM   12  C   UNK     0     -28.073  -1.168   8.439  0.00  0.00    -0.031 A 
HETATM   13  C   UNK     0     -29.498  -0.672   8.536  0.00  0.00     0.051 C 
HETATM   14  C   UNK     0     -25.024  -2.805   9.719  0.00  0.00     0.115 C 
HETATM   15  C   UNK     0     -24.628  -4.139   9.106  0.00  0.00     0.021 A 
HETATM   16  N   UNK     0     -24.145  -4.363   7.870  0.00  0.00    -0.361 N 
HETATM   17  C   UNK     0     -23.988  -5.677   7.692  0.00  0.00     0.022 A 
HETATM   18  C   UNK     0     -24.379  -6.339   8.872  0.00  0.00    -0.027 A 
HETATM   19  C   UNK     0     -24.776  -5.365   9.751  0.00  0.00    -0.031 A 
HETATM   20  C   UNK     0     -25.243  -5.646  11.167  0.00  0.00     0.051 C 
HETATM   21  C   UNK     0     -23.549  -6.446   6.466  0.00  0.00     0.115 C 
HETATM   22  C   UNK     0     -23.947  -5.895   5.117  0.00  0.00     0.022 A 
HETATM   23  N   UNK     0     -25.113  -5.343   4.757  0.00  0.00    -0.361 N 
HETATM   24  C   UNK     0     -24.983  -4.858   3.506  0.00  0.00     0.021 A 
HETATM   25  C   UNK     0     -23.706  -5.113   3.045  0.00  0.00    -0.031 A 
HETATM   26  C   UNK     0     -23.100  -4.798   1.693  0.00  0.00     0.051 C 
HETATM   27  C   UNK     0     -23.023  -5.776   4.059  0.00  0.00    -0.027 A 
HETATM   28  C   UNK     0     -26.003  -4.067   2.706  0.00  0.00     0.115 C 
HETATM   29  H   UNK     0     -27.412  -3.417   5.210  0.00  0.00     0.165 HD
HETATM   30  H   UNK     0     -25.121  -1.684   7.016  0.00  0.00     0.165 HD
HETATM   31  H   UNK     0     -23.864  -3.575   7.123  0.00  0.00     0.165 HD
HETATM   32  H   UNK     0     -26.053  -5.330   5.368  0.00  0.00     0.165 HD
ENDROOT
BRANCH   6  33
HETATM   33  C   UNK     0     -26.517   0.903   3.449  0.00  0.00     0.051 C 
BRANCH  33  34
HETATM   34  C   UNK     0     -27.813   1.449   2.898  0.00  0.00     0.114 C 
BRANCH  34  35
HETATM   35  C   UNK     0     -27.532   1.965   1.527  0.00  0.00     0.139 C 
HETATM   36  O   UNK     0     -26.967   3.087   1.372  0.00  0.00    -0.650 OA
BRANCH  35  37
HETATM   37  O   UNK     0     -27.865   1.259   0.378  0.00  0.00    -0.776 OA
HETATM   38  H   UNK     0     -28.458   0.445   0.403  0.00  0.00     0.167 HD
ENDBRANCH  35  37
ENDBRANCH  34  35
ENDBRANCH  33  34
ENDBRANCH   6  33
BRANCH  27  39
HETATM   39  C   UNK     0     -21.632  -6.280   3.904  0.00  0.00     0.051 C 
BRANCH  39  40
HETATM   40  C   UNK     0     -20.537  -5.472   4.441  0.00  0.00     0.114 C 
BRANCH  40  41
HETATM   41  C   UNK     0     -19.770  -4.567   3.616  0.00  0.00     0.139 C 
HETATM   42  O   UNK     0     -18.841  -4.931   2.883  0.00  0.00    -0.650 OA
BRANCH  41  43
HETATM   43  O   UNK     0     -20.086  -3.179   3.634  0.00  0.00    -0.776 OA
HETATM   44  H   UNK     0     -20.672  -2.873   2.866  0.00  0.00     0.167 HD
ENDBRANCH  41  43
ENDBRANCH  40  41
ENDBRANCH  39  40
ENDBRANCH  27  39
BRANCH  11  45
HETATM   45  C   UNK     0     -27.925  -2.055  10.824  0.00  0.00     0.051 C 
BRANCH  45  46
HETATM   46  C   UNK     0     -27.932  -3.493  11.196  0.00  0.00     0.114 C 
BRANCH  46  47
HETATM   47  C   UNK     0     -28.817  -4.196  10.224  0.00  0.00     0.139 C 
HETATM   48  O   UNK     0     -28.322  -5.066   9.494  0.00  0.00    -0.650 OA
BRANCH  47  49
HETATM   49  O   UNK     0     -30.151  -3.888  10.137  0.00  0.00    -0.776 OA
HETATM   50  H   UNK     0     -30.870  -4.434  10.627  0.00  0.00     0.167 HD
ENDBRANCH  47  49
ENDBRANCH  46  47
ENDBRANCH  45  46
ENDBRANCH  11  45
BRANCH  18  51
HETATM   51  C   UNK     0     -24.354  -7.819   9.155  0.00  0.00     0.051 C 
BRANCH  51  52
HETATM   52  C   UNK     0     -25.504  -8.423   8.363  0.00  0.00     0.114 C 
BRANCH  52  53
HETATM   53  C   UNK     0     -26.735  -8.523   9.170  0.00  0.00     0.139 C 
HETATM   54  O   UNK     0     -26.662  -8.707  10.395  0.00  0.00    -0.650 OA
BRANCH  53  55
HETATM   55  O   UNK     0     -27.960  -8.414   8.557  0.00  0.00    -0.776 OA
HETATM   56  H   UNK     0     -28.824  -8.225   9.009  0.00  0.00     0.167 HD
ENDBRANCH  53  55
ENDBRANCH  52  53
ENDBRANCH  51  52
ENDBRANCH  18  51
TORSDOF 16
ENDMDL
MODEL 8
REMARK VINA RESULT:      -9.4      7.091     12.615
REMARK  16 active torsions:
REMARK  status: ('A' for Active; 'I' for Inactive)
REMARK    1  A    between atoms: C_6  and  C_7 
REMARK    2  A    between atoms: C_7  and  C_8 
REMARK    3  A    between atoms: C_8  and  C_9 
REMARK    4  A    between atoms: C_9  and  O_11 
REMARK    5  A    between atoms: C_16  and  C_17 
REMARK    6  A    between atoms: C_17  and  C_18 
REMARK    7  A    between atoms: C_18  and  C_19 
REMARK    8  A    between atoms: C_19  and  O_21 
REMARK    9  A    between atoms: C_28  and  C_29 
REMARK   10  A    between atoms: C_29  and  C_30 
REMARK   11  A    between atoms: C_30  and  C_31 
REMARK   12  A    between atoms: C_31  and  O_33 
REMARK   13  A    between atoms: C_42  and  C_43 
REMARK   14  A    between atoms: C_43  and  C_44 
REMARK   15  A    between atoms: C_44  and  C_45 
REMARK   16  A    between atoms: C_45  and  O_47 
ROOT
HETATM    1  C   UNK     0     -23.417  -7.053   8.849  0.00  0.00     0.051 C 
HETATM    2  C   UNK     0     -24.240  -5.838   9.224  0.00  0.00    -0.031 A 
HETATM    3  C   UNK     0     -24.223  -4.562   8.681  0.00  0.00     0.021 A 
HETATM    4  N   UNK     0     -25.108  -3.786   9.351  0.00  0.00    -0.361 N 
HETATM    5  C   UNK     0     -25.695  -4.541  10.303  0.00  0.00     0.022 A 
HETATM    6  C   UNK     0     -25.173  -5.829  10.253  0.00  0.00    -0.027 A 
HETATM    7  C   UNK     0     -26.802  -4.191  11.247  0.00  0.00     0.115 C 
HETATM    8  C   UNK     0     -27.963  -3.398  10.672  0.00  0.00     0.021 A 
HETATM    9  N   UNK     0     -28.507  -3.481   9.448  0.00  0.00    -0.361 N 
HETATM   10  C   UNK     0     -29.453  -2.524   9.344  0.00  0.00     0.022 A 
HETATM   11  C   UNK     0     -29.527  -1.811  10.537  0.00  0.00    -0.027 A 
HETATM   12  C   UNK     0     -28.590  -2.357  11.378  0.00  0.00    -0.031 A 
HETATM   13  C   UNK     0     -28.316  -1.902  12.794  0.00  0.00     0.051 C 
HETATM   14  C   UNK     0     -30.286  -2.209   8.104  0.00  0.00     0.115 C 
HETATM   15  C   UNK     0     -29.460  -1.786   6.900  0.00  0.00     0.021 A 
HETATM   16  N   UNK     0     -28.486  -2.483   6.286  0.00  0.00    -0.361 N 
HETATM   17  C   UNK     0     -27.959  -1.736   5.313  0.00  0.00     0.022 A 
HETATM   18  C   UNK     0     -28.628  -0.497   5.286  0.00  0.00    -0.027 A 
HETATM   19  C   UNK     0     -29.567  -0.541   6.284  0.00  0.00    -0.031 A 
HETATM   20  C   UNK     0     -30.539   0.586   6.578  0.00  0.00     0.051 C 
HETATM   21  C   UNK     0     -26.800  -2.025   4.386  0.00  0.00     0.115 C 
HETATM   22  C   UNK     0     -25.659  -2.851   4.931  0.00  0.00     0.022 A 
HETATM   23  N   UNK     0     -25.099  -2.793   6.146  0.00  0.00    -0.361 N 
HETATM   24  C   UNK     0     -24.215  -3.805   6.254  0.00  0.00     0.021 A 
HETATM   25  C   UNK     0     -24.197  -4.526   5.076  0.00  0.00    -0.031 A 
HETATM   26  C   UNK     0     -23.343  -5.720   4.702  0.00  0.00     0.051 C 
HETATM   27  C   UNK     0     -25.113  -3.935   4.213  0.00  0.00    -0.027 A 
HETATM   28  C   UNK     0     -23.403  -4.204   7.475  0.00  0.00     0.115 C 
HETATM   29  H   UNK     0     -25.283  -2.700   9.173  0.00  0.00     0.165 HD
HETATM   30  H   UNK     0     -28.261  -4.247   8.672  0.00  0.00     0.165 HD
HETATM   31  H   UNK     0     -28.196  -3.542   6.512  0.00  0.00     0.165 HD
HETATM   32  H   UNK     0     -25.292  -2.010   6.925  0.00  0.00     0.165 HD
ENDROOT
BRANCH   6  33
HETATM   33  C   UNK     0     -25.487  -7.037  11.099  0.00  0.00     0.051 C 
BRANCH  33  34
HETATM   34  C   UNK     0     -26.759  -7.703  10.629  0.00  0.00     0.114 C 
BRANCH  34  35
HETATM   35  C   UNK     0     -26.372  -8.767   9.658  0.00  0.00     0.139 C 
HETATM   36  O   UNK     0     -26.749  -8.695   8.452  0.00  0.00    -0.650 OA
BRANCH  35  37
HETATM   37  O   UNK     0     -25.596  -9.862  10.016  0.00  0.00    -0.776 OA
HETATM   38  H   UNK     0     -25.950 -10.598  10.607  0.00  0.00     0.167 HD
ENDBRANCH  35  37
ENDBRANCH  34  35
ENDBRANCH  33  34
ENDBRANCH   6  33
BRANCH  27  39
HETATM   39  C   UNK     0     -25.322  -4.395   2.814  0.00  0.00     0.051 C 
BRANCH  39  40
HETATM   40  C   UNK     0     -24.946  -3.494   1.724  0.00  0.00     0.114 C 
BRANCH  40  41
HETATM   41  C   UNK     0     -23.936  -3.843   0.750  0.00  0.00     0.139 C 
HETATM   42  O   UNK     0     -24.124  -4.649  -0.171  0.00  0.00    -0.650 OA
BRANCH  41  43
HETATM   43  O   UNK     0     -22.650  -3.238   0.841  0.00  0.00    -0.776 OA
HETATM   44  H   UNK     0     -22.587  -2.488   1.518  0.00  0.00     0.167 HD
ENDBRANCH  41  43
ENDBRANCH  40  41
ENDBRANCH  39  40
ENDBRANCH  27  39
BRANCH  11  45
HETATM   45  C   UNK     0     -30.433  -0.663  10.895  0.00  0.00     0.051 C 
BRANCH  45  46
HETATM   46  C   UNK     0     -29.730   0.635  11.059  0.00  0.00     0.114 C 
BRANCH  46  47
HETATM   47  C   UNK     0     -30.239   1.550   9.997  0.00  0.00     0.139 C 
HETATM   48  O   UNK     0     -31.462   1.622   9.814  0.00  0.00    -0.650 OA
BRANCH  47  49
HETATM   49  O   UNK     0     -29.373   2.295   9.238  0.00  0.00    -0.776 OA
HETATM   50  H   UNK     0     -28.948   1.929   8.378  0.00  0.00     0.167 HD
ENDBRANCH  47  49
ENDBRANCH  46  47
ENDBRANCH  45  46
ENDBRANCH  11  45
BRANCH  18  51
HETATM   51  C   UNK     0     -28.400   0.659   4.346  0.00  0.00     0.051 C 
BRANCH  51  52
HETATM   52  C   UNK     0     -27.005   1.186   4.651  0.00  0.00     0.114 C 
BRANCH  52  53
HETATM   53  C   UNK     0     -26.888   1.659   6.044  0.00  0.00     0.139 C 
HETATM   54  O   UNK     0     -25.988   1.218   6.776  0.00  0.00    -0.650 OA
BRANCH  53  55
HETATM   55  O   UNK     0     -27.782   2.585   6.524  0.00  0.00    -0.776 OA
HETATM   56  H   UNK     0     -28.395   3.143   5.978  0.00  0.00     0.167 HD
ENDBRANCH  53  55
ENDBRANCH  52  53
ENDBRANCH  51  52
ENDBRANCH  18  51
TORSDOF 16
ENDMDL
MODEL 9
REMARK VINA RESULT:      -9.2      2.511      4.094
REMARK  16 active torsions:
REMARK  status: ('A' for Active; 'I' for Inactive)
REMARK    1  A    between atoms: C_6  and  C_7 
REMARK    2  A    between atoms: C_7  and  C_8 
REMARK    3  A    between atoms: C_8  and  C_9 
REMARK    4  A    between atoms: C_9  and  O_11 
REMARK    5  A    between atoms: C_16  and  C_17 
REMARK    6  A    between atoms: C_17  and  C_18 
REMARK    7  A    between atoms: C_18  and  C_19 
REMARK    8  A    between atoms: C_19  and  O_21 
REMARK    9  A    between atoms: C_28  and  C_29 
REMARK   10  A    between atoms: C_29  and  C_30 
REMARK   11  A    between atoms: C_30  and  C_31 
REMARK   12  A    between atoms: C_31  and  O_33 
REMARK   13  A    between atoms: C_42  and  C_43 
REMARK   14  A    between atoms: C_43  and  C_44 
REMARK   15  A    between atoms: C_44  and  C_45 
REMARK   16  A    between atoms: C_45  and  O_47 
ROOT
HETATM    1  C   UNK     0     -26.382  -3.187   2.283  0.00  0.00     0.051 C 
HETATM    2  C   UNK     0     -25.367  -4.138   2.884  0.00  0.00    -0.031 A 
HETATM    3  C   UNK     0     -24.777  -5.261   2.326  0.00  0.00     0.021 A 
HETATM    4  N   UNK     0     -23.952  -5.825   3.240  0.00  0.00    -0.361 N 
HETATM    5  C   UNK     0     -23.997  -5.082   4.364  0.00  0.00     0.022 A 
HETATM    6  C   UNK     0     -24.875  -4.020   4.177  0.00  0.00    -0.027 A 
HETATM    7  C   UNK     0     -23.207  -5.219   5.629  0.00  0.00     0.115 C 
HETATM    8  C   UNK     0     -21.728  -5.527   5.478  0.00  0.00     0.021 A 
HETATM    9  N   UNK     0     -20.876  -5.098   4.534  0.00  0.00    -0.361 N 
HETATM   10  C   UNK     0     -19.685  -5.697   4.741  0.00  0.00     0.022 A 
HETATM   11  C   UNK     0     -19.768  -6.527   5.856  0.00  0.00    -0.027 A 
HETATM   12  C   UNK     0     -21.053  -6.424   6.325  0.00  0.00    -0.031 A 
HETATM   13  C   UNK     0     -21.603  -7.150   7.532  0.00  0.00     0.051 C 
HETATM   14  C   UNK     0     -18.440  -5.554   3.870  0.00  0.00     0.115 C 
HETATM   15  C   UNK     0     -18.635  -6.019   2.436  0.00  0.00     0.021 A 
HETATM   16  N   UNK     0     -19.530  -5.565   1.540  0.00  0.00    -0.361 N 
HETATM   17  C   UNK     0     -19.428  -6.280   0.417  0.00  0.00     0.022 A 
HETATM   18  C   UNK     0     -18.411  -7.240   0.587  0.00  0.00    -0.027 A 
HETATM   19  C   UNK     0     -17.921  -7.065   1.855  0.00  0.00    -0.031 A 
HETATM   20  C   UNK     0     -16.778  -7.877   2.437  0.00  0.00     0.051 C 
HETATM   21  C   UNK     0     -20.247  -6.218  -0.852  0.00  0.00     0.115 C 
HETATM   22  C   UNK     0     -21.711  -5.869  -0.722  0.00  0.00     0.022 A 
HETATM   23  N   UNK     0     -22.582  -6.277   0.210  0.00  0.00    -0.361 N 
HETATM   24  C   UNK     0     -23.739  -5.609   0.031  0.00  0.00     0.021 A 
HETATM   25  C   UNK     0     -23.614  -4.757  -1.050  0.00  0.00    -0.031 A 
HETATM   26  C   UNK     0     -24.648  -3.835  -1.662  0.00  0.00     0.051 C 
HETATM   27  C   UNK     0     -22.324  -4.905  -1.548  0.00  0.00    -0.027 A 
HETATM   28  C   UNK     0     -24.988  -5.664   0.894  0.00  0.00     0.115 C 
HETATM   29  H   UNK     0     -23.373  -6.768   3.097  0.00  0.00     0.165 HD
HETATM   30  H   UNK     0     -21.099  -4.335   3.749  0.00  0.00     0.165 HD
HETATM   31  H   UNK     0     -20.217  -4.690   1.684  0.00  0.00     0.165 HD
HETATM   32  H   UNK     0     -22.401  -7.074   0.978  0.00  0.00     0.165 HD
ENDROOT
BRANCH   6  33
HETATM   33  C   UNK     0     -25.279  -2.916   5.122  0.00  0.00     0.051 C 
BRANCH  33  34
HETATM   34  C   UNK     0     -26.286  -3.417   6.130  0.00  0.00     0.114 C 
BRANCH  34  35
HETATM   35  C   UNK     0     -27.622  -2.892   5.725  0.00  0.00     0.139 C 
HETATM   36  O   UNK     0     -27.721  -1.752   5.183  0.00  0.00    -0.650 OA
BRANCH  35  37
HETATM   37  O   UNK     0     -28.798  -3.608   5.914  0.00  0.00    -0.776 OA
HETATM   38  H   UNK     0     -29.698  -3.157   5.951  0.00  0.00     0.167 HD
ENDBRANCH  35  37
ENDBRANCH  34  35
ENDBRANCH  33  34
ENDBRANCH   6  33
BRANCH  27  39
HETATM   39  C   UNK     0     -21.839  -4.197  -2.764  0.00  0.00     0.051 C 
BRANCH  39  40
HETATM   40  C   UNK     0     -21.679  -4.966  -3.998  0.00  0.00     0.114 C 
BRANCH  40  41
HETATM   41  C   UNK     0     -20.769  -4.561  -5.045  0.00  0.00     0.139 C 
HETATM   42  O   UNK     0     -19.560  -4.828  -5.042  0.00  0.00    -0.650 OA
BRANCH  41  43
HETATM   43  O   UNK     0     -21.273  -3.815  -6.148  0.00  0.00    -0.776 OA
HETATM   44  H   UNK     0     -22.270  -3.911  -6.299  0.00  0.00     0.167 HD
ENDBRANCH  41  43
ENDBRANCH  40  41
ENDBRANCH  39  40
ENDBRANCH  27  39
BRANCH  11  45
HETATM   45  C   UNK     0     -18.698  -7.387   6.472  0.00  0.00     0.051 C 
BRANCH  45  46
HETATM   46  C   UNK     0     -17.802  -6.661   7.408  0.00  0.00     0.114 C 
BRANCH  46  47
HETATM   47  C   UNK     0     -17.930  -7.317   8.741  0.00  0.00     0.139 C 
HETATM   48  O   UNK     0     -17.282  -8.351   8.956  0.00  0.00    -0.650 OA
BRANCH  47  49
HETATM   49  O   UNK     0     -18.748  -6.790   9.708  0.00  0.00    -0.776 OA
HETATM   50  H   UNK     0     -19.660  -6.376   9.484  0.00  0.00     0.167 HD
ENDBRANCH  47  49
ENDBRANCH  46  47
ENDBRANCH  45  46
ENDBRANCH  11  45
BRANCH  18  51
HETATM   51  C   UNK     0     -17.918  -8.254  -0.413  0.00  0.00     0.051 C 
BRANCH  51  52
HETATM   52  C   UNK     0     -16.956  -7.514  -1.331  0.00  0.00     0.114 C 
BRANCH  52  53
HETATM   53  C   UNK     0     -17.399  -7.555  -2.738  0.00  0.00     0.139 C 
HETATM   54  O   UNK     0     -16.828  -6.855  -3.589  0.00  0.00    -0.650 OA
BRANCH  53  55
HETATM   55  O   UNK     0     -18.446  -8.369  -3.098  0.00  0.00    -0.776 OA
HETATM   56  H   UNK     0     -18.956  -8.322  -3.948  0.00  0.00     0.167 HD
ENDBRANCH  53  55
ENDBRANCH  52  53
ENDBRANCH  51  52
ENDBRANCH  18  51
TORSDOF 16
ENDMDL
MODEL 10
REMARK VINA RESULT:      -9.2      7.510     12.865
REMARK  16 active torsions:
REMARK  status: ('A' for Active; 'I' for Inactive)
REMARK    1  A    between atoms: C_6  and  C_7 
REMARK    2  A    between atoms: C_7  and  C_8 
REMARK    3  A    between atoms: C_8  and  C_9 
REMARK    4  A    between atoms: C_9  and  O_11 
REMARK    5  A    between atoms: C_16  and  C_17 
REMARK    6  A    between atoms: C_17  and  C_18 
REMARK    7  A    between atoms: C_18  and  C_19 
REMARK    8  A    between atoms: C_19  and  O_21 
REMARK    9  A    between atoms: C_28  and  C_29 
REMARK   10  A    between atoms: C_29  and  C_30 
REMARK   11  A    between atoms: C_30  and  C_31 
REMARK   12  A    between atoms: C_31  and  O_33 
REMARK   13  A    between atoms: C_42  and  C_43 
REMARK   14  A    between atoms: C_43  and  C_44 
REMARK   15  A    between atoms: C_44  and  C_45 
REMARK   16  A    between atoms: C_45  and  O_47 
ROOT
HETATM    1  C   UNK     0     -26.572  -1.528   1.937  0.00  0.00     0.051 C 
HETATM    2  C   UNK     0     -25.942  -2.301   3.078  0.00  0.00    -0.031 A 
HETATM    3  C   UNK     0     -25.727  -1.913   4.391  0.00  0.00     0.021 A 
HETATM    4  N   UNK     0     -25.103  -2.917   5.051  0.00  0.00    -0.361 N 
HETATM    5  C   UNK     0     -24.924  -3.940   4.190  0.00  0.00     0.022 A 
HETATM    6  C   UNK     0     -25.434  -3.587   2.945  0.00  0.00    -0.027 A 
HETATM    7  C   UNK     0     -24.371  -5.309   4.439  0.00  0.00     0.115 C 
HETATM    8  C   UNK     0     -24.823  -6.004   5.712  0.00  0.00     0.021 A 
HETATM    9  N   UNK     0     -26.022  -5.955   6.311  0.00  0.00    -0.361 N 
HETATM   10  C   UNK     0     -25.944  -6.652   7.464  0.00  0.00     0.022 A 
HETATM   11  C   UNK     0     -24.661  -7.172   7.607  0.00  0.00    -0.027 A 
HETATM   12  C   UNK     0     -23.949  -6.768   6.506  0.00  0.00    -0.031 A 
HETATM   13  C   UNK     0     -22.501  -7.105   6.229  0.00  0.00     0.051 C 
HETATM   14  C   UNK     0     -27.054  -6.811   8.499  0.00  0.00     0.115 C 
HETATM   15  C   UNK     0     -27.521  -5.498   9.107  0.00  0.00     0.021 A 
HETATM   16  N   UNK     0     -28.030  -4.430   8.464  0.00  0.00    -0.361 N 
HETATM   17  C   UNK     0     -28.251  -3.452   9.345  0.00  0.00     0.022 A 
HETATM   18  C   UNK     0     -27.876  -3.907  10.625  0.00  0.00    -0.027 A 
HETATM   19  C   UNK     0     -27.422  -5.190  10.462  0.00  0.00    -0.031 A 
HETATM   20  C   UNK     0     -26.950  -6.069  11.606  0.00  0.00     0.051 C 
HETATM   21  C   UNK     0     -28.743  -2.039   9.126  0.00  0.00     0.115 C 
HETATM   22  C   UNK     0     -28.338  -1.351   7.844  0.00  0.00     0.022 A 
HETATM   23  N   UNK     0     -27.152  -1.385   7.222  0.00  0.00    -0.361 N 
HETATM   24  C   UNK     0     -27.276  -0.750   6.039  0.00  0.00     0.021 A 
HETATM   25  C   UNK     0     -28.570  -0.287   5.900  0.00  0.00    -0.031 A 
HETATM   26  C   UNK     0     -29.179   0.515   4.769  0.00  0.00     0.051 C 
HETATM   27  C   UNK     0     -29.269  -0.659   7.043  0.00  0.00    -0.027 A 
HETATM   28  C   UNK     0     -26.230  -0.610   4.946  0.00  0.00     0.115 C 
HETATM   29  H   UNK     0     -24.759  -2.881   6.111  0.00  0.00     0.165 HD
HETATM   30  H   UNK     0     -26.941  -5.471   5.898  0.00  0.00     0.165 HD
HETATM   31  H   UNK     0     -28.284  -4.382   7.373  0.00  0.00     0.165 HD
HETATM   32  H   UNK     0     -26.204  -1.821   7.633  0.00  0.00     0.165 HD
ENDROOT
BRANCH   6  33
HETATM   33  C   UNK     0     -25.473  -4.368   1.656  0.00  0.00     0.051 C 
BRANCH  33  34
HETATM   34  C   UNK     0     -26.757  -5.156   1.547  0.00  0.00     0.114 C 
BRANCH  34  35
HETATM   35  C   UNK     0     -26.551  -6.201   0.503  0.00  0.00     0.139 C 
HETATM   36  O   UNK     0     -25.978  -5.910  -0.586  0.00  0.00    -0.650 OA
BRANCH  35  37
HETATM   37  O   UNK     0     -26.966  -7.517   0.670  0.00  0.00    -0.776 OA
HETATM   38  H   UNK     0     -27.422  -8.031  -0.067  0.00  0.00     0.167 HD
ENDBRANCH  35  37
ENDBRANCH  34  35
ENDBRANCH  33  34
ENDBRANCH   6  33
BRANCH  27  39
HETATM   39  C   UNK     0     -30.684  -0.272   7.289  0.00  0.00     0.051 C 
BRANCH  39  40
HETATM   40  C   UNK     0     -30.953   1.039   7.881  0.00  0.00     0.114 C 
BRANCH  40  41
HETATM   41  C   UNK     0     -30.935   1.258   9.309  0.00  0.00     0.139 C 
HETATM   42  O   UNK     0     -30.504   2.292   9.837  0.00  0.00    -0.650 OA
BRANCH  41  43
HETATM   43  O   UNK     0     -31.434   0.240  10.171  0.00  0.00    -0.776 OA
HETATM   44  H   UNK     0     -32.226   0.520  10.736  0.00  0.00     0.167 HD
ENDBRANCH  41  43
ENDBRANCH  40  41
ENDBRANCH  39  40
ENDBRANCH  27  39
BRANCH  11  45
HETATM   45  C   UNK     0     -24.106  -8.019   8.721  0.00  0.00     0.051 C 
BRANCH  45  46
HETATM   46  C   UNK     0     -23.652  -7.242   9.904  0.00  0.00     0.114 C 
BRANCH  46  47
HETATM   47  C   UNK     0     -24.052  -8.012  11.117  0.00  0.00     0.139 C 
HETATM   48  O   UNK     0     -23.700  -7.591  12.228  0.00  0.00    -0.650 OA
BRANCH  47  49
HETATM   49  O   UNK     0     -24.793  -9.161  11.008  0.00  0.00    -0.776 OA
HETATM   50  H   UNK     0     -25.365  -9.517  11.783  0.00  0.00     0.167 HD
ENDBRANCH  47  49
ENDBRANCH  46  47
ENDBRANCH  45  46
ENDBRANCH  11  45
BRANCH  18  51
HETATM   51  C   UNK     0     -27.966  -3.167  11.935  0.00  0.00     0.051 C 
BRANCH  51  52
HETATM   52  C   UNK     0     -29.174  -3.737  12.663  0.00  0.00     0.114 C 
BRANCH  52  53
HETATM   53  C   UNK     0     -30.419  -3.036  12.295  0.00  0.00     0.139 C 
HETATM   54  O   UNK     0     -31.459  -3.682  12.089  0.00  0.00    -0.650 OA
BRANCH  53  55
HETATM   55  O   UNK     0     -30.419  -1.667  12.179  0.00  0.00    -0.776 OA
HETATM   56  H   UNK     0     -31.128  -1.053  12.505  0.00  0.00     0.167 HD
ENDBRANCH  53  55
ENDBRANCH  52  53
ENDBRANCH  51  52
ENDBRANCH  18  51
TORSDOF 16
ENDMDL
MODEL 11
REMARK VINA RESULT:      -9.0      1.974      7.442
REMARK  16 active torsions:
REMARK  status: ('A' for Active; 'I' for Inactive)
REMARK    1  A    between atoms: C_6  and  C_7 
REMARK    2  A    between atoms: C_7  and  C_8 
REMARK    3  A    between atoms: C_8  and  C_9 
REMARK    4  A    between atoms: C_9  and  O_11 
REMARK    5  A    between atoms: C_16  and  C_17 
REMARK    6  A    between atoms: C_17  and  C_18 
REMARK    7  A    between atoms: C_18  and  C_19 
REMARK    8  A    between atoms: C_19  and  O_21 
REMARK    9  A    between atoms: C_28  and  C_29 
REMARK   10  A    between atoms: C_29  and  C_30 
REMARK   11  A    between atoms: C_30  and  C_31 
REMARK   12  A    between atoms: C_31  and  O_33 
REMARK   13  A    between atoms: C_42  and  C_43 
REMARK   14  A    between atoms: C_43  and  C_44 
REMARK   15  A    between atoms: C_44  and  C_45 
REMARK   16  A    between atoms: C_45  and  O_47 
ROOT
HETATM    1  C   UNK     0     -25.201  -6.073   2.563  0.00  0.00     0.051 C 
HETATM    2  C   UNK     0     -24.072  -5.673   1.635  0.00  0.00    -0.031 A 
HETATM    3  C   UNK     0     -22.933  -4.932   1.905  0.00  0.00     0.021 A 
HETATM    4  N   UNK     0     -22.216  -4.794   0.764  0.00  0.00    -0.361 N 
HETATM    5  C   UNK     0     -22.869  -5.439  -0.224  0.00  0.00     0.022 A 
HETATM    6  C   UNK     0     -24.036  -5.998   0.285  0.00  0.00    -0.027 A 
HETATM    7  C   UNK     0     -22.459  -5.667  -1.646  0.00  0.00     0.115 C 
HETATM    8  C   UNK     0     -21.009  -6.050  -1.883  0.00  0.00     0.021 A 
HETATM    9  N   UNK     0     -20.210  -6.814  -1.121  0.00  0.00    -0.361 N 
HETATM   10  C   UNK     0     -18.977  -6.809  -1.670  0.00  0.00     0.022 A 
HETATM   11  C   UNK     0     -18.983  -6.028  -2.822  0.00  0.00    -0.027 A 
HETATM   12  C   UNK     0     -20.260  -5.547  -2.962  0.00  0.00    -0.031 A 
HETATM   13  C   UNK     0     -20.739  -4.651  -4.083  0.00  0.00     0.051 C 
HETATM   14  C   UNK     0     -17.736  -7.493  -1.104  0.00  0.00     0.115 C 
HETATM   15  C   UNK     0     -17.329  -6.991   0.272  0.00  0.00     0.021 A 
HETATM   16  N   UNK     0     -18.064  -6.999   1.400  0.00  0.00    -0.361 N 
HETATM   17  C   UNK     0     -17.375  -6.405   2.376  0.00  0.00     0.022 A 
HETATM   18  C   UNK     0     -16.127  -5.999   1.863  0.00  0.00    -0.027 A 
HETATM   19  C   UNK     0     -16.110  -6.373   0.544  0.00  0.00    -0.031 A 
HETATM   20  C   UNK     0     -14.926  -6.155  -0.379  0.00  0.00     0.051 C 
HETATM   21  C   UNK     0     -17.777  -6.097   3.801  0.00  0.00     0.115 C 
HETATM   22  C   UNK     0     -19.226  -5.756   4.058  0.00  0.00     0.022 A 
HETATM   23  N   UNK     0     -20.046  -5.002   3.315  0.00  0.00    -0.361 N 
HETATM   24  C   UNK     0     -21.287  -5.085   3.837  0.00  0.00     0.021 A 
HETATM   25  C   UNK     0     -21.263  -5.904   4.949  0.00  0.00    -0.031 A 
HETATM   26  C   UNK     0     -22.393  -6.269   5.889  0.00  0.00     0.051 C 
HETATM   27  C   UNK     0     -19.955  -6.346   5.111  0.00  0.00    -0.027 A 
HETATM   28  C   UNK     0     -22.568  -4.478   3.290  0.00  0.00     0.115 C 
HETATM   29  H   UNK     0     -21.273  -4.208   0.657  0.00  0.00     0.165 HD
HETATM   30  H   UNK     0     -20.526  -7.399  -0.223  0.00  0.00     0.165 HD
HETATM   31  H   UNK     0     -19.071  -7.475   1.522  0.00  0.00     0.165 HD
HETATM   32  H   UNK     0     -19.748  -4.369   2.439  0.00  0.00     0.165 HD
ENDROOT
BRANCH   6  33
HETATM   33  C   UNK     0     -25.107  -6.805  -0.405  0.00  0.00     0.051 C 
BRANCH  33  34
HETATM   34  C   UNK     0     -26.375  -5.997  -0.551  0.00  0.00     0.114 C 
BRANCH  34  35
HETATM   35  C   UNK     0     -26.147  -5.002  -1.639  0.00  0.00     0.139 C 
HETATM   36  O   UNK     0     -26.354  -5.320  -2.846  0.00  0.00    -0.650 OA
BRANCH  35  37
HETATM   37  O   UNK     0     -25.710  -3.707  -1.390  0.00  0.00    -0.776 OA
HETATM   38  H   UNK     0     -24.839  -3.357  -1.755  0.00  0.00     0.167 HD
ENDBRANCH  35  37
ENDBRANCH  34  35
ENDBRANCH  33  34
ENDBRANCH   6  33
BRANCH  27  39
HETATM   39  C   UNK     0     -19.522  -7.197   6.253  0.00  0.00     0.051 C 
BRANCH  39  40
HETATM   40  C   UNK     0     -18.954  -6.542   7.431  0.00  0.00     0.114 C 
BRANCH  40  41
HETATM   41  C   UNK     0     -17.592  -6.770   7.857  0.00  0.00     0.139 C 
HETATM   42  O   UNK     0     -17.276  -7.594   8.725  0.00  0.00    -0.650 OA
BRANCH  41  43
HETATM   43  O   UNK     0     -16.545  -6.013   7.258  0.00  0.00    -0.776 OA
HETATM   44  H   UNK     0     -15.620  -6.407   7.382  0.00  0.00     0.167 HD
ENDBRANCH  41  43
ENDBRANCH  40  41
ENDBRANCH  39  40
ENDBRANCH  27  39
BRANCH  11  45
HETATM   45  C   UNK     0     -17.850  -5.735  -3.768  0.00  0.00     0.051 C 
BRANCH  45  46
HETATM   46  C   UNK     0     -16.716  -5.003  -3.146  0.00  0.00     0.114 C 
BRANCH  46  47
HETATM   47  C   UNK     0     -15.633  -4.919  -4.167  0.00  0.00     0.139 C 
HETATM   48  O   UNK     0     -15.948  -4.744  -5.353  0.00  0.00    -0.650 OA
BRANCH  47  49
HETATM   49  O   UNK     0     -14.314  -5.033  -3.804  0.00  0.00    -0.776 OA
HETATM   50  H   UNK     0     -13.822  -5.934  -3.814  0.00  0.00     0.167 HD
ENDBRANCH  47  49
ENDBRANCH  46  47
ENDBRANCH  45  46
ENDBRANCH  11  45
BRANCH  18  51
HETATM   51  C   UNK     0     -15.003  -5.312   2.595  0.00  0.00     0.051 C 
BRANCH  51  52
HETATM   52  C   UNK     0     -14.076  -6.414   3.085  0.00  0.00     0.114 C 
BRANCH  52  53
HETATM   53  C   UNK     0     -14.492  -6.937   4.401  0.00  0.00     0.139 C 
HETATM   54  O   UNK     0     -14.535  -6.181   5.384  0.00  0.00    -0.650 OA
BRANCH  53  55
HETATM   55  O   UNK     0     -14.825  -8.263   4.530  0.00  0.00    -0.776 OA
HETATM   56  H   UNK     0     -15.508  -8.636   5.148  0.00  0.00     0.167 HD
ENDBRANCH  53  55
ENDBRANCH  52  53
ENDBRANCH  51  52
ENDBRANCH  18  51
TORSDOF 16
ENDMDL
MODEL 12
REMARK VINA RESULT:      -9.0      5.232     10.541
REMARK  16 active torsions:
REMARK  status: ('A' for Active; 'I' for Inactive)
REMARK    1  A    between atoms: C_6  and  C_7 
REMARK    2  A    between atoms: C_7  and  C_8 
REMARK    3  A    between atoms: C_8  and  C_9 
REMARK    4  A    between atoms: C_9  and  O_11 
REMARK    5  A    between atoms: C_16  and  C_17 
REMARK    6  A    between atoms: C_17  and  C_18 
REMARK    7  A    between atoms: C_18  and  C_19 
REMARK    8  A    between atoms: C_19  and  O_21 
REMARK    9  A    between atoms: C_28  and  C_29 
REMARK   10  A    between atoms: C_29  and  C_30 
REMARK   11  A    between atoms: C_30  and  C_31 
REMARK   12  A    between atoms: C_31  and  O_33 
REMARK   13  A    between atoms: C_42  and  C_43 
REMARK   14  A    between atoms: C_43  and  C_44 
REMARK   15  A    between atoms: C_44  and  C_45 
REMARK   16  A    between atoms: C_45  and  O_47 
ROOT
HETATM    1  C   UNK     0     -28.260  -2.000   9.743  0.00  0.00     0.051 C 
HETATM    2  C   UNK     0     -27.540  -1.804   8.425  0.00  0.00    -0.031 A 
HETATM    3  C   UNK     0     -26.180  -1.790   8.159  0.00  0.00     0.021 A 
HETATM    4  N   UNK     0     -25.990  -1.549   6.840  0.00  0.00    -0.361 N 
HETATM    5  C   UNK     0     -27.200  -1.418   6.258  0.00  0.00     0.022 A 
HETATM    6  C   UNK     0     -28.192  -1.569   7.221  0.00  0.00    -0.027 A 
HETATM    7  C   UNK     0     -27.546  -1.237   4.813  0.00  0.00     0.115 C 
HETATM    8  C   UNK     0     -26.774  -2.084   3.816  0.00  0.00     0.021 A 
HETATM    9  N   UNK     0     -26.331  -3.343   3.954  0.00  0.00    -0.361 N 
HETATM   10  C   UNK     0     -25.615  -3.659   2.854  0.00  0.00     0.022 A 
HETATM   11  C   UNK     0     -25.605  -2.577   1.979  0.00  0.00    -0.027 A 
HETATM   12  C   UNK     0     -26.334  -1.581   2.578  0.00  0.00    -0.031 A 
HETATM   13  C   UNK     0     -26.598  -0.214   1.988  0.00  0.00     0.051 C 
HETATM   14  C   UNK     0     -24.871  -4.968   2.608  0.00  0.00     0.115 C 
HETATM   15  C   UNK     0     -23.781  -5.258   3.628  0.00  0.00     0.021 A 
HETATM   16  N   UNK     0     -23.916  -5.380   4.962  0.00  0.00    -0.361 N 
HETATM   17  C   UNK     0     -22.713  -5.564   5.509  0.00  0.00     0.022 A 
HETATM   18  C   UNK     0     -21.748  -5.571   4.481  0.00  0.00    -0.027 A 
HETATM   19  C   UNK     0     -22.431  -5.380   3.308  0.00  0.00    -0.031 A 
HETATM   20  C   UNK     0     -21.770  -5.358   1.942  0.00  0.00     0.051 C 
HETATM   21  C   UNK     0     -22.314  -5.683   6.962  0.00  0.00     0.115 C 
HETATM   22  C   UNK     0     -23.103  -4.880   7.970  0.00  0.00     0.022 A 
HETATM   23  N   UNK     0     -23.560  -3.627   7.858  0.00  0.00    -0.361 N 
HETATM   24  C   UNK     0     -24.335  -3.361   8.929  0.00  0.00     0.021 A 
HETATM   25  C   UNK     0     -24.368  -4.467   9.757  0.00  0.00    -0.031 A 
HETATM   26  C   UNK     0     -25.065  -4.639  11.090  0.00  0.00     0.051 C 
HETATM   27  C   UNK     0     -23.586  -5.452   9.164  0.00  0.00    -0.027 A 
HETATM   28  C   UNK     0     -25.145  -2.105   9.202  0.00  0.00     0.115 C 
HETATM   29  H   UNK     0     -25.002  -1.434   6.337  0.00  0.00     0.165 HD
HETATM   30  H   UNK     0     -26.563  -4.029   4.805  0.00  0.00     0.165 HD
HETATM   31  H   UNK     0     -24.885  -5.384   5.525  0.00  0.00     0.165 HD
HETATM   32  H   UNK     0     -23.306  -2.902   7.041  0.00  0.00     0.165 HD
ENDROOT
BRANCH   6  33
HETATM   33  C   UNK     0     -29.692  -1.505   7.087  0.00  0.00     0.051 C 
BRANCH  33  34
HETATM   34  C   UNK     0     -30.145  -0.090   6.814  0.00  0.00     0.114 C 
BRANCH  34  35
HETATM   35  C   UNK     0     -30.403   0.558   8.132  0.00  0.00     0.139 C 
HETATM   36  O   UNK     0     -29.937   1.708   8.378  0.00  0.00    -0.650 OA
BRANCH  35  37
HETATM   37  O   UNK     0     -31.152  -0.050   9.132  0.00  0.00    -0.776 OA
HETATM   38  H   UNK     0     -32.007   0.354   9.480  0.00  0.00     0.167 HD
ENDBRANCH  35  37
ENDBRANCH  34  35
ENDBRANCH  33  34
ENDBRANCH   6  33
BRANCH  27  39
HETATM   39  C   UNK     0     -23.324  -6.771   9.802  0.00  0.00     0.051 C 
BRANCH  39  40
HETATM   40  C   UNK     0     -22.267  -6.856  10.810  0.00  0.00     0.114 C 
BRANCH  40  41
HETATM   41  C   UNK     0     -21.085  -6.025  10.759  0.00  0.00     0.139 C 
HETATM   42  O   UNK     0     -20.848  -5.123  11.574  0.00  0.00    -0.650 OA
BRANCH  41  43
HETATM   43  O   UNK     0     -20.131  -6.243   9.725  0.00  0.00    -0.776 OA
HETATM   44  H   UNK     0     -20.299  -5.708   8.881  0.00  0.00     0.167 HD
ENDBRANCH  41  43
ENDBRANCH  40  41
ENDBRANCH  39  40
ENDBRANCH  27  39
BRANCH  11  45
HETATM   45  C   UNK     0     -24.948  -2.463   0.630  0.00  0.00     0.051 C 
BRANCH  45  46
HETATM   46  C   UNK     0     -25.790  -2.939  -0.497  0.00  0.00     0.114 C 
BRANCH  46  47
HETATM   47  C   UNK     0     -25.169  -4.193  -1.013  0.00  0.00     0.139 C 
HETATM   48  O   UNK     0     -25.835  -5.238  -0.988  0.00  0.00    -0.650 OA
BRANCH  47  49
HETATM   49  O   UNK     0     -23.888  -4.192  -1.503  0.00  0.00    -0.776 OA
HETATM   50  H   UNK     0     -23.089  -3.878  -0.940  0.00  0.00     0.167 HD
ENDBRANCH  47  49
ENDBRANCH  46  47
ENDBRANCH  45  46
ENDBRANCH  11  45
BRANCH  18  51
HETATM   51  C   UNK     0     -20.260  -5.772   4.609  0.00  0.00     0.051 C 
BRANCH  51  52
HETATM   52  C   UNK     0     -20.066  -6.877   5.637  0.00  0.00     0.114 C 
BRANCH  52  53
HETATM   53  C   UNK     0     -18.763  -6.767   6.321  0.00  0.00     0.139 C 
HETATM   54  O   UNK     0     -18.573  -7.362   7.394  0.00  0.00    -0.650 OA
BRANCH  53  55
HETATM   55  O   UNK     0     -17.766  -6.003   5.765  0.00  0.00    -0.776 OA
HETATM   56  H   UNK     0     -17.051  -6.328   5.157  0.00  0.00     0.167 HD
ENDBRANCH  53  55
ENDBRANCH  52  53
ENDBRANCH  51  52
ENDBRANCH  18  51
TORSDOF 16
ENDMDL
MODEL 13
REMARK VINA RESULT:      -8.9      5.926     11.901
REMARK  16 active torsions:
REMARK  status: ('A' for Active; 'I' for Inactive)
REMARK    1  A    between atoms: C_6  and  C_7 
REMARK    2  A    between atoms: C_7  and  C_8 
REMARK    3  A    between atoms: C_8  and  C_9 
REMARK    4  A    between atoms: C_9  and  O_11 
REMARK    5  A    between atoms: C_16  and  C_17 
REMARK    6  A    between atoms: C_17  and  C_18 
REMARK    7  A    between atoms: C_18  and  C_19 
REMARK    8  A    between atoms: C_19  and  O_21 
REMARK    9  A    between atoms: C_28  and  C_29 
REMARK   10  A    between atoms: C_29  and  C_30 
REMARK   11  A    between atoms: C_30  and  C_31 
REMARK   12  A    between atoms: C_31  and  O_33 
REMARK   13  A    between atoms: C_42  and  C_43 
REMARK   14  A    between atoms: C_43  and  C_44 
REMARK   15  A    between atoms: C_44  and  C_45 
REMARK   16  A    between atoms: C_45  and  O_47 
ROOT
HETATM    1  C   UNK     0     -28.783  -1.765  10.621  0.00  0.00     0.051 C 
HETATM    2  C   UNK     0     -28.027  -1.441   9.349  0.00  0.00    -0.031 A 
HETATM    3  C   UNK     0     -26.714  -1.728   9.009  0.00  0.00     0.021 A 
HETATM    4  N   UNK     0     -26.455  -1.219   7.781  0.00  0.00    -0.361 N 
HETATM    5  C   UNK     0     -27.576  -0.621   7.328  0.00  0.00     0.022 A 
HETATM    6  C   UNK     0     -28.578  -0.739   8.285  0.00  0.00    -0.027 A 
HETATM    7  C   UNK     0     -27.848   0.009   5.998  0.00  0.00     0.115 C 
HETATM    8  C   UNK     0     -27.333  -0.731   4.775  0.00  0.00     0.021 A 
HETATM    9  N   UNK     0     -27.258  -2.055   4.570  0.00  0.00    -0.361 N 
HETATM   10  C   UNK     0     -26.650  -2.261   3.382  0.00  0.00     0.022 A 
HETATM   11  C   UNK     0     -26.333  -1.036   2.803  0.00  0.00    -0.027 A 
HETATM   12  C   UNK     0     -26.761  -0.068   3.675  0.00  0.00    -0.031 A 
HETATM   13  C   UNK     0     -26.631   1.423   3.459  0.00  0.00     0.051 C 
HETATM   14  C   UNK     0     -26.297  -3.615   2.773  0.00  0.00     0.115 C 
HETATM   15  C   UNK     0     -25.339  -4.439   3.618  0.00  0.00     0.021 A 
HETATM   16  N   UNK     0     -25.512  -4.856   4.886  0.00  0.00    -0.361 N 
HETATM   17  C   UNK     0     -24.411  -5.492   5.293  0.00  0.00     0.022 A 
HETATM   18  C   UNK     0     -23.479  -5.498   4.236  0.00  0.00    -0.027 A 
HETATM   19  C   UNK     0     -24.073  -4.836   3.192  0.00  0.00    -0.031 A 
HETATM   20  C   UNK     0     -23.421  -4.645   1.835  0.00  0.00     0.051 C 
HETATM   21  C   UNK     0     -24.073  -6.082   6.643  0.00  0.00     0.115 C 
HETATM   22  C   UNK     0     -24.615  -5.381   7.866  0.00  0.00     0.022 A 
HETATM   23  N   UNK     0     -24.706  -4.065   8.096  0.00  0.00    -0.361 N 
HETATM   24  C   UNK     0     -25.384  -3.882   9.247  0.00  0.00     0.021 A 
HETATM   25  C   UNK     0     -25.729  -5.111   9.776  0.00  0.00    -0.031 A 
HETATM   26  C   UNK     0     -26.457  -5.422  11.068  0.00  0.00     0.051 C 
HETATM   27  C   UNK     0     -25.248  -6.086   8.910  0.00  0.00    -0.027 A 
HETATM   28  C   UNK     0     -25.816  -2.567   9.873  0.00  0.00     0.115 C 
HETATM   29  H   UNK     0     -25.470  -1.251   7.260  0.00  0.00     0.165 HD
HETATM   30  H   UNK     0     -27.678  -2.846   5.237  0.00  0.00     0.165 HD
HETATM   31  H   UNK     0     -26.449  -4.741   5.491  0.00  0.00     0.165 HD
HETATM   32  H   UNK     0     -24.254  -3.252   7.470  0.00  0.00     0.165 HD
ENDROOT
BRANCH   6  33
HETATM   33  C   UNK     0     -30.001  -0.240   8.267  0.00  0.00     0.051 C 
BRANCH  33  34
HETATM   34  C   UNK     0     -30.083   1.162   8.823  0.00  0.00     0.114 C 
BRANCH  34  35
HETATM   35  C   UNK     0     -31.415   1.305   9.479  0.00  0.00     0.139 C 
HETATM   36  O   UNK     0     -32.188   2.251   9.150  0.00  0.00    -0.650 OA
BRANCH  35  37
HETATM   37  O   UNK     0     -31.865   0.429  10.458  0.00  0.00    -0.776 OA
HETATM   38  H   UNK     0     -31.253  -0.236  10.903  0.00  0.00     0.167 HD
ENDBRANCH  35  37
ENDBRANCH  34  35
ENDBRANCH  33  34
ENDBRANCH   6  33
BRANCH  27  39
HETATM   39  C   UNK     0     -25.367  -7.544   9.184  0.00  0.00     0.051 C 
BRANCH  39  40
HETATM   40  C   UNK     0     -24.541  -8.120  10.244  0.00  0.00     0.114 C 
BRANCH  40  41
HETATM   41  C   UNK     0     -25.112  -8.836  11.363  0.00  0.00     0.139 C 
HETATM   42  O   UNK     0     -26.316  -9.114  11.453  0.00  0.00    -0.650 OA
BRANCH  41  43
HETATM   43  O   UNK     0     -24.261  -9.251  12.426  0.00  0.00    -0.776 OA
HETATM   44  H   UNK     0     -24.682  -9.197  13.345  0.00  0.00     0.167 HD
ENDBRANCH  41  43
ENDBRANCH  40  41
ENDBRANCH  39  40
ENDBRANCH  27  39
BRANCH  11  45
HETATM   45  C   UNK     0     -25.660  -0.763   1.485  0.00  0.00     0.051 C 
BRANCH  45  46
HETATM   46  C   UNK     0     -26.456   0.085   0.561  0.00  0.00     0.114 C 
BRANCH  46  47
HETATM   47  C   UNK     0     -27.150  -0.830  -0.391  0.00  0.00     0.139 C 
HETATM   48  O   UNK     0     -26.758  -2.002  -0.477  0.00  0.00    -0.650 OA
BRANCH  47  49
HETATM   49  O   UNK     0     -28.198  -0.385  -1.156  0.00  0.00    -0.776 OA
HETATM   50  H   UNK     0     -29.083  -0.900  -1.221  0.00  0.00     0.167 HD
ENDBRANCH  47  49
ENDBRANCH  46  47
ENDBRANCH  45  46
ENDBRANCH  11  45
BRANCH  18  51
HETATM   51  C   UNK     0     -22.107  -6.119   4.215  0.00  0.00     0.051 C 
BRANCH  51  52
HETATM   52  C   UNK     0     -21.116  -4.964   4.218  0.00  0.00     0.114 C 
BRANCH  52  53
HETATM   53  C   UNK     0     -19.740  -5.419   3.946  0.00  0.00     0.139 C 
HETATM   54  O   UNK     0     -18.788  -4.633   4.075  0.00  0.00    -0.650 OA
BRANCH  53  55
HETATM   55  O   UNK     0     -19.519  -6.715   3.547  0.00  0.00    -0.776 OA
HETATM   56  H   UNK     0     -19.082  -7.000   2.702  0.00  0.00     0.167 HD
ENDBRANCH  53  55
ENDBRANCH  52  53
ENDBRANCH  51  52
ENDBRANCH  18  51
TORSDOF 16
ENDMDL
MODEL 14
REMARK VINA RESULT:      -8.6      6.430     13.712
REMARK  16 active torsions:
REMARK  status: ('A' for Active; 'I' for Inactive)
REMARK    1  A    between atoms: C_6  and  C_7 
REMARK    2  A    between atoms: C_7  and  C_8 
REMARK    3  A    between atoms: C_8  and  C_9 
REMARK    4  A    between atoms: C_9  and  O_11 
REMARK    5  A    between atoms: C_16  and  C_17 
REMARK    6  A    between atoms: C_17  and  C_18 
REMARK    7  A    between atoms: C_18  and  C_19 
REMARK    8  A    between atoms: C_19  and  O_21 
REMARK    9  A    between atoms: C_28  and  C_29 
REMARK   10  A    between atoms: C_29  and  C_30 
REMARK   11  A    between atoms: C_30  and  C_31 
REMARK   12  A    between atoms: C_31  and  O_33 
REMARK   13  A    between atoms: C_42  and  C_43 
REMARK   14  A    between atoms: C_43  and  C_44 
REMARK   15  A    between atoms: C_44  and  C_45 
REMARK   16  A    between atoms: C_45  and  O_47 
ROOT
HETATM    1  C   UNK     0     -23.759  -7.846   8.574  0.00  0.00     0.051 C 
HETATM    2  C   UNK     0     -24.471  -7.107   7.460  0.00  0.00    -0.031 A 
HETATM    3  C   UNK     0     -25.792  -6.692   7.383  0.00  0.00     0.021 A 
HETATM    4  N   UNK     0     -25.997  -6.094   6.185  0.00  0.00    -0.361 N 
HETATM    5  C   UNK     0     -24.835  -6.112   5.501  0.00  0.00     0.022 A 
HETATM    6  C   UNK     0     -23.860  -6.741   6.268  0.00  0.00    -0.027 A 
HETATM    7  C   UNK     0     -24.502  -5.503   4.174  0.00  0.00     0.115 C 
HETATM    8  C   UNK     0     -25.035  -4.105   3.913  0.00  0.00     0.021 A 
HETATM    9  N   UNK     0     -25.182  -3.091   4.780  0.00  0.00    -0.361 N 
HETATM   10  C   UNK     0     -25.778  -2.068   4.131  0.00  0.00     0.022 A 
HETATM   11  C   UNK     0     -26.013  -2.430   2.807  0.00  0.00    -0.027 A 
HETATM   12  C   UNK     0     -25.547  -3.712   2.663  0.00  0.00    -0.031 A 
HETATM   13  C   UNK     0     -25.587  -4.519   1.385  0.00  0.00     0.051 C 
HETATM   14  C   UNK     0     -26.197  -0.734   4.742  0.00  0.00     0.115 C 
HETATM   15  C   UNK     0     -27.217  -0.864   5.862  0.00  0.00     0.021 A 
HETATM   16  N   UNK     0     -27.092  -1.553   7.011  0.00  0.00    -0.361 N 
HETATM   17  C   UNK     0     -28.236  -1.475   7.696  0.00  0.00     0.022 A 
HETATM   18  C   UNK     0     -29.146  -0.689   6.962  0.00  0.00    -0.027 A 
HETATM   19  C   UNK     0     -28.495  -0.311   5.816  0.00  0.00    -0.031 A 
HETATM   20  C   UNK     0     -29.109   0.582   4.753  0.00  0.00     0.051 C 
HETATM   21  C   UNK     0     -28.633  -2.127   9.001  0.00  0.00     0.115 C 
HETATM   22  C   UNK     0     -28.075  -3.499   9.294  0.00  0.00     0.022 A 
HETATM   23  N   UNK     0     -27.913  -4.527   8.450  0.00  0.00    -0.361 N 
HETATM   24  C   UNK     0     -27.248  -5.505   9.097  0.00  0.00     0.021 A 
HETATM   25  C   UNK     0     -26.984  -5.102  10.392  0.00  0.00    -0.031 A 
HETATM   26  C   UNK     0     -26.300  -5.865  11.507  0.00  0.00     0.051 C 
HETATM   27  C   UNK     0     -27.504  -3.821  10.542  0.00  0.00    -0.027 A 
HETATM   28  C   UNK     0     -26.753  -6.825   8.530  0.00  0.00     0.115 C 
HETATM   29  H   UNK     0     -26.972  -5.700   5.816  0.00  0.00     0.165 HD
HETATM   30  H   UNK     0     -24.821  -3.076   5.837  0.00  0.00     0.165 HD
HETATM   31  H   UNK     0     -26.162  -2.067   7.370  0.00  0.00     0.165 HD
HETATM   32  H   UNK     0     -28.305  -4.588   7.402  0.00  0.00     0.165 HD
ENDROOT
BRANCH   6  33
HETATM   33  C   UNK     0     -22.411  -7.018   5.957  0.00  0.00     0.051 C 
BRANCH  33  34
HETATM   34  C   UNK     0     -21.620  -5.733   5.902  0.00  0.00     0.114 C 
BRANCH  34  35
HETATM   35  C   UNK     0     -21.158  -5.552   4.496  0.00  0.00     0.139 C 
HETATM   36  O   UNK     0     -20.996  -4.389   4.023  0.00  0.00    -0.650 OA
BRANCH  35  37
HETATM   37  O   UNK     0     -20.886  -6.623   3.653  0.00  0.00    -0.776 OA
HETATM   38  H   UNK     0     -19.995  -7.092   3.655  0.00  0.00     0.167 HD
ENDBRANCH  35  37
ENDBRANCH  34  35
ENDBRANCH  33  34
ENDBRANCH   6  33
BRANCH  27  39
HETATM   39  C   UNK     0     -27.474  -3.081  11.832  0.00  0.00     0.051 C 
BRANCH  39  40
HETATM   40  C   UNK     0     -26.410  -2.100  12.045  0.00  0.00     0.114 C 
BRANCH  40  41
HETATM   41  C   UNK     0     -25.013  -2.471  12.060  0.00  0.00     0.139 C 
HETATM   42  O   UNK     0     -24.401  -2.790  13.089  0.00  0.00    -0.650 OA
BRANCH  41  43
HETATM   43  O   UNK     0     -24.286  -2.475  10.836  0.00  0.00    -0.776 OA
HETATM   44  H   UNK     0     -23.634  -1.706  10.733  0.00  0.00     0.167 HD
ENDBRANCH  41  43
ENDBRANCH  40  41
ENDBRANCH  39  40
ENDBRANCH  27  39
BRANCH  11  45
HETATM   45  C   UNK     0     -26.644  -1.620   1.707  0.00  0.00     0.051 C 
BRANCH  45  46
HETATM   46  C   UNK     0     -25.921  -0.362   1.390  0.00  0.00     0.114 C 
BRANCH  46  47
HETATM   47  C   UNK     0     -26.951   0.677   1.099  0.00  0.00     0.139 C 
HETATM   48  O   UNK     0     -27.111   1.596   1.914  0.00  0.00    -0.650 OA
BRANCH  47  49
HETATM   49  O   UNK     0     -27.706   0.617  -0.045  0.00  0.00    -0.776 OA
HETATM   50  H   UNK     0     -28.551   1.187  -0.170  0.00  0.00     0.167 HD
ENDBRANCH  47  49
ENDBRANCH  46  47
ENDBRANCH  45  46
ENDBRANCH  11  45
BRANCH  18  51
HETATM   51  C   UNK     0     -30.551  -0.301   7.342  0.00  0.00     0.051 C 
BRANCH  51  52
HETATM   52  C   UNK     0     -30.451   1.061   8.011  0.00  0.00     0.114 C 
BRANCH  52  53
HETATM   53  C   UNK     0     -30.538   0.959   9.481  0.00  0.00     0.139 C 
HETATM   54  O   UNK     0     -29.810   1.665  10.197  0.00  0.00    -0.650 OA
BRANCH  53  55
HETATM   55  O   UNK     0     -31.426   0.079  10.050  0.00  0.00    -0.776 OA
HETATM   56  H   UNK     0     -31.522  -0.883   9.821  0.00  0.00     0.167 HD
ENDBRANCH  53  55
ENDBRANCH  52  53
ENDBRANCH  51  52
ENDBRANCH  18  51
TORSDOF 16
ENDMDL
MODEL 15
REMARK VINA RESULT:      -8.5     24.964     29.308
REMARK  16 active torsions:
REMARK  status: ('A' for Active; 'I' for Inactive)
REMARK    1  A    between atoms: C_6  and  C_7 
REMARK    2  A    between atoms: C_7  and  C_8 
REMARK    3  A    between atoms: C_8  and  C_9 
REMARK    4  A    between atoms: C_9  and  O_11 
REMARK    5  A    between atoms: C_16  and  C_17 
REMARK    6  A    between atoms: C_17  and  C_18 
REMARK    7  A    between atoms: C_18  and  C_19 
REMARK    8  A    between atoms: C_19  and  O_21 
REMARK    9  A    between atoms: C_28  and  C_29 
REMARK   10  A    between atoms: C_29  and  C_30 
REMARK   11  A    between atoms: C_30  and  C_31 
REMARK   12  A    between atoms: C_31  and  O_33 
REMARK   13  A    between atoms: C_42  and  C_43 
REMARK   14  A    between atoms: C_43  and  C_44 
REMARK   15  A    between atoms: C_44  and  C_45 
REMARK   16  A    between atoms: C_45  and  O_47 
ROOT
HETATM    1  C   UNK     0       7.537   3.078   8.543  0.00  0.00     0.051 C 
HETATM    2  C   UNK     0       8.109   3.352   7.167  0.00  0.00    -0.031 A 
HETATM    3  C   UNK     0       8.110   2.548   6.038  0.00  0.00     0.021 A 
HETATM    4  N   UNK     0       8.763   3.189   5.040  0.00  0.00    -0.361 N 
HETATM    5  C   UNK     0       9.170   4.388   5.505  0.00  0.00     0.022 A 
HETATM    6  C   UNK     0       8.780   4.521   6.834  0.00  0.00    -0.027 A 
HETATM    7  C   UNK     0       9.848   5.509   4.782  0.00  0.00     0.115 C 
HETATM    8  C   UNK     0       9.329   5.837   3.393  0.00  0.00     0.021 A 
HETATM    9  N   UNK     0       8.067   5.790   2.939  0.00  0.00    -0.361 N 
HETATM   10  C   UNK     0       8.085   6.074   1.620  0.00  0.00     0.022 A 
HETATM   11  C   UNK     0       9.393   6.320   1.214  0.00  0.00    -0.027 A 
HETATM   12  C   UNK     0      10.182   6.173   2.327  0.00  0.00    -0.031 A 
HETATM   13  C   UNK     0      11.684   6.351   2.363  0.00  0.00     0.051 C 
HETATM   14  C   UNK     0       6.882   6.073   0.681  0.00  0.00     0.115 C 
HETATM   15  C   UNK     0       6.188   4.724   0.572  0.00  0.00     0.021 A 
HETATM   16  N   UNK     0       5.637   4.001   1.565  0.00  0.00    -0.361 N 
HETATM   17  C   UNK     0       5.192   2.844   1.069  0.00  0.00     0.022 A 
HETATM   18  C   UNK     0       5.457   2.816  -0.314  0.00  0.00    -0.027 A 
HETATM   19  C   UNK     0       6.079   4.000  -0.614  0.00  0.00    -0.031 A 
HETATM   20  C   UNK     0       6.508   4.398  -2.014  0.00  0.00     0.051 C 
HETATM   21  C   UNK     0       4.564   1.663   1.774  0.00  0.00     0.115 C 
HETATM   22  C   UNK     0       5.040   1.352   3.173  0.00  0.00     0.022 A 
HETATM   23  N   UNK     0       6.290   1.394   3.654  0.00  0.00    -0.361 N 
HETATM   24  C   UNK     0       6.239   1.185   4.985  0.00  0.00     0.021 A 
HETATM   25  C   UNK     0       4.926   0.993   5.369  0.00  0.00    -0.031 A 
HETATM   26  C   UNK     0       4.370   0.685   6.744  0.00  0.00     0.051 C 
HETATM   27  C   UNK     0       4.140   1.094   4.227  0.00  0.00    -0.027 A 
HETATM   28  C   UNK     0       7.388   1.231   5.978  0.00  0.00     0.115 C 
HETATM   29  H   UNK     0       8.965   2.774   4.025  0.00  0.00     0.165 HD
HETATM   30  H   UNK     0       7.155   5.605   3.559  0.00  0.00     0.165 HD
HETATM   31  H   UNK     0       5.517   4.333   2.629  0.00  0.00     0.165 HD
HETATM   32  H   UNK     0       7.225   1.530   3.050  0.00  0.00     0.165 HD
ENDROOT
BRANCH   6  33
HETATM   33  C   UNK     0       8.996   5.660   7.798  0.00  0.00     0.051 C 
BRANCH  33  34
HETATM   34  C   UNK     0      10.463   5.815   8.123  0.00  0.00     0.114 C 
BRANCH  34  35
HETATM   35  C   UNK     0      10.734   7.273   8.281  0.00  0.00     0.139 C 
HETATM   36  O   UNK     0      10.145   8.114   7.541  0.00  0.00    -0.650 OA
BRANCH  35  37
HETATM   37  O   UNK     0      11.621   7.772   9.227  0.00  0.00    -0.776 OA
HETATM   38  H   UNK     0      12.290   8.491   9.005  0.00  0.00     0.167 HD
ENDBRANCH  35  37
ENDBRANCH  34  35
ENDBRANCH  33  34
ENDBRANCH   6  33
BRANCH  27  39
HETATM   39  C   UNK     0       2.668   0.873   4.233  0.00  0.00     0.051 C 
BRANCH  39  40
HETATM   40  C   UNK     0       2.172  -0.493   4.397  0.00  0.00     0.114 C 
BRANCH  40  41
HETATM   41  C   UNK     0       0.829  -0.776   4.850  0.00  0.00     0.139 C 
HETATM   42  O   UNK     0      -0.014   0.102   5.079  0.00  0.00    -0.650 OA
BRANCH  41  43
HETATM   43  O   UNK     0       0.437  -2.130   5.048  0.00  0.00    -0.776 OA
HETATM   44  H   UNK     0      -0.073  -2.298   5.907  0.00  0.00     0.167 HD
ENDBRANCH  41  43
ENDBRANCH  40  41
ENDBRANCH  39  40
ENDBRANCH  27  39
BRANCH  11  45
HETATM   45  C   UNK     0       9.903   6.683  -0.155  0.00  0.00     0.051 C 
BRANCH  45  46
HETATM   46  C   UNK     0       9.841   8.135  -0.459  0.00  0.00     0.114 C 
BRANCH  46  47
HETATM   47  C   UNK     0       8.643   8.356  -1.319  0.00  0.00     0.139 C 
HETATM   48  O   UNK     0       8.601   7.807  -2.429  0.00  0.00    -0.650 OA
BRANCH  47  49
HETATM   49  O   UNK     0       7.609   9.151  -0.893  0.00  0.00    -0.776 OA
HETATM   50  H   UNK     0       7.445  10.087  -1.281  0.00  0.00     0.167 HD
ENDBRANCH  47  49
ENDBRANCH  46  47
ENDBRANCH  45  46
ENDBRANCH  11  45
BRANCH  18  51
HETATM   51  C   UNK     0       5.115   1.730  -1.301  0.00  0.00     0.051 C 
BRANCH  51  52
HETATM   52  C   UNK     0       6.276   0.747  -1.271  0.00  0.00     0.114 C 
BRANCH  52  53
HETATM   53  C   UNK     0       7.071   0.797  -2.514  0.00  0.00     0.139 C 
HETATM   54  O   UNK     0       6.539   1.154  -3.577  0.00  0.00    -0.650 OA
BRANCH  53  55
HETATM   55  O   UNK     0       8.398   0.443  -2.486  0.00  0.00    -0.776 OA
HETATM   56  H   UNK     0       9.037   0.629  -1.750  0.00  0.00     0.167 HD
ENDBRANCH  53  55
ENDBRANCH  52  53
ENDBRANCH  51  52
ENDBRANCH  18  51
TORSDOF 16
ENDMDL
MODEL 16
REMARK VINA RESULT:      -8.3     24.650     26.906
REMARK  16 active torsions:
REMARK  status: ('A' for Active; 'I' for Inactive)
REMARK    1  A    between atoms: C_6  and  C_7 
REMARK    2  A    between atoms: C_7  and  C_8 
REMARK    3  A    between atoms: C_8  and  C_9 
REMARK    4  A    between atoms: C_9  and  O_11 
REMARK    5  A    between atoms: C_16  and  C_17 
REMARK    6  A    between atoms: C_17  and  C_18 
REMARK    7  A    between atoms: C_18  and  C_19 
REMARK    8  A    between atoms: C_19  and  O_21 
REMARK    9  A    between atoms: C_28  and  C_29 
REMARK   10  A    between atoms: C_29  and  C_30 
REMARK   11  A    between atoms: C_30  and  C_31 
REMARK   12  A    between atoms: C_31  and  O_33 
REMARK   13  A    between atoms: C_42  and  C_43 
REMARK   14  A    between atoms: C_43  and  C_44 
REMARK   15  A    between atoms: C_44  and  C_45 
REMARK   16  A    between atoms: C_45  and  O_47 
ROOT
HETATM    1  C   UNK     0      -8.856  19.648   2.344  0.00  0.00     0.051 C 
HETATM    2  C   UNK     0      -8.504  18.302   1.743  0.00  0.00    -0.031 A 
HETATM    3  C   UNK     0      -7.991  18.005   0.490  0.00  0.00     0.021 A 
HETATM    4  N   UNK     0      -7.862  16.662   0.373  0.00  0.00    -0.361 N 
HETATM    5  C   UNK     0      -8.273  16.098   1.527  0.00  0.00     0.022 A 
HETATM    6  C   UNK     0      -8.684  17.095   2.405  0.00  0.00    -0.027 A 
HETATM    7  C   UNK     0      -8.246  14.661   1.947  0.00  0.00     0.115 C 
HETATM    8  C   UNK     0      -6.992  13.875   1.606  0.00  0.00     0.021 A 
HETATM    9  N   UNK     0      -5.719  14.298   1.589  0.00  0.00    -0.361 N 
HETATM   10  C   UNK     0      -4.947  13.287   1.138  0.00  0.00     0.022 A 
HETATM   11  C   UNK     0      -5.744  12.178   0.866  0.00  0.00    -0.027 A 
HETATM   12  C   UNK     0      -7.034  12.542   1.159  0.00  0.00    -0.031 A 
HETATM   13  C   UNK     0      -8.247  11.650   1.021  0.00  0.00     0.051 C 
HETATM   14  C   UNK     0      -3.441  13.341   0.896  0.00  0.00     0.115 C 
HETATM   15  C   UNK     0      -3.021  14.371  -0.140  0.00  0.00     0.021 A 
HETATM   16  N   UNK     0      -3.243  15.698  -0.115  0.00  0.00    -0.361 N 
HETATM   17  C   UNK     0      -2.778  16.242  -1.242  0.00  0.00     0.022 A 
HETATM   18  C   UNK     0      -2.218  15.221  -2.035  0.00  0.00    -0.027 A 
HETATM   19  C   UNK     0      -2.375  14.054  -1.333  0.00  0.00    -0.031 A 
HETATM   20  C   UNK     0      -1.874  12.705  -1.815  0.00  0.00     0.051 C 
HETATM   21  C   UNK     0      -2.845  17.671  -1.732  0.00  0.00     0.115 C 
HETATM   22  C   UNK     0      -4.067  18.479  -1.362  0.00  0.00     0.022 A 
HETATM   23  N   UNK     0      -5.346  18.082  -1.333  0.00  0.00    -0.361 N 
HETATM   24  C   UNK     0      -6.086  19.079  -0.807  0.00  0.00     0.021 A 
HETATM   25  C   UNK     0      -5.265  20.147  -0.501  0.00  0.00    -0.031 A 
HETATM   26  C   UNK     0      -5.635  21.501   0.068  0.00  0.00     0.051 C 
HETATM   27  C   UNK     0      -3.968  19.787  -0.848  0.00  0.00    -0.027 A 
HETATM   28  C   UNK     0      -7.571  19.066  -0.488  0.00  0.00     0.115 C 
HETATM   29  H   UNK     0      -7.519  16.120  -0.538  0.00  0.00     0.165 HD
HETATM   30  H   UNK     0      -5.355  15.294   1.942  0.00  0.00     0.165 HD
HETATM   31  H   UNK     0      -3.694  16.272   0.736  0.00  0.00     0.165 HD
HETATM   32  H   UNK     0      -5.745  17.110  -1.723  0.00  0.00     0.165 HD
ENDROOT
BRANCH   6  33
HETATM   33  C   UNK     0      -9.230  16.989   3.807  0.00  0.00     0.051 C 
BRANCH  33  34
HETATM   34  C   UNK     0     -10.588  16.327   3.804  0.00  0.00     0.114 C 
BRANCH  34  35
HETATM   35  C   UNK     0     -11.608  17.402   3.641  0.00  0.00     0.139 C 
HETATM   36  O   UNK     0     -11.921  17.814   2.486  0.00  0.00    -0.650 OA
BRANCH  35  37
HETATM   37  O   UNK     0     -12.255  17.990   4.721  0.00  0.00    -0.776 OA
HETATM   38  H   UNK     0     -13.090  17.595   5.124  0.00  0.00     0.167 HD
ENDBRANCH  35  37
ENDBRANCH  34  35
ENDBRANCH  33  34
ENDBRANCH   6  33
BRANCH  27  39
HETATM   39  C   UNK     0      -2.810  20.714  -0.729  0.00  0.00     0.051 C 
BRANCH  39  40
HETATM   40  C   UNK     0      -1.677  20.306   0.102  0.00  0.00     0.114 C 
BRANCH  40  41
HETATM   41  C   UNK     0      -0.308  20.581  -0.274  0.00  0.00     0.139 C 
HETATM   42  O   UNK     0       0.582  19.720  -0.292  0.00  0.00    -0.650 OA
BRANCH  41  43
HETATM   43  O   UNK     0       0.054  21.907  -0.645  0.00  0.00    -0.776 OA
HETATM   44  H   UNK     0      -0.349  22.630  -0.060  0.00  0.00     0.167 HD
ENDBRANCH  41  43
ENDBRANCH  40  41
ENDBRANCH  39  40
ENDBRANCH  27  39
BRANCH  11  45
HETATM   45  C   UNK     0      -5.331  10.824   0.356  0.00  0.00     0.051 C 
BRANCH  45  46
HETATM   46  C   UNK     0      -5.171   9.799   1.418  0.00  0.00     0.114 C 
BRANCH  46  47
HETATM   47  C   UNK     0      -5.157   8.467   0.748  0.00  0.00     0.139 C 
HETATM   48  O   UNK     0      -6.198   7.795   0.744  0.00  0.00    -0.650 OA
BRANCH  47  49
HETATM   49  O   UNK     0      -4.017   7.994   0.148  0.00  0.00    -0.776 OA
HETATM   50  H   UNK     0      -3.083   8.167   0.539  0.00  0.00     0.167 HD
ENDBRANCH  47  49
ENDBRANCH  46  47
ENDBRANCH  45  46
ENDBRANCH  11  45
BRANCH  18  51
HETATM   51  C   UNK     0      -1.550  15.353  -3.380  0.00  0.00     0.051 C 
BRANCH  51  52
HETATM   52  C   UNK     0      -0.064  15.522  -3.102  0.00  0.00     0.114 C 
BRANCH  52  53
HETATM   53  C   UNK     0       0.462  16.778  -3.670  0.00  0.00     0.139 C 
HETATM   54  O   UNK     0       0.745  17.728  -2.922  0.00  0.00    -0.650 OA
BRANCH  53  55
HETATM   55  O   UNK     0       0.632  16.891  -5.028  0.00  0.00    -0.776 OA
HETATM   56  H   UNK     0       1.479  16.743  -5.525  0.00  0.00     0.167 HD
ENDBRANCH  53  55
ENDBRANCH  52  53
ENDBRANCH  51  52
ENDBRANCH  18  51
TORSDOF 16
ENDMDL
MODEL 17
REMARK VINA RESULT:      -8.2     10.705     15.795
REMARK  16 active torsions:
REMARK  status: ('A' for Active; 'I' for Inactive)
REMARK    1  A    between atoms: C_6  and  C_7 
REMARK    2  A    between atoms: C_7  and  C_8 
REMARK    3  A    between atoms: C_8  and  C_9 
REMARK    4  A    between atoms: C_9  and  O_11 
REMARK    5  A    between atoms: C_16  and  C_17 
REMARK    6  A    between atoms: C_17  and  C_18 
REMARK    7  A    between atoms: C_18  and  C_19 
REMARK    8  A    between atoms: C_19  and  O_21 
REMARK    9  A    between atoms: C_28  and  C_29 
REMARK   10  A    between atoms: C_29  and  C_30 
REMARK   11  A    between atoms: C_30  and  C_31 
REMARK   12  A    between atoms: C_31  and  O_33 
REMARK   13  A    between atoms: C_42  and  C_43 
REMARK   14  A    between atoms: C_43  and  C_44 
REMARK   15  A    between atoms: C_44  and  C_45 
REMARK   16  A    between atoms: C_45  and  O_47 
ROOT
HETATM    1  C   UNK     0     -27.213  -1.983   4.718  0.00  0.00     0.051 C 
HETATM    2  C   UNK     0     -28.321  -1.623   5.687  0.00  0.00    -0.031 A 
HETATM    3  C   UNK     0     -28.975  -2.422   6.611  0.00  0.00     0.021 A 
HETATM    4  N   UNK     0     -29.920  -1.685   7.241  0.00  0.00    -0.361 N 
HETATM    5  C   UNK     0     -29.877  -0.431   6.745  0.00  0.00     0.022 A 
HETATM    6  C   UNK     0     -28.889  -0.358   5.768  0.00  0.00    -0.027 A 
HETATM    7  C   UNK     0     -30.642   0.785   7.162  0.00  0.00     0.115 C 
HETATM    8  C   UNK     0     -30.801   1.011   8.655  0.00  0.00     0.021 A 
HETATM    9  N   UNK     0     -29.927   0.746   9.639  0.00  0.00    -0.361 N 
HETATM   10  C   UNK     0     -30.526   1.021  10.817  0.00  0.00     0.022 A 
HETATM   11  C   UNK     0     -31.818   1.485  10.586  0.00  0.00    -0.027 A 
HETATM   12  C   UNK     0     -31.998   1.481   9.226  0.00  0.00    -0.031 A 
HETATM   13  C   UNK     0     -33.257   1.914   8.510  0.00  0.00     0.051 C 
HETATM   14  C   UNK     0     -29.927   0.809  12.204  0.00  0.00     0.115 C 
HETATM   15  C   UNK     0     -29.575  -0.639  12.508  0.00  0.00     0.021 A 
HETATM   16  N   UNK     0     -28.734  -1.440  11.827  0.00  0.00    -0.361 N 
HETATM   17  C   UNK     0     -28.753  -2.659  12.371  0.00  0.00     0.022 A 
HETATM   18  C   UNK     0     -29.642  -2.649  13.464  0.00  0.00    -0.027 A 
HETATM   19  C   UNK     0     -30.149  -1.378  13.540  0.00  0.00    -0.031 A 
HETATM   20  C   UNK     0     -31.126  -0.921  14.608  0.00  0.00     0.051 C 
HETATM   21  C   UNK     0     -28.049  -3.926  11.942  0.00  0.00     0.115 C 
HETATM   22  C   UNK     0     -27.844  -4.142  10.461  0.00  0.00     0.022 A 
HETATM   23  N   UNK     0     -28.695  -3.884   9.459  0.00  0.00    -0.361 N 
HETATM   24  C   UNK     0     -28.051  -4.091   8.293  0.00  0.00     0.021 A 
HETATM   25  C   UNK     0     -26.758  -4.503   8.549  0.00  0.00    -0.031 A 
HETATM   26  C   UNK     0     -25.669  -4.893   7.571  0.00  0.00     0.051 C 
HETATM   27  C   UNK     0     -26.602  -4.543   9.930  0.00  0.00    -0.027 A 
HETATM   28  C   UNK     0     -28.571  -3.843   6.887  0.00  0.00     0.115 C 
HETATM   29  H   UNK     0     -30.638  -2.066   8.004  0.00  0.00     0.165 HD
HETATM   30  H   UNK     0     -28.870   0.412   9.502  0.00  0.00     0.165 HD
HETATM   31  H   UNK     0     -28.076  -1.127  10.975  0.00  0.00     0.165 HD
HETATM   32  H   UNK     0     -29.773  -3.594   9.566  0.00  0.00     0.165 HD
ENDROOT
BRANCH   6  33
HETATM   33  C   UNK     0     -28.452   0.806   4.916  0.00  0.00     0.051 C 
BRANCH  33  34
HETATM   34  C   UNK     0     -27.553   1.734   5.698  0.00  0.00     0.114 C 
BRANCH  34  35
HETATM   35  C   UNK     0     -26.144   1.380   5.362  0.00  0.00     0.139 C 
HETATM   36  O   UNK     0     -25.377   0.905   6.250  0.00  0.00    -0.650 OA
BRANCH  35  37
HETATM   37  O   UNK     0     -25.613   1.545   4.089  0.00  0.00    -0.776 OA
HETATM   38  H   UNK     0     -25.456   2.457   3.689  0.00  0.00     0.167 HD
ENDBRANCH  35  37
ENDBRANCH  34  35
ENDBRANCH  33  34
ENDBRANCH   6  33
BRANCH  27  39
HETATM   39  C   UNK     0     -25.354  -5.013  10.591  0.00  0.00     0.051 C 
BRANCH  39  40
HETATM   40  C   UNK     0     -25.178  -6.449  10.803  0.00  0.00     0.114 C 
BRANCH  40  41
HETATM   41  C   UNK     0     -26.294  -7.368  10.814  0.00  0.00     0.139 C 
HETATM   42  O   UNK     0     -26.952  -7.633  11.829  0.00  0.00    -0.650 OA
BRANCH  41  43
HETATM   43  O   UNK     0     -26.670  -8.013   9.601  0.00  0.00    -0.776 OA
HETATM   44  H   UNK     0     -26.411  -7.510   8.761  0.00  0.00     0.167 HD
ENDBRANCH  41  43
ENDBRANCH  40  41
ENDBRANCH  39  40
ENDBRANCH  27  39
BRANCH  11  45
HETATM   45  C   UNK     0     -32.855   1.921  11.585  0.00  0.00     0.051 C 
BRANCH  45  46
HETATM   46  C   UNK     0     -34.115   1.137  11.532  0.00  0.00     0.114 C 
BRANCH  46  47
HETATM   47  C   UNK     0     -33.913  -0.081  12.368  0.00  0.00     0.139 C 
HETATM   48  O   UNK     0     -34.341  -0.080  13.531  0.00  0.00    -0.650 OA
BRANCH  47  49
HETATM   49  O   UNK     0     -33.265  -1.180  11.863  0.00  0.00    -0.776 OA
HETATM   50  H   UNK     0     -32.243  -1.272  11.893  0.00  0.00     0.167 HD
ENDBRANCH  47  49
ENDBRANCH  46  47
ENDBRANCH  45  46
ENDBRANCH  11  45
BRANCH  18  51
HETATM   51  C   UNK     0     -29.974  -3.783  14.399  0.00  0.00     0.051 C 
BRANCH  51  52
HETATM   52  C   UNK     0     -31.209  -4.461  13.824  0.00  0.00     0.114 C 
BRANCH  52  53
HETATM   53  C   UNK     0     -32.221  -4.730  14.863  0.00  0.00     0.139 C 
HETATM   54  O   UNK     0     -33.092  -3.882  15.118  0.00  0.00    -0.650 OA
BRANCH  53  55
HETATM   55  O   UNK     0     -32.193  -5.921  15.548  0.00  0.00    -0.776 OA
HETATM   56  H   UNK     0     -32.906  -6.611  15.549  0.00  0.00     0.167 HD
ENDBRANCH  53  55
ENDBRANCH  52  53
ENDBRANCH  51  52
ENDBRANCH  18  51
TORSDOF 16
ENDMDL
MODEL 18
REMARK VINA RESULT:      -8.2     24.455     26.840
REMARK  16 active torsions:
REMARK  status: ('A' for Active; 'I' for Inactive)
REMARK    1  A    between atoms: C_6  and  C_7 
REMARK    2  A    between atoms: C_7  and  C_8 
REMARK    3  A    between atoms: C_8  and  C_9 
REMARK    4  A    between atoms: C_9  and  O_11 
REMARK    5  A    between atoms: C_16  and  C_17 
REMARK    6  A    between atoms: C_17  and  C_18 
REMARK    7  A    between atoms: C_18  and  C_19 
REMARK    8  A    between atoms: C_19  and  O_21 
REMARK    9  A    between atoms: C_28  and  C_29 
REMARK   10  A    between atoms: C_29  and  C_30 
REMARK   11  A    between atoms: C_30  and  C_31 
REMARK   12  A    between atoms: C_31  and  O_33 
REMARK   13  A    between atoms: C_42  and  C_43 
REMARK   14  A    between atoms: C_43  and  C_44 
REMARK   15  A    between atoms: C_44  and  C_45 
REMARK   16  A    between atoms: C_45  and  O_47 
ROOT
HETATM    1  C   UNK     0      -4.405  10.419   0.545  0.00  0.00     0.051 C 
HETATM    2  C   UNK     0      -4.953  11.668   1.204  0.00  0.00    -0.031 A 
HETATM    3  C   UNK     0      -4.311  12.859   1.502  0.00  0.00     0.021 A 
HETATM    4  N   UNK     0      -5.185  13.689   2.121  0.00  0.00    -0.361 N 
HETATM    5  C   UNK     0      -6.372  13.055   2.216  0.00  0.00     0.022 A 
HETATM    6  C   UNK     0      -6.262  11.787   1.655  0.00  0.00    -0.027 A 
HETATM    7  C   UNK     0      -7.684  13.563   2.728  0.00  0.00     0.115 C 
HETATM    8  C   UNK     0      -8.077  14.971   2.318  0.00  0.00     0.021 A 
HETATM    9  N   UNK     0      -7.846  15.598   1.154  0.00  0.00    -0.361 N 
HETATM   10  C   UNK     0      -8.290  16.868   1.267  0.00  0.00     0.022 A 
HETATM   11  C   UNK     0      -8.831  17.061   2.535  0.00  0.00    -0.027 A 
HETATM   12  C   UNK     0      -8.700  15.870   3.202  0.00  0.00    -0.031 A 
HETATM   13  C   UNK     0      -9.156  15.607   4.620  0.00  0.00     0.051 C 
HETATM   14  C   UNK     0      -8.175  17.960   0.207  0.00  0.00     0.115 C 
HETATM   15  C   UNK     0      -6.744  18.298  -0.176  0.00  0.00     0.021 A 
HETATM   16  N   UNK     0      -5.810  17.468  -0.678  0.00  0.00    -0.361 N 
HETATM   17  C   UNK     0      -4.660  18.132  -0.814  0.00  0.00     0.022 A 
HETATM   18  C   UNK     0      -4.857  19.461  -0.390  0.00  0.00    -0.027 A 
HETATM   19  C   UNK     0      -6.166  19.552   0.005  0.00  0.00    -0.031 A 
HETATM   20  C   UNK     0      -6.809  20.834   0.503  0.00  0.00     0.051 C 
HETATM   21  C   UNK     0      -3.302  17.642  -1.263  0.00  0.00     0.115 C 
HETATM   22  C   UNK     0      -2.916  16.227  -0.900  0.00  0.00     0.022 A 
HETATM   23  N   UNK     0      -3.137  15.576   0.250  0.00  0.00    -0.361 N 
HETATM   24  C   UNK     0      -2.757  14.292   0.088  0.00  0.00     0.021 A 
HETATM   25  C   UNK     0      -2.271  14.115  -1.193  0.00  0.00    -0.031 A 
HETATM   26  C   UNK     0      -1.693  12.868  -1.829  0.00  0.00     0.051 C 
HETATM   27  C   UNK     0      -2.362  15.340  -1.844  0.00  0.00    -0.027 A 
HETATM   28  C   UNK     0      -2.899  13.149   1.079  0.00  0.00     0.115 C 
HETATM   29  H   UNK     0      -4.946  14.701   2.522  0.00  0.00     0.165 HD
HETATM   30  H   UNK     0      -7.414  15.133   0.234  0.00  0.00     0.165 HD
HETATM   31  H   UNK     0      -5.978  16.403  -0.987  0.00  0.00     0.165 HD
HETATM   32  H   UNK     0      -3.523  16.027   1.201  0.00  0.00     0.165 HD
ENDROOT
BRANCH   6  33
HETATM   33  C   UNK     0      -7.291  10.694   1.518  0.00  0.00     0.051 C 
BRANCH  33  34
HETATM   34  C   UNK     0      -8.134  10.905   0.283  0.00  0.00     0.114 C 
BRANCH  34  35
HETATM   35  C   UNK     0      -9.532  11.162   0.735  0.00  0.00     0.139 C 
HETATM   36  O   UNK     0     -10.108  12.249   0.436  0.00  0.00    -0.650 OA
BRANCH  35  37
HETATM   37  O   UNK     0     -10.257  10.245   1.485  0.00  0.00    -0.776 OA
HETATM   38  H   UNK     0     -10.877  10.532   2.226  0.00  0.00     0.167 HD
ENDBRANCH  35  37
ENDBRANCH  34  35
ENDBRANCH  33  34
ENDBRANCH   6  33
BRANCH  27  39
HETATM   39  C   UNK     0      -1.864  15.560  -3.229  0.00  0.00     0.051 C 
BRANCH  39  40
HETATM   40  C   UNK     0      -0.476  15.984  -3.409  0.00  0.00     0.114 C 
BRANCH  40  41
HETATM   41  C   UNK     0      -0.120  17.357  -3.688  0.00  0.00     0.139 C 
HETATM   42  O   UNK     0      -0.344  17.915  -4.771  0.00  0.00    -0.650 OA
BRANCH  41  43
HETATM   43  O   UNK     0       0.524  18.124  -2.676  0.00  0.00    -0.776 OA
HETATM   44  H   UNK     0      -0.017  18.235  -1.827  0.00  0.00     0.167 HD
ENDBRANCH  41  43
ENDBRANCH  40  41
ENDBRANCH  39  40
ENDBRANCH  27  39
BRANCH  11  45
HETATM   45  C   UNK     0      -9.452  18.303   3.114  0.00  0.00     0.051 C 
BRANCH  45  46
HETATM   46  C   UNK     0     -10.814  18.597   2.599  0.00  0.00     0.114 C 
BRANCH  46  47
HETATM   47  C   UNK     0     -11.769  17.747   3.366  0.00  0.00     0.139 C 
HETATM   48  O   UNK     0     -12.230  16.734   2.820  0.00  0.00    -0.650 OA
BRANCH  47  49
HETATM   49  O   UNK     0     -12.132  18.077   4.647  0.00  0.00    -0.776 OA
HETATM   50  H   UNK     0     -13.052  17.834   5.033  0.00  0.00     0.167 HD
ENDBRANCH  47  49
ENDBRANCH  46  47
ENDBRANCH  45  46
ENDBRANCH  11  45
BRANCH  18  51
HETATM   51  C   UNK     0      -3.857  20.588  -0.383  0.00  0.00     0.051 C 
BRANCH  51  52
HETATM   52  C   UNK     0      -3.090  20.469   0.925  0.00  0.00     0.114 C 
BRANCH  52  53
HETATM   53  C   UNK     0      -2.112  21.562   1.091  0.00  0.00     0.139 C 
HETATM   54  O   UNK     0      -0.943  21.414   0.702  0.00  0.00    -0.650 OA
BRANCH  53  55
HETATM   55  O   UNK     0      -2.503  22.740   1.680  0.00  0.00    -0.776 OA
HETATM   56  H   UNK     0      -3.400  23.159   1.609  0.00  0.00     0.167 HD
ENDBRANCH  53  55
ENDBRANCH  52  53
ENDBRANCH  51  52
ENDBRANCH  18  51
TORSDOF 16
ENDMDL
MODEL 19
REMARK VINA RESULT:      -8.0     25.647     29.418
REMARK  16 active torsions:
REMARK  status: ('A' for Active; 'I' for Inactive)
REMARK    1  A    between atoms: C_6  and  C_7 
REMARK    2  A    between atoms: C_7  and  C_8 
REMARK    3  A    between atoms: C_8  and  C_9 
REMARK    4  A    between atoms: C_9  and  O_11 
REMARK    5  A    between atoms: C_16  and  C_17 
REMARK    6  A    between atoms: C_17  and  C_18 
REMARK    7  A    between atoms: C_18  and  C_19 
REMARK    8  A    between atoms: C_19  and  O_21 
REMARK    9  A    between atoms: C_28  and  C_29 
REMARK   10  A    between atoms: C_29  and  C_30 
REMARK   11  A    between atoms: C_30  and  C_31 
REMARK   12  A    between atoms: C_31  and  O_33 
REMARK   13  A    between atoms: C_42  and  C_43 
REMARK   14  A    between atoms: C_43  and  C_44 
REMARK   15  A    between atoms: C_44  and  C_45 
REMARK   16  A    between atoms: C_45  and  O_47 
ROOT
HETATM    1  C   UNK     0       8.388   4.746  -2.617  0.00  0.00     0.051 C 
HETATM    2  C   UNK     0       8.231   5.197  -1.179  0.00  0.00    -0.031 A 
HETATM    3  C   UNK     0       7.147   5.058  -0.326  0.00  0.00     0.021 A 
HETATM    4  N   UNK     0       7.441   5.641   0.860  0.00  0.00    -0.361 N 
HETATM    5  C   UNK     0       8.692   6.141   0.785  0.00  0.00     0.022 A 
HETATM    6  C   UNK     0       9.214   5.883  -0.478  0.00  0.00    -0.027 A 
HETATM    7  C   UNK     0       9.521   6.795   1.846  0.00  0.00     0.115 C 
HETATM    8  C   UNK     0       9.484   6.162   3.226  0.00  0.00     0.021 A 
HETATM    9  N   UNK     0       9.397   4.862   3.548  0.00  0.00    -0.361 N 
HETATM   10  C   UNK     0       9.302   4.767   4.891  0.00  0.00     0.022 A 
HETATM   11  C   UNK     0       9.339   6.041   5.451  0.00  0.00    -0.027 A 
HETATM   12  C   UNK     0       9.453   6.924   4.407  0.00  0.00    -0.031 A 
HETATM   13  C   UNK     0       9.534   8.429   4.540  0.00  0.00     0.051 C 
HETATM   14  C   UNK     0       9.121   3.482   5.694  0.00  0.00     0.115 C 
HETATM   15  C   UNK     0       7.845   2.725   5.364  0.00  0.00     0.021 A 
HETATM   16  N   UNK     0       7.464   2.240   4.167  0.00  0.00    -0.361 N 
HETATM   17  C   UNK     0       6.247   1.702   4.279  0.00  0.00     0.022 A 
HETATM   18  C   UNK     0       5.819   1.834   5.615  0.00  0.00    -0.027 A 
HETATM   19  C   UNK     0       6.829   2.475   6.284  0.00  0.00    -0.031 A 
HETATM   20  C   UNK     0       6.793   2.787   7.769  0.00  0.00     0.051 C 
HETATM   21  C   UNK     0       5.352   1.095   3.223  0.00  0.00     0.115 C 
HETATM   22  C   UNK     0       5.411   1.686   1.835  0.00  0.00     0.022 A 
HETATM   23  N   UNK     0       5.501   2.976   1.485  0.00  0.00    -0.361 N 
HETATM   24  C   UNK     0       5.673   3.042   0.149  0.00  0.00     0.021 A 
HETATM   25  C   UNK     0       5.683   1.763  -0.375  0.00  0.00    -0.031 A 
HETATM   26  C   UNK     0       5.806   1.327  -1.820  0.00  0.00     0.051 C 
HETATM   27  C   UNK     0       5.516   0.879   0.684  0.00  0.00    -0.027 A 
HETATM   28  C   UNK     0       5.916   4.279  -0.697  0.00  0.00     0.115 C 
HETATM   29  H   UNK     0       6.748   5.730   1.729  0.00  0.00     0.165 HD
HETATM   30  H   UNK     0       9.453   4.005   2.832  0.00  0.00     0.165 HD
HETATM   31  H   UNK     0       8.085   2.235   3.234  0.00  0.00     0.165 HD
HETATM   32  H   UNK     0       5.401   3.855   2.173  0.00  0.00     0.165 HD
ENDROOT
BRANCH   6  33
HETATM   33  C   UNK     0      10.558   6.237  -1.062  0.00  0.00     0.051 C 
BRANCH  33  34
HETATM   34  C   UNK     0      10.527   7.613  -1.683  0.00  0.00     0.114 C 
BRANCH  34  35
HETATM   35  C   UNK     0      11.936   8.091  -1.783  0.00  0.00     0.139 C 
HETATM   36  O   UNK     0      12.856   7.495  -1.151  0.00  0.00    -0.650 OA
BRANCH  35  37
HETATM   37  O   UNK     0      12.303   9.185  -2.556  0.00  0.00    -0.776 OA
HETATM   38  H   UNK     0      12.992   9.115  -3.288  0.00  0.00     0.167 HD
ENDBRANCH  35  37
ENDBRANCH  34  35
ENDBRANCH  33  34
ENDBRANCH   6  33
BRANCH  27  39
HETATM   39  C   UNK     0       5.404  -0.594   0.500  0.00  0.00     0.051 C 
BRANCH  39  40
HETATM   40  C   UNK     0       6.611  -1.406   0.652  0.00  0.00     0.114 C 
BRANCH  40  41
HETATM   41  C   UNK     0       7.022  -1.945   1.929  0.00  0.00     0.139 C 
HETATM   42  O   UNK     0       8.205  -2.033   2.286  0.00  0.00    -0.650 OA
BRANCH  41  43
HETATM   43  O   UNK     0       6.026  -2.404   2.838  0.00  0.00    -0.776 OA
HETATM   44  H   UNK     0       6.210  -2.181   3.809  0.00  0.00     0.167 HD
ENDBRANCH  41  43
ENDBRANCH  40  41
ENDBRANCH  39  40
ENDBRANCH  27  39
BRANCH  11  45
HETATM   45  C   UNK     0       9.272   6.434   6.902  0.00  0.00     0.051 C 
BRANCH  45  46
HETATM   46  C   UNK     0      10.586   6.415   7.596  0.00  0.00     0.114 C 
BRANCH  46  47
HETATM   47  C   UNK     0      10.719   7.709   8.325  0.00  0.00     0.139 C 
HETATM   48  O   UNK     0       9.942   8.631   8.041  0.00  0.00    -0.650 OA
BRANCH  47  49
HETATM   49  O   UNK     0      11.681   7.876   9.288  0.00  0.00    -0.776 OA
HETATM   50  H   UNK     0      12.206   7.085   9.679  0.00  0.00     0.167 HD
ENDBRANCH  47  49
ENDBRANCH  46  47
ENDBRANCH  45  46
ENDBRANCH  11  45
BRANCH  18  51
HETATM   51  C   UNK     0       4.527   1.357   6.226  0.00  0.00     0.051 C 
BRANCH  51  52
HETATM   52  C   UNK     0       4.818  -0.013   6.821  0.00  0.00     0.114 C 
BRANCH  52  53
HETATM   53  C   UNK     0       4.528  -1.100   5.867  0.00  0.00     0.139 C 
HETATM   54  O   UNK     0       5.393  -1.956   5.618  0.00  0.00    -0.650 OA
BRANCH  53  55
HETATM   55  O   UNK     0       3.300  -1.157   5.254  0.00  0.00    -0.776 OA
HETATM   56  H   UNK     0       2.479  -1.569   5.630  0.00  0.00     0.167 HD
ENDBRANCH  53  55
ENDBRANCH  52  53
ENDBRANCH  51  52
ENDBRANCH  18  51
TORSDOF 16
ENDMDL
MODEL 20
REMARK VINA RESULT:      -7.9     25.702     27.588
REMARK  16 active torsions:
REMARK  status: ('A' for Active; 'I' for Inactive)
REMARK    1  A    between atoms: C_6  and  C_7 
REMARK    2  A    between atoms: C_7  and  C_8 
REMARK    3  A    between atoms: C_8  and  C_9 
REMARK    4  A    between atoms: C_9  and  O_11 
REMARK    5  A    between atoms: C_16  and  C_17 
REMARK    6  A    between atoms: C_17  and  C_18 
REMARK    7  A    between atoms: C_18  and  C_19 
REMARK    8  A    between atoms: C_19  and  O_21 
REMARK    9  A    between atoms: C_28  and  C_29 
REMARK   10  A    between atoms: C_29  and  C_30 
REMARK   11  A    between atoms: C_30  and  C_31 
REMARK   12  A    between atoms: C_31  and  O_33 
REMARK   13  A    between atoms: C_42  and  C_43 
REMARK   14  A    between atoms: C_43  and  C_44 
REMARK   15  A    between atoms: C_44  and  C_45 
REMARK   16  A    between atoms: C_45  and  O_47 
ROOT
HETATM    1  C   UNK     0      -8.464  22.761   0.949  0.00  0.00     0.051 C 
HETATM    2  C   UNK     0      -8.496  21.264   0.719  0.00  0.00    -0.031 A 
HETATM    3  C   UNK     0      -7.694  20.483  -0.099  0.00  0.00     0.021 A 
HETATM    4  N   UNK     0      -8.102  19.194  -0.015  0.00  0.00    -0.361 N 
HETATM    5  C   UNK     0      -9.141  19.136   0.844  0.00  0.00     0.022 A 
HETATM    6  C   UNK     0      -9.415  20.414   1.320  0.00  0.00    -0.027 A 
HETATM    7  C   UNK     0      -9.889  17.944   1.354  0.00  0.00     0.115 C 
HETATM    8  C   UNK     0      -9.059  16.730   1.733  0.00  0.00     0.021 A 
HETATM    9  N   UNK     0      -7.840  16.692   2.294  0.00  0.00    -0.361 N 
HETATM   10  C   UNK     0      -7.452  15.401   2.366  0.00  0.00     0.022 A 
HETATM   11  C   UNK     0      -8.452  14.584   1.846  0.00  0.00    -0.027 A 
HETATM   12  C   UNK     0      -9.468  15.415   1.446  0.00  0.00    -0.031 A 
HETATM   13  C   UNK     0     -10.770  14.966   0.822  0.00  0.00     0.051 C 
HETATM   14  C   UNK     0      -6.107  14.891   2.876  0.00  0.00     0.115 C 
HETATM   15  C   UNK     0      -4.915  15.400   2.082  0.00  0.00     0.021 A 
HETATM   16  N   UNK     0      -4.551  16.679   1.875  0.00  0.00    -0.361 N 
HETATM   17  C   UNK     0      -3.489  16.708   1.067  0.00  0.00     0.022 A 
HETATM   18  C   UNK     0      -3.138  15.384   0.739  0.00  0.00    -0.027 A 
HETATM   19  C   UNK     0      -4.037  14.574   1.382  0.00  0.00    -0.031 A 
HETATM   20  C   UNK     0      -3.998  13.058   1.327  0.00  0.00     0.051 C 
HETATM   21  C   UNK     0      -2.748  17.887   0.478  0.00  0.00     0.115 C 
HETATM   22  C   UNK     0      -3.554  19.118   0.136  0.00  0.00     0.022 A 
HETATM   23  N   UNK     0      -4.771  19.186  -0.418  0.00  0.00    -0.361 N 
HETATM   24  C   UNK     0      -5.170  20.474  -0.408  0.00  0.00     0.021 A 
HETATM   25  C   UNK     0      -4.181  21.256   0.157  0.00  0.00    -0.031 A 
HETATM   26  C   UNK     0      -4.148  22.758   0.350  0.00  0.00     0.051 C 
HETATM   27  C   UNK     0      -3.137  20.411   0.513  0.00  0.00    -0.027 A 
HETATM   28  C   UNK     0      -6.513  21.034  -0.845  0.00  0.00     0.115 C 
HETATM   29  H   UNK     0      -7.679  18.341  -0.594  0.00  0.00     0.165 HD
HETATM   30  H   UNK     0      -7.272  17.571   2.685  0.00  0.00     0.165 HD
HETATM   31  H   UNK     0      -5.024  17.580   2.346  0.00  0.00     0.165 HD
HETATM   32  H   UNK     0      -5.343  18.329  -0.861  0.00  0.00     0.165 HD
ENDROOT
BRANCH   6  33
HETATM   33  C   UNK     0     -10.472  20.883   2.287  0.00  0.00     0.051 C 
BRANCH  33  34
HETATM   34  C   UNK     0     -11.775  21.145   1.570  0.00  0.00     0.114 C 
BRANCH  34  35
HETATM   35  C   UNK     0     -12.869  20.581   2.412  0.00  0.00     0.139 C 
HETATM   36  O   UNK     0     -13.990  21.165   2.475  0.00  0.00    -0.650 OA
BRANCH  35  37
HETATM   37  O   UNK     0     -12.720  19.414   3.151  0.00  0.00    -0.776 OA
HETATM   38  H   UNK     0     -11.827  19.120   3.511  0.00  0.00     0.167 HD
ENDBRANCH  35  37
ENDBRANCH  34  35
ENDBRANCH  33  34
ENDBRANCH   6  33
BRANCH  27  39
HETATM   39  C   UNK     0      -1.856  20.903   1.090  0.00  0.00     0.051 C 
BRANCH  39  40
HETATM   40  C   UNK     0      -0.785  21.291   0.173  0.00  0.00     0.114 C 
BRANCH  40  41
HETATM   41  C   UNK     0       0.312  20.406  -0.148  0.00  0.00     0.139 C 
HETATM   42  O   UNK     0       0.213  19.449  -0.927  0.00  0.00    -0.650 OA
BRANCH  41  43
HETATM   43  O   UNK     0       1.582  20.633   0.455  0.00  0.00    -0.776 OA
HETATM   44  H   UNK     0       1.550  21.185   1.304  0.00  0.00     0.167 HD
ENDBRANCH  41  43
ENDBRANCH  40  41
ENDBRANCH  39  40
ENDBRANCH  27  39
BRANCH  11  45
HETATM   45  C   UNK     0      -8.475  13.084   1.724  0.00  0.00     0.051 C 
BRANCH  45  46
HETATM   46  C   UNK     0      -7.831  12.567   0.489  0.00  0.00     0.114 C 
BRANCH  46  47
HETATM   47  C   UNK     0      -8.040  11.091   0.467  0.00  0.00     0.139 C 
HETATM   48  O   UNK     0      -7.929  10.493  -0.612  0.00  0.00    -0.650 OA
BRANCH  47  49
HETATM   49  O   UNK     0      -8.350  10.408   1.616  0.00  0.00    -0.776 OA
HETATM   50  H   UNK     0      -8.314   9.383   1.667  0.00  0.00     0.167 HD
ENDBRANCH  47  49
ENDBRANCH  46  47
ENDBRANCH  45  46
ENDBRANCH  11  45
BRANCH  18  51
HETATM   51  C   UNK     0      -1.994  14.915  -0.122  0.00  0.00     0.051 C 
BRANCH  51  52
HETATM   52  C   UNK     0      -2.540  14.813  -1.538  0.00  0.00     0.114 C 
BRANCH  52  53
HETATM   53  C   UNK     0      -1.609  15.384  -2.529  0.00  0.00     0.139 C 
HETATM   54  O   UNK     0      -1.259  16.572  -2.441  0.00  0.00    -0.650 OA
BRANCH  53  55
HETATM   55  O   UNK     0      -1.135  14.596  -3.550  0.00  0.00    -0.776 OA
HETATM   56  H   UNK     0      -1.063  13.606  -3.538  0.00  0.00     0.167 HD
ENDBRANCH  53  55
ENDBRANCH  52  53
ENDBRANCH  51  52
ENDBRANCH  18  51
TORSDOF 16
ENDMDL
