MODEL 1
REMARK VINA RESULT:      -9.7      0.000      0.000
REMARK  16 active torsions:
REMARK  status: ('A' for Active; 'I' for Inactive)
REMARK    1  A    between atoms: C_6  and  C_7 
REMARK    2  A    between atoms: C_7  and  C_8 
REMARK    3  A    between atoms: C_8  and  C_9 
REMARK    4  A    between atoms: C_9  and  O_11 
REMARK    5  A    between atoms: C_16  and  C_17 
REMARK    6  A    between atoms: C_17  and  C_18 
REMARK    7  A    between atoms: C_18  and  C_19 
REMARK    8  A    between atoms: C_19  and  O_21 
REMARK    9  A    between atoms: C_28  and  C_29 
REMARK   10  A    between atoms: C_29  and  C_30 
REMARK   11  A    between atoms: C_30  and  C_31 
REMARK   12  A    between atoms: C_31  and  O_33 
REMARK   13  A    between atoms: C_42  and  C_43 
REMARK   14  A    between atoms: C_43  and  C_44 
REMARK   15  A    between atoms: C_44  and  C_45 
REMARK   16  A    between atoms: C_45  and  O_47 
ROOT
HETATM    1  C   UNK     0     -20.895 -17.717 -14.869  0.00  0.00     0.051 C 
HETATM    2  C   UNK     0     -20.981 -16.205 -14.895  0.00  0.00    -0.031 A 
HETATM    3  C   UNK     0     -21.029 -15.308 -13.839  0.00  0.00     0.021 A 
HETATM    4  N   UNK     0     -21.134 -14.051 -14.332  0.00  0.00    -0.361 N 
HETATM    5  C   UNK     0     -21.145 -14.127 -15.679  0.00  0.00     0.022 A 
HETATM    6  C   UNK     0     -21.054 -15.460 -16.065  0.00  0.00    -0.027 A 
HETATM    7  C   UNK     0     -21.152 -13.027 -16.694  0.00  0.00     0.115 C 
HETATM    8  C   UNK     0     -20.239 -11.844 -16.423  0.00  0.00     0.021 A 
HETATM    9  N   UNK     0     -19.025 -11.838 -15.853  0.00  0.00    -0.361 N 
HETATM   10  C   UNK     0     -18.625 -10.554 -15.730  0.00  0.00     0.022 A 
HETATM   11  C   UNK     0     -19.605  -9.711 -16.244  0.00  0.00    -0.027 A 
HETATM   12  C   UNK     0     -20.625 -10.516 -16.682  0.00  0.00    -0.031 A 
HETATM   13  C   UNK     0     -21.906 -10.033 -17.324  0.00  0.00     0.051 C 
HETATM   14  C   UNK     0     -17.332 -10.071 -15.078  0.00  0.00     0.115 C 
HETATM   15  C   UNK     0     -17.205 -10.446 -13.611  0.00  0.00     0.021 A 
HETATM   16  N   UNK     0     -17.222 -11.681 -13.074  0.00  0.00    -0.361 N 
HETATM   17  C   UNK     0     -17.155 -11.582 -11.744  0.00  0.00     0.022 A 
HETATM   18  C   UNK     0     -17.080 -10.218 -11.399  0.00  0.00    -0.027 A 
HETATM   19  C   UNK     0     -17.111  -9.517 -12.577  0.00  0.00    -0.031 A 
HETATM   20  C   UNK     0     -17.016  -8.005 -12.662  0.00  0.00     0.051 C 
HETATM   21  C   UNK     0     -17.212 -12.659 -10.685  0.00  0.00     0.115 C 
HETATM   22  C   UNK     0     -18.081 -13.863 -10.962  0.00  0.00     0.022 A 
HETATM   23  N   UNK     0     -19.293 -13.899 -11.531  0.00  0.00    -0.361 N 
HETATM   24  C   UNK     0     -19.637 -15.189 -11.714  0.00  0.00     0.021 A 
HETATM   25  C   UNK     0     -18.627 -16.005 -11.241  0.00  0.00    -0.031 A 
HETATM   26  C   UNK     0     -18.568 -17.518 -11.190  0.00  0.00     0.051 C 
HETATM   27  C   UNK     0     -17.620 -15.179 -10.754  0.00  0.00    -0.027 A 
HETATM   28  C   UNK     0     -20.876 -15.732 -12.406  0.00  0.00     0.115 C 
HETATM   29  H   UNK     0     -21.239 -13.123 -13.724  0.00  0.00     0.165 HD
HETATM   30  H   UNK     0     -18.425 -12.741 -15.581  0.00  0.00     0.165 HD
HETATM   31  H   UNK     0     -17.235 -12.644 -13.647  0.00  0.00     0.165 HD
HETATM   32  H   UNK     0     -19.936 -13.012 -11.771  0.00  0.00     0.165 HD
ENDROOT
BRANCH   6  33
HETATM   33  C   UNK     0     -21.033 -16.072 -17.443  0.00  0.00     0.051 C 
BRANCH  33  34
HETATM   34  C   UNK     0     -19.663 -15.944 -18.065  0.00  0.00     0.114 C 
BRANCH  34  35
HETATM   35  C   UNK     0     -19.838 -15.315 -19.405  0.00  0.00     0.139 C 
HETATM   36  O   UNK     0     -20.172 -16.020 -20.401  0.00  0.00    -0.650 OA
BRANCH  35  37
HETATM   37  O   UNK     0     -19.651 -13.956 -19.625  0.00  0.00    -0.776 OA
HETATM   38  H   UNK     0     -18.753 -13.514 -19.506  0.00  0.00     0.167 HD
ENDBRANCH  35  37
ENDBRANCH  34  35
ENDBRANCH  33  34
ENDBRANCH   6  33
BRANCH  27  39
HETATM   39  C   UNK     0     -16.392 -15.700 -10.095  0.00  0.00     0.051 C 
BRANCH  39  40
HETATM   40  C   UNK     0     -16.425 -15.935  -8.652  0.00  0.00     0.114 C 
BRANCH  40  41
HETATM   41  C   UNK     0     -16.742 -14.887  -7.708  0.00  0.00     0.139 C 
HETATM   42  O   UNK     0     -16.032 -13.888  -7.532  0.00  0.00    -0.650 OA
BRANCH  41  43
HETATM   43  O   UNK     0     -17.930 -14.993  -6.931  0.00  0.00    -0.776 OA
HETATM   44  H   UNK     0     -18.311 -15.930  -6.873  0.00  0.00     0.167 HD
ENDBRANCH  41  43
ENDBRANCH  40  41
ENDBRANCH  39  40
ENDBRANCH  27  39
BRANCH  11  45
HETATM   45  C   UNK     0     -19.603  -8.208 -16.332  0.00  0.00     0.051 C 
BRANCH  45  46
HETATM   46  C   UNK     0     -19.751  -7.524 -15.022  0.00  0.00     0.114 C 
BRANCH  46  47
HETATM   47  C   UNK     0     -21.152  -7.747 -14.564  0.00  0.00     0.139 C 
HETATM   48  O   UNK     0     -22.080  -7.333 -15.274  0.00  0.00    -0.650 OA
BRANCH  47  49
HETATM   49  O   UNK     0     -21.411  -8.394 -13.382  0.00  0.00    -0.776 OA
HETATM   50  H   UNK     0     -21.261  -7.944 -12.471  0.00  0.00     0.167 HD
ENDBRANCH  47  49
ENDBRANCH  46  47
ENDBRANCH  45  46
ENDBRANCH  11  45
BRANCH  18  51
HETATM   51  C   UNK     0     -16.964  -9.616 -10.022  0.00  0.00     0.051 C 
BRANCH  51  52
HETATM   52  C   UNK     0     -15.484  -9.646  -9.668  0.00  0.00     0.114 C 
BRANCH  52  53
HETATM   53  C   UNK     0     -15.270  -9.826  -8.219  0.00  0.00     0.139 C 
HETATM   54  O   UNK     0     -15.109  -8.837  -7.487  0.00  0.00    -0.650 OA
BRANCH  53  55
HETATM   55  O   UNK     0     -15.247 -11.093  -7.688  0.00  0.00    -0.776 OA
HETATM   56  H   UNK     0     -15.094 -11.323  -6.734  0.00  0.00     0.167 HD
ENDBRANCH  53  55
ENDBRANCH  52  53
ENDBRANCH  51  52
ENDBRANCH  18  51
TORSDOF 16
ENDMDL
MODEL 2
REMARK VINA RESULT:      -9.6      1.960      6.854
REMARK  16 active torsions:
REMARK  status: ('A' for Active; 'I' for Inactive)
REMARK    1  A    between atoms: C_6  and  C_7 
REMARK    2  A    between atoms: C_7  and  C_8 
REMARK    3  A    between atoms: C_8  and  C_9 
REMARK    4  A    between atoms: C_9  and  O_11 
REMARK    5  A    between atoms: C_16  and  C_17 
REMARK    6  A    between atoms: C_17  and  C_18 
REMARK    7  A    between atoms: C_18  and  C_19 
REMARK    8  A    between atoms: C_19  and  O_21 
REMARK    9  A    between atoms: C_28  and  C_29 
REMARK   10  A    between atoms: C_29  and  C_30 
REMARK   11  A    between atoms: C_30  and  C_31 
REMARK   12  A    between atoms: C_31  and  O_33 
REMARK   13  A    between atoms: C_42  and  C_43 
REMARK   14  A    between atoms: C_43  and  C_44 
REMARK   15  A    between atoms: C_44  and  C_45 
REMARK   16  A    between atoms: C_45  and  O_47 
ROOT
HETATM    1  C   UNK     0     -19.049  -8.589 -16.827  0.00  0.00     0.051 C 
HETATM    2  C   UNK     0     -19.068 -10.076 -16.539  0.00  0.00    -0.031 A 
HETATM    3  C   UNK     0     -18.115 -10.864 -15.913  0.00  0.00     0.021 A 
HETATM    4  N   UNK     0     -18.542 -12.149 -15.902  0.00  0.00    -0.361 N 
HETATM    5  C   UNK     0     -19.751 -12.196 -16.498  0.00  0.00     0.022 A 
HETATM    6  C   UNK     0     -20.109 -10.917 -16.911  0.00  0.00    -0.027 A 
HETATM    7  C   UNK     0     -20.689 -13.351 -16.660  0.00  0.00     0.115 C 
HETATM    8  C   UNK     0     -20.862 -14.262 -15.456  0.00  0.00     0.021 A 
HETATM    9  N   UNK     0     -20.870 -13.934 -14.155  0.00  0.00    -0.361 N 
HETATM   10  C   UNK     0     -20.960 -15.074 -13.437  0.00  0.00     0.022 A 
HETATM   11  C   UNK     0     -21.021 -16.164 -14.300  0.00  0.00    -0.027 A 
HETATM   12  C   UNK     0     -20.960 -15.660 -15.574  0.00  0.00    -0.031 A 
HETATM   13  C   UNK     0     -20.999 -16.482 -16.842  0.00  0.00     0.051 C 
HETATM   14  C   UNK     0     -20.938 -15.185 -11.915  0.00  0.00     0.115 C 
HETATM   15  C   UNK     0     -19.660 -14.663 -11.278  0.00  0.00     0.021 A 
HETATM   16  N   UNK     0     -19.141 -13.425 -11.372  0.00  0.00    -0.361 N 
HETATM   17  C   UNK     0     -17.972 -13.389 -10.728  0.00  0.00     0.022 A 
HETATM   18  C   UNK     0     -17.722 -14.663 -10.180  0.00  0.00    -0.027 A 
HETATM   19  C   UNK     0     -18.787 -15.451 -10.530  0.00  0.00    -0.031 A 
HETATM   20  C   UNK     0     -18.938 -16.902 -10.109  0.00  0.00     0.051 C 
HETATM   21  C   UNK     0     -16.968 -12.266 -10.598  0.00  0.00     0.115 C 
HETATM   22  C   UNK     0     -16.817 -11.326 -11.771  0.00  0.00     0.022 A 
HETATM   23  N   UNK     0     -16.809 -11.624 -13.077  0.00  0.00    -0.361 N 
HETATM   24  C   UNK     0     -16.798 -10.469 -13.774  0.00  0.00     0.021 A 
HETATM   25  C   UNK     0     -16.788  -9.403 -12.895  0.00  0.00    -0.031 A 
HETATM   26  C   UNK     0     -16.733  -7.920 -13.197  0.00  0.00     0.051 C 
HETATM   27  C   UNK     0     -16.799  -9.926 -11.607  0.00  0.00    -0.027 A 
HETATM   28  C   UNK     0     -16.877 -10.293 -15.280  0.00  0.00     0.115 C 
HETATM   29  H   UNK     0     -17.969 -13.020 -15.508  0.00  0.00     0.165 HD
HETATM   30  H   UNK     0     -20.863 -12.897 -13.741  0.00  0.00     0.165 HD
HETATM   31  H   UNK     0     -19.631 -12.544 -11.863  0.00  0.00     0.165 HD
HETATM   32  H   UNK     0     -16.768 -12.653 -13.520  0.00  0.00     0.165 HD
ENDROOT
BRANCH   6  33
HETATM   33  C   UNK     0     -21.348 -10.440 -17.626  0.00  0.00     0.051 C 
BRANCH  33  34
HETATM   34  C   UNK     0     -22.572 -10.631 -16.761  0.00  0.00     0.114 C 
BRANCH  34  35
HETATM   35  C   UNK     0     -22.561  -9.555 -15.729  0.00  0.00     0.139 C 
HETATM   36  O   UNK     0     -22.519  -9.852 -14.500  0.00  0.00    -0.650 OA
BRANCH  35  37
HETATM   37  O   UNK     0     -22.595  -8.204 -16.054  0.00  0.00    -0.776 OA
HETATM   38  H   UNK     0     -23.446  -7.741 -16.330  0.00  0.00     0.167 HD
ENDBRANCH  35  37
ENDBRANCH  34  35
ENDBRANCH  33  34
ENDBRANCH   6  33
BRANCH  27  39
HETATM   39  C   UNK     0     -16.721  -9.078 -10.387  0.00  0.00     0.051 C 
BRANCH  39  40
HETATM   40  C   UNK     0     -15.425  -8.931  -9.726  0.00  0.00     0.114 C 
BRANCH  40  41
HETATM   41  C   UNK     0     -14.399  -8.046 -10.231  0.00  0.00     0.139 C 
HETATM   42  O   UNK     0     -14.525  -6.816 -10.290  0.00  0.00    -0.650 OA
BRANCH  41  43
HETATM   43  O   UNK     0     -13.170  -8.603 -10.689  0.00  0.00    -0.776 OA
HETATM   44  H   UNK     0     -12.788  -9.323 -10.088  0.00  0.00     0.167 HD
ENDBRANCH  41  43
ENDBRANCH  40  41
ENDBRANCH  39  40
ENDBRANCH  27  39
BRANCH  11  45
HETATM   45  C   UNK     0     -21.134 -17.627 -13.963  0.00  0.00     0.051 C 
BRANCH  45  46
HETATM   46  C   UNK     0     -19.917 -18.200 -13.334  0.00  0.00     0.114 C 
BRANCH  46  47
HETATM   47  C   UNK     0     -19.739 -19.573 -13.888  0.00  0.00     0.139 C 
HETATM   48  O   UNK     0     -20.262 -19.844 -14.978  0.00  0.00    -0.650 OA
BRANCH  47  49
HETATM   49  O   UNK     0     -19.013 -20.517 -13.207  0.00  0.00    -0.776 OA
HETATM   50  H   UNK     0     -19.364 -20.959 -12.349  0.00  0.00     0.167 HD
ENDBRANCH  47  49
ENDBRANCH  46  47
ENDBRANCH  45  46
ENDBRANCH  11  45
BRANCH  18  51
HETATM   51  C   UNK     0     -16.543 -15.098  -9.349  0.00  0.00     0.051 C 
BRANCH  51  52
HETATM   52  C   UNK     0     -17.059 -15.256  -7.926  0.00  0.00     0.114 C 
BRANCH  52  53
HETATM   53  C   UNK     0     -17.191 -13.956  -7.242  0.00  0.00     0.139 C 
HETATM   54  O   UNK     0     -16.285 -13.112  -7.330  0.00  0.00    -0.650 OA
BRANCH  53  55
HETATM   55  O   UNK     0     -18.319 -13.687  -6.505  0.00  0.00    -0.776 OA
HETATM   56  H   UNK     0     -18.406 -12.989  -5.804  0.00  0.00     0.167 HD
ENDBRANCH  53  55
ENDBRANCH  52  53
ENDBRANCH  51  52
ENDBRANCH  18  51
TORSDOF 16
ENDMDL
MODEL 3
REMARK VINA RESULT:      -9.5      1.747      2.097
REMARK  16 active torsions:
REMARK  status: ('A' for Active; 'I' for Inactive)
REMARK    1  A    between atoms: C_6  and  C_7 
REMARK    2  A    between atoms: C_7  and  C_8 
REMARK    3  A    between atoms: C_8  and  C_9 
REMARK    4  A    between atoms: C_9  and  O_11 
REMARK    5  A    between atoms: C_16  and  C_17 
REMARK    6  A    between atoms: C_17  and  C_18 
REMARK    7  A    between atoms: C_18  and  C_19 
REMARK    8  A    between atoms: C_19  and  O_21 
REMARK    9  A    between atoms: C_28  and  C_29 
REMARK   10  A    between atoms: C_29  and  C_30 
REMARK   11  A    between atoms: C_30  and  C_31 
REMARK   12  A    between atoms: C_31  and  O_33 
REMARK   13  A    between atoms: C_42  and  C_43 
REMARK   14  A    between atoms: C_43  and  C_44 
REMARK   15  A    between atoms: C_44  and  C_45 
REMARK   16  A    between atoms: C_45  and  O_47 
ROOT
HETATM    1  C   UNK     0     -20.968 -17.764 -14.676  0.00  0.00     0.051 C 
HETATM    2  C   UNK     0     -20.947 -16.264 -14.893  0.00  0.00    -0.031 A 
HETATM    3  C   UNK     0     -20.981 -15.240 -13.960  0.00  0.00     0.021 A 
HETATM    4  N   UNK     0     -20.976 -14.052 -14.609  0.00  0.00    -0.361 N 
HETATM    5  C   UNK     0     -20.931 -14.296 -15.935  0.00  0.00     0.022 A 
HETATM    6  C   UNK     0     -20.915 -15.670 -16.148  0.00  0.00    -0.027 A 
HETATM    7  C   UNK     0     -20.816 -13.335 -17.076  0.00  0.00     0.115 C 
HETATM    8  C   UNK     0     -19.837 -12.187 -16.904  0.00  0.00     0.021 A 
HETATM    9  N   UNK     0     -18.652 -12.186 -16.274  0.00  0.00    -0.361 N 
HETATM   10  C   UNK     0     -18.170 -10.925 -16.289  0.00  0.00     0.022 A 
HETATM   11  C   UNK     0     -19.065 -10.092 -16.955  0.00  0.00    -0.027 A 
HETATM   12  C   UNK     0     -20.117 -10.881 -17.345  0.00  0.00    -0.031 A 
HETATM   13  C   UNK     0     -21.331 -10.403 -18.110  0.00  0.00     0.051 C 
HETATM   14  C   UNK     0     -16.878 -10.445 -15.633  0.00  0.00     0.115 C 
HETATM   15  C   UNK     0     -16.844 -10.639 -14.126  0.00  0.00     0.021 A 
HETATM   16  N   UNK     0     -16.971 -11.792 -13.443  0.00  0.00    -0.361 N 
HETATM   17  C   UNK     0     -16.957 -11.530 -12.134  0.00  0.00     0.022 A 
HETATM   18  C   UNK     0     -16.804 -10.141 -11.956  0.00  0.00    -0.027 A 
HETATM   19  C   UNK     0     -16.733  -9.594 -13.211  0.00  0.00    -0.031 A 
HETATM   20  C   UNK     0     -16.530  -8.114 -13.476  0.00  0.00     0.051 C 
HETATM   21  C   UNK     0     -17.137 -12.460 -10.955  0.00  0.00     0.115 C 
HETATM   22  C   UNK     0     -18.075 -13.632 -11.127  0.00  0.00     0.022 A 
HETATM   23  N   UNK     0     -19.259 -13.662 -11.753  0.00  0.00    -0.361 N 
HETATM   24  C   UNK     0     -19.683 -14.942 -11.794  0.00  0.00     0.021 A 
HETATM   25  C   UNK     0     -18.754 -15.753 -11.170  0.00  0.00    -0.031 A 
HETATM   26  C   UNK     0     -18.803 -17.247 -10.930  0.00  0.00     0.051 C 
HETATM   27  C   UNK     0     -17.716 -14.937 -10.735  0.00  0.00    -0.027 A 
HETATM   28  C   UNK     0     -20.923 -15.488 -12.479  0.00  0.00     0.115 C 
HETATM   29  H   UNK     0     -21.045 -13.049 -14.127  0.00  0.00     0.165 HD
HETATM   30  H   UNK     0     -18.129 -13.083 -15.862  0.00  0.00     0.165 HD
HETATM   31  H   UNK     0     -17.024 -12.818 -13.892  0.00  0.00     0.165 HD
HETATM   32  H   UNK     0     -19.827 -12.774 -12.134  0.00  0.00     0.165 HD
ENDROOT
BRANCH   6  33
HETATM   33  C   UNK     0     -20.874 -16.451 -17.437  0.00  0.00     0.051 C 
BRANCH  33  34
HETATM   34  C   UNK     0     -19.515 -16.343 -18.085  0.00  0.00     0.114 C 
BRANCH  34  35
HETATM   35  C   UNK     0     -19.723 -16.347 -19.562  0.00  0.00     0.139 C 
HETATM   36  O   UNK     0     -20.096 -15.293 -20.155  0.00  0.00    -0.650 OA
BRANCH  35  37
HETATM   37  O   UNK     0     -19.520 -17.477 -20.344  0.00  0.00    -0.776 OA
HETATM   38  H   UNK     0     -18.956 -17.456 -21.179  0.00  0.00     0.167 HD
ENDBRANCH  35  37
ENDBRANCH  34  35
ENDBRANCH  33  34
ENDBRANCH   6  33
BRANCH  27  39
HETATM   39  C   UNK     0     -16.558 -15.447  -9.952  0.00  0.00     0.051 C 
BRANCH  39  40
HETATM   40  C   UNK     0     -16.643 -15.423  -8.492  0.00  0.00     0.114 C 
BRANCH  40  41
HETATM   41  C   UNK     0     -16.939 -14.213  -7.757  0.00  0.00     0.139 C 
HETATM   42  O   UNK     0     -16.111 -13.313  -7.562  0.00  0.00    -0.650 OA
BRANCH  41  43
HETATM   43  O   UNK     0     -18.246 -14.031  -7.223  0.00  0.00    -0.776 OA
HETATM   44  H   UNK     0     -18.972 -14.543  -7.710  0.00  0.00     0.167 HD
ENDBRANCH  41  43
ENDBRANCH  40  41
ENDBRANCH  39  40
ENDBRANCH  27  39
BRANCH  11  45
HETATM   45  C   UNK     0     -18.954  -8.616 -17.228  0.00  0.00     0.051 C 
BRANCH  45  46
HETATM   46  C   UNK     0     -17.771  -8.237 -18.041  0.00  0.00     0.114 C 
BRANCH  46  47
HETATM   47  C   UNK     0     -18.218  -8.155 -19.461  0.00  0.00     0.139 C 
HETATM   48  O   UNK     0     -18.420  -9.209 -20.080  0.00  0.00    -0.650 OA
BRANCH  47  49
HETATM   49  O   UNK     0     -18.402  -6.940 -20.071  0.00  0.00    -0.776 OA
HETATM   50  H   UNK     0     -18.258  -6.808 -21.079  0.00  0.00     0.167 HD
ENDBRANCH  47  49
ENDBRANCH  46  47
ENDBRANCH  45  46
ENDBRANCH  11  45
BRANCH  18  51
HETATM   51  C   UNK     0     -16.709  -9.379 -10.660  0.00  0.00     0.051 C 
BRANCH  51  52
HETATM   52  C   UNK     0     -15.275  -9.535 -10.177  0.00  0.00     0.114 C 
BRANCH  52  53
HETATM   53  C   UNK     0     -14.468  -8.331 -10.453  0.00  0.00     0.139 C 
HETATM   54  O   UNK     0     -14.998  -7.208 -10.428  0.00  0.00    -0.650 OA
BRANCH  53  55
HETATM   55  O   UNK     0     -13.131  -8.460 -10.740  0.00  0.00    -0.776 OA
HETATM   56  H   UNK     0     -12.572  -9.263 -10.572  0.00  0.00     0.167 HD
ENDBRANCH  53  55
ENDBRANCH  52  53
ENDBRANCH  51  52
ENDBRANCH  18  51
TORSDOF 16
ENDMDL
MODEL 4
REMARK VINA RESULT:      -9.4      4.541      6.880
REMARK  16 active torsions:
REMARK  status: ('A' for Active; 'I' for Inactive)
REMARK    1  A    between atoms: C_6  and  C_7 
REMARK    2  A    between atoms: C_7  and  C_8 
REMARK    3  A    between atoms: C_8  and  C_9 
REMARK    4  A    between atoms: C_9  and  O_11 
REMARK    5  A    between atoms: C_16  and  C_17 
REMARK    6  A    between atoms: C_17  and  C_18 
REMARK    7  A    between atoms: C_18  and  C_19 
REMARK    8  A    between atoms: C_19  and  O_21 
REMARK    9  A    between atoms: C_28  and  C_29 
REMARK   10  A    between atoms: C_29  and  C_30 
REMARK   11  A    between atoms: C_30  and  C_31 
REMARK   12  A    between atoms: C_31  and  O_33 
REMARK   13  A    between atoms: C_42  and  C_43 
REMARK   14  A    between atoms: C_43  and  C_44 
REMARK   15  A    between atoms: C_44  and  C_45 
REMARK   16  A    between atoms: C_45  and  O_47 
ROOT
HETATM    1  C   UNK     0     -19.825 -13.196 -15.275  0.00  0.00     0.051 C 
HETATM    2  C   UNK     0     -19.973 -11.969 -16.152  0.00  0.00    -0.031 A 
HETATM    3  C   UNK     0     -20.169 -10.646 -15.788  0.00  0.00     0.021 A 
HETATM    4  N   UNK     0     -20.276  -9.892 -16.907  0.00  0.00    -0.361 N 
HETATM    5  C   UNK     0     -20.143 -10.704 -17.976  0.00  0.00     0.022 A 
HETATM    6  C   UNK     0     -19.955 -12.011 -17.540  0.00  0.00    -0.027 A 
HETATM    7  C   UNK     0     -20.091 -10.359 -19.432  0.00  0.00     0.115 C 
HETATM    8  C   UNK     0     -19.263  -9.145 -19.816  0.00  0.00     0.021 A 
HETATM    9  N   UNK     0     -18.116  -8.710 -19.273  0.00  0.00    -0.361 N 
HETATM   10  C   UNK     0     -17.787  -7.544 -19.868  0.00  0.00     0.022 A 
HETATM   11  C   UNK     0     -18.743  -7.224 -20.828  0.00  0.00    -0.027 A 
HETATM   12  C   UNK     0     -19.676  -8.230 -20.800  0.00  0.00    -0.031 A 
HETATM   13  C   UNK     0     -20.902  -8.308 -21.681  0.00  0.00     0.051 C 
HETATM   14  C   UNK     0     -16.591  -6.661 -19.521  0.00  0.00     0.115 C 
HETATM   15  C   UNK     0     -16.603  -6.143 -18.092  0.00  0.00     0.021 A 
HETATM   16  N   UNK     0     -16.623  -6.866 -16.956  0.00  0.00    -0.361 N 
HETATM   17  C   UNK     0     -16.699  -6.039 -15.911  0.00  0.00     0.022 A 
HETATM   18  C   UNK     0     -16.720  -4.713 -16.388  0.00  0.00    -0.027 A 
HETATM   19  C   UNK     0     -16.657  -4.792 -17.755  0.00  0.00    -0.031 A 
HETATM   20  C   UNK     0     -16.619  -3.581 -18.669  0.00  0.00     0.051 C 
HETATM   21  C   UNK     0     -16.820  -6.346 -14.436  0.00  0.00     0.115 C 
HETATM   22  C   UNK     0     -17.604  -7.576 -14.041  0.00  0.00     0.022 A 
HETATM   23  N   UNK     0     -18.747  -8.036 -14.567  0.00  0.00    -0.361 N 
HETATM   24  C   UNK     0     -19.014  -9.236 -14.015  0.00  0.00     0.021 A 
HETATM   25  C   UNK     0     -18.025  -9.552 -13.103  0.00  0.00    -0.031 A 
HETATM   26  C   UNK     0     -17.908 -10.767 -12.207  0.00  0.00     0.051 C 
HETATM   27  C   UNK     0     -17.112  -8.504 -13.102  0.00  0.00    -0.027 A 
HETATM   28  C   UNK     0     -20.150 -10.185 -14.358  0.00  0.00     0.115 C 
HETATM   29  H   UNK     0     -20.484  -8.797 -16.934  0.00  0.00     0.165 HD
HETATM   30  H   UNK     0     -17.510  -9.248 -18.504  0.00  0.00     0.165 HD
HETATM   31  H   UNK     0     -16.534  -7.981 -16.888  0.00  0.00     0.165 HD
HETATM   32  H   UNK     0     -19.399  -7.497 -15.303  0.00  0.00     0.165 HD
ENDROOT
BRANCH   6  33
HETATM   33  C   UNK     0     -19.764 -13.280 -18.331  0.00  0.00     0.051 C 
BRANCH  33  34
HETATM   34  C   UNK     0     -18.315 -13.455 -18.720  0.00  0.00     0.114 C 
BRANCH  34  35
HETATM   35  C   UNK     0     -18.226 -13.283 -20.199  0.00  0.00     0.139 C 
HETATM   36  O   UNK     0     -18.997 -13.933 -20.963  0.00  0.00    -0.650 OA
BRANCH  35  37
HETATM   37  O   UNK     0     -17.318 -12.420 -20.799  0.00  0.00    -0.776 OA
HETATM   38  H   UNK     0     -16.322 -12.550 -20.717  0.00  0.00     0.167 HD
ENDBRANCH  35  37
ENDBRANCH  34  35
ENDBRANCH  33  34
ENDBRANCH   6  33
BRANCH  27  39
HETATM   39  C   UNK     0     -15.938  -8.453 -12.189  0.00  0.00     0.051 C 
BRANCH  39  40
HETATM   40  C   UNK     0     -14.627  -8.822 -12.722  0.00  0.00     0.114 C 
BRANCH  40  41
HETATM   41  C   UNK     0     -13.399  -8.260 -12.207  0.00  0.00     0.139 C 
HETATM   42  O   UNK     0     -13.039  -8.370 -11.027  0.00  0.00    -0.650 OA
BRANCH  41  43
HETATM   43  O   UNK     0     -12.547  -7.536 -13.088  0.00  0.00    -0.776 OA
HETATM   44  H   UNK     0     -11.694  -7.195 -12.661  0.00  0.00     0.167 HD
ENDBRANCH  41  43
ENDBRANCH  40  41
ENDBRANCH  39  40
ENDBRANCH  27  39
BRANCH  11  45
HETATM   45  C   UNK     0     -18.796  -6.032 -21.745  0.00  0.00     0.051 C 
BRANCH  45  46
HETATM   46  C   UNK     0     -17.724  -6.010 -22.773  0.00  0.00     0.114 C 
BRANCH  46  47
HETATM   47  C   UNK     0     -18.164  -6.897 -23.888  0.00  0.00     0.139 C 
HETATM   48  O   UNK     0     -19.287  -6.716 -24.380  0.00  0.00    -0.650 OA
BRANCH  47  49
HETATM   49  O   UNK     0     -17.346  -7.892 -24.359  0.00  0.00    -0.776 OA
HETATM   50  H   UNK     0     -17.416  -8.246 -25.321  0.00  0.00     0.167 HD
ENDBRANCH  47  49
ENDBRANCH  46  47
ENDBRANCH  45  46
ENDBRANCH  11  45
BRANCH  18  51
HETATM   51  C   UNK     0     -16.774  -3.440 -15.584  0.00  0.00     0.051 C 
BRANCH  51  52
HETATM   52  C   UNK     0     -15.333  -3.085 -15.250  0.00  0.00     0.114 C 
BRANCH  52  53
HETATM   53  C   UNK     0     -15.250  -2.059 -14.193  0.00  0.00     0.139 C 
HETATM   54  O   UNK     0     -14.173  -1.485 -13.967  0.00  0.00    -0.650 OA
BRANCH  53  55
HETATM   55  O   UNK     0     -16.369  -1.747 -13.460  0.00  0.00    -0.776 OA
HETATM   56  H   UNK     0     -16.971  -2.395 -13.010  0.00  0.00     0.167 HD
ENDBRANCH  53  55
ENDBRANCH  52  53
ENDBRANCH  51  52
ENDBRANCH  18  51
TORSDOF 16
ENDMDL
MODEL 5
REMARK VINA RESULT:      -9.4      1.895      2.458
REMARK  16 active torsions:
REMARK  status: ('A' for Active; 'I' for Inactive)
REMARK    1  A    between atoms: C_6  and  C_7 
REMARK    2  A    between atoms: C_7  and  C_8 
REMARK    3  A    between atoms: C_8  and  C_9 
REMARK    4  A    between atoms: C_9  and  O_11 
REMARK    5  A    between atoms: C_16  and  C_17 
REMARK    6  A    between atoms: C_17  and  C_18 
REMARK    7  A    between atoms: C_18  and  C_19 
REMARK    8  A    between atoms: C_19  and  O_21 
REMARK    9  A    between atoms: C_28  and  C_29 
REMARK   10  A    between atoms: C_29  and  C_30 
REMARK   11  A    between atoms: C_30  and  C_31 
REMARK   12  A    between atoms: C_31  and  O_33 
REMARK   13  A    between atoms: C_42  and  C_43 
REMARK   14  A    between atoms: C_43  and  C_44 
REMARK   15  A    between atoms: C_44  and  C_45 
REMARK   16  A    between atoms: C_45  and  O_47 
ROOT
HETATM    1  C   UNK     0     -20.993 -15.732 -16.489  0.00  0.00     0.051 C 
HETATM    2  C   UNK     0     -20.574 -14.277 -16.437  0.00  0.00    -0.031 A 
HETATM    3  C   UNK     0     -20.672 -13.369 -15.394  0.00  0.00     0.021 A 
HETATM    4  N   UNK     0     -20.200 -12.169 -15.808  0.00  0.00    -0.361 N 
HETATM    5  C   UNK     0     -19.795 -12.294 -17.088  0.00  0.00     0.022 A 
HETATM    6  C   UNK     0     -20.017 -13.600 -17.515  0.00  0.00    -0.027 A 
HETATM    7  C   UNK     0     -19.115 -11.297 -17.974  0.00  0.00     0.115 C 
HETATM    8  C   UNK     0     -18.012 -10.466 -17.343  0.00  0.00     0.021 A 
HETATM    9  N   UNK     0     -17.116 -10.833 -16.413  0.00  0.00    -0.361 N 
HETATM   10  C   UNK     0     -16.388  -9.746 -16.080  0.00  0.00     0.022 A 
HETATM   11  C   UNK     0     -16.819  -8.651 -16.824  0.00  0.00    -0.027 A 
HETATM   12  C   UNK     0     -17.842  -9.098 -17.621  0.00  0.00    -0.031 A 
HETATM   13  C   UNK     0     -18.616  -8.251 -18.607  0.00  0.00     0.051 C 
HETATM   14  C   UNK     0     -15.297  -9.683 -15.016  0.00  0.00     0.115 C 
HETATM   15  C   UNK     0     -15.784 -10.016 -13.614  0.00  0.00     0.021 A 
HETATM   16  N   UNK     0     -16.371 -11.153 -13.198  0.00  0.00    -0.361 N 
HETATM   17  C   UNK     0     -16.713 -11.025 -11.914  0.00  0.00     0.022 A 
HETATM   18  C   UNK     0     -16.321  -9.746 -11.470  0.00  0.00    -0.027 A 
HETATM   19  C   UNK     0     -15.738  -9.125 -12.544  0.00  0.00    -0.031 A 
HETATM   20  C   UNK     0     -15.139  -7.732 -12.490  0.00  0.00     0.051 C 
HETATM   21  C   UNK     0     -17.457 -11.978 -11.006  0.00  0.00     0.115 C 
HETATM   22  C   UNK     0     -18.527 -12.843 -11.629  0.00  0.00     0.022 A 
HETATM   23  N   UNK     0     -19.429 -12.506 -12.560  0.00  0.00    -0.361 N 
HETATM   24  C   UNK     0     -20.091 -13.620 -12.932  0.00  0.00     0.021 A 
HETATM   25  C   UNK     0     -19.610 -14.699 -12.216  0.00  0.00    -0.031 A 
HETATM   26  C   UNK     0     -20.062 -16.145 -12.252  0.00  0.00     0.051 C 
HETATM   27  C   UNK     0     -18.609 -14.227 -11.375  0.00  0.00    -0.027 A 
HETATM   28  C   UNK     0     -21.141 -13.757 -14.021  0.00  0.00     0.115 C 
HETATM   29  H   UNK     0     -20.193 -11.232 -15.204  0.00  0.00     0.165 HD
HETATM   30  H   UNK     0     -16.963 -11.869 -16.025  0.00  0.00     0.165 HD
HETATM   31  H   UNK     0     -16.506 -12.084 -13.808  0.00  0.00     0.165 HD
HETATM   32  H   UNK     0     -19.637 -11.469 -12.932  0.00  0.00     0.165 HD
ENDROOT
BRANCH   6  33
HETATM   33  C   UNK     0     -19.746 -14.243 -18.851  0.00  0.00     0.051 C 
BRANCH  33  34
HETATM   34  C   UNK     0     -18.266 -14.250 -19.151  0.00  0.00     0.114 C 
BRANCH  34  35
HETATM   35  C   UNK     0     -18.094 -13.798 -20.562  0.00  0.00     0.139 C 
HETATM   36  O   UNK     0     -17.489 -12.716 -20.815  0.00  0.00    -0.650 OA
BRANCH  35  37
HETATM   37  O   UNK     0     -18.575 -14.523 -21.645  0.00  0.00    -0.776 OA
HETATM   38  H   UNK     0     -19.521 -14.422 -21.978  0.00  0.00     0.167 HD
ENDBRANCH  35  37
ENDBRANCH  34  35
ENDBRANCH  33  34
ENDBRANCH   6  33
BRANCH  27  39
HETATM   39  C   UNK     0     -17.900 -15.092 -10.393  0.00  0.00     0.051 C 
BRANCH  39  40
HETATM   40  C   UNK     0     -18.207 -14.925  -8.973  0.00  0.00     0.114 C 
BRANCH  40  41
HETATM   41  C   UNK     0     -17.319 -14.230  -8.069  0.00  0.00     0.139 C 
HETATM   42  O   UNK     0     -16.088 -14.371  -8.077  0.00  0.00    -0.650 OA
BRANCH  41  43
HETATM   43  O   UNK     0     -17.870 -13.332  -7.112  0.00  0.00    -0.776 OA
HETATM   44  H   UNK     0     -18.588 -12.718  -7.478  0.00  0.00     0.167 HD
ENDBRANCH  41  43
ENDBRANCH  40  41
ENDBRANCH  39  40
ENDBRANCH  27  39
BRANCH  11  45
HETATM   45  C   UNK     0     -16.305  -7.237 -16.803  0.00  0.00     0.051 C 
BRANCH  45  46
HETATM   46  C   UNK     0     -16.778  -6.436 -15.645  0.00  0.00     0.114 C 
BRANCH  46  47
HETATM   47  C   UNK     0     -17.990  -5.690 -16.091  0.00  0.00     0.139 C 
HETATM   48  O   UNK     0     -17.839  -4.681 -16.794  0.00  0.00    -0.650 OA
BRANCH  47  49
HETATM   49  O   UNK     0     -19.245  -6.109 -15.729  0.00  0.00    -0.776 OA
HETATM   50  H   UNK     0     -20.060  -5.485 -15.767  0.00  0.00     0.167 HD
ENDBRANCH  47  49
ENDBRANCH  46  47
ENDBRANCH  45  46
ENDBRANCH  11  45
BRANCH  18  51
HETATM   51  C   UNK     0     -16.473  -9.157 -10.092  0.00  0.00     0.051 C 
BRANCH  51  52
HETATM   52  C   UNK     0     -15.400  -9.806  -9.230  0.00  0.00     0.114 C 
BRANCH  52  53
HETATM   53  C   UNK     0     -15.965 -10.396  -8.001  0.00  0.00     0.139 C 
HETATM   54  O   UNK     0     -17.195 -10.511  -7.875  0.00  0.00    -0.650 OA
BRANCH  53  55
HETATM   55  O   UNK     0     -15.123 -10.813  -6.998  0.00  0.00    -0.776 OA
HETATM   56  H   UNK     0     -14.276 -10.373  -6.726  0.00  0.00     0.167 HD
ENDBRANCH  53  55
ENDBRANCH  52  53
ENDBRANCH  51  52
ENDBRANCH  18  51
TORSDOF 16
ENDMDL
MODEL 6
REMARK VINA RESULT:      -9.2      2.375      6.742
REMARK  16 active torsions:
REMARK  status: ('A' for Active; 'I' for Inactive)
REMARK    1  A    between atoms: C_6  and  C_7 
REMARK    2  A    between atoms: C_7  and  C_8 
REMARK    3  A    between atoms: C_8  and  C_9 
REMARK    4  A    between atoms: C_9  and  O_11 
REMARK    5  A    between atoms: C_16  and  C_17 
REMARK    6  A    between atoms: C_17  and  C_18 
REMARK    7  A    between atoms: C_18  and  C_19 
REMARK    8  A    between atoms: C_19  and  O_21 
REMARK    9  A    between atoms: C_28  and  C_29 
REMARK   10  A    between atoms: C_29  and  C_30 
REMARK   11  A    between atoms: C_30  and  C_31 
REMARK   12  A    between atoms: C_31  and  O_33 
REMARK   13  A    between atoms: C_42  and  C_43 
REMARK   14  A    between atoms: C_43  and  C_44 
REMARK   15  A    between atoms: C_44  and  C_45 
REMARK   16  A    between atoms: C_45  and  O_47 
ROOT
HETATM    1  C   UNK     0     -17.829  -9.250 -19.005  0.00  0.00     0.051 C 
HETATM    2  C   UNK     0     -18.083 -10.592 -18.350  0.00  0.00    -0.031 A 
HETATM    3  C   UNK     0     -17.304 -11.288 -17.440  0.00  0.00     0.021 A 
HETATM    4  N   UNK     0     -17.909 -12.464 -17.149  0.00  0.00    -0.361 N 
HETATM    5  C   UNK     0     -19.061 -12.529 -17.848  0.00  0.00     0.022 A 
HETATM    6  C   UNK     0     -19.200 -11.375 -18.612  0.00  0.00    -0.027 A 
HETATM    7  C   UNK     0     -20.138 -13.568 -17.815  0.00  0.00     0.115 C 
HETATM    8  C   UNK     0     -20.534 -14.096 -16.447  0.00  0.00     0.021 A 
HETATM    9  N   UNK     0     -20.599 -13.433 -15.282  0.00  0.00    -0.361 N 
HETATM   10  C   UNK     0     -20.907 -14.319 -14.312  0.00  0.00     0.022 A 
HETATM   11  C   UNK     0     -21.053 -15.586 -14.869  0.00  0.00    -0.027 A 
HETATM   12  C   UNK     0     -20.820 -15.453 -16.214  0.00  0.00    -0.031 A 
HETATM   13  C   UNK     0     -20.875 -16.574 -17.226  0.00  0.00     0.051 C 
HETATM   14  C   UNK     0     -21.022 -14.019 -12.820  0.00  0.00     0.115 C 
HETATM   15  C   UNK     0     -19.737 -13.499 -12.196  0.00  0.00     0.021 A 
HETATM   16  N   UNK     0     -19.041 -12.400 -12.543  0.00  0.00    -0.361 N 
HETATM   17  C   UNK     0     -17.935 -12.329 -11.800  0.00  0.00     0.022 A 
HETATM   18  C   UNK     0     -17.913 -13.429 -10.920  0.00  0.00    -0.027 A 
HETATM   19  C   UNK     0     -19.048 -14.153 -11.177  0.00  0.00    -0.031 A 
HETATM   20  C   UNK     0     -19.437 -15.409 -10.419  0.00  0.00     0.051 C 
HETATM   21  C   UNK     0     -16.795 -11.337 -11.848  0.00  0.00     0.115 C 
HETATM   22  C   UNK     0     -16.418 -10.771 -13.197  0.00  0.00     0.022 A 
HETATM   23  N   UNK     0     -16.349 -11.406 -14.374  0.00  0.00    -0.361 N 
HETATM   24  C   UNK     0     -16.118 -10.491 -15.336  0.00  0.00     0.021 A 
HETATM   25  C   UNK     0     -16.026  -9.237 -14.764  0.00  0.00    -0.031 A 
HETATM   26  C   UNK     0     -15.737  -7.905 -15.426  0.00  0.00     0.051 C 
HETATM   27  C   UNK     0     -16.214  -9.390 -13.395  0.00  0.00    -0.027 A 
HETATM   28  C   UNK     0     -16.052 -10.717 -16.837  0.00  0.00     0.115 C 
HETATM   29  H   UNK     0     -17.499 -13.258 -16.483  0.00  0.00     0.165 HD
HETATM   30  H   UNK     0     -20.477 -12.330 -15.149  0.00  0.00     0.165 HD
HETATM   31  H   UNK     0     -19.361 -11.632 -13.295  0.00  0.00     0.165 HD
HETATM   32  H   UNK     0     -16.420 -12.514 -14.531  0.00  0.00     0.165 HD
ENDROOT
BRANCH   6  33
HETATM   33  C   UNK     0     -20.297 -10.966 -19.562  0.00  0.00     0.051 C 
BRANCH  33  34
HETATM   34  C   UNK     0     -20.906  -9.650 -19.141  0.00  0.00     0.114 C 
BRANCH  34  35
HETATM   35  C   UNK     0     -21.881  -9.938 -18.050  0.00  0.00     0.139 C 
HETATM   36  O   UNK     0     -21.482 -10.068 -16.856  0.00  0.00    -0.650 OA
BRANCH  35  37
HETATM   37  O   UNK     0     -23.245 -10.071 -18.280  0.00  0.00    -0.776 OA
HETATM   38  H   UNK     0     -23.696  -9.656 -19.080  0.00  0.00     0.167 HD
ENDBRANCH  35  37
ENDBRANCH  34  35
ENDBRANCH  33  34
ENDBRANCH   6  33
BRANCH  27  39
HETATM   39  C   UNK     0     -16.114  -8.261 -12.432  0.00  0.00     0.051 C 
BRANCH  39  40
HETATM   40  C   UNK     0     -17.349  -7.715 -11.871  0.00  0.00     0.114 C 
BRANCH  40  41
HETATM   41  C   UNK     0     -18.637  -7.925 -12.493  0.00  0.00     0.139 C 
HETATM   42  O   UNK     0     -19.111  -7.172 -13.355  0.00  0.00    -0.650 OA
BRANCH  41  43
HETATM   43  O   UNK     0     -19.415  -9.053 -12.107  0.00  0.00    -0.776 OA
HETATM   44  H   UNK     0     -20.214  -9.235 -12.703  0.00  0.00     0.167 HD
ENDBRANCH  41  43
ENDBRANCH  40  41
ENDBRANCH  39  40
ENDBRANCH  27  39
BRANCH  11  45
HETATM   45  C   UNK     0     -21.400 -16.881 -14.185  0.00  0.00     0.051 C 
BRANCH  45  46
HETATM   46  C   UNK     0     -20.303 -17.442 -13.356  0.00  0.00     0.114 C 
BRANCH  46  47
HETATM   47  C   UNK     0     -19.998 -18.802 -13.888  0.00  0.00     0.139 C 
HETATM   48  O   UNK     0     -20.469 -19.127 -14.987  0.00  0.00    -0.650 OA
BRANCH  47  49
HETATM   49  O   UNK     0     -19.215 -19.675 -13.177  0.00  0.00    -0.776 OA
HETATM   50  H   UNK     0     -18.234 -19.851 -13.422  0.00  0.00     0.167 HD
ENDBRANCH  47  49
ENDBRANCH  46  47
ENDBRANCH  45  46
ENDBRANCH  11  45
BRANCH  18  51
HETATM   51  C   UNK     0     -16.878 -13.760  -9.876  0.00  0.00     0.051 C 
BRANCH  51  52
HETATM   52  C   UNK     0     -17.262 -12.974  -8.631  0.00  0.00     0.114 C 
BRANCH  52  53
HETATM   53  C   UNK     0     -17.199 -13.807  -7.415  0.00  0.00     0.139 C 
HETATM   54  O   UNK     0     -16.202 -14.514  -7.196  0.00  0.00    -0.650 OA
BRANCH  53  55
HETATM   55  O   UNK     0     -18.250 -13.798  -6.530  0.00  0.00    -0.776 OA
HETATM   56  H   UNK     0     -18.181 -13.857  -5.541  0.00  0.00     0.167 HD
ENDBRANCH  53  55
ENDBRANCH  52  53
ENDBRANCH  51  52
ENDBRANCH  18  51
TORSDOF 16
ENDMDL
MODEL 7
REMARK VINA RESULT:      -9.2      2.611      6.924
REMARK  16 active torsions:
REMARK  status: ('A' for Active; 'I' for Inactive)
REMARK    1  A    between atoms: C_6  and  C_7 
REMARK    2  A    between atoms: C_7  and  C_8 
REMARK    3  A    between atoms: C_8  and  C_9 
REMARK    4  A    between atoms: C_9  and  O_11 
REMARK    5  A    between atoms: C_16  and  C_17 
REMARK    6  A    between atoms: C_17  and  C_18 
REMARK    7  A    between atoms: C_18  and  C_19 
REMARK    8  A    between atoms: C_19  and  O_21 
REMARK    9  A    between atoms: C_28  and  C_29 
REMARK   10  A    between atoms: C_29  and  C_30 
REMARK   11  A    between atoms: C_30  and  C_31 
REMARK   12  A    between atoms: C_31  and  O_33 
REMARK   13  A    between atoms: C_42  and  C_43 
REMARK   14  A    between atoms: C_43  and  C_44 
REMARK   15  A    between atoms: C_44  and  C_45 
REMARK   16  A    between atoms: C_45  and  O_47 
ROOT
HETATM    1  C   UNK     0     -15.620  -6.866 -16.184  0.00  0.00     0.051 C 
HETATM    2  C   UNK     0     -16.155  -8.249 -16.498  0.00  0.00    -0.031 A 
HETATM    3  C   UNK     0     -15.869  -9.461 -15.890  0.00  0.00     0.021 A 
HETATM    4  N   UNK     0     -16.555 -10.444 -16.521  0.00  0.00    -0.361 N 
HETATM    5  C   UNK     0     -17.278  -9.883 -17.512  0.00  0.00     0.022 A 
HETATM    6  C   UNK     0     -17.049  -8.511 -17.527  0.00  0.00    -0.027 A 
HETATM    7  C   UNK     0     -18.270 -10.512 -18.439  0.00  0.00     0.115 C 
HETATM    8  C   UNK     0     -19.239 -11.509 -17.827  0.00  0.00     0.021 A 
HETATM    9  N   UNK     0     -19.805 -11.485 -16.611  0.00  0.00    -0.361 N 
HETATM   10  C   UNK     0     -20.522 -12.619 -16.461  0.00  0.00     0.022 A 
HETATM   11  C   UNK     0     -20.422 -13.390 -17.616  0.00  0.00    -0.027 A 
HETATM   12  C   UNK     0     -19.615 -12.696 -18.481  0.00  0.00    -0.031 A 
HETATM   13  C   UNK     0     -19.229 -13.150 -19.870  0.00  0.00     0.051 C 
HETATM   14  C   UNK     0     -21.283 -13.045 -15.209  0.00  0.00     0.115 C 
HETATM   15  C   UNK     0     -20.403 -13.218 -13.982  0.00  0.00     0.021 A 
HETATM   16  N   UNK     0     -19.611 -12.296 -13.402  0.00  0.00    -0.361 N 
HETATM   17  C   UNK     0     -18.948 -12.861 -12.391  0.00  0.00     0.022 A 
HETATM   18  C   UNK     0     -19.333 -14.213 -12.301  0.00  0.00    -0.027 A 
HETATM   19  C   UNK     0     -20.245 -14.424 -13.302  0.00  0.00    -0.031 A 
HETATM   20  C   UNK     0     -20.945 -15.750 -13.541  0.00  0.00     0.051 C 
HETATM   21  C   UNK     0     -17.893 -12.281 -11.476  0.00  0.00     0.115 C 
HETATM   22  C   UNK     0     -16.951 -11.255 -12.060  0.00  0.00     0.022 A 
HETATM   23  N   UNK     0     -16.375 -11.251 -13.269  0.00  0.00    -0.361 N 
HETATM   24  C   UNK     0     -15.730 -10.077 -13.427  0.00  0.00     0.021 A 
HETATM   25  C   UNK     0     -15.886  -9.312 -12.287  0.00  0.00    -0.031 A 
HETATM   26  C   UNK     0     -15.317  -7.944 -11.973  0.00  0.00     0.051 C 
HETATM   27  C   UNK     0     -16.663 -10.044 -11.398  0.00  0.00    -0.027 A 
HETATM   28  C   UNK     0     -15.007  -9.573 -14.664  0.00  0.00     0.115 C 
HETATM   29  H   UNK     0     -16.492 -11.532 -16.287  0.00  0.00     0.165 HD
HETATM   30  H   UNK     0     -19.742 -10.647 -15.875  0.00  0.00     0.165 HD
HETATM   31  H   UNK     0     -19.555 -11.212 -13.681  0.00  0.00     0.165 HD
HETATM   32  H   UNK     0     -16.382 -12.095 -14.007  0.00  0.00     0.165 HD
ENDROOT
BRANCH   6  33
HETATM   33  C   UNK     0     -17.607  -7.445 -18.436  0.00  0.00     0.051 C 
BRANCH  33  34
HETATM   34  C   UNK     0     -16.596  -7.058 -19.490  0.00  0.00     0.114 C 
BRANCH  34  35
HETATM   35  C   UNK     0     -16.961  -7.778 -20.744  0.00  0.00     0.139 C 
HETATM   36  O   UNK     0     -18.158  -7.777 -21.153  0.00  0.00    -0.650 OA
BRANCH  35  37
HETATM   37  O   UNK     0     -16.029  -8.467 -21.510  0.00  0.00    -0.776 OA
HETATM   38  H   UNK     0     -15.456  -9.200 -21.123  0.00  0.00     0.167 HD
ENDBRANCH  35  37
ENDBRANCH  34  35
ENDBRANCH  33  34
ENDBRANCH   6  33
BRANCH  27  39
HETATM   39  C   UNK     0     -16.987  -9.572 -10.024  0.00  0.00     0.051 C 
BRANCH  39  40
HETATM   40  C   UNK     0     -16.056  -9.893  -8.943  0.00  0.00     0.114 C 
BRANCH  40  41
HETATM   41  C   UNK     0     -16.350 -10.899  -7.946  0.00  0.00     0.139 C 
HETATM   42  O   UNK     0     -17.331 -11.652  -8.005  0.00  0.00    -0.650 OA
BRANCH  41  43
HETATM   43  O   UNK     0     -15.476 -11.044  -6.832  0.00  0.00    -0.776 OA
HETATM   44  H   UNK     0     -14.886 -10.240  -6.655  0.00  0.00     0.167 HD
ENDBRANCH  41  43
ENDBRANCH  40  41
ENDBRANCH  39  40
ENDBRANCH  27  39
BRANCH  11  45
HETATM   45  C   UNK     0     -21.053 -14.723 -17.916  0.00  0.00     0.051 C 
BRANCH  45  46
HETATM   46  C   UNK     0     -20.276 -15.887 -17.417  0.00  0.00     0.114 C 
BRANCH  46  47
HETATM   47  C   UNK     0     -19.843 -16.672 -18.608  0.00  0.00     0.139 C 
HETATM   48  O   UNK     0     -19.140 -17.677 -18.432  0.00  0.00    -0.650 OA
BRANCH  47  49
HETATM   49  O   UNK     0     -20.213 -16.291 -19.873  0.00  0.00    -0.776 OA
HETATM   50  H   UNK     0     -20.124 -15.321 -20.198  0.00  0.00     0.167 HD
ENDBRANCH  47  49
ENDBRANCH  46  47
ENDBRANCH  45  46
ENDBRANCH  11  45
BRANCH  18  51
HETATM   51  C   UNK     0     -18.872 -15.243 -11.302  0.00  0.00     0.051 C 
BRANCH  51  52
HETATM   52  C   UNK     0     -19.620 -14.948 -10.010  0.00  0.00     0.114 C 
BRANCH  52  53
HETATM   53  C   UNK     0     -20.905 -15.670  -9.942  0.00  0.00     0.139 C 
HETATM   54  O   UNK     0     -20.951 -16.883 -10.202  0.00  0.00    -0.650 OA
BRANCH  53  55
HETATM   55  O   UNK     0     -22.048 -14.992  -9.595  0.00  0.00    -0.776 OA
HETATM   56  H   UNK     0     -22.979 -15.292  -9.763  0.00  0.00     0.167 HD
ENDBRANCH  53  55
ENDBRANCH  52  53
ENDBRANCH  51  52
ENDBRANCH  18  51
TORSDOF 16
ENDMDL
MODEL 8
REMARK VINA RESULT:      -9.1      2.878      9.541
REMARK  16 active torsions:
REMARK  status: ('A' for Active; 'I' for Inactive)
REMARK    1  A    between atoms: C_6  and  C_7 
REMARK    2  A    between atoms: C_7  and  C_8 
REMARK    3  A    between atoms: C_8  and  C_9 
REMARK    4  A    between atoms: C_9  and  O_11 
REMARK    5  A    between atoms: C_16  and  C_17 
REMARK    6  A    between atoms: C_17  and  C_18 
REMARK    7  A    between atoms: C_18  and  C_19 
REMARK    8  A    between atoms: C_19  and  O_21 
REMARK    9  A    between atoms: C_28  and  C_29 
REMARK   10  A    between atoms: C_29  and  C_30 
REMARK   11  A    between atoms: C_30  and  C_31 
REMARK   12  A    between atoms: C_31  and  O_33 
REMARK   13  A    between atoms: C_42  and  C_43 
REMARK   14  A    between atoms: C_43  and  C_44 
REMARK   15  A    between atoms: C_44  and  C_45 
REMARK   16  A    between atoms: C_45  and  O_47 
ROOT
HETATM    1  C   UNK     0     -16.378  -6.640 -13.464  0.00  0.00     0.051 C 
HETATM    2  C   UNK     0     -16.840  -7.598 -12.385  0.00  0.00    -0.031 A 
HETATM    3  C   UNK     0     -18.096  -8.144 -12.172  0.00  0.00     0.021 A 
HETATM    4  N   UNK     0     -18.055  -8.926 -11.067  0.00  0.00    -0.361 N 
HETATM    5  C   UNK     0     -16.800  -8.895 -10.575  0.00  0.00     0.022 A 
HETATM    6  C   UNK     0     -16.014  -8.071 -11.374  0.00  0.00    -0.027 A 
HETATM    7  C   UNK     0     -16.207  -9.655  -9.429  0.00  0.00     0.115 C 
HETATM    8  C   UNK     0     -16.587 -11.120  -9.314  0.00  0.00     0.021 A 
HETATM    9  N   UNK     0     -16.804 -12.008 -10.296  0.00  0.00    -0.361 N 
HETATM   10  C   UNK     0     -17.209 -13.166  -9.733  0.00  0.00     0.022 A 
HETATM   11  C   UNK     0     -17.244 -13.024  -8.349  0.00  0.00    -0.027 A 
HETATM   12  C   UNK     0     -16.854 -11.737  -8.078  0.00  0.00    -0.031 A 
HETATM   13  C   UNK     0     -16.738 -11.132  -6.697  0.00  0.00     0.051 C 
HETATM   14  C   UNK     0     -17.627 -14.432 -10.477  0.00  0.00     0.115 C 
HETATM   15  C   UNK     0     -18.826 -14.241 -11.391  0.00  0.00     0.021 A 
HETATM   16  N   UNK     0     -18.944 -13.384 -12.422  0.00  0.00    -0.361 N 
HETATM   17  C   UNK     0     -20.177 -13.472 -12.927  0.00  0.00     0.022 A 
HETATM   18  C   UNK     0     -20.894 -14.440 -12.195  0.00  0.00    -0.027 A 
HETATM   19  C   UNK     0     -20.036 -14.915 -11.237  0.00  0.00    -0.031 A 
HETATM   20  C   UNK     0     -20.397 -16.007 -10.247  0.00  0.00     0.051 C 
HETATM   21  C   UNK     0     -20.833 -12.680 -14.035  0.00  0.00     0.115 C 
HETATM   22  C   UNK     0     -20.431 -11.232 -14.190  0.00  0.00     0.022 A 
HETATM   23  N   UNK     0     -20.205 -10.326 -13.229  0.00  0.00    -0.361 N 
HETATM   24  C   UNK     0     -19.728  -9.206 -13.807  0.00  0.00     0.021 A 
HETATM   25  C   UNK     0     -19.656  -9.390 -15.175  0.00  0.00    -0.031 A 
HETATM   26  C   UNK     0     -19.225  -8.412 -16.247  0.00  0.00     0.051 C 
HETATM   27  C   UNK     0     -20.101 -10.680 -15.444  0.00  0.00    -0.027 A 
HETATM   28  C   UNK     0     -19.242  -7.940 -13.122  0.00  0.00     0.115 C 
HETATM   29  H   UNK     0     -18.924  -9.461 -10.619  0.00  0.00     0.165 HD
HETATM   30  H   UNK     0     -16.624 -11.835 -11.386  0.00  0.00     0.165 HD
HETATM   31  H   UNK     0     -18.127 -12.737 -12.834  0.00  0.00     0.165 HD
HETATM   32  H   UNK     0     -20.420 -10.455 -12.136  0.00  0.00     0.165 HD
ENDROOT
BRANCH   6  33
HETATM   33  C   UNK     0     -14.557  -7.703 -11.250  0.00  0.00     0.051 C 
BRANCH  33  34
HETATM   34  C   UNK     0     -13.733  -8.419 -12.294  0.00  0.00     0.114 C 
BRANCH  34  35
HETATM   35  C   UNK     0     -12.704  -7.459 -12.787  0.00  0.00     0.139 C 
HETATM   36  O   UNK     0     -12.993  -6.626 -13.694  0.00  0.00    -0.650 OA
BRANCH  35  37
HETATM   37  O   UNK     0     -11.408  -7.428 -12.287  0.00  0.00    -0.776 OA
HETATM   38  H   UNK     0     -11.110  -6.739 -11.615  0.00  0.00     0.167 HD
ENDBRANCH  35  37
ENDBRANCH  34  35
ENDBRANCH  33  34
ENDBRANCH   6  33
BRANCH  27  39
HETATM   39  C   UNK     0     -20.234 -11.220 -16.824  0.00  0.00     0.051 C 
BRANCH  39  40
HETATM   40  C   UNK     0     -21.563 -11.243 -17.435  0.00  0.00     0.114 C 
BRANCH  40  41
HETATM   41  C   UNK     0     -22.246 -10.034 -17.838  0.00  0.00     0.139 C 
HETATM   42  O   UNK     0     -22.387  -9.689 -19.019  0.00  0.00    -0.650 OA
BRANCH  41  43
HETATM   43  O   UNK     0     -22.794  -9.184 -16.836  0.00  0.00    -0.776 OA
HETATM   44  H   UNK     0     -23.039  -8.256 -17.161  0.00  0.00     0.167 HD
ENDBRANCH  41  43
ENDBRANCH  40  41
ENDBRANCH  39  40
ENDBRANCH  27  39
BRANCH  11  45
HETATM   45  C   UNK     0     -17.624 -14.041  -7.307  0.00  0.00     0.051 C 
BRANCH  45  46
HETATM   46  C   UNK     0     -16.578 -15.064  -7.050  0.00  0.00     0.114 C 
BRANCH  46  47
HETATM   47  C   UNK     0     -17.120 -16.375  -7.507  0.00  0.00     0.139 C 
HETATM   48  O   UNK     0     -18.332 -16.594  -7.372  0.00  0.00    -0.650 OA
BRANCH  47  49
HETATM   49  O   UNK     0     -16.297 -17.321  -8.064  0.00  0.00    -0.776 OA
HETATM   50  H   UNK     0     -15.316 -17.425  -7.779  0.00  0.00     0.167 HD
ENDBRANCH  47  49
ENDBRANCH  46  47
ENDBRANCH  45  46
ENDBRANCH  11  45
BRANCH  18  51
HETATM   51  C   UNK     0     -22.311 -14.902 -12.411  0.00  0.00     0.051 C 
BRANCH  51  52
HETATM   52  C   UNK     0     -23.122 -14.346 -11.250  0.00  0.00     0.114 C 
BRANCH  52  53
HETATM   53  C   UNK     0     -24.300 -13.588 -11.715  0.00  0.00     0.139 C 
HETATM   54  O   UNK     0     -25.264 -13.409 -10.955  0.00  0.00    -0.650 OA
BRANCH  53  55
HETATM   55  O   UNK     0     -24.322 -13.086 -12.994  0.00  0.00    -0.776 OA
HETATM   56  H   UNK     0     -23.581 -13.132 -13.653  0.00  0.00     0.167 HD
ENDBRANCH  53  55
ENDBRANCH  52  53
ENDBRANCH  51  52
ENDBRANCH  18  51
TORSDOF 16
ENDMDL
MODEL 9
REMARK VINA RESULT:      -8.8      2.796      3.798
REMARK  16 active torsions:
REMARK  status: ('A' for Active; 'I' for Inactive)
REMARK    1  A    between atoms: C_6  and  C_7 
REMARK    2  A    between atoms: C_7  and  C_8 
REMARK    3  A    between atoms: C_8  and  C_9 
REMARK    4  A    between atoms: C_9  and  O_11 
REMARK    5  A    between atoms: C_16  and  C_17 
REMARK    6  A    between atoms: C_17  and  C_18 
REMARK    7  A    between atoms: C_18  and  C_19 
REMARK    8  A    between atoms: C_19  and  O_21 
REMARK    9  A    between atoms: C_28  and  C_29 
REMARK   10  A    between atoms: C_29  and  C_30 
REMARK   11  A    between atoms: C_30  and  C_31 
REMARK   12  A    between atoms: C_31  and  O_33 
REMARK   13  A    between atoms: C_42  and  C_43 
REMARK   14  A    between atoms: C_43  and  C_44 
REMARK   15  A    between atoms: C_44  and  C_45 
REMARK   16  A    between atoms: C_45  and  O_47 
ROOT
HETATM    1  C   UNK     0     -21.269 -13.768 -16.915  0.00  0.00     0.051 C 
HETATM    2  C   UNK     0     -20.621 -12.434 -16.605  0.00  0.00    -0.031 A 
HETATM    3  C   UNK     0     -20.576 -11.733 -15.410  0.00  0.00     0.021 A 
HETATM    4  N   UNK     0     -19.915 -10.568 -15.606  0.00  0.00    -0.361 N 
HETATM    5  C   UNK     0     -19.529 -10.515 -16.897  0.00  0.00     0.022 A 
HETATM    6  C   UNK     0     -19.956 -11.665 -17.552  0.00  0.00    -0.027 A 
HETATM    7  C   UNK     0     -18.692  -9.491 -17.600  0.00  0.00     0.115 C 
HETATM    8  C   UNK     0     -17.473  -8.979 -16.854  0.00  0.00     0.021 A 
HETATM    9  N   UNK     0     -16.653  -9.652 -16.031  0.00  0.00    -0.361 N 
HETATM   10  C   UNK     0     -15.760  -8.776 -15.522  0.00  0.00     0.022 A 
HETATM   11  C   UNK     0     -16.006  -7.508 -16.038  0.00  0.00    -0.027 A 
HETATM   12  C   UNK     0     -17.083  -7.628 -16.878  0.00  0.00    -0.031 A 
HETATM   13  C   UNK     0     -17.705  -6.500 -17.670  0.00  0.00     0.051 C 
HETATM   14  C   UNK     0     -14.678  -9.089 -14.492  0.00  0.00     0.115 C 
HETATM   15  C   UNK     0     -15.219  -9.596 -13.165  0.00  0.00     0.021 A 
HETATM   16  N   UNK     0     -15.985 -10.682 -12.951  0.00  0.00    -0.361 N 
HETATM   17  C   UNK     0     -16.308 -10.743 -11.657  0.00  0.00     0.022 A 
HETATM   18  C   UNK     0     -15.716  -9.649 -10.994  0.00  0.00    -0.027 A 
HETATM   19  C   UNK     0     -15.036  -8.939 -11.949  0.00  0.00    -0.031 A 
HETATM   20  C   UNK     0     -14.220  -7.694 -11.654  0.00  0.00     0.051 C 
HETATM   21  C   UNK     0     -17.200 -11.719 -10.923  0.00  0.00     0.115 C 
HETATM   22  C   UNK     0     -18.393 -12.270 -11.668  0.00  0.00     0.022 A 
HETATM   23  N   UNK     0     -19.224 -11.625 -12.497  0.00  0.00    -0.361 N 
HETATM   24  C   UNK     0     -20.055 -12.530 -13.052  0.00  0.00     0.021 A 
HETATM   25  C   UNK     0     -19.759 -13.787 -12.561  0.00  0.00    -0.031 A 
HETATM   26  C   UNK     0     -20.438 -15.109 -12.853  0.00  0.00     0.051 C 
HETATM   27  C   UNK     0     -18.698 -13.646 -11.673  0.00  0.00    -0.027 A 
HETATM   28  C   UNK     0     -21.108 -12.292 -14.121  0.00  0.00     0.115 C 
HETATM   29  H   UNK     0     -19.759  -9.774 -14.840  0.00  0.00     0.165 HD
HETATM   30  H   UNK     0     -16.670 -10.754 -15.846  0.00  0.00     0.165 HD
HETATM   31  H   UNK     0     -16.265 -11.449 -13.720  0.00  0.00     0.165 HD
HETATM   32  H   UNK     0     -19.260 -10.517 -12.666  0.00  0.00     0.165 HD
ENDROOT
BRANCH   6  33
HETATM   33  C   UNK     0     -19.786 -12.082 -18.991  0.00  0.00     0.051 C 
BRANCH  33  34
HETATM   34  C   UNK     0     -18.732 -13.156 -19.116  0.00  0.00     0.114 C 
BRANCH  34  35
HETATM   35  C   UNK     0     -17.538 -12.537 -19.759  0.00  0.00     0.139 C 
HETATM   36  O   UNK     0     -16.737 -11.835 -19.075  0.00  0.00    -0.650 OA
BRANCH  35  37
HETATM   37  O   UNK     0     -17.247 -12.695 -21.109  0.00  0.00    -0.776 OA
HETATM   38  H   UNK     0     -17.912 -12.466 -21.829  0.00  0.00     0.167 HD
ENDBRANCH  35  37
ENDBRANCH  34  35
ENDBRANCH  33  34
ENDBRANCH   6  33
BRANCH  27  39
HETATM   39  C   UNK     0     -18.143 -14.781 -10.887  0.00  0.00     0.051 C 
BRANCH  39  40
HETATM   40  C   UNK     0     -18.517 -14.897  -9.477  0.00  0.00     0.114 C 
BRANCH  40  41
HETATM   41  C   UNK     0     -19.189 -16.064  -8.952  0.00  0.00     0.139 C 
HETATM   42  O   UNK     0     -18.648 -16.881  -8.195  0.00  0.00    -0.650 OA
BRANCH  41  43
HETATM   43  O   UNK     0     -20.545 -16.303  -9.314  0.00  0.00    -0.776 OA
HETATM   44  H   UNK     0     -21.202 -16.234  -8.547  0.00  0.00     0.167 HD
ENDBRANCH  41  43
ENDBRANCH  40  41
ENDBRANCH  39  40
ENDBRANCH  27  39
BRANCH  11  45
HETATM   45  C   UNK     0     -15.269  -6.223 -15.769  0.00  0.00     0.051 C 
BRANCH  45  46
HETATM   46  C   UNK     0     -15.817  -5.436 -14.634  0.00  0.00     0.114 C 
BRANCH  46  47
HETATM   47  C   UNK     0     -15.809  -4.003 -15.046  0.00  0.00     0.139 C 
HETATM   48  O   UNK     0     -14.791  -3.331 -14.830  0.00  0.00    -0.650 OA
BRANCH  47  49
HETATM   49  O   UNK     0     -16.905  -3.439 -15.649  0.00  0.00    -0.776 OA
HETATM   50  H   UNK     0     -17.246  -2.504 -15.396  0.00  0.00     0.167 HD
ENDBRANCH  47  49
ENDBRANCH  46  47
ENDBRANCH  45  46
ENDBRANCH  11  45
BRANCH  18  51
HETATM   51  C   UNK     0     -15.778  -9.312  -9.527  0.00  0.00     0.051 C 
BRANCH  51  52
HETATM   52  C   UNK     0     -16.958  -8.366  -9.357  0.00  0.00     0.114 C 
BRANCH  52  53
HETATM   53  C   UNK     0     -17.346  -8.221  -7.941  0.00  0.00     0.139 C 
HETATM   54  O   UNK     0     -16.613  -7.597  -7.156  0.00  0.00    -0.650 OA
BRANCH  53  55
HETATM   55  O   UNK     0     -18.519  -8.781  -7.497  0.00  0.00    -0.776 OA
HETATM   56  H   UNK     0     -19.413  -8.673  -7.915  0.00  0.00     0.167 HD
ENDBRANCH  53  55
ENDBRANCH  52  53
ENDBRANCH  51  52
ENDBRANCH  18  51
TORSDOF 16
ENDMDL
MODEL 10
REMARK VINA RESULT:      -8.6      4.315      9.324
REMARK  16 active torsions:
REMARK  status: ('A' for Active; 'I' for Inactive)
REMARK    1  A    between atoms: C_6  and  C_7 
REMARK    2  A    between atoms: C_7  and  C_8 
REMARK    3  A    between atoms: C_8  and  C_9 
REMARK    4  A    between atoms: C_9  and  O_11 
REMARK    5  A    between atoms: C_16  and  C_17 
REMARK    6  A    between atoms: C_17  and  C_18 
REMARK    7  A    between atoms: C_18  and  C_19 
REMARK    8  A    between atoms: C_19  and  O_21 
REMARK    9  A    between atoms: C_28  and  C_29 
REMARK   10  A    between atoms: C_29  and  C_30 
REMARK   11  A    between atoms: C_30  and  C_31 
REMARK   12  A    between atoms: C_31  and  O_33 
REMARK   13  A    between atoms: C_42  and  C_43 
REMARK   14  A    between atoms: C_43  and  C_44 
REMARK   15  A    between atoms: C_44  and  C_45 
REMARK   16  A    between atoms: C_45  and  O_47 
ROOT
HETATM    1  C   UNK     0     -17.104 -10.666 -15.357  0.00  0.00     0.051 C 
HETATM    2  C   UNK     0     -16.622 -10.460 -13.935  0.00  0.00    -0.031 A 
HETATM    3  C   UNK     0     -15.584  -9.673 -13.463  0.00  0.00     0.021 A 
HETATM    4  N   UNK     0     -15.494  -9.819 -12.120  0.00  0.00    -0.361 N 
HETATM    5  C   UNK     0     -16.458 -10.677 -11.725  0.00  0.00     0.022 A 
HETATM    6  C   UNK     0     -17.180 -11.099 -12.836  0.00  0.00    -0.027 A 
HETATM    7  C   UNK     0     -16.845 -11.102 -10.343  0.00  0.00     0.115 C 
HETATM    8  C   UNK     0     -16.896 -10.014  -9.284  0.00  0.00     0.021 A 
HETATM    9  N   UNK     0     -17.278  -8.734  -9.418  0.00  0.00    -0.361 N 
HETATM   10  C   UNK     0     -17.072  -8.111  -8.239  0.00  0.00     0.022 A 
HETATM   11  C   UNK     0     -16.553  -9.015  -7.317  0.00  0.00    -0.027 A 
HETATM   12  C   UNK     0     -16.440 -10.217  -7.970  0.00  0.00    -0.031 A 
HETATM   13  C   UNK     0     -15.922 -11.499  -7.357  0.00  0.00     0.051 C 
HETATM   14  C   UNK     0     -17.306  -6.631  -7.949  0.00  0.00     0.115 C 
HETATM   15  C   UNK     0     -16.465  -5.696  -8.803  0.00  0.00     0.021 A 
HETATM   16  N   UNK     0     -16.438  -5.610 -10.146  0.00  0.00    -0.361 N 
HETATM   17  C   UNK     0     -15.516  -4.716 -10.511  0.00  0.00     0.022 A 
HETATM   18  C   UNK     0     -14.920  -4.187  -9.349  0.00  0.00    -0.027 A 
HETATM   19  C   UNK     0     -15.524  -4.807  -8.286  0.00  0.00    -0.031 A 
HETATM   20  C   UNK     0     -15.201  -4.501  -6.835  0.00  0.00     0.051 C 
HETATM   21  C   UNK     0     -15.050  -4.309 -11.890  0.00  0.00     0.115 C 
HETATM   22  C   UNK     0     -15.037  -5.371 -12.964  0.00  0.00     0.022 A 
HETATM   23  N   UNK     0     -14.666  -6.653 -12.859  0.00  0.00    -0.361 N 
HETATM   24  C   UNK     0     -14.952  -7.274 -14.021  0.00  0.00     0.021 A 
HETATM   25  C   UNK     0     -15.511  -6.366 -14.900  0.00  0.00    -0.031 A 
HETATM   26  C   UNK     0     -15.957  -6.577 -16.332  0.00  0.00     0.051 C 
HETATM   27  C   UNK     0     -15.575  -5.141 -14.246  0.00  0.00    -0.027 A 
HETATM   28  C   UNK     0     -14.798  -8.749 -14.350  0.00  0.00     0.115 C 
HETATM   29  H   UNK     0     -14.725  -9.347 -11.466  0.00  0.00     0.165 HD
HETATM   30  H   UNK     0     -17.739  -8.280 -10.329  0.00  0.00     0.165 HD
HETATM   31  H   UNK     0     -17.117  -6.157 -10.851  0.00  0.00     0.165 HD
HETATM   32  H   UNK     0     -14.158  -7.123 -11.976  0.00  0.00     0.165 HD
ENDROOT
BRANCH   6  33
HETATM   33  C   UNK     0     -18.344 -12.053 -12.930  0.00  0.00     0.051 C 
BRANCH  33  34
HETATM   34  C   UNK     0     -19.652 -11.299 -12.982  0.00  0.00     0.114 C 
BRANCH  34  35
HETATM   35  C   UNK     0     -20.466 -11.893 -14.081  0.00  0.00     0.139 C 
HETATM   36  O   UNK     0     -20.930 -13.065 -13.968  0.00  0.00    -0.650 OA
BRANCH  35  37
HETATM   37  O   UNK     0     -20.754 -11.208 -15.255  0.00  0.00    -0.776 OA
HETATM   38  H   UNK     0     -20.251 -10.379 -15.527  0.00  0.00     0.167 HD
ENDBRANCH  35  37
ENDBRANCH  34  35
ENDBRANCH  33  34
ENDBRANCH   6  33
BRANCH  27  39
HETATM   39  C   UNK     0     -16.058  -3.896 -14.904  0.00  0.00     0.051 C 
BRANCH  39  40
HETATM   40  C   UNK     0     -15.318  -2.656 -14.669  0.00  0.00     0.114 C 
BRANCH  40  41
HETATM   41  C   UNK     0     -15.966  -1.448 -14.209  0.00  0.00     0.139 C 
HETATM   42  O   UNK     0     -16.138  -1.178 -13.012  0.00  0.00    -0.650 OA
BRANCH  41  43
HETATM   43  O   UNK     0     -16.437  -0.508 -15.168  0.00  0.00    -0.776 OA
HETATM   44  H   UNK     0     -16.609  -0.897 -16.087  0.00  0.00     0.167 HD
ENDBRANCH  41  43
ENDBRANCH  40  41
ENDBRANCH  39  40
ENDBRANCH  27  39
BRANCH  11  45
HETATM   45  C   UNK     0     -16.175  -8.783  -5.879  0.00  0.00     0.051 C 
BRANCH  45  46
HETATM   46  C   UNK     0     -14.737  -9.008  -5.586  0.00  0.00     0.114 C 
BRANCH  46  47
HETATM   47  C   UNK     0     -13.987  -7.842  -6.135  0.00  0.00     0.139 C 
HETATM   48  O   UNK     0     -13.761  -6.879  -5.388  0.00  0.00    -0.650 OA
BRANCH  47  49
HETATM   49  O   UNK     0     -13.556  -7.833  -7.437  0.00  0.00    -0.776 OA
HETATM   50  H   UNK     0     -14.202  -7.962  -8.226  0.00  0.00     0.167 HD
ENDBRANCH  47  49
ENDBRANCH  46  47
ENDBRANCH  45  46
ENDBRANCH  11  45
BRANCH  18  51
HETATM   51  C   UNK     0     -13.849  -3.131  -9.257  0.00  0.00     0.051 C 
BRANCH  51  52
HETATM   52  C   UNK     0     -12.520  -3.872  -9.262  0.00  0.00     0.114 C 
BRANCH  52  53
HETATM   53  C   UNK     0     -12.014  -4.104  -7.896  0.00  0.00     0.139 C 
HETATM   54  O   UNK     0     -11.719  -3.141  -7.170  0.00  0.00    -0.650 OA
BRANCH  53  55
HETATM   55  O   UNK     0     -11.869  -5.390  -7.434  0.00  0.00    -0.776 OA
HETATM   56  H   UNK     0     -11.931  -6.217  -7.980  0.00  0.00     0.167 HD
ENDBRANCH  53  55
ENDBRANCH  52  53
ENDBRANCH  51  52
ENDBRANCH  18  51
TORSDOF 16
ENDMDL
MODEL 11
REMARK VINA RESULT:      -8.6      3.113      7.422
REMARK  16 active torsions:
REMARK  status: ('A' for Active; 'I' for Inactive)
REMARK    1  A    between atoms: C_6  and  C_7 
REMARK    2  A    between atoms: C_7  and  C_8 
REMARK    3  A    between atoms: C_8  and  C_9 
REMARK    4  A    between atoms: C_9  and  O_11 
REMARK    5  A    between atoms: C_16  and  C_17 
REMARK    6  A    between atoms: C_17  and  C_18 
REMARK    7  A    between atoms: C_18  and  C_19 
REMARK    8  A    between atoms: C_19  and  O_21 
REMARK    9  A    between atoms: C_28  and  C_29 
REMARK   10  A    between atoms: C_29  and  C_30 
REMARK   11  A    between atoms: C_30  and  C_31 
REMARK   12  A    between atoms: C_31  and  O_33 
REMARK   13  A    between atoms: C_42  and  C_43 
REMARK   14  A    between atoms: C_43  and  C_44 
REMARK   15  A    between atoms: C_44  and  C_45 
REMARK   16  A    between atoms: C_45  and  O_47 
ROOT
HETATM    1  C   UNK     0     -15.205  -4.179 -14.670  0.00  0.00     0.051 C 
HETATM    2  C   UNK     0     -15.699  -5.535 -15.133  0.00  0.00    -0.031 A 
HETATM    3  C   UNK     0     -15.240  -6.799 -14.797  0.00  0.00     0.021 A 
HETATM    4  N   UNK     0     -15.961  -7.724 -15.475  0.00  0.00    -0.361 N 
HETATM    5  C   UNK     0     -16.874  -7.077 -16.229  0.00  0.00     0.022 A 
HETATM    6  C   UNK     0     -16.736  -5.706 -16.040  0.00  0.00    -0.027 A 
HETATM    7  C   UNK     0     -17.968  -7.634 -17.086  0.00  0.00     0.115 C 
HETATM    8  C   UNK     0     -18.756  -8.799 -16.514  0.00  0.00     0.021 A 
HETATM    9  N   UNK     0     -19.110  -9.023 -15.239  0.00  0.00    -0.361 N 
HETATM   10  C   UNK     0     -19.720 -10.226 -15.179  0.00  0.00     0.022 A 
HETATM   11  C   UNK     0     -19.768 -10.787 -16.451  0.00  0.00    -0.027 A 
HETATM   12  C   UNK     0     -19.163  -9.893 -17.297  0.00  0.00    -0.031 A 
HETATM   13  C   UNK     0     -18.989 -10.080 -18.788  0.00  0.00     0.051 C 
HETATM   14  C   UNK     0     -20.231 -10.915 -13.917  0.00  0.00     0.115 C 
HETATM   15  C   UNK     0     -19.147 -11.205 -12.891  0.00  0.00     0.021 A 
HETATM   16  N   UNK     0     -18.328 -10.322 -12.290  0.00  0.00    -0.361 N 
HETATM   17  C   UNK     0     -17.470 -10.982 -11.508  0.00  0.00     0.022 A 
HETATM   18  C   UNK     0     -17.750 -12.360 -11.597  0.00  0.00    -0.027 A 
HETATM   19  C   UNK     0     -18.803 -12.486 -12.465  0.00  0.00    -0.031 A 
HETATM   20  C   UNK     0     -19.450 -13.813 -12.819  0.00  0.00     0.051 C 
HETATM   21  C   UNK     0     -16.314 -10.466 -10.682  0.00  0.00     0.115 C 
HETATM   22  C   UNK     0     -15.549  -9.279 -11.218  0.00  0.00     0.022 A 
HETATM   23  N   UNK     0     -15.186  -9.027 -12.482  0.00  0.00    -0.361 N 
HETATM   24  C   UNK     0     -14.651  -7.791 -12.531  0.00  0.00     0.021 A 
HETATM   25  C   UNK     0     -14.659  -7.237 -11.266  0.00  0.00    -0.031 A 
HETATM   26  C   UNK     0     -14.131  -5.892 -10.810  0.00  0.00     0.051 C 
HETATM   27  C   UNK     0     -15.229  -8.170 -10.408  0.00  0.00    -0.027 A 
HETATM   28  C   UNK     0     -14.179  -7.030 -13.759  0.00  0.00     0.115 C 
HETATM   29  H   UNK     0     -15.793  -8.825 -15.447  0.00  0.00     0.165 HD
HETATM   30  H   UNK     0     -18.975  -8.313 -14.387  0.00  0.00     0.165 HD
HETATM   31  H   UNK     0     -18.386  -9.206 -12.381  0.00  0.00     0.165 HD
HETATM   32  H   UNK     0     -15.266  -9.738 -13.346  0.00  0.00     0.165 HD
ENDROOT
BRANCH   6  33
HETATM   33  C   UNK     0     -17.503  -4.561 -16.651  0.00  0.00     0.051 C 
BRANCH  33  34
HETATM   34  C   UNK     0     -16.681  -3.872 -17.714  0.00  0.00     0.114 C 
BRANCH  34  35
HETATM   35  C   UNK     0     -17.415  -4.008 -19.005  0.00  0.00     0.139 C 
HETATM   36  O   UNK     0     -17.884  -2.984 -19.582  0.00  0.00    -0.650 OA
BRANCH  35  37
HETATM   37  O   UNK     0     -17.616  -5.234 -19.627  0.00  0.00    -0.776 OA
HETATM   38  H   UNK     0     -18.024  -6.018 -19.144  0.00  0.00     0.167 HD
ENDBRANCH  35  37
ENDBRANCH  34  35
ENDBRANCH  33  34
ENDBRANCH   6  33
BRANCH  27  39
HETATM   39  C   UNK     0     -15.345  -7.957  -8.939  0.00  0.00     0.051 C 
BRANCH  39  40
HETATM   40  C   UNK     0     -16.566  -7.340  -8.422  0.00  0.00     0.114 C 
BRANCH  40  41
HETATM   41  C   UNK     0     -17.406  -7.995  -7.445  0.00  0.00     0.139 C 
HETATM   42  O   UNK     0     -17.534  -7.600  -6.279  0.00  0.00    -0.650 OA
BRANCH  41  43
HETATM   43  O   UNK     0     -18.133  -9.158  -7.828  0.00  0.00    -0.776 OA
HETATM   44  H   UNK     0     -18.131  -9.344  -8.824  0.00  0.00     0.167 HD
ENDBRANCH  41  43
ENDBRANCH  40  41
ENDBRANCH  39  40
ENDBRANCH  27  39
BRANCH  11  45
HETATM   45  C   UNK     0     -20.357 -12.106 -16.877  0.00  0.00     0.051 C 
BRANCH  45  46
HETATM   46  C   UNK     0     -21.794 -12.266 -16.538  0.00  0.00     0.114 C 
BRANCH  46  47
HETATM   47  C   UNK     0     -21.947 -13.595 -15.880  0.00  0.00     0.139 C 
HETATM   48  O   UNK     0     -21.684 -14.614 -16.534  0.00  0.00    -0.650 OA
BRANCH  47  49
HETATM   49  O   UNK     0     -22.370 -13.689 -14.578  0.00  0.00    -0.776 OA
HETATM   50  H   UNK     0     -23.240 -13.250 -14.254  0.00  0.00     0.167 HD
ENDBRANCH  47  49
ENDBRANCH  46  47
ENDBRANCH  45  46
ENDBRANCH  11  45
BRANCH  18  51
HETATM   51  C   UNK     0     -17.065 -13.492 -10.877  0.00  0.00     0.051 C 
BRANCH  51  52
HETATM   52  C   UNK     0     -17.856 -13.725  -9.599  0.00  0.00     0.114 C 
BRANCH  52  53
HETATM   53  C   UNK     0     -17.136 -13.229  -8.409  0.00  0.00     0.139 C 
HETATM   54  O   UNK     0     -17.461 -12.148  -7.892  0.00  0.00    -0.650 OA
BRANCH  53  55
HETATM   55  O   UNK     0     -16.106 -13.968  -7.882  0.00  0.00    -0.776 OA
HETATM   56  H   UNK     0     -15.294 -14.269  -8.368  0.00  0.00     0.167 HD
ENDBRANCH  53  55
ENDBRANCH  52  53
ENDBRANCH  51  52
ENDBRANCH  18  51
TORSDOF 16
ENDMDL
MODEL 12
REMARK VINA RESULT:      -8.6      2.507      9.650
REMARK  16 active torsions:
REMARK  status: ('A' for Active; 'I' for Inactive)
REMARK    1  A    between atoms: C_6  and  C_7 
REMARK    2  A    between atoms: C_7  and  C_8 
REMARK    3  A    between atoms: C_8  and  C_9 
REMARK    4  A    between atoms: C_9  and  O_11 
REMARK    5  A    between atoms: C_16  and  C_17 
REMARK    6  A    between atoms: C_17  and  C_18 
REMARK    7  A    between atoms: C_18  and  C_19 
REMARK    8  A    between atoms: C_19  and  O_21 
REMARK    9  A    between atoms: C_28  and  C_29 
REMARK   10  A    between atoms: C_29  and  C_30 
REMARK   11  A    between atoms: C_30  and  C_31 
REMARK   12  A    between atoms: C_31  and  O_33 
REMARK   13  A    between atoms: C_42  and  C_43 
REMARK   14  A    between atoms: C_43  and  C_44 
REMARK   15  A    between atoms: C_44  and  C_45 
REMARK   16  A    between atoms: C_45  and  O_47 
ROOT
HETATM    1  C   UNK     0     -16.242  -6.995 -13.591  0.00  0.00     0.051 C 
HETATM    2  C   UNK     0     -16.739  -7.871 -12.460  0.00  0.00    -0.031 A 
HETATM    3  C   UNK     0     -18.011  -8.370 -12.227  0.00  0.00     0.021 A 
HETATM    4  N   UNK     0     -18.003  -9.081 -11.075  0.00  0.00    -0.361 N 
HETATM    5  C   UNK     0     -16.751  -9.054 -10.573  0.00  0.00     0.022 A 
HETATM    6  C   UNK     0     -15.936  -8.303 -11.412  0.00  0.00    -0.027 A 
HETATM    7  C   UNK     0     -16.191  -9.756  -9.375  0.00  0.00     0.115 C 
HETATM    8  C   UNK     0     -16.612 -11.200  -9.173  0.00  0.00     0.021 A 
HETATM    9  N   UNK     0     -16.843 -12.142 -10.101  0.00  0.00    -0.361 N 
HETATM   10  C   UNK     0     -17.284 -13.251  -9.471  0.00  0.00     0.022 A 
HETATM   11  C   UNK     0     -17.329 -13.022  -8.099  0.00  0.00    -0.027 A 
HETATM   12  C   UNK     0     -16.906 -11.732  -7.904  0.00  0.00    -0.031 A 
HETATM   13  C   UNK     0     -16.787 -11.044  -6.562  0.00  0.00     0.051 C 
HETATM   14  C   UNK     0     -17.730 -14.549 -10.139  0.00  0.00     0.115 C 
HETATM   15  C   UNK     0     -18.915 -14.384 -11.077  0.00  0.00     0.021 A 
HETATM   16  N   UNK     0     -19.000 -13.590 -12.160  0.00  0.00    -0.361 N 
HETATM   17  C   UNK     0     -20.230 -13.677 -12.672  0.00  0.00     0.022 A 
HETATM   18  C   UNK     0     -20.979 -14.578 -11.889  0.00  0.00    -0.027 A 
HETATM   19  C   UNK     0     -20.144 -15.015 -10.894  0.00  0.00    -0.031 A 
HETATM   20  C   UNK     0     -20.544 -16.033  -9.842  0.00  0.00     0.051 C 
HETATM   21  C   UNK     0     -20.853 -12.939 -13.835  0.00  0.00     0.115 C 
HETATM   22  C   UNK     0     -20.411 -11.515 -14.074  0.00  0.00     0.022 A 
HETATM   23  N   UNK     0     -20.169 -10.557 -13.170  0.00  0.00    -0.361 N 
HETATM   24  C   UNK     0     -19.657  -9.488 -13.811  0.00  0.00     0.021 A 
HETATM   25  C   UNK     0     -19.577  -9.759 -15.164  0.00  0.00    -0.031 A 
HETATM   26  C   UNK     0     -19.109  -8.862 -16.290  0.00  0.00     0.051 C 
HETATM   27  C   UNK     0     -20.054 -11.051 -15.357  0.00  0.00    -0.027 A 
HETATM   28  C   UNK     0     -19.143  -8.195 -13.201  0.00  0.00     0.115 C 
HETATM   29  H   UNK     0     -18.890  -9.565 -10.604  0.00  0.00     0.165 HD
HETATM   30  H   UNK     0     -16.649 -12.043 -11.197  0.00  0.00     0.165 HD
HETATM   31  H   UNK     0     -18.161 -12.992 -12.603  0.00  0.00     0.165 HD
HETATM   32  H   UNK     0     -20.398 -10.612 -12.074  0.00  0.00     0.165 HD
ENDROOT
BRANCH   6  33
HETATM   33  C   UNK     0     -14.470  -7.967 -11.295  0.00  0.00     0.051 C 
BRANCH  33  34
HETATM   34  C   UNK     0     -14.276  -6.683 -10.523  0.00  0.00     0.114 C 
BRANCH  34  35
HETATM   35  C   UNK     0     -13.133  -6.893  -9.589  0.00  0.00     0.139 C 
HETATM   36  O   UNK     0     -11.951  -6.629  -9.959  0.00  0.00    -0.650 OA
BRANCH  35  37
HETATM   37  O   UNK     0     -13.299  -7.376  -8.297  0.00  0.00    -0.776 OA
HETATM   38  H   UNK     0     -12.586  -7.276  -7.593  0.00  0.00     0.167 HD
ENDBRANCH  35  37
ENDBRANCH  34  35
ENDBRANCH  33  34
ENDBRANCH   6  33
BRANCH  27  39
HETATM   39  C   UNK     0     -20.189 -11.672 -16.702  0.00  0.00     0.051 C 
BRANCH  39  40
HETATM   40  C   UNK     0     -19.229 -12.706 -17.088  0.00  0.00     0.114 C 
BRANCH  40  41
HETATM   41  C   UNK     0     -19.645 -14.025 -17.510  0.00  0.00     0.139 C 
HETATM   42  O   UNK     0     -20.508 -14.690 -16.922  0.00  0.00    -0.650 OA
BRANCH  41  43
HETATM   43  O   UNK     0     -19.040 -14.605 -18.662  0.00  0.00    -0.776 OA
HETATM   44  H   UNK     0     -19.050 -15.617 -18.675  0.00  0.00     0.167 HD
ENDBRANCH  41  43
ENDBRANCH  40  41
ENDBRANCH  39  40
ENDBRANCH  27  39
BRANCH  11  45
HETATM   45  C   UNK     0     -17.746 -13.962  -7.000  0.00  0.00     0.051 C 
BRANCH  45  46
HETATM   46  C   UNK     0     -16.806 -15.090  -6.779  0.00  0.00     0.114 C 
BRANCH  46  47
HETATM   47  C   UNK     0     -17.394 -15.953  -5.714  0.00  0.00     0.139 C 
HETATM   48  O   UNK     0     -16.637 -16.679  -5.055  0.00  0.00    -0.650 OA
BRANCH  47  49
HETATM   49  O   UNK     0     -18.744 -15.945  -5.469  0.00  0.00    -0.776 OA
HETATM   50  H   UNK     0     -19.424 -16.296  -6.153  0.00  0.00     0.167 HD
ENDBRANCH  47  49
ENDBRANCH  46  47
ENDBRANCH  45  46
ENDBRANCH  11  45
BRANCH  18  51
HETATM   51  C   UNK     0     -22.407 -15.015 -12.091  0.00  0.00     0.051 C 
BRANCH  51  52
HETATM   52  C   UNK     0     -23.212 -14.373 -10.971  0.00  0.00     0.114 C 
BRANCH  52  53
HETATM   53  C   UNK     0     -24.369 -13.618 -11.488  0.00  0.00     0.139 C 
HETATM   54  O   UNK     0     -25.340 -13.386 -10.751  0.00  0.00    -0.650 OA
BRANCH  53  55
HETATM   55  O   UNK     0     -24.366 -13.177 -12.789  0.00  0.00    -0.776 OA
HETATM   56  H   UNK     0     -23.607 -13.243 -13.427  0.00  0.00     0.167 HD
ENDBRANCH  53  55
ENDBRANCH  52  53
ENDBRANCH  51  52
ENDBRANCH  18  51
TORSDOF 16
ENDMDL
MODEL 13
REMARK VINA RESULT:      -8.5     25.874     29.494
REMARK  16 active torsions:
REMARK  status: ('A' for Active; 'I' for Inactive)
REMARK    1  A    between atoms: C_6  and  C_7 
REMARK    2  A    between atoms: C_7  and  C_8 
REMARK    3  A    between atoms: C_8  and  C_9 
REMARK    4  A    between atoms: C_9  and  O_11 
REMARK    5  A    between atoms: C_16  and  C_17 
REMARK    6  A    between atoms: C_17  and  C_18 
REMARK    7  A    between atoms: C_18  and  C_19 
REMARK    8  A    between atoms: C_19  and  O_21 
REMARK    9  A    between atoms: C_28  and  C_29 
REMARK   10  A    between atoms: C_29  and  C_30 
REMARK   11  A    between atoms: C_30  and  C_31 
REMARK   12  A    between atoms: C_31  and  O_33 
REMARK   13  A    between atoms: C_42  and  C_43 
REMARK   14  A    between atoms: C_43  and  C_44 
REMARK   15  A    between atoms: C_44  and  C_45 
REMARK   16  A    between atoms: C_45  and  O_47 
ROOT
HETATM    1  C   UNK     0       1.643 -27.577 -14.276  0.00  0.00     0.051 C 
HETATM    2  C   UNK     0       2.791 -27.616 -13.288  0.00  0.00    -0.031 A 
HETATM    3  C   UNK     0       4.155 -27.688 -13.526  0.00  0.00     0.021 A 
HETATM    4  N   UNK     0       4.808 -27.731 -12.341  0.00  0.00    -0.361 N 
HETATM    5  C   UNK     0       3.891 -27.679 -11.352  0.00  0.00     0.022 A 
HETATM    6  C   UNK     0       2.619 -27.609 -11.910  0.00  0.00    -0.027 A 
HETATM    7  C   UNK     0       4.091 -27.603  -9.871  0.00  0.00     0.115 C 
HETATM    8  C   UNK     0       5.183 -26.670  -9.378  0.00  0.00     0.021 A 
HETATM    9  N   UNK     0       5.560 -25.485  -9.881  0.00  0.00    -0.361 N 
HETATM   10  C   UNK     0       6.630 -25.053  -9.180  0.00  0.00     0.022 A 
HETATM   11  C   UNK     0       6.945 -25.981  -8.192  0.00  0.00    -0.027 A 
HETATM   12  C   UNK     0       6.037 -27.002  -8.311  0.00  0.00    -0.031 A 
HETATM   13  C   UNK     0       5.990 -28.236  -7.437  0.00  0.00     0.051 C 
HETATM   14  C   UNK     0       7.428 -23.779  -9.447  0.00  0.00     0.115 C 
HETATM   15  C   UNK     0       8.076 -23.735 -10.821  0.00  0.00     0.021 A 
HETATM   16  N   UNK     0       7.467 -23.815 -12.019  0.00  0.00    -0.361 N 
HETATM   17  C   UNK     0       8.391 -23.809 -12.982  0.00  0.00     0.022 A 
HETATM   18  C   UNK     0       9.663 -23.710 -12.384  0.00  0.00    -0.027 A 
HETATM   19  C   UNK     0       9.451 -23.663 -11.030  0.00  0.00    -0.031 A 
HETATM   20  C   UNK     0      10.563 -23.519 -10.007  0.00  0.00     0.051 C 
HETATM   21  C   UNK     0       8.236 -23.950 -14.480  0.00  0.00     0.115 C 
HETATM   22  C   UNK     0       7.125 -24.841 -14.985  0.00  0.00     0.022 A 
HETATM   23  N   UNK     0       6.725 -26.024 -14.501  0.00  0.00    -0.361 N 
HETATM   24  C   UNK     0       5.612 -26.398 -15.163  0.00  0.00     0.021 A 
HETATM   25  C   UNK     0       5.293 -25.437 -16.103  0.00  0.00    -0.031 A 
HETATM   26  C   UNK     0       4.161 -25.426 -17.109  0.00  0.00     0.051 C 
HETATM   27  C   UNK     0       6.247 -24.431 -16.008  0.00  0.00    -0.027 A 
HETATM   28  C   UNK     0       4.743 -27.617 -14.907  0.00  0.00     0.115 C 
HETATM   29  H   UNK     0       5.910 -27.838 -12.210  0.00  0.00     0.165 HD
HETATM   30  H   UNK     0       5.042 -24.926 -10.699  0.00  0.00     0.165 HD
HETATM   31  H   UNK     0       6.359 -23.829 -12.192  0.00  0.00     0.165 HD
HETATM   32  H   UNK     0       7.251 -26.628 -13.716  0.00  0.00     0.165 HD
ENDROOT
BRANCH   6  33
HETATM   33  C   UNK     0       1.269 -27.541 -11.241  0.00  0.00     0.051 C 
BRANCH  33  34
HETATM   34  C   UNK     0       0.722 -28.927 -10.997  0.00  0.00     0.114 C 
BRANCH  34  35
HETATM   35  C   UNK     0       0.598 -29.104  -9.522  0.00  0.00     0.139 C 
HETATM   36  O   UNK     0       0.381 -30.252  -9.034  0.00  0.00    -0.650 OA
BRANCH  35  37
HETATM   37  O   UNK     0       0.715 -28.047  -8.627  0.00  0.00    -0.776 OA
HETATM   38  H   UNK     0       1.543 -27.475  -8.581  0.00  0.00     0.167 HD
ENDBRANCH  35  37
ENDBRANCH  34  35
ENDBRANCH  33  34
ENDBRANCH   6  33
BRANCH  27  39
HETATM   39  C   UNK     0       6.275 -23.252 -16.917  0.00  0.00     0.051 C 
BRANCH  39  40
HETATM   40  C   UNK     0       7.175 -23.285 -18.069  0.00  0.00     0.114 C 
BRANCH  40  41
HETATM   41  C   UNK     0       7.109 -24.327 -19.069  0.00  0.00     0.139 C 
HETATM   42  O   UNK     0       6.328 -24.304 -20.029  0.00  0.00    -0.650 OA
BRANCH  41  43
HETATM   43  O   UNK     0       7.982 -25.447 -18.959  0.00  0.00    -0.776 OA
HETATM   44  H   UNK     0       7.717 -26.116 -18.247  0.00  0.00     0.167 HD
ENDBRANCH  41  43
ENDBRANCH  40  41
ENDBRANCH  39  40
ENDBRANCH  27  39
BRANCH  11  45
HETATM   45  C   UNK     0       8.046 -25.929  -7.168  0.00  0.00     0.051 C 
BRANCH  45  46
HETATM   46  C   UNK     0       9.412 -26.040  -7.740  0.00  0.00     0.114 C 
BRANCH  46  47
HETATM   47  C   UNK     0       9.682 -27.490  -7.960  0.00  0.00     0.139 C 
HETATM   48  O   UNK     0       9.795 -27.901  -9.124  0.00  0.00    -0.650 OA
BRANCH  47  49
HETATM   49  O   UNK     0       9.802 -28.351  -6.899  0.00  0.00    -0.776 OA
HETATM   50  H   UNK     0      10.700 -28.515  -6.428  0.00  0.00     0.167 HD
ENDBRANCH  47  49
ENDBRANCH  46  47
ENDBRANCH  45  46
ENDBRANCH  11  45
BRANCH  18  51
HETATM   51  C   UNK     0      11.005 -23.643 -13.065  0.00  0.00     0.051 C 
BRANCH  51  52
HETATM   52  C   UNK     0      11.081 -22.272 -13.721  0.00  0.00     0.114 C 
BRANCH  52  53
HETATM   53  C   UNK     0      11.507 -21.230 -12.767  0.00  0.00     0.139 C 
HETATM   54  O   UNK     0      12.715 -21.019 -12.576  0.00  0.00    -0.650 OA
BRANCH  53  55
HETATM   55  O   UNK     0      10.560 -20.499 -12.092  0.00  0.00    -0.776 OA
HETATM   56  H   UNK     0      10.080 -19.702 -12.439  0.00  0.00     0.167 HD
ENDBRANCH  53  55
ENDBRANCH  52  53
ENDBRANCH  51  52
ENDBRANCH  18  51
TORSDOF 16
ENDMDL
MODEL 14
REMARK VINA RESULT:      -8.4      3.060      9.291
REMARK  16 active torsions:
REMARK  status: ('A' for Active; 'I' for Inactive)
REMARK    1  A    between atoms: C_6  and  C_7 
REMARK    2  A    between atoms: C_7  and  C_8 
REMARK    3  A    between atoms: C_8  and  C_9 
REMARK    4  A    between atoms: C_9  and  O_11 
REMARK    5  A    between atoms: C_16  and  C_17 
REMARK    6  A    between atoms: C_17  and  C_18 
REMARK    7  A    between atoms: C_18  and  C_19 
REMARK    8  A    between atoms: C_19  and  O_21 
REMARK    9  A    between atoms: C_28  and  C_29 
REMARK   10  A    between atoms: C_29  and  C_30 
REMARK   11  A    between atoms: C_30  and  C_31 
REMARK   12  A    between atoms: C_31  and  O_33 
REMARK   13  A    between atoms: C_42  and  C_43 
REMARK   14  A    between atoms: C_43  and  C_44 
REMARK   15  A    between atoms: C_44  and  C_45 
REMARK   16  A    between atoms: C_45  and  O_47 
ROOT
HETATM    1  C   UNK     0     -16.168  -6.237 -13.498  0.00  0.00     0.051 C 
HETATM    2  C   UNK     0     -16.655  -7.139 -12.382  0.00  0.00    -0.031 A 
HETATM    3  C   UNK     0     -17.900  -7.722 -12.201  0.00  0.00     0.021 A 
HETATM    4  N   UNK     0     -17.894  -8.425 -11.044  0.00  0.00    -0.361 N 
HETATM    5  C   UNK     0     -16.671  -8.311 -10.488  0.00  0.00     0.022 A 
HETATM    6  C   UNK     0     -15.871  -7.510 -11.297  0.00  0.00    -0.027 A 
HETATM    7  C   UNK     0     -16.117  -8.967  -9.261  0.00  0.00     0.115 C 
HETATM    8  C   UNK     0     -16.448 -10.436  -9.066  0.00  0.00     0.021 A 
HETATM    9  N   UNK     0     -16.575 -11.395  -9.996  0.00  0.00    -0.361 N 
HETATM   10  C   UNK     0     -16.967 -12.529  -9.377  0.00  0.00     0.022 A 
HETATM   11  C   UNK     0     -17.088 -12.296  -8.010  0.00  0.00    -0.027 A 
HETATM   12  C   UNK     0     -16.762 -10.979  -7.807  0.00  0.00    -0.031 A 
HETATM   13  C   UNK     0     -16.749 -10.279  -6.467  0.00  0.00     0.051 C 
HETATM   14  C   UNK     0     -17.294 -13.858 -10.053  0.00  0.00     0.115 C 
HETATM   15  C   UNK     0     -18.445 -13.778 -11.043  0.00  0.00     0.021 A 
HETATM   16  N   UNK     0     -18.536 -12.997 -12.136  0.00  0.00    -0.361 N 
HETATM   17  C   UNK     0     -19.734 -13.169 -12.700  0.00  0.00     0.022 A 
HETATM   18  C   UNK     0     -20.454 -14.115 -11.944  0.00  0.00    -0.027 A 
HETATM   19  C   UNK     0     -19.636 -14.489 -10.910  0.00  0.00    -0.031 A 
HETATM   20  C   UNK     0     -20.013 -15.527  -9.868  0.00  0.00     0.051 C 
HETATM   21  C   UNK     0     -20.354 -12.481 -13.895  0.00  0.00     0.115 C 
HETATM   22  C   UNK     0     -19.998 -11.031 -14.126  0.00  0.00     0.022 A 
HETATM   23  N   UNK     0     -19.861 -10.055 -13.219  0.00  0.00    -0.361 N 
HETATM   24  C   UNK     0     -19.395  -8.956 -13.847  0.00  0.00     0.021 A 
HETATM   25  C   UNK     0     -19.237  -9.229 -15.192  0.00  0.00    -0.031 A 
HETATM   26  C   UNK     0     -18.782  -8.307 -16.304  0.00  0.00     0.051 C 
HETATM   27  C   UNK     0     -19.617 -10.550 -15.395  0.00  0.00    -0.027 A 
HETATM   28  C   UNK     0     -18.997  -7.629 -13.224  0.00  0.00     0.115 C 
HETATM   29  H   UNK     0     -18.767  -8.965 -10.609  0.00  0.00     0.165 HD
HETATM   30  H   UNK     0     -16.339 -11.289 -11.083  0.00  0.00     0.165 HD
HETATM   31  H   UNK     0     -17.721 -12.346 -12.546  0.00  0.00     0.165 HD
HETATM   32  H   UNK     0     -20.134 -10.119 -12.134  0.00  0.00     0.165 HD
ENDROOT
BRANCH   6  33
HETATM   33  C   UNK     0     -14.439  -7.075 -11.119  0.00  0.00     0.051 C 
BRANCH  33  34
HETATM   34  C   UNK     0     -13.496  -8.233 -11.345  0.00  0.00     0.114 C 
BRANCH  34  35
HETATM   35  C   UNK     0     -13.203  -8.291 -12.806  0.00  0.00     0.139 C 
HETATM   36  O   UNK     0     -12.672  -7.301 -13.390  0.00  0.00    -0.650 OA
BRANCH  35  37
HETATM   37  O   UNK     0     -13.487  -9.408 -13.583  0.00  0.00    -0.776 OA
HETATM   38  H   UNK     0     -13.332 -10.345 -13.249  0.00  0.00     0.167 HD
ENDBRANCH  35  37
ENDBRANCH  34  35
ENDBRANCH  33  34
ENDBRANCH   6  33
BRANCH  27  39
HETATM   39  C   UNK     0     -19.650 -11.186 -16.740  0.00  0.00     0.051 C 
BRANCH  39  40
HETATM   40  C   UNK     0     -18.488 -11.964 -17.169  0.00  0.00     0.114 C 
BRANCH  40  41
HETATM   41  C   UNK     0     -17.157 -11.697 -16.672  0.00  0.00     0.139 C 
HETATM   42  O   UNK     0     -16.332 -10.994 -17.271  0.00  0.00    -0.650 OA
BRANCH  41  43
HETATM   43  O   UNK     0     -16.757 -12.266 -15.430  0.00  0.00    -0.776 OA
HETATM   44  H   UNK     0     -17.504 -12.715 -14.914  0.00  0.00     0.167 HD
ENDBRANCH  41  43
ENDBRANCH  40  41
ENDBRANCH  39  40
ENDBRANCH  27  39
BRANCH  11  45
HETATM   45  C   UNK     0     -17.488 -13.257  -6.923  0.00  0.00     0.051 C 
BRANCH  45  46
HETATM   46  C   UNK     0     -16.760 -14.551  -6.960  0.00  0.00     0.114 C 
BRANCH  46  47
HETATM   47  C   UNK     0     -17.397 -15.444  -5.950  0.00  0.00     0.139 C 
HETATM   48  O   UNK     0     -16.897 -16.559  -5.746  0.00  0.00    -0.650 OA
BRANCH  47  49
HETATM   49  O   UNK     0     -18.514 -15.043  -5.262  0.00  0.00    -0.776 OA
HETATM   50  H   UNK     0     -19.121 -15.710  -4.770  0.00  0.00     0.167 HD
ENDBRANCH  47  49
ENDBRANCH  46  47
ENDBRANCH  45  46
ENDBRANCH  11  45
BRANCH  18  51
HETATM   51  C   UNK     0     -21.839 -14.649 -12.204  0.00  0.00     0.051 C 
BRANCH  51  52
HETATM   52  C   UNK     0     -21.679 -15.772 -13.218  0.00  0.00     0.114 C 
BRANCH  52  53
HETATM   53  C   UNK     0     -21.769 -17.102 -12.583  0.00  0.00     0.139 C 
HETATM   54  O   UNK     0     -20.899 -17.958 -12.807  0.00  0.00    -0.650 OA
BRANCH  53  55
HETATM   55  O   UNK     0     -22.822 -17.386 -11.748  0.00  0.00    -0.776 OA
HETATM   56  H   UNK     0     -23.018 -16.940 -10.882  0.00  0.00     0.167 HD
ENDBRANCH  53  55
ENDBRANCH  52  53
ENDBRANCH  51  52
ENDBRANCH  18  51
TORSDOF 16
ENDMDL
MODEL 15
REMARK VINA RESULT:      -8.4      4.378      6.665
REMARK  16 active torsions:
REMARK  status: ('A' for Active; 'I' for Inactive)
REMARK    1  A    between atoms: C_6  and  C_7 
REMARK    2  A    between atoms: C_7  and  C_8 
REMARK    3  A    between atoms: C_8  and  C_9 
REMARK    4  A    between atoms: C_9  and  O_11 
REMARK    5  A    between atoms: C_16  and  C_17 
REMARK    6  A    between atoms: C_17  and  C_18 
REMARK    7  A    between atoms: C_18  and  C_19 
REMARK    8  A    between atoms: C_19  and  O_21 
REMARK    9  A    between atoms: C_28  and  C_29 
REMARK   10  A    between atoms: C_29  and  C_30 
REMARK   11  A    between atoms: C_30  and  C_31 
REMARK   12  A    between atoms: C_31  and  O_33 
REMARK   13  A    between atoms: C_42  and  C_43 
REMARK   14  A    between atoms: C_43  and  C_44 
REMARK   15  A    between atoms: C_44  and  C_45 
REMARK   16  A    between atoms: C_45  and  O_47 
ROOT
HETATM    1  C   UNK     0     -19.923 -12.912 -15.175  0.00  0.00     0.051 C 
HETATM    2  C   UNK     0     -19.989 -11.717 -16.104  0.00  0.00    -0.031 A 
HETATM    3  C   UNK     0     -20.211 -10.382 -15.805  0.00  0.00     0.021 A 
HETATM    4  N   UNK     0     -20.217  -9.667 -16.955  0.00  0.00    -0.361 N 
HETATM    5  C   UNK     0     -19.994 -10.516 -17.980  0.00  0.00     0.022 A 
HETATM    6  C   UNK     0     -19.850 -11.807 -17.483  0.00  0.00    -0.027 A 
HETATM    7  C   UNK     0     -19.814 -10.224 -19.436  0.00  0.00     0.115 C 
HETATM    8  C   UNK     0     -18.951  -9.024 -19.789  0.00  0.00     0.021 A 
HETATM    9  N   UNK     0     -17.854  -8.571 -19.163  0.00  0.00    -0.361 N 
HETATM   10  C   UNK     0     -17.470  -7.427 -19.768  0.00  0.00     0.022 A 
HETATM   11  C   UNK     0     -18.337  -7.140 -20.818  0.00  0.00    -0.027 A 
HETATM   12  C   UNK     0     -19.273  -8.143 -20.837  0.00  0.00    -0.031 A 
HETATM   13  C   UNK     0     -20.418  -8.252 -21.818  0.00  0.00     0.051 C 
HETATM   14  C   UNK     0     -16.306  -6.533 -19.349  0.00  0.00     0.115 C 
HETATM   15  C   UNK     0     -16.440  -5.965 -17.945  0.00  0.00     0.021 A 
HETATM   16  N   UNK     0     -16.562  -6.648 -16.791  0.00  0.00    -0.361 N 
HETATM   17  C   UNK     0     -16.726  -5.785 -15.786  0.00  0.00     0.022 A 
HETATM   18  C   UNK     0     -16.700  -4.476 -16.308  0.00  0.00    -0.027 A 
HETATM   19  C   UNK     0     -16.519  -4.603 -17.661  0.00  0.00    -0.031 A 
HETATM   20  C   UNK     0     -16.396  -3.425 -18.610  0.00  0.00     0.051 C 
HETATM   21  C   UNK     0     -16.977  -6.040 -14.317  0.00  0.00     0.115 C 
HETATM   22  C   UNK     0     -17.796  -7.254 -13.950  0.00  0.00     0.022 A 
HETATM   23  N   UNK     0     -18.890  -7.732 -14.557  0.00  0.00    -0.361 N 
HETATM   24  C   UNK     0     -19.210  -8.912 -13.988  0.00  0.00     0.021 A 
HETATM   25  C   UNK     0     -18.305  -9.196 -12.983  0.00  0.00    -0.031 A 
HETATM   26  C   UNK     0     -18.271 -10.379 -12.038  0.00  0.00     0.051 C 
HETATM   27  C   UNK     0     -17.391  -8.150 -12.939  0.00  0.00    -0.027 A 
HETATM   28  C   UNK     0     -20.315  -9.871 -14.396  0.00  0.00     0.115 C 
HETATM   29  H   UNK     0     -20.418  -8.574 -17.039  0.00  0.00     0.165 HD
HETATM   30  H   UNK     0     -17.319  -9.082 -18.326  0.00  0.00     0.165 HD
HETATM   31  H   UNK     0     -16.483  -7.760 -16.676  0.00  0.00     0.165 HD
HETATM   32  H   UNK     0     -19.474  -7.219 -15.365  0.00  0.00     0.165 HD
ENDROOT
BRANCH   6  33
HETATM   33  C   UNK     0     -19.596 -13.104 -18.210  0.00  0.00     0.051 C 
BRANCH  33  34
HETATM   34  C   UNK     0     -18.415 -12.971 -19.143  0.00  0.00     0.114 C 
BRANCH  34  35
HETATM   35  C   UNK     0     -17.220 -12.655 -18.308  0.00  0.00     0.139 C 
HETATM   36  O   UNK     0     -16.830 -13.467 -17.420  0.00  0.00    -0.650 OA
BRANCH  35  37
HETATM   37  O   UNK     0     -16.490 -11.482 -18.460  0.00  0.00    -0.776 OA
HETATM   38  H   UNK     0     -15.745 -11.400 -19.133  0.00  0.00     0.167 HD
ENDBRANCH  35  37
ENDBRANCH  34  35
ENDBRANCH  33  34
ENDBRANCH   6  33
BRANCH  27  39
HETATM   39  C   UNK     0     -16.301  -8.067 -11.929  0.00  0.00     0.051 C 
BRANCH  39  40
HETATM   40  C   UNK     0     -16.577  -7.387 -10.664  0.00  0.00     0.114 C 
BRANCH  40  41
HETATM   41  C   UNK     0     -16.378  -8.028  -9.384  0.00  0.00     0.139 C 
HETATM   42  O   UNK     0     -15.479  -7.711  -8.594  0.00  0.00    -0.650 OA
BRANCH  41  43
HETATM   43  O   UNK     0     -17.252  -9.083  -8.996  0.00  0.00    -0.776 OA
HETATM   44  H   UNK     0     -17.705  -9.557  -9.768  0.00  0.00     0.167 HD
ENDBRANCH  41  43
ENDBRANCH  40  41
ENDBRANCH  39  40
ENDBRANCH  27  39
BRANCH  11  45
HETATM   45  C   UNK     0     -18.305  -5.981 -21.777  0.00  0.00     0.051 C 
BRANCH  45  46
HETATM   46  C   UNK     0     -19.414  -5.010 -21.591  0.00  0.00     0.114 C 
BRANCH  46  47
HETATM   47  C   UNK     0     -18.797  -3.693 -21.264  0.00  0.00     0.139 C 
HETATM   48  O   UNK     0     -19.333  -2.987 -20.398  0.00  0.00    -0.650 OA
BRANCH  47  49
HETATM   49  O   UNK     0     -17.663  -3.269 -21.908  0.00  0.00    -0.776 OA
HETATM   50  H   UNK     0     -17.594  -2.338 -22.336  0.00  0.00     0.167 HD
ENDBRANCH  47  49
ENDBRANCH  46  47
ENDBRANCH  45  46
ENDBRANCH  11  45
BRANCH  18  51
HETATM   51  C   UNK     0     -16.819  -3.176 -15.557  0.00  0.00     0.051 C 
BRANCH  51  52
HETATM   52  C   UNK     0     -15.513  -3.003 -14.795  0.00  0.00     0.114 C 
BRANCH  52  53
HETATM   53  C   UNK     0     -15.664  -2.088 -13.647  0.00  0.00     0.139 C 
HETATM   54  O   UNK     0     -16.733  -1.482 -13.472  0.00  0.00    -0.650 OA
BRANCH  53  55
HETATM   55  O   UNK     0     -14.615  -1.908 -12.779  0.00  0.00    -0.776 OA
HETATM   56  H   UNK     0     -13.678  -1.699 -13.031  0.00  0.00     0.167 HD
ENDBRANCH  53  55
ENDBRANCH  52  53
ENDBRANCH  51  52
ENDBRANCH  18  51
TORSDOF 16
ENDMDL
MODEL 16
REMARK VINA RESULT:      -8.3      2.846      9.928
REMARK  16 active torsions:
REMARK  status: ('A' for Active; 'I' for Inactive)
REMARK    1  A    between atoms: C_6  and  C_7 
REMARK    2  A    between atoms: C_7  and  C_8 
REMARK    3  A    between atoms: C_8  and  C_9 
REMARK    4  A    between atoms: C_9  and  O_11 
REMARK    5  A    between atoms: C_16  and  C_17 
REMARK    6  A    between atoms: C_17  and  C_18 
REMARK    7  A    between atoms: C_18  and  C_19 
REMARK    8  A    between atoms: C_19  and  O_21 
REMARK    9  A    between atoms: C_28  and  C_29 
REMARK   10  A    between atoms: C_29  and  C_30 
REMARK   11  A    between atoms: C_30  and  C_31 
REMARK   12  A    between atoms: C_31  and  O_33 
REMARK   13  A    between atoms: C_42  and  C_43 
REMARK   14  A    between atoms: C_43  and  C_44 
REMARK   15  A    between atoms: C_44  and  C_45 
REMARK   16  A    between atoms: C_45  and  O_47 
ROOT
HETATM    1  C   UNK     0     -15.990  -6.368 -13.123  0.00  0.00     0.051 C 
HETATM    2  C   UNK     0     -16.502  -7.287 -12.033  0.00  0.00    -0.031 A 
HETATM    3  C   UNK     0     -17.766  -7.831 -11.862  0.00  0.00     0.021 A 
HETATM    4  N   UNK     0     -17.778  -8.571 -10.729  0.00  0.00    -0.361 N 
HETATM    5  C   UNK     0     -16.548  -8.519 -10.178  0.00  0.00     0.022 A 
HETATM    6  C   UNK     0     -15.725  -7.722 -10.967  0.00  0.00    -0.027 A 
HETATM    7  C   UNK     0     -16.011  -9.234  -8.977  0.00  0.00     0.115 C 
HETATM    8  C   UNK     0     -16.393 -10.696  -8.827  0.00  0.00     0.021 A 
HETATM    9  N   UNK     0     -16.560 -11.619  -9.787  0.00  0.00    -0.361 N 
HETATM   10  C   UNK     0     -16.990 -12.758  -9.202  0.00  0.00     0.022 A 
HETATM   11  C   UNK     0     -17.093 -12.565  -7.828  0.00  0.00    -0.027 A 
HETATM   12  C   UNK     0     -16.719 -11.268  -7.585  0.00  0.00    -0.031 A 
HETATM   13  C   UNK     0     -16.672 -10.613  -6.223  0.00  0.00     0.051 C 
HETATM   14  C   UNK     0     -17.369 -14.051  -9.918  0.00  0.00     0.115 C 
HETATM   15  C   UNK     0     -18.523 -13.898 -10.897  0.00  0.00     0.021 A 
HETATM   16  N   UNK     0     -18.592 -13.079 -11.963  0.00  0.00    -0.361 N 
HETATM   17  C   UNK     0     -19.799 -13.190 -12.523  0.00  0.00     0.022 A 
HETATM   18  C   UNK     0     -20.548 -14.133 -11.792  0.00  0.00    -0.027 A 
HETATM   19  C   UNK     0     -19.737 -14.570 -10.777  0.00  0.00    -0.031 A 
HETATM   20  C   UNK     0     -20.144 -15.627  -9.767  0.00  0.00     0.051 C 
HETATM   21  C   UNK     0     -20.401 -12.441 -13.690  0.00  0.00     0.115 C 
HETATM   22  C   UNK     0     -19.994 -10.998 -13.877  0.00  0.00     0.022 A 
HETATM   23  N   UNK     0     -19.817 -10.057 -12.940  0.00  0.00    -0.361 N 
HETATM   24  C   UNK     0     -19.315  -8.956 -13.535  0.00  0.00     0.021 A 
HETATM   25  C   UNK     0     -19.176  -9.190 -14.890  0.00  0.00    -0.031 A 
HETATM   26  C   UNK     0     -18.694  -8.249 -15.975  0.00  0.00     0.051 C 
HETATM   27  C   UNK     0     -19.604 -10.490 -15.133  0.00  0.00    -0.027 A 
HETATM   28  C   UNK     0     -18.865  -7.665 -12.873  0.00  0.00     0.115 C 
HETATM   29  H   UNK     0     -18.667  -9.094 -10.304  0.00  0.00     0.165 HD
HETATM   30  H   UNK     0     -16.328 -11.486 -10.872  0.00  0.00     0.165 HD
HETATM   31  H   UNK     0     -17.756 -12.444 -12.358  0.00  0.00     0.165 HD
HETATM   32  H   UNK     0     -20.085 -10.147 -11.856  0.00  0.00     0.165 HD
ENDROOT
BRANCH   6  33
HETATM   33  C   UNK     0     -14.277  -7.344 -10.786  0.00  0.00     0.051 C 
BRANCH  33  34
HETATM   34  C   UNK     0     -14.056  -6.704  -9.436  0.00  0.00     0.114 C 
BRANCH  34  35
HETATM   35  C   UNK     0     -13.163  -5.527  -9.640  0.00  0.00     0.139 C 
HETATM   36  O   UNK     0     -13.620  -4.461 -10.146  0.00  0.00    -0.650 OA
BRANCH  35  37
HETATM   37  O   UNK     0     -11.817  -5.538  -9.293  0.00  0.00    -0.776 OA
HETATM   38  H   UNK     0     -11.113  -5.107  -9.870  0.00  0.00     0.167 HD
ENDBRANCH  35  37
ENDBRANCH  34  35
ENDBRANCH  33  34
ENDBRANCH   6  33
BRANCH  27  39
HETATM   39  C   UNK     0     -19.669 -11.080 -16.498  0.00  0.00     0.051 C 
BRANCH  39  40
HETATM   40  C   UNK     0     -20.957 -11.088 -17.190  0.00  0.00     0.114 C 
BRANCH  40  41
HETATM   41  C   UNK     0     -22.121 -10.413 -16.661  0.00  0.00     0.139 C 
HETATM   42  O   UNK     0     -22.296  -9.189 -16.740  0.00  0.00    -0.650 OA
BRANCH  41  43
HETATM   43  O   UNK     0     -23.129 -11.180 -16.010  0.00  0.00    -0.776 OA
HETATM   44  H   UNK     0     -24.072 -10.836 -16.149  0.00  0.00     0.167 HD
ENDBRANCH  41  43
ENDBRANCH  40  41
ENDBRANCH  39  40
ENDBRANCH  27  39
BRANCH  11  45
HETATM   45  C   UNK     0     -17.521 -13.546  -6.769  0.00  0.00     0.051 C 
BRANCH  45  46
HETATM   46  C   UNK     0     -16.905 -14.891  -6.904  0.00  0.00     0.114 C 
BRANCH  46  47
HETATM   47  C   UNK     0     -17.731 -15.837  -6.101  0.00  0.00     0.139 C 
HETATM   48  O   UNK     0     -17.592 -15.847  -4.870  0.00  0.00    -0.650 OA
BRANCH  47  49
HETATM   49  O   UNK     0     -18.624 -16.682  -6.711  0.00  0.00    -0.776 OA
HETATM   50  H   UNK     0     -19.004 -17.509  -6.235  0.00  0.00     0.167 HD
ENDBRANCH  47  49
ENDBRANCH  46  47
ENDBRANCH  45  46
ENDBRANCH  11  45
BRANCH  18  51
HETATM   51  C   UNK     0     -21.953 -14.608 -12.060  0.00  0.00     0.051 C 
BRANCH  51  52
HETATM   52  C   UNK     0     -21.844 -15.674 -13.140  0.00  0.00     0.114 C 
BRANCH  52  53
HETATM   53  C   UNK     0     -21.888 -17.036 -12.574  0.00  0.00     0.139 C 
HETATM   54  O   UNK     0     -20.986 -17.847 -12.835  0.00  0.00    -0.650 OA
BRANCH  53  55
HETATM   55  O   UNK     0     -22.935 -17.401 -11.762  0.00  0.00    -0.776 OA
HETATM   56  H   UNK     0     -23.819 -17.735 -12.064  0.00  0.00     0.167 HD
ENDBRANCH  53  55
ENDBRANCH  52  53
ENDBRANCH  51  52
ENDBRANCH  18  51
TORSDOF 16
ENDMDL
MODEL 17
REMARK VINA RESULT:      -8.2      1.834      6.958
REMARK  16 active torsions:
REMARK  status: ('A' for Active; 'I' for Inactive)
REMARK    1  A    between atoms: C_6  and  C_7 
REMARK    2  A    between atoms: C_7  and  C_8 
REMARK    3  A    between atoms: C_8  and  C_9 
REMARK    4  A    between atoms: C_9  and  O_11 
REMARK    5  A    between atoms: C_16  and  C_17 
REMARK    6  A    between atoms: C_17  and  C_18 
REMARK    7  A    between atoms: C_18  and  C_19 
REMARK    8  A    between atoms: C_19  and  O_21 
REMARK    9  A    between atoms: C_28  and  C_29 
REMARK   10  A    between atoms: C_29  and  C_30 
REMARK   11  A    between atoms: C_30  and  C_31 
REMARK   12  A    between atoms: C_31  and  O_33 
REMARK   13  A    between atoms: C_42  and  C_43 
REMARK   14  A    between atoms: C_43  and  C_44 
REMARK   15  A    between atoms: C_44  and  C_45 
REMARK   16  A    between atoms: C_45  and  O_47 
ROOT
HETATM    1  C   UNK     0     -17.097  -6.611 -13.479  0.00  0.00     0.051 C 
HETATM    2  C   UNK     0     -17.498  -7.928 -14.111  0.00  0.00    -0.031 A 
HETATM    3  C   UNK     0     -16.940  -9.187 -13.951  0.00  0.00     0.021 A 
HETATM    4  N   UNK     0     -17.604 -10.067 -14.737  0.00  0.00    -0.361 N 
HETATM    5  C   UNK     0     -18.579  -9.398 -15.388  0.00  0.00     0.022 A 
HETATM    6  C   UNK     0     -18.539  -8.057 -15.022  0.00  0.00    -0.027 A 
HETATM    7  C   UNK     0     -19.646  -9.919 -16.299  0.00  0.00     0.115 C 
HETATM    8  C   UNK     0     -20.333 -11.206 -15.878  0.00  0.00     0.021 A 
HETATM    9  N   UNK     0     -20.643 -11.622 -14.640  0.00  0.00    -0.361 N 
HETATM   10  C   UNK     0     -21.161 -12.865 -14.732  0.00  0.00     0.022 A 
HETATM   11  C   UNK     0     -21.194 -13.257 -16.067  0.00  0.00    -0.027 A 
HETATM   12  C   UNK     0     -20.675 -12.217 -16.794  0.00  0.00    -0.031 A 
HETATM   13  C   UNK     0     -20.519 -12.193 -18.298  0.00  0.00     0.051 C 
HETATM   14  C   UNK     0     -21.593 -13.750 -13.567  0.00  0.00     0.115 C 
HETATM   15  C   UNK     0     -20.470 -14.088 -12.600  0.00  0.00     0.021 A 
HETATM   16  N   UNK     0     -19.706 -13.232 -11.897  0.00  0.00    -0.361 N 
HETATM   17  C   UNK     0     -18.785 -13.921 -11.219  0.00  0.00     0.022 A 
HETATM   18  C   UNK     0     -18.964 -15.293 -11.485  0.00  0.00    -0.027 A 
HETATM   19  C   UNK     0     -20.023 -15.384 -12.351  0.00  0.00    -0.031 A 
HETATM   20  C   UNK     0     -20.577 -16.699 -12.870  0.00  0.00     0.051 C 
HETATM   21  C   UNK     0     -17.654 -13.431 -10.344  0.00  0.00     0.115 C 
HETATM   22  C   UNK     0     -16.989 -12.129 -10.727  0.00  0.00     0.022 A 
HETATM   23  N   UNK     0     -16.673 -11.688 -11.951  0.00  0.00    -0.361 N 
HETATM   24  C   UNK     0     -16.231 -10.418 -11.843  0.00  0.00     0.021 A 
HETATM   25  C   UNK     0     -16.254 -10.037 -10.515  0.00  0.00    -0.031 A 
HETATM   26  C   UNK     0     -15.818  -8.727  -9.891  0.00  0.00     0.051 C 
HETATM   27  C   UNK     0     -16.736 -11.115  -9.781  0.00  0.00    -0.027 A 
HETATM   28  C   UNK     0     -15.844  -9.470 -12.964  0.00  0.00     0.115 C 
HETATM   29  H   UNK     0     -17.355 -11.147 -14.857  0.00  0.00     0.165 HD
HETATM   30  H   UNK     0     -20.543 -11.020 -13.703  0.00  0.00     0.165 HD
HETATM   31  H   UNK     0     -19.848 -12.121 -11.840  0.00  0.00     0.165 HD
HETATM   32  H   UNK     0     -16.718 -12.283 -12.900  0.00  0.00     0.165 HD
ENDROOT
BRANCH   6  33
HETATM   33  C   UNK     0     -19.401  -6.904 -15.468  0.00  0.00     0.051 C 
BRANCH  33  34
HETATM   34  C   UNK     0     -20.472  -6.609 -14.444  0.00  0.00     0.114 C 
BRANCH  34  35
HETATM   35  C   UNK     0     -21.542  -7.634 -14.610  0.00  0.00     0.139 C 
HETATM   36  O   UNK     0     -22.328  -7.580 -15.600  0.00  0.00    -0.650 OA
BRANCH  35  37
HETATM   37  O   UNK     0     -21.727  -8.676 -13.710  0.00  0.00    -0.776 OA
HETATM   38  H   UNK     0     -21.772  -9.638 -14.008  0.00  0.00     0.167 HD
ENDBRANCH  35  37
ENDBRANCH  34  35
ENDBRANCH  33  34
ENDBRANCH   6  33
BRANCH  27  39
HETATM   39  C   UNK     0     -16.836 -11.105  -8.297  0.00  0.00     0.051 C 
BRANCH  39  40
HETATM   40  C   UNK     0     -16.805  -9.816  -7.607  0.00  0.00     0.114 C 
BRANCH  40  41
HETATM   41  C   UNK     0     -17.834  -9.416  -6.673  0.00  0.00     0.139 C 
HETATM   42  O   UNK     0     -18.902 -10.027  -6.530  0.00  0.00    -0.650 OA
BRANCH  41  43
HETATM   43  O   UNK     0     -17.625  -8.262  -5.867  0.00  0.00    -0.776 OA
HETATM   44  H   UNK     0     -17.072  -7.537  -6.309  0.00  0.00     0.167 HD
ENDBRANCH  41  43
ENDBRANCH  40  41
ENDBRANCH  39  40
ENDBRANCH  27  39
BRANCH  11  45
HETATM   45  C   UNK     0     -21.692 -14.549 -16.657  0.00  0.00     0.051 C 
BRANCH  45  46
HETATM   46  C   UNK     0     -20.774 -15.699 -16.460  0.00  0.00     0.114 C 
BRANCH  46  47
HETATM   47  C   UNK     0     -20.082 -15.940 -17.759  0.00  0.00     0.139 C 
HETATM   48  O   UNK     0     -20.515 -16.829 -18.505  0.00  0.00    -0.650 OA
BRANCH  47  49
HETATM   49  O   UNK     0     -18.989 -15.194 -18.122  0.00  0.00    -0.776 OA
HETATM   50  H   UNK     0     -18.746 -14.317 -17.646  0.00  0.00     0.167 HD
ENDBRANCH  47  49
ENDBRANCH  46  47
ENDBRANCH  45  46
ENDBRANCH  11  45
BRANCH  18  51
HETATM   51  C   UNK     0     -18.182 -16.454 -10.929  0.00  0.00     0.051 C 
BRANCH  51  52
HETATM   52  C   UNK     0     -18.730 -16.707  -9.533  0.00  0.00     0.114 C 
BRANCH  52  53
HETATM   53  C   UNK     0     -19.222 -18.090  -9.377  0.00  0.00     0.139 C 
HETATM   54  O   UNK     0     -20.258 -18.450  -9.959  0.00  0.00    -0.650 OA
BRANCH  53  55
HETATM   55  O   UNK     0     -18.530 -18.972  -8.584  0.00  0.00    -0.776 OA
HETATM   56  H   UNK     0     -18.111 -18.765  -7.708  0.00  0.00     0.167 HD
ENDBRANCH  53  55
ENDBRANCH  52  53
ENDBRANCH  51  52
ENDBRANCH  18  51
TORSDOF 16
ENDMDL
MODEL 18
REMARK VINA RESULT:      -8.2     25.432     28.567
REMARK  16 active torsions:
REMARK  status: ('A' for Active; 'I' for Inactive)
REMARK    1  A    between atoms: C_6  and  C_7 
REMARK    2  A    between atoms: C_7  and  C_8 
REMARK    3  A    between atoms: C_8  and  C_9 
REMARK    4  A    between atoms: C_9  and  O_11 
REMARK    5  A    between atoms: C_16  and  C_17 
REMARK    6  A    between atoms: C_17  and  C_18 
REMARK    7  A    between atoms: C_18  and  C_19 
REMARK    8  A    between atoms: C_19  and  O_21 
REMARK    9  A    between atoms: C_28  and  C_29 
REMARK   10  A    between atoms: C_29  and  C_30 
REMARK   11  A    between atoms: C_30  and  C_31 
REMARK   12  A    between atoms: C_31  and  O_33 
REMARK   13  A    between atoms: C_42  and  C_43 
REMARK   14  A    between atoms: C_43  and  C_44 
REMARK   15  A    between atoms: C_44  and  C_45 
REMARK   16  A    between atoms: C_45  and  O_47 
ROOT
HETATM    1  C   UNK     0       3.023 -28.105  -7.738  0.00  0.00     0.051 C 
HETATM    2  C   UNK     0       3.175 -27.160  -8.913  0.00  0.00    -0.031 A 
HETATM    3  C   UNK     0       3.757 -25.903  -8.962  0.00  0.00     0.021 A 
HETATM    4  N   UNK     0       3.638 -25.410 -10.218  0.00  0.00    -0.361 N 
HETATM    5  C   UNK     0       3.001 -26.330 -10.973  0.00  0.00     0.022 A 
HETATM    6  C   UNK     0       2.695 -27.436 -10.187  0.00  0.00    -0.027 A 
HETATM    7  C   UNK     0       2.706 -26.318 -12.440  0.00  0.00     0.115 C 
HETATM    8  C   UNK     0       3.815 -25.830 -13.355  0.00  0.00     0.021 A 
HETATM    9  N   UNK     0       5.140 -26.001 -13.227  0.00  0.00    -0.361 N 
HETATM   10  C   UNK     0       5.749 -25.318 -14.220  0.00  0.00     0.022 A 
HETATM   11  C   UNK     0       4.789 -24.697 -15.014  0.00  0.00    -0.027 A 
HETATM   12  C   UNK     0       3.569 -25.016 -14.475  0.00  0.00    -0.031 A 
HETATM   13  C   UNK     0       2.230 -24.563 -15.013  0.00  0.00     0.051 C 
HETATM   14  C   UNK     0       7.254 -25.180 -14.428  0.00  0.00     0.115 C 
HETATM   15  C   UNK     0       7.976 -24.509 -13.270  0.00  0.00     0.021 A 
HETATM   16  N   UNK     0       8.011 -24.904 -11.984  0.00  0.00    -0.361 N 
HETATM   17  C   UNK     0       8.693 -24.007 -11.268  0.00  0.00     0.022 A 
HETATM   18  C   UNK     0       9.132 -22.983 -12.131  0.00  0.00    -0.027 A 
HETATM   19  C   UNK     0       8.677 -23.310 -13.383  0.00  0.00    -0.031 A 
HETATM   20  C   UNK     0       8.960 -22.485 -14.625  0.00  0.00     0.051 C 
HETATM   21  C   UNK     0       8.957 -23.948  -9.781  0.00  0.00     0.115 C 
HETATM   22  C   UNK     0       7.879 -24.471  -8.860  0.00  0.00     0.022 A 
HETATM   23  N   UNK     0       6.553 -24.319  -8.965  0.00  0.00    -0.361 N 
HETATM   24  C   UNK     0       5.964 -25.071  -8.013  0.00  0.00     0.021 A 
HETATM   25  C   UNK     0       6.935 -25.714  -7.271  0.00  0.00    -0.031 A 
HETATM   26  C   UNK     0       6.772 -26.630  -6.075  0.00  0.00     0.051 C 
HETATM   27  C   UNK     0       8.170 -25.346  -7.794  0.00  0.00    -0.027 A 
HETATM   28  C   UNK     0       4.478 -25.295  -7.793  0.00  0.00     0.115 C 
HETATM   29  H   UNK     0       3.970 -24.400 -10.553  0.00  0.00     0.165 HD
HETATM   30  H   UNK     0       5.647 -26.645 -12.467  0.00  0.00     0.165 HD
HETATM   31  H   UNK     0       7.587 -25.860 -11.580  0.00  0.00     0.165 HD
HETATM   32  H   UNK     0       6.020 -23.645  -9.685  0.00  0.00     0.165 HD
ENDROOT
BRANCH   6  33
HETATM   33  C   UNK     0       1.987 -28.717 -10.549  0.00  0.00     0.051 C 
BRANCH  33  34
HETATM   34  C   UNK     0       0.489 -28.525 -10.530  0.00  0.00     0.114 C 
BRANCH  34  35
HETATM   35  C   UNK     0      -0.023 -29.135  -9.270  0.00  0.00     0.139 C 
HETATM   36  O   UNK     0       0.173 -30.362  -9.030  0.00  0.00    -0.650 OA
BRANCH  35  37
HETATM   37  O   UNK     0      -0.722 -28.406  -8.315  0.00  0.00    -0.776 OA
HETATM   38  H   UNK     0      -1.721 -28.285  -8.361  0.00  0.00     0.167 HD
ENDBRANCH  35  37
ENDBRANCH  34  35
ENDBRANCH  33  34
ENDBRANCH   6  33
BRANCH  27  39
HETATM   39  C   UNK     0       9.464 -25.787  -7.206  0.00  0.00     0.051 C 
BRANCH  39  40
HETATM   40  C   UNK     0       9.883 -27.173  -7.412  0.00  0.00     0.114 C 
BRANCH  40  41
HETATM   41  C   UNK     0       9.567 -27.902  -8.620  0.00  0.00     0.139 C 
HETATM   42  O   UNK     0       9.048 -29.027  -8.623  0.00  0.00    -0.650 OA
BRANCH  41  43
HETATM   43  O   UNK     0       9.860 -27.311  -9.881  0.00  0.00    -0.776 OA
HETATM   44  H   UNK     0       9.473 -26.384 -10.010  0.00  0.00     0.167 HD
ENDBRANCH  41  43
ENDBRANCH  40  41
ENDBRANCH  39  40
ENDBRANCH  27  39
BRANCH  11  45
HETATM   45  C   UNK     0       4.988 -23.839 -16.235  0.00  0.00     0.051 C 
BRANCH  45  46
HETATM   46  C   UNK     0       5.072 -24.604 -17.506  0.00  0.00     0.114 C 
BRANCH  46  47
HETATM   47  C   UNK     0       5.342 -23.621 -18.594  0.00  0.00     0.139 C 
HETATM   48  O   UNK     0       4.743 -22.537 -18.576  0.00  0.00    -0.650 OA
BRANCH  47  49
HETATM   49  O   UNK     0       6.234 -23.911 -19.596  0.00  0.00    -0.776 OA
HETATM   50  H   UNK     0       7.091 -24.448 -19.425  0.00  0.00     0.167 HD
ENDBRANCH  47  49
ENDBRANCH  46  47
ENDBRANCH  45  46
ENDBRANCH  11  45
BRANCH  18  51
HETATM   51  C   UNK     0       9.957 -21.771 -11.786  0.00  0.00     0.051 C 
BRANCH  51  52
HETATM   52  C   UNK     0      11.406 -22.233 -11.767  0.00  0.00     0.114 C 
BRANCH  52  53
HETATM   53  C   UNK     0      12.181 -21.659 -12.884  0.00  0.00     0.139 C 
HETATM   54  O   UNK     0      12.527 -20.467 -12.853  0.00  0.00    -0.650 OA
BRANCH  53  55
HETATM   55  O   UNK     0      12.513 -22.450 -13.957  0.00  0.00    -0.776 OA
HETATM   56  H   UNK     0      12.740 -22.131 -14.870  0.00  0.00     0.167 HD
ENDBRANCH  53  55
ENDBRANCH  52  53
ENDBRANCH  51  52
ENDBRANCH  18  51
TORSDOF 16
ENDMDL
MODEL 19
REMARK VINA RESULT:      -7.9      2.651      7.059
REMARK  16 active torsions:
REMARK  status: ('A' for Active; 'I' for Inactive)
REMARK    1  A    between atoms: C_6  and  C_7 
REMARK    2  A    between atoms: C_7  and  C_8 
REMARK    3  A    between atoms: C_8  and  C_9 
REMARK    4  A    between atoms: C_9  and  O_11 
REMARK    5  A    between atoms: C_16  and  C_17 
REMARK    6  A    between atoms: C_17  and  C_18 
REMARK    7  A    between atoms: C_18  and  C_19 
REMARK    8  A    between atoms: C_19  and  O_21 
REMARK    9  A    between atoms: C_28  and  C_29 
REMARK   10  A    between atoms: C_29  and  C_30 
REMARK   11  A    between atoms: C_30  and  C_31 
REMARK   12  A    between atoms: C_31  and  O_33 
REMARK   13  A    between atoms: C_42  and  C_43 
REMARK   14  A    between atoms: C_43  and  C_44 
REMARK   15  A    between atoms: C_44  and  C_45 
REMARK   16  A    between atoms: C_45  and  O_47 
ROOT
HETATM    1  C   UNK     0     -15.362  -6.345 -15.757  0.00  0.00     0.051 C 
HETATM    2  C   UNK     0     -15.766  -7.792 -15.957  0.00  0.00    -0.031 A 
HETATM    3  C   UNK     0     -15.416  -8.913 -15.221  0.00  0.00     0.021 A 
HETATM    4  N   UNK     0     -15.987 -10.005 -15.782  0.00  0.00    -0.361 N 
HETATM    5  C   UNK     0     -16.700  -9.604 -16.854  0.00  0.00     0.022 A 
HETATM    6  C   UNK     0     -16.582  -8.225 -16.994  0.00  0.00    -0.027 A 
HETATM    7  C   UNK     0     -17.589 -10.399 -17.758  0.00  0.00     0.115 C 
HETATM    8  C   UNK     0     -18.505 -11.413 -17.094  0.00  0.00     0.021 A 
HETATM    9  N   UNK     0     -19.134 -11.323 -15.913  0.00  0.00    -0.361 N 
HETATM   10  C   UNK     0     -19.764 -12.495 -15.683  0.00  0.00     0.022 A 
HETATM   11  C   UNK     0     -19.542 -13.359 -16.751  0.00  0.00    -0.027 A 
HETATM   12  C   UNK     0     -18.750 -12.684 -17.644  0.00  0.00    -0.031 A 
HETATM   13  C   UNK     0     -18.256 -13.233 -18.964  0.00  0.00     0.051 C 
HETATM   14  C   UNK     0     -20.553 -12.864 -14.430  0.00  0.00     0.115 C 
HETATM   15  C   UNK     0     -19.726 -12.845 -13.154  0.00  0.00     0.021 A 
HETATM   16  N   UNK     0     -19.043 -11.808 -12.634  0.00  0.00    -0.361 N 
HETATM   17  C   UNK     0     -18.390 -12.217 -11.544  0.00  0.00     0.022 A 
HETATM   18  C   UNK     0     -18.668 -13.583 -11.339  0.00  0.00    -0.027 A 
HETATM   19  C   UNK     0     -19.507 -13.964 -12.354  0.00  0.00    -0.031 A 
HETATM   20  C   UNK     0     -20.085 -15.361 -12.492  0.00  0.00     0.051 C 
HETATM   21  C   UNK     0     -17.434 -11.466 -10.645  0.00  0.00     0.115 C 
HETATM   22  C   UNK     0     -16.548 -10.423 -11.285  0.00  0.00     0.022 A 
HETATM   23  N   UNK     0     -15.912 -10.484 -12.462  0.00  0.00    -0.361 N 
HETATM   24  C   UNK     0     -15.356  -9.280 -12.705  0.00  0.00     0.021 A 
HETATM   25  C   UNK     0     -15.632  -8.426 -11.654  0.00  0.00    -0.031 A 
HETATM   26  C   UNK     0     -15.193  -6.991 -11.451  0.00  0.00     0.051 C 
HETATM   27  C   UNK     0     -16.394  -9.135 -10.733  0.00  0.00    -0.027 A 
HETATM   28  C   UNK     0     -14.613  -8.834 -13.953  0.00  0.00     0.115 C 
HETATM   29  H   UNK     0     -15.849 -11.057 -15.440  0.00  0.00     0.165 HD
HETATM   30  H   UNK     0     -19.177 -10.417 -15.260  0.00  0.00     0.165 HD
HETATM   31  H   UNK     0     -19.059 -10.755 -13.016  0.00  0.00     0.165 HD
HETATM   32  H   UNK     0     -15.813 -11.391 -13.113  0.00  0.00     0.165 HD
ENDROOT
BRANCH   6  33
HETATM   33  C   UNK     0     -17.176  -7.300 -18.027  0.00  0.00     0.051 C 
BRANCH  33  34
HETATM   34  C   UNK     0     -16.132  -6.887 -19.038  0.00  0.00     0.114 C 
BRANCH  34  35
HETATM   35  C   UNK     0     -16.163  -7.886 -20.144  0.00  0.00     0.139 C 
HETATM   36  O   UNK     0     -17.267  -8.242 -20.651  0.00  0.00    -0.650 OA
BRANCH  35  37
HETATM   37  O   UNK     0     -15.011  -8.462 -20.667  0.00  0.00    -0.776 OA
HETATM   38  H   UNK     0     -14.887  -9.460 -20.713  0.00  0.00     0.167 HD
ENDBRANCH  35  37
ENDBRANCH  34  35
ENDBRANCH  33  34
ENDBRANCH   6  33
BRANCH  27  39
HETATM   39  C   UNK     0     -16.825  -8.565  -9.428  0.00  0.00     0.051 C 
BRANCH  39  40
HETATM   40  C   UNK     0     -15.955  -8.750  -8.267  0.00  0.00     0.114 C 
BRANCH  40  41
HETATM   41  C   UNK     0     -15.102  -7.695  -7.767  0.00  0.00     0.139 C 
HETATM   42  O   UNK     0     -15.533  -6.633  -7.298  0.00  0.00    -0.650 OA
BRANCH  41  43
HETATM   43  O   UNK     0     -13.690  -7.870  -7.807  0.00  0.00    -0.776 OA
HETATM   44  H   UNK     0     -13.233  -7.801  -6.906  0.00  0.00     0.167 HD
ENDBRANCH  41  43
ENDBRANCH  40  41
ENDBRANCH  39  40
ENDBRANCH  27  39
BRANCH  11  45
HETATM   45  C   UNK     0     -20.047 -14.764 -16.946  0.00  0.00     0.051 C 
BRANCH  45  46
HETATM   46  C   UNK     0     -20.861 -14.950 -18.174  0.00  0.00     0.114 C 
BRANCH  46  47
HETATM   47  C   UNK     0     -20.238 -16.058 -18.953  0.00  0.00     0.139 C 
HETATM   48  O   UNK     0     -20.134 -15.933 -20.182  0.00  0.00    -0.650 OA
BRANCH  47  49
HETATM   49  O   UNK     0     -19.791 -17.194 -18.326  0.00  0.00    -0.776 OA
HETATM   50  H   UNK     0     -19.048 -17.169 -17.618  0.00  0.00     0.167 HD
ENDBRANCH  47  49
ENDBRANCH  46  47
ENDBRANCH  45  46
ENDBRANCH  11  45
BRANCH  18  51
HETATM   51  C   UNK     0     -18.179 -14.471 -10.224  0.00  0.00     0.051 C 
BRANCH  51  52
HETATM   52  C   UNK     0     -16.763 -14.883 -10.598  0.00  0.00     0.114 C 
BRANCH  52  53
HETATM   53  C   UNK     0     -16.348 -16.117  -9.905  0.00  0.00     0.139 C 
HETATM   54  O   UNK     0     -16.510 -17.221 -10.450  0.00  0.00    -0.650 OA
BRANCH  53  55
HETATM   55  O   UNK     0     -15.785 -16.038  -8.654  0.00  0.00    -0.776 OA
HETATM   56  H   UNK     0     -16.276 -16.051  -7.791  0.00  0.00     0.167 HD
ENDBRANCH  53  55
ENDBRANCH  52  53
ENDBRANCH  51  52
ENDBRANCH  18  51
TORSDOF 16
ENDMDL
MODEL 20
REMARK VINA RESULT:      -7.8     28.895     33.856
REMARK  16 active torsions:
REMARK  status: ('A' for Active; 'I' for Inactive)
REMARK    1  A    between atoms: C_6  and  C_7 
REMARK    2  A    between atoms: C_7  and  C_8 
REMARK    3  A    between atoms: C_8  and  C_9 
REMARK    4  A    between atoms: C_9  and  O_11 
REMARK    5  A    between atoms: C_16  and  C_17 
REMARK    6  A    between atoms: C_17  and  C_18 
REMARK    7  A    between atoms: C_18  and  C_19 
REMARK    8  A    between atoms: C_19  and  O_21 
REMARK    9  A    between atoms: C_28  and  C_29 
REMARK   10  A    between atoms: C_29  and  C_30 
REMARK   11  A    between atoms: C_30  and  C_31 
REMARK   12  A    between atoms: C_31  and  O_33 
REMARK   13  A    between atoms: C_42  and  C_43 
REMARK   14  A    between atoms: C_43  and  C_44 
REMARK   15  A    between atoms: C_44  and  C_45 
REMARK   16  A    between atoms: C_45  and  O_47 
ROOT
HETATM    1  C   UNK     0       6.034   8.975  -3.871  0.00  0.00     0.051 C 
HETATM    2  C   UNK     0       6.614   8.704  -5.244  0.00  0.00    -0.031 A 
HETATM    3  C   UNK     0       6.082   7.975  -6.296  0.00  0.00     0.021 A 
HETATM    4  N   UNK     0       6.964   7.973  -7.323  0.00  0.00    -0.361 N 
HETATM    5  C   UNK     0       8.044   8.692  -6.952  0.00  0.00     0.022 A 
HETATM    6  C   UNK     0       7.859   9.162  -5.656  0.00  0.00    -0.027 A 
HETATM    7  C   UNK     0       9.254   9.072  -7.748  0.00  0.00     0.115 C 
HETATM    8  C   UNK     0       9.015   9.522  -9.178  0.00  0.00     0.021 A 
HETATM    9  N   UNK     0       7.988  10.231  -9.671  0.00  0.00    -0.361 N 
HETATM   10  C   UNK     0       8.143  10.318 -11.009  0.00  0.00     0.022 A 
HETATM   11  C   UNK     0       9.306   9.655 -11.388  0.00  0.00    -0.027 A 
HETATM   12  C   UNK     0       9.861   9.152 -10.239  0.00  0.00    -0.031 A 
HETATM   13  C   UNK     0      11.145   8.357 -10.164  0.00  0.00     0.051 C 
HETATM   14  C   UNK     0       7.177  10.981 -11.987  0.00  0.00     0.115 C 
HETATM   15  C   UNK     0       5.790  10.358 -12.001  0.00  0.00     0.021 A 
HETATM   16  N   UNK     0       4.936  10.232 -10.968  0.00  0.00    -0.361 N 
HETATM   17  C   UNK     0       3.853   9.566 -11.374  0.00  0.00     0.022 A 
HETATM   18  C   UNK     0       4.004   9.251 -12.739  0.00  0.00    -0.027 A 
HETATM   19  C   UNK     0       5.221   9.754 -13.120  0.00  0.00    -0.031 A 
HETATM   20  C   UNK     0       5.765   9.666 -14.534  0.00  0.00     0.051 C 
HETATM   21  C   UNK     0       2.644   9.106 -10.590  0.00  0.00     0.115 C 
HETATM   22  C   UNK     0       2.860   8.697  -9.152  0.00  0.00     0.022 A 
HETATM   23  N   UNK     0       3.875   7.995  -8.632  0.00  0.00    -0.361 N 
HETATM   24  C   UNK     0       3.742   7.987  -7.290  0.00  0.00     0.021 A 
HETATM   25  C   UNK     0       2.607   8.693  -6.939  0.00  0.00    -0.031 A 
HETATM   26  C   UNK     0       2.019   8.928  -5.563  0.00  0.00     0.051 C 
HETATM   27  C   UNK     0       2.026   9.157  -8.113  0.00  0.00    -0.027 A 
HETATM   28  C   UNK     0       4.695   7.398  -6.265  0.00  0.00     0.115 C 
HETATM   29  H   UNK     0       6.836   7.430  -8.288  0.00  0.00     0.165 HD
HETATM   30  H   UNK     0       7.178  10.714  -9.072  0.00  0.00     0.165 HD
HETATM   31  H   UNK     0       5.079  10.662  -9.943  0.00  0.00     0.165 HD
HETATM   32  H   UNK     0       4.673   7.461  -9.211  0.00  0.00     0.165 HD
ENDROOT
BRANCH   6  33
HETATM   33  C   UNK     0       8.766   9.999  -4.790  0.00  0.00     0.051 C 
BRANCH  33  34
HETATM   34  C   UNK     0       9.277   9.196  -3.617  0.00  0.00     0.114 C 
BRANCH  34  35
HETATM   35  C   UNK     0      10.530   8.517  -4.053  0.00  0.00     0.139 C 
HETATM   36  O   UNK     0      11.650   9.084  -3.898  0.00  0.00    -0.650 OA
BRANCH  35  37
HETATM   37  O   UNK     0      10.534   7.255  -4.636  0.00  0.00    -0.776 OA
HETATM   38  H   UNK     0      11.387   6.802  -4.924  0.00  0.00     0.167 HD
ENDBRANCH  35  37
ENDBRANCH  34  35
ENDBRANCH  33  34
ENDBRANCH   6  33
BRANCH  27  39
HETATM   39  C   UNK     0       0.739   9.904  -8.140  0.00  0.00     0.051 C 
BRANCH  39  40
HETATM   40  C   UNK     0      -0.506   9.139  -8.206  0.00  0.00     0.114 C 
BRANCH  40  41
HETATM   41  C   UNK     0      -1.763   9.672  -7.731  0.00  0.00     0.139 C 
HETATM   42  O   UNK     0      -2.515   9.063  -6.957  0.00  0.00    -0.650 OA
BRANCH  41  43
HETATM   43  O   UNK     0      -2.175  10.964  -8.165  0.00  0.00    -0.776 OA
HETATM   44  H   UNK     0      -1.529  11.709  -7.934  0.00  0.00     0.167 HD
ENDBRANCH  41  43
ENDBRANCH  40  41
ENDBRANCH  39  40
ENDBRANCH  27  39
BRANCH  11  45
HETATM   45  C   UNK     0       9.893   9.493 -12.764  0.00  0.00     0.051 C 
BRANCH  45  46
HETATM   46  C   UNK     0       9.183   8.501 -13.612  0.00  0.00     0.114 C 
BRANCH  46  47
HETATM   47  C   UNK     0      10.223   7.660 -14.272  0.00  0.00     0.139 C 
HETATM   48  O   UNK     0      10.724   8.061 -15.331  0.00  0.00    -0.650 OA
BRANCH  47  49
HETATM   49  O   UNK     0      10.616   6.467 -13.721  0.00  0.00    -0.776 OA
HETATM   50  H   UNK     0      11.596   6.273 -13.483  0.00  0.00     0.167 HD
ENDBRANCH  47  49
ENDBRANCH  46  47
ENDBRANCH  45  46
ENDBRANCH  11  45
BRANCH  18  51
HETATM   51  C   UNK     0       3.032   8.530 -13.637  0.00  0.00     0.051 C 
BRANCH  51  52
HETATM   52  C   UNK     0       3.497   7.083 -13.692  0.00  0.00     0.114 C 
BRANCH  52  53
HETATM   53  C   UNK     0       2.689   6.212 -12.816  0.00  0.00     0.139 C 
HETATM   54  O   UNK     0       1.605   6.617 -12.366  0.00  0.00    -0.650 OA
BRANCH  53  55
HETATM   55  O   UNK     0       3.145   4.956 -12.499  0.00  0.00    -0.776 OA
HETATM   56  H   UNK     0       2.602   4.216 -12.120  0.00  0.00     0.167 HD
ENDBRANCH  53  55
ENDBRANCH  52  53
ENDBRANCH  51  52
ENDBRANCH  18  51
TORSDOF 16
ENDMDL
