MODEL 1
REMARK VINA RESULT:     -10.3      0.000      0.000
REMARK  16 active torsions:
REMARK  status: ('A' for Active; 'I' for Inactive)
REMARK    1  A    between atoms: C_6  and  C_7 
REMARK    2  A    between atoms: C_7  and  C_8 
REMARK    3  A    between atoms: C_8  and  C_9 
REMARK    4  A    between atoms: C_9  and  O_11 
REMARK    5  A    between atoms: C_16  and  C_17 
REMARK    6  A    between atoms: C_17  and  C_18 
REMARK    7  A    between atoms: C_18  and  C_19 
REMARK    8  A    between atoms: C_19  and  O_21 
REMARK    9  A    between atoms: C_28  and  C_29 
REMARK   10  A    between atoms: C_29  and  C_30 
REMARK   11  A    between atoms: C_30  and  C_31 
REMARK   12  A    between atoms: C_31  and  O_33 
REMARK   13  A    between atoms: C_42  and  C_43 
REMARK   14  A    between atoms: C_43  and  C_44 
REMARK   15  A    between atoms: C_44  and  C_45 
REMARK   16  A    between atoms: C_45  and  O_47 
ROOT
HETATM    1  C   UNK     0      39.087   8.713  63.816  0.00  0.00     0.051 C 
HETATM    2  C   UNK     0      39.272  10.212  63.935  0.00  0.00    -0.031 A 
HETATM    3  C   UNK     0      38.728  11.230  63.167  0.00  0.00     0.021 A 
HETATM    4  N   UNK     0      39.196  12.419  63.615  0.00  0.00    -0.361 N 
HETATM    5  C   UNK     0      40.019  12.182  64.657  0.00  0.00     0.022 A 
HETATM    6  C   UNK     0      40.092  10.812  64.882  0.00  0.00    -0.027 A 
HETATM    7  C   UNK     0      40.717  13.152  65.559  0.00  0.00     0.115 C 
HETATM    8  C   UNK     0      39.910  14.352  66.023  0.00  0.00     0.021 A 
HETATM    9  N   UNK     0      38.603  14.417  66.320  0.00  0.00    -0.361 N 
HETATM   10  C   UNK     0      38.299  15.703  66.597  0.00  0.00     0.022 A 
HETATM   11  C   UNK     0      39.444  16.486  66.484  0.00  0.00    -0.027 A 
HETATM   12  C   UNK     0      40.462  15.642  66.123  0.00  0.00    -0.031 A 
HETATM   13  C   UNK     0      41.898  16.054  65.890  0.00  0.00     0.051 C 
HETATM   14  C   UNK     0      36.913  16.251  66.925  0.00  0.00     0.115 C 
HETATM   15  C   UNK     0      35.894  16.054  65.814  0.00  0.00     0.021 A 
HETATM   16  N   UNK     0      35.497  14.893  65.259  0.00  0.00    -0.361 N 
HETATM   17  C   UNK     0      34.641  15.150  64.268  0.00  0.00     0.022 A 
HETATM   18  C   UNK     0      34.464  16.545  64.179  0.00  0.00    -0.027 A 
HETATM   19  C   UNK     0      35.253  17.100  65.153  0.00  0.00    -0.031 A 
HETATM   20  C   UNK     0      35.332  18.590  65.429  0.00  0.00     0.051 C 
HETATM   21  C   UNK     0      33.969  14.208  63.295  0.00  0.00     0.115 C 
HETATM   22  C   UNK     0      34.744  12.987  62.859  0.00  0.00     0.022 A 
HETATM   23  N   UNK     0      36.046  12.893  62.560  0.00  0.00    -0.361 N 
HETATM   24  C   UNK     0      36.343  11.592  62.364  0.00  0.00     0.021 A 
HETATM   25  C   UNK     0      35.201  10.831  62.530  0.00  0.00    -0.031 A 
HETATM   26  C   UNK     0      35.022   9.336  62.375  0.00  0.00     0.051 C 
HETATM   27  C   UNK     0      34.165  11.702  62.847  0.00  0.00    -0.027 A 
HETATM   28  C   UNK     0      37.706  10.980  62.094  0.00  0.00     0.115 C 
HETATM   29  H   UNK     0      38.972  13.415  63.166  0.00  0.00     0.165 HD
HETATM   30  H   UNK     0      37.902  13.549  66.384  0.00  0.00     0.165 HD
HETATM   31  H   UNK     0      35.791  13.867  65.605  0.00  0.00     0.165 HD
HETATM   32  H   UNK     0      36.760  13.749  62.443  0.00  0.00     0.165 HD
ENDROOT
BRANCH   6  33
HETATM   33  C   UNK     0      40.873  10.039  65.914  0.00  0.00     0.051 C 
BRANCH  33  34
HETATM   34  C   UNK     0      40.017   9.742  67.122  0.00  0.00     0.114 C 
BRANCH  34  35
HETATM   35  C   UNK     0      40.769  10.197  68.326  0.00  0.00     0.139 C 
HETATM   36  O   UNK     0      41.949  10.639  68.210  0.00  0.00    -0.650 OA
BRANCH  35  37
HETATM   37  O   UNK     0      40.227  10.164  69.605  0.00  0.00    -0.776 OA
HETATM   38  H   UNK     0      39.238  10.254  69.769  0.00  0.00     0.167 HD
ENDBRANCH  35  37
ENDBRANCH  34  35
ENDBRANCH  33  34
ENDBRANCH   6  33
BRANCH  27  39
HETATM   39  C   UNK     0      32.757  11.254  63.030  0.00  0.00     0.051 C 
BRANCH  39  40
HETATM   40  C   UNK     0      32.350  10.766  64.348  0.00  0.00     0.114 C 
BRANCH  40  41
HETATM   41  C   UNK     0      32.760  11.418  65.571  0.00  0.00     0.139 C 
HETATM   42  O   UNK     0      32.351  12.533  65.922  0.00  0.00    -0.650 OA
BRANCH  41  43
HETATM   43  O   UNK     0      33.682  10.757  66.431  0.00  0.00    -0.776 OA
HETATM   44  H   UNK     0      34.634  11.097  66.366  0.00  0.00     0.167 HD
ENDBRANCH  41  43
ENDBRANCH  40  41
ENDBRANCH  39  40
ENDBRANCH  27  39
BRANCH  11  45
HETATM   45  C   UNK     0      39.596  17.967  66.704  0.00  0.00     0.051 C 
BRANCH  45  46
HETATM   46  C   UNK     0      39.084  18.802  65.588  0.00  0.00     0.114 C 
BRANCH  46  47
HETATM   47  C   UNK     0      40.205  19.679  65.143  0.00  0.00     0.139 C 
HETATM   48  O   UNK     0      39.960  20.594  64.343  0.00  0.00    -0.650 OA
BRANCH  47  49
HETATM   49  O   UNK     0      41.481  19.479  65.606  0.00  0.00    -0.776 OA
HETATM   50  H   UNK     0      41.680  18.871  66.409  0.00  0.00     0.167 HD
ENDBRANCH  47  49
ENDBRANCH  46  47
ENDBRANCH  45  46
ENDBRANCH  11  45
BRANCH  18  51
HETATM   51  C   UNK     0      33.575  17.307  63.231  0.00  0.00     0.051 C 
BRANCH  51  52
HETATM   52  C   UNK     0      32.214  17.400  63.904  0.00  0.00     0.114 C 
BRANCH  52  53
HETATM   53  C   UNK     0      31.117  17.074  62.973  0.00  0.00     0.139 C 
HETATM   54  O   UNK     0      31.192  17.411  61.781  0.00  0.00    -0.650 OA
BRANCH  53  55
HETATM   55  O   UNK     0      30.013  16.398  63.434  0.00  0.00    -0.776 OA
HETATM   56  H   UNK     0      29.066  16.648  63.272  0.00  0.00     0.167 HD
ENDBRANCH  53  55
ENDBRANCH  52  53
ENDBRANCH  51  52
ENDBRANCH  18  51
TORSDOF 16
ENDMDL
MODEL 2
REMARK VINA RESULT:     -10.2      1.915      2.295
REMARK  16 active torsions:
REMARK  status: ('A' for Active; 'I' for Inactive)
REMARK    1  A    between atoms: C_6  and  C_7 
REMARK    2  A    between atoms: C_7  and  C_8 
REMARK    3  A    between atoms: C_8  and  C_9 
REMARK    4  A    between atoms: C_9  and  O_11 
REMARK    5  A    between atoms: C_16  and  C_17 
REMARK    6  A    between atoms: C_17  and  C_18 
REMARK    7  A    between atoms: C_18  and  C_19 
REMARK    8  A    between atoms: C_19  and  O_21 
REMARK    9  A    between atoms: C_28  and  C_29 
REMARK   10  A    between atoms: C_29  and  C_30 
REMARK   11  A    between atoms: C_30  and  C_31 
REMARK   12  A    between atoms: C_31  and  O_33 
REMARK   13  A    between atoms: C_42  and  C_43 
REMARK   14  A    between atoms: C_43  and  C_44 
REMARK   15  A    between atoms: C_44  and  C_45 
REMARK   16  A    between atoms: C_45  and  O_47 
ROOT
HETATM    1  C   UNK     0      38.182   8.723  63.544  0.00  0.00     0.051 C 
HETATM    2  C   UNK     0      38.514  10.181  63.784  0.00  0.00    -0.031 A 
HETATM    3  C   UNK     0      38.303  11.278  62.964  0.00  0.00     0.021 A 
HETATM    4  N   UNK     0      38.789  12.385  63.574  0.00  0.00    -0.361 N 
HETATM    5  C   UNK     0      39.296  12.020  64.769  0.00  0.00     0.022 A 
HETATM    6  C   UNK     0      39.143  10.647  64.932  0.00  0.00    -0.027 A 
HETATM    7  C   UNK     0      39.863  12.869  65.863  0.00  0.00     0.115 C 
HETATM    8  C   UNK     0      39.120  14.154  66.183  0.00  0.00     0.021 A 
HETATM    9  N   UNK     0      37.798  14.383  66.160  0.00  0.00    -0.361 N 
HETATM   10  C   UNK     0      37.594  15.691  66.424  0.00  0.00     0.022 A 
HETATM   11  C   UNK     0      38.818  16.320  66.632  0.00  0.00    -0.027 A 
HETATM   12  C   UNK     0      39.784  15.358  66.482  0.00  0.00    -0.031 A 
HETATM   13  C   UNK     0      41.272  15.583  66.624  0.00  0.00     0.051 C 
HETATM   14  C   UNK     0      36.247  16.409  66.438  0.00  0.00     0.115 C 
HETATM   15  C   UNK     0      35.516  16.373  65.106  0.00  0.00     0.021 A 
HETATM   16  N   UNK     0      35.130  15.287  64.410  0.00  0.00    -0.361 N 
HETATM   17  C   UNK     0      34.581  15.676  63.258  0.00  0.00     0.022 A 
HETATM   18  C   UNK     0      34.603  17.084  63.203  0.00  0.00    -0.027 A 
HETATM   19  C   UNK     0      35.190  17.508  64.367  0.00  0.00    -0.031 A 
HETATM   20  C   UNK     0      35.379  18.969  64.733  0.00  0.00     0.051 C 
HETATM   21  C   UNK     0      34.059  14.853  62.102  0.00  0.00     0.115 C 
HETATM   22  C   UNK     0      34.762  13.550  61.801  0.00  0.00     0.022 A 
HETATM   23  N   UNK     0      36.076  13.292  61.820  0.00  0.00    -0.361 N 
HETATM   24  C   UNK     0      36.251  11.968  61.631  0.00  0.00     0.021 A 
HETATM   25  C   UNK     0      35.020  11.361  61.477  0.00  0.00    -0.031 A 
HETATM   26  C   UNK     0      34.703   9.905  61.203  0.00  0.00     0.051 C 
HETATM   27  C   UNK     0      34.051  12.353  61.581  0.00  0.00    -0.027 A 
HETATM   28  C   UNK     0      37.554  11.189  61.664  0.00  0.00     0.115 C 
HETATM   29  H   UNK     0      38.805  13.412  63.139  0.00  0.00     0.165 HD
HETATM   30  H   UNK     0      37.002  13.613  66.007  0.00  0.00     0.165 HD
HETATM   31  H   UNK     0      35.202  14.224  64.761  0.00  0.00     0.165 HD
HETATM   32  H   UNK     0      36.896  14.050  61.923  0.00  0.00     0.165 HD
ENDROOT
BRANCH   6  33
HETATM   33  C   UNK     0      39.547   9.755  66.078  0.00  0.00     0.051 C 
BRANCH  33  34
HETATM   34  C   UNK     0      41.040   9.527  66.079  0.00  0.00     0.114 C 
BRANCH  34  35
HETATM   35  C   UNK     0      41.595  10.207  67.285  0.00  0.00     0.139 C 
HETATM   36  O   UNK     0      40.897  10.312  68.335  0.00  0.00    -0.650 OA
BRANCH  35  37
HETATM   37  O   UNK     0      42.875  10.745  67.318  0.00  0.00    -0.776 OA
HETATM   38  H   UNK     0      43.037  11.733  67.433  0.00  0.00     0.167 HD
ENDBRANCH  35  37
ENDBRANCH  34  35
ENDBRANCH  33  34
ENDBRANCH   6  33
BRANCH  27  39
HETATM   39  C   UNK     0      32.598  12.089  61.396  0.00  0.00     0.051 C 
BRANCH  39  40
HETATM   40  C   UNK     0      32.069  12.046  60.033  0.00  0.00     0.114 C 
BRANCH  40  41
HETATM   41  C   UNK     0      31.602  13.232  59.350  0.00  0.00     0.139 C 
HETATM   42  O   UNK     0      31.282  13.250  58.153  0.00  0.00    -0.650 OA
BRANCH  41  43
HETATM   43  O   UNK     0      31.500  14.453  60.075  0.00  0.00    -0.776 OA
HETATM   44  H   UNK     0      30.683  15.007  59.849  0.00  0.00     0.167 HD
ENDBRANCH  41  43
ENDBRANCH  40  41
ENDBRANCH  39  40
ENDBRANCH  27  39
BRANCH  11  45
HETATM   45  C   UNK     0      39.092  17.763  66.962  0.00  0.00     0.051 C 
BRANCH  45  46
HETATM   46  C   UNK     0      39.065  18.669  65.786  0.00  0.00     0.114 C 
BRANCH  46  47
HETATM   47  C   UNK     0      39.773  19.922  66.177  0.00  0.00     0.139 C 
HETATM   48  O   UNK     0      39.699  20.904  65.426  0.00  0.00    -0.650 OA
BRANCH  47  49
HETATM   49  O   UNK     0      40.493  19.987  67.344  0.00  0.00    -0.776 OA
HETATM   50  H   UNK     0      40.675  20.876  67.823  0.00  0.00     0.167 HD
ENDBRANCH  47  49
ENDBRANCH  46  47
ENDBRANCH  45  46
ENDBRANCH  11  45
BRANCH  18  51
HETATM   51  C   UNK     0      34.073  17.977  62.111  0.00  0.00     0.051 C 
BRANCH  51  52
HETATM   52  C   UNK     0      32.668  18.378  62.533  0.00  0.00     0.114 C 
BRANCH  52  53
HETATM   53  C   UNK     0      31.639  17.767  61.668  0.00  0.00     0.139 C 
HETATM   54  O   UNK     0      31.939  17.374  60.529  0.00  0.00    -0.650 OA
BRANCH  53  55
HETATM   55  O   UNK     0      30.352  17.640  62.129  0.00  0.00    -0.776 OA
HETATM   56  H   UNK     0      29.539  18.018  61.703  0.00  0.00     0.167 HD
ENDBRANCH  53  55
ENDBRANCH  52  53
ENDBRANCH  51  52
ENDBRANCH  18  51
TORSDOF 16
ENDMDL
MODEL 3
REMARK VINA RESULT:     -10.0      2.366      7.471
REMARK  16 active torsions:
REMARK  status: ('A' for Active; 'I' for Inactive)
REMARK    1  A    between atoms: C_6  and  C_7 
REMARK    2  A    between atoms: C_7  and  C_8 
REMARK    3  A    between atoms: C_8  and  C_9 
REMARK    4  A    between atoms: C_9  and  O_11 
REMARK    5  A    between atoms: C_16  and  C_17 
REMARK    6  A    between atoms: C_17  and  C_18 
REMARK    7  A    between atoms: C_18  and  C_19 
REMARK    8  A    between atoms: C_19  and  O_21 
REMARK    9  A    between atoms: C_28  and  C_29 
REMARK   10  A    between atoms: C_29  and  C_30 
REMARK   11  A    between atoms: C_30  and  C_31 
REMARK   12  A    between atoms: C_31  and  O_33 
REMARK   13  A    between atoms: C_42  and  C_43 
REMARK   14  A    between atoms: C_43  and  C_44 
REMARK   15  A    between atoms: C_44  and  C_45 
REMARK   16  A    between atoms: C_45  and  O_47 
ROOT
HETATM    1  C   UNK     0      36.961  19.590  65.404  0.00  0.00     0.051 C 
HETATM    2  C   UNK     0      37.347  18.131  65.543  0.00  0.00    -0.031 A 
HETATM    3  C   UNK     0      36.539  17.005  65.550  0.00  0.00     0.021 A 
HETATM    4  N   UNK     0      37.313  15.908  65.730  0.00  0.00    -0.361 N 
HETATM    5  C   UNK     0      38.597  16.310  65.829  0.00  0.00     0.022 A 
HETATM    6  C   UNK     0      38.654  17.696  65.719  0.00  0.00    -0.027 A 
HETATM    7  C   UNK     0      39.845  15.492  65.941  0.00  0.00     0.115 C 
HETATM    8  C   UNK     0      39.936  14.263  65.053  0.00  0.00     0.021 A 
HETATM    9  N   UNK     0      39.475  14.099  63.803  0.00  0.00    -0.361 N 
HETATM   10  C   UNK     0      39.697  12.818  63.439  0.00  0.00     0.022 A 
HETATM   11  C   UNK     0      40.327  12.141  64.480  0.00  0.00    -0.027 A 
HETATM   12  C   UNK     0      40.481  13.046  65.499  0.00  0.00    -0.031 A 
HETATM   13  C   UNK     0      41.125  12.755  66.836  0.00  0.00     0.051 C 
HETATM   14  C   UNK     0      39.278  12.169  62.123  0.00  0.00     0.115 C 
HETATM   15  C   UNK     0      37.777  12.173  61.885  0.00  0.00     0.021 A 
HETATM   16  N   UNK     0      36.957  13.239  61.825  0.00  0.00    -0.361 N 
HETATM   17  C   UNK     0      35.700  12.817  61.671  0.00  0.00     0.022 A 
HETATM   18  C   UNK     0      35.702  11.409  61.619  0.00  0.00    -0.027 A 
HETATM   19  C   UNK     0      37.009  11.018  61.753  0.00  0.00    -0.031 A 
HETATM   20  C   UNK     0      37.464   9.571  61.715  0.00  0.00     0.051 C 
HETATM   21  C   UNK     0      34.410  13.604  61.621  0.00  0.00     0.115 C 
HETATM   22  C   UNK     0      34.322  14.853  62.466  0.00  0.00     0.022 A 
HETATM   23  N   UNK     0      34.776  15.046  63.711  0.00  0.00    -0.361 N 
HETATM   24  C   UNK     0      34.614  16.348  64.023  0.00  0.00     0.021 A 
HETATM   25  C   UNK     0      34.033  17.007  62.957  0.00  0.00    -0.031 A 
HETATM   26  C   UNK     0      33.621  18.460  62.844  0.00  0.00     0.051 C 
HETATM   27  C   UNK     0      33.836  16.071  61.948  0.00  0.00    -0.027 A 
HETATM   28  C   UNK     0      35.061  17.063  65.287  0.00  0.00     0.115 C 
HETATM   29  H   UNK     0      36.943  14.861  65.825  0.00  0.00     0.165 HD
HETATM   30  H   UNK     0      39.037  14.898  63.156  0.00  0.00     0.165 HD
HETATM   31  H   UNK     0      37.277  14.313  61.843  0.00  0.00     0.165 HD
HETATM   32  H   UNK     0      35.175  14.256  64.399  0.00  0.00     0.165 HD
ENDROOT
BRANCH   6  33
HETATM   33  C   UNK     0      39.840  18.625  65.771  0.00  0.00     0.051 C 
BRANCH  33  34
HETATM   34  C   UNK     0      40.164  19.001  67.197  0.00  0.00     0.114 C 
BRANCH  34  35
HETATM   35  C   UNK     0      40.368  20.477  67.235  0.00  0.00     0.139 C 
HETATM   36  O   UNK     0      39.813  21.219  66.372  0.00  0.00    -0.650 OA
BRANCH  35  37
HETATM   37  O   UNK     0      41.154  21.101  68.196  0.00  0.00    -0.776 OA
HETATM   38  H   UNK     0      40.934  21.055  69.178  0.00  0.00     0.167 HD
ENDBRANCH  35  37
ENDBRANCH  34  35
ENDBRANCH  33  34
ENDBRANCH   6  33
BRANCH  27  39
HETATM   39  C   UNK     0      33.162  16.396  60.662  0.00  0.00     0.051 C 
BRANCH  39  40
HETATM   40  C   UNK     0      31.780  15.957  60.472  0.00  0.00     0.114 C 
BRANCH  40  41
HETATM   41  C   UNK     0      30.661  16.866  60.582  0.00  0.00     0.139 C 
HETATM   42  O   UNK     0      29.975  16.985  61.606  0.00  0.00    -0.650 OA
BRANCH  41  43
HETATM   43  O   UNK     0      30.315  17.674  59.462  0.00  0.00    -0.776 OA
HETATM   44  H   UNK     0      29.789  18.508  59.694  0.00  0.00     0.167 HD
ENDBRANCH  41  43
ENDBRANCH  40  41
ENDBRANCH  39  40
ENDBRANCH  27  39
BRANCH  11  45
HETATM   45  C   UNK     0      40.777  10.706  64.534  0.00  0.00     0.051 C 
BRANCH  45  46
HETATM   46  C   UNK     0      39.667   9.728  64.663  0.00  0.00     0.114 C 
BRANCH  46  47
HETATM   47  C   UNK     0      39.900   8.958  65.918  0.00  0.00     0.139 C 
HETATM   48  O   UNK     0      39.158   7.998  66.171  0.00  0.00    -0.650 OA
BRANCH  47  49
HETATM   49  O   UNK     0      40.913   9.304  66.777  0.00  0.00    -0.776 OA
HETATM   50  H   UNK     0      40.941  10.217  67.246  0.00  0.00     0.167 HD
ENDBRANCH  47  49
ENDBRANCH  46  47
ENDBRANCH  45  46
ENDBRANCH  11  45
BRANCH  18  51
HETATM   51  C   UNK     0      34.525  10.487  61.431  0.00  0.00     0.051 C 
BRANCH  51  52
HETATM   52  C   UNK     0      34.225  10.478  59.940  0.00  0.00     0.114 C 
BRANCH  52  53
HETATM   53  C   UNK     0      34.746   9.263  59.282  0.00  0.00     0.139 C 
HETATM   54  O   UNK     0      34.888   8.216  59.934  0.00  0.00    -0.650 OA
BRANCH  53  55
HETATM   55  O   UNK     0      35.076   9.301  57.949  0.00  0.00    -0.776 OA
HETATM   56  H   UNK     0      35.603   8.617  57.459  0.00  0.00     0.167 HD
ENDBRANCH  53  55
ENDBRANCH  52  53
ENDBRANCH  51  52
ENDBRANCH  18  51
TORSDOF 16
ENDMDL
MODEL 4
REMARK VINA RESULT:      -9.9      2.968      7.898
REMARK  16 active torsions:
REMARK  status: ('A' for Active; 'I' for Inactive)
REMARK    1  A    between atoms: C_6  and  C_7 
REMARK    2  A    between atoms: C_7  and  C_8 
REMARK    3  A    between atoms: C_8  and  C_9 
REMARK    4  A    between atoms: C_9  and  O_11 
REMARK    5  A    between atoms: C_16  and  C_17 
REMARK    6  A    between atoms: C_17  and  C_18 
REMARK    7  A    between atoms: C_18  and  C_19 
REMARK    8  A    between atoms: C_19  and  O_21 
REMARK    9  A    between atoms: C_28  and  C_29 
REMARK   10  A    between atoms: C_29  and  C_30 
REMARK   11  A    between atoms: C_30  and  C_31 
REMARK   12  A    between atoms: C_31  and  O_33 
REMARK   13  A    between atoms: C_42  and  C_43 
REMARK   14  A    between atoms: C_43  and  C_44 
REMARK   15  A    between atoms: C_44  and  C_45 
REMARK   16  A    between atoms: C_45  and  O_47 
ROOT
HETATM    1  C   UNK     0      31.941  13.876  59.856  0.00  0.00     0.051 C 
HETATM    2  C   UNK     0      32.800  13.978  61.101  0.00  0.00    -0.031 A 
HETATM    3  C   UNK     0      33.203  12.981  61.975  0.00  0.00     0.021 A 
HETATM    4  N   UNK     0      33.938  13.536  62.968  0.00  0.00    -0.361 N 
HETATM    5  C   UNK     0      34.019  14.863  62.741  0.00  0.00     0.022 A 
HETATM    6  C   UNK     0      33.315  15.174  61.582  0.00  0.00    -0.027 A 
HETATM    7  C   UNK     0      34.788  15.911  63.484  0.00  0.00     0.115 C 
HETATM    8  C   UNK     0      36.199  15.547  63.909  0.00  0.00     0.021 A 
HETATM    9  N   UNK     0      37.100  14.792  63.260  0.00  0.00    -0.361 N 
HETATM   10  C   UNK     0      38.185  14.661  64.052  0.00  0.00     0.022 A 
HETATM   11  C   UNK     0      37.982  15.358  65.239  0.00  0.00    -0.027 A 
HETATM   12  C   UNK     0      36.733  15.919  65.156  0.00  0.00    -0.031 A 
HETATM   13  C   UNK     0      36.086  16.775  66.221  0.00  0.00     0.051 C 
HETATM   14  C   UNK     0      39.430  13.833  63.745  0.00  0.00     0.115 C 
HETATM   15  C   UNK     0      39.153  12.350  63.562  0.00  0.00     0.021 A 
HETATM   16  N   UNK     0      38.331  11.772  62.665  0.00  0.00    -0.361 N 
HETATM   17  C   UNK     0      38.311  10.454  62.874  0.00  0.00     0.022 A 
HETATM   18  C   UNK     0      39.168  10.157  63.953  0.00  0.00    -0.027 A 
HETATM   19  C   UNK     0      39.690  11.353  64.374  0.00  0.00    -0.031 A 
HETATM   20  C   UNK     0      40.697  11.484  65.502  0.00  0.00     0.051 C 
HETATM   21  C   UNK     0      37.502   9.374  62.193  0.00  0.00     0.115 C 
HETATM   22  C   UNK     0      36.111   9.734  61.726  0.00  0.00     0.022 A 
HETATM   23  N   UNK     0      35.195  10.487  62.349  0.00  0.00    -0.361 N 
HETATM   24  C   UNK     0      34.155  10.669  61.510  0.00  0.00     0.021 A 
HETATM   25  C   UNK     0      34.403  10.009  60.322  0.00  0.00    -0.031 A 
HETATM   26  C   UNK     0      33.520   9.887  59.098  0.00  0.00     0.051 C 
HETATM   27  C   UNK     0      35.649   9.403  60.436  0.00  0.00    -0.027 A 
HETATM   28  C   UNK     0      32.920  11.525  61.733  0.00  0.00     0.115 C 
HETATM   29  H   UNK     0      34.361  12.991  63.844  0.00  0.00     0.165 HD
HETATM   30  H   UNK     0      36.992  14.392  62.222  0.00  0.00     0.165 HD
HETATM   31  H   UNK     0      37.791  12.299  61.836  0.00  0.00     0.165 HD
HETATM   32  H   UNK     0      35.256  10.862  63.404  0.00  0.00     0.165 HD
ENDROOT
BRANCH   6  33
HETATM   33  C   UNK     0      33.096  16.505  60.908  0.00  0.00     0.051 C 
BRANCH  33  34
HETATM   34  C   UNK     0      31.992  17.276  61.592  0.00  0.00     0.114 C 
BRANCH  34  35
HETATM   35  C   UNK     0      30.754  17.097  60.781  0.00  0.00     0.139 C 
HETATM   36  O   UNK     0      30.780  17.282  59.530  0.00  0.00    -0.650 OA
BRANCH  35  37
HETATM   37  O   UNK     0      29.538  16.725  61.342  0.00  0.00    -0.776 OA
HETATM   38  H   UNK     0      28.673  16.784  60.830  0.00  0.00     0.167 HD
ENDBRANCH  35  37
ENDBRANCH  34  35
ENDBRANCH  33  34
ENDBRANCH   6  33
BRANCH  27  39
HETATM   39  C   UNK     0      36.229   8.537  59.374  0.00  0.00     0.051 C 
BRANCH  39  40
HETATM   40  C   UNK     0      35.844   7.126  59.341  0.00  0.00     0.114 C 
BRANCH  40  41
HETATM   41  C   UNK     0      36.466   6.137  60.193  0.00  0.00     0.139 C 
HETATM   42  O   UNK     0      36.435   6.185  61.430  0.00  0.00    -0.650 OA
BRANCH  41  43
HETATM   43  O   UNK     0      37.154   5.044  59.594  0.00  0.00    -0.776 OA
HETATM   44  H   UNK     0      37.015   4.959  58.594  0.00  0.00     0.167 HD
ENDBRANCH  41  43
ENDBRANCH  40  41
ENDBRANCH  39  40
ENDBRANCH  27  39
BRANCH  11  45
HETATM   45  C   UNK     0      38.911  15.507  66.414  0.00  0.00     0.051 C 
BRANCH  45  46
HETATM   46  C   UNK     0      39.870  16.634  66.291  0.00  0.00     0.114 C 
BRANCH  46  47
HETATM   47  C   UNK     0      41.242  16.055  66.356  0.00  0.00     0.139 C 
HETATM   48  O   UNK     0      41.363  14.839  66.559  0.00  0.00    -0.650 OA
BRANCH  47  49
HETATM   49  O   UNK     0      42.349  16.851  66.198  0.00  0.00    -0.776 OA
HETATM   50  H   UNK     0      43.293  16.526  66.435  0.00  0.00     0.167 HD
ENDBRANCH  47  49
ENDBRANCH  46  47
ENDBRANCH  45  46
ENDBRANCH  11  45
BRANCH  18  51
HETATM   51  C   UNK     0      39.488   8.806  64.537  0.00  0.00     0.051 C 
BRANCH  51  52
HETATM   52  C   UNK     0      38.340   8.464  65.474  0.00  0.00     0.114 C 
BRANCH  52  53
HETATM   53  C   UNK     0      37.961   7.040  65.382  0.00  0.00     0.139 C 
HETATM   54  O   UNK     0      37.970   6.328  66.399  0.00  0.00    -0.650 OA
BRANCH  53  55
HETATM   55  O   UNK     0      37.602   6.510  64.167  0.00  0.00    -0.776 OA
HETATM   56  H   UNK     0      38.175   6.465  63.357  0.00  0.00     0.167 HD
ENDBRANCH  53  55
ENDBRANCH  52  53
ENDBRANCH  51  52
ENDBRANCH  18  51
TORSDOF 16
ENDMDL
MODEL 5
REMARK VINA RESULT:      -9.8      3.454      8.096
REMARK  16 active torsions:
REMARK  status: ('A' for Active; 'I' for Inactive)
REMARK    1  A    between atoms: C_6  and  C_7 
REMARK    2  A    between atoms: C_7  and  C_8 
REMARK    3  A    between atoms: C_8  and  C_9 
REMARK    4  A    between atoms: C_9  and  O_11 
REMARK    5  A    between atoms: C_16  and  C_17 
REMARK    6  A    between atoms: C_17  and  C_18 
REMARK    7  A    between atoms: C_18  and  C_19 
REMARK    8  A    between atoms: C_19  and  O_21 
REMARK    9  A    between atoms: C_28  and  C_29 
REMARK   10  A    between atoms: C_29  and  C_30 
REMARK   11  A    between atoms: C_30  and  C_31 
REMARK   12  A    between atoms: C_31  and  O_33 
REMARK   13  A    between atoms: C_42  and  C_43 
REMARK   14  A    between atoms: C_43  and  C_44 
REMARK   15  A    between atoms: C_44  and  C_45 
REMARK   16  A    between atoms: C_45  and  O_47 
ROOT
HETATM    1  C   UNK     0      31.436  13.837  59.051  0.00  0.00     0.051 C 
HETATM    2  C   UNK     0      32.225  13.942  60.340  0.00  0.00    -0.031 A 
HETATM    3  C   UNK     0      32.639  12.939  61.202  0.00  0.00     0.021 A 
HETATM    4  N   UNK     0      33.292  13.498  62.249  0.00  0.00    -0.361 N 
HETATM    5  C   UNK     0      33.310  14.835  62.068  0.00  0.00     0.022 A 
HETATM    6  C   UNK     0      32.649  15.147  60.885  0.00  0.00    -0.027 A 
HETATM    7  C   UNK     0      33.983  15.897  62.881  0.00  0.00     0.115 C 
HETATM    8  C   UNK     0      35.389  15.595  63.366  0.00  0.00     0.021 A 
HETATM    9  N   UNK     0      36.361  14.912  62.741  0.00  0.00    -0.361 N 
HETATM   10  C   UNK     0      37.411  14.812  63.583  0.00  0.00     0.022 A 
HETATM   11  C   UNK     0      37.112  15.457  64.780  0.00  0.00    -0.027 A 
HETATM   12  C   UNK     0      35.840  15.953  64.650  0.00  0.00    -0.031 A 
HETATM   13  C   UNK     0      35.095  16.737  65.707  0.00  0.00     0.051 C 
HETATM   14  C   UNK     0      38.713  14.063  63.315  0.00  0.00     0.115 C 
HETATM   15  C   UNK     0      38.528  12.573  63.072  0.00  0.00     0.021 A 
HETATM   16  N   UNK     0      37.785  11.983  62.117  0.00  0.00    -0.361 N 
HETATM   17  C   UNK     0      37.827  10.660  62.284  0.00  0.00     0.022 A 
HETATM   18  C   UNK     0      38.645  10.373  63.395  0.00  0.00    -0.027 A 
HETATM   19  C   UNK     0      39.078  11.580  63.879  0.00  0.00    -0.031 A 
HETATM   20  C   UNK     0      40.019  11.727  65.061  0.00  0.00     0.051 C 
HETATM   21  C   UNK     0      37.113   9.562  61.529  0.00  0.00     0.115 C 
HETATM   22  C   UNK     0      35.730   9.863  61.002  0.00  0.00     0.022 A 
HETATM   23  N   UNK     0      34.744  10.544  61.601  0.00  0.00    -0.361 N 
HETATM   24  C   UNK     0      33.738  10.698  60.716  0.00  0.00     0.021 A 
HETATM   25  C   UNK     0      34.080  10.093  59.522  0.00  0.00    -0.031 A 
HETATM   26  C   UNK     0      33.267   9.965  58.251  0.00  0.00     0.051 C 
HETATM   27  C   UNK     0      35.351   9.551  59.681  0.00  0.00    -0.027 A 
HETATM   28  C   UNK     0      32.449  11.479  60.902  0.00  0.00     0.115 C 
HETATM   29  H   UNK     0      33.700  12.948  63.128  0.00  0.00     0.165 HD
HETATM   30  H   UNK     0      36.327  14.542  61.687  0.00  0.00     0.165 HD
HETATM   31  H   UNK     0      37.258  12.509  61.278  0.00  0.00     0.165 HD
HETATM   32  H   UNK     0      34.731  10.886  62.668  0.00  0.00     0.165 HD
ENDROOT
BRANCH   6  33
HETATM   33  C   UNK     0      32.391  16.487  60.242  0.00  0.00     0.051 C 
BRANCH  33  34
HETATM   34  C   UNK     0      30.909  16.769  60.170  0.00  0.00     0.114 C 
BRANCH  34  35
HETATM   35  C   UNK     0      30.449  17.094  61.551  0.00  0.00     0.139 C 
HETATM   36  O   UNK     0      31.120  17.884  62.277  0.00  0.00    -0.650 OA
BRANCH  35  37
HETATM   37  O   UNK     0      29.288  16.562  62.099  0.00  0.00    -0.776 OA
HETATM   38  H   UNK     0      28.398  17.028  62.020  0.00  0.00     0.167 HD
ENDBRANCH  35  37
ENDBRANCH  34  35
ENDBRANCH  33  34
ENDBRANCH   6  33
BRANCH  27  39
HETATM   39  C   UNK     0      36.029   8.753  58.623  0.00  0.00     0.051 C 
BRANCH  39  40
HETATM   40  C   UNK     0      35.725   7.326  58.528  0.00  0.00     0.114 C 
BRANCH  40  41
HETATM   41  C   UNK     0      34.875   6.787  57.489  0.00  0.00     0.139 C 
HETATM   42  O   UNK     0      34.113   5.826  57.660  0.00  0.00    -0.650 OA
BRANCH  41  43
HETATM   43  O   UNK     0      34.904   7.381  56.196  0.00  0.00    -0.776 OA
HETATM   44  H   UNK     0      33.997   7.660  55.842  0.00  0.00     0.167 HD
ENDBRANCH  41  43
ENDBRANCH  40  41
ENDBRANCH  39  40
ENDBRANCH  27  39
BRANCH  11  45
HETATM   45  C   UNK     0      37.971  15.615  66.005  0.00  0.00     0.051 C 
BRANCH  45  46
HETATM   46  C   UNK     0      38.816  16.837  66.000  0.00  0.00     0.114 C 
BRANCH  46  47
HETATM   47  C   UNK     0      40.209  16.412  66.319  0.00  0.00     0.139 C 
HETATM   48  O   UNK     0      40.733  16.837  67.359  0.00  0.00    -0.650 OA
BRANCH  47  49
HETATM   49  O   UNK     0      40.897  15.572  65.481  0.00  0.00    -0.776 OA
HETATM   50  H   UNK     0      41.797  15.836  65.064  0.00  0.00     0.167 HD
ENDBRANCH  47  49
ENDBRANCH  46  47
ENDBRANCH  45  46
ENDBRANCH  11  45
BRANCH  18  51
HETATM   51  C   UNK     0      39.009   9.022  63.953  0.00  0.00     0.051 C 
BRANCH  51  52
HETATM   52  C   UNK     0      37.884   8.633  64.900  0.00  0.00     0.114 C 
BRANCH  52  53
HETATM   53  C   UNK     0      37.693   7.171  64.956  0.00  0.00     0.139 C 
HETATM   54  O   UNK     0      37.566   6.520  63.906  0.00  0.00    -0.650 OA
BRANCH  53  55
HETATM   55  O   UNK     0      37.652   6.537  66.174  0.00  0.00    -0.776 OA
HETATM   56  H   UNK     0      38.393   6.489  66.832  0.00  0.00     0.167 HD
ENDBRANCH  53  55
ENDBRANCH  52  53
ENDBRANCH  51  52
ENDBRANCH  18  51
TORSDOF 16
ENDMDL
MODEL 6
REMARK VINA RESULT:      -9.8      1.897      7.188
REMARK  16 active torsions:
REMARK  status: ('A' for Active; 'I' for Inactive)
REMARK    1  A    between atoms: C_6  and  C_7 
REMARK    2  A    between atoms: C_7  and  C_8 
REMARK    3  A    between atoms: C_8  and  C_9 
REMARK    4  A    between atoms: C_9  and  O_11 
REMARK    5  A    between atoms: C_16  and  C_17 
REMARK    6  A    between atoms: C_17  and  C_18 
REMARK    7  A    between atoms: C_18  and  C_19 
REMARK    8  A    between atoms: C_19  and  O_21 
REMARK    9  A    between atoms: C_28  and  C_29 
REMARK   10  A    between atoms: C_29  and  C_30 
REMARK   11  A    between atoms: C_30  and  C_31 
REMARK   12  A    between atoms: C_31  and  O_33 
REMARK   13  A    between atoms: C_42  and  C_43 
REMARK   14  A    between atoms: C_43  and  C_44 
REMARK   15  A    between atoms: C_44  and  C_45 
REMARK   16  A    between atoms: C_45  and  O_47 
ROOT
HETATM    1  C   UNK     0      38.805  18.866  66.149  0.00  0.00     0.051 C 
HETATM    2  C   UNK     0      38.775  17.351  66.176  0.00  0.00    -0.031 A 
HETATM    3  C   UNK     0      37.700  16.496  66.361  0.00  0.00     0.021 A 
HETATM    4  N   UNK     0      38.146  15.217  66.341  0.00  0.00    -0.361 N 
HETATM    5  C   UNK     0      39.479  15.239  66.139  0.00  0.00     0.022 A 
HETATM    6  C   UNK     0      39.907  16.558  66.035  0.00  0.00    -0.027 A 
HETATM    7  C   UNK     0      40.431  14.100  65.944  0.00  0.00     0.115 C 
HETATM    8  C   UNK     0      39.965  12.968  65.046  0.00  0.00     0.021 A 
HETATM    9  N   UNK     0      39.210  13.037  63.938  0.00  0.00    -0.361 N 
HETATM   10  C   UNK     0      38.967  11.777  63.518  0.00  0.00     0.022 A 
HETATM   11  C   UNK     0      39.590  10.873  64.373  0.00  0.00    -0.027 A 
HETATM   12  C   UNK     0      40.221  11.617  65.338  0.00  0.00    -0.031 A 
HETATM   13  C   UNK     0      41.035  11.055  66.481  0.00  0.00     0.051 C 
HETATM   14  C   UNK     0      38.097  11.375  62.331  0.00  0.00     0.115 C 
HETATM   15  C   UNK     0      36.647  11.813  62.453  0.00  0.00     0.021 A 
HETATM   16  N   UNK     0      36.176  13.066  62.600  0.00  0.00    -0.361 N 
HETATM   17  C   UNK     0      34.850  13.022  62.742  0.00  0.00     0.022 A 
HETATM   18  C   UNK     0      34.435  11.678  62.676  0.00  0.00    -0.027 A 
HETATM   19  C   UNK     0      35.569  10.930  62.493  0.00  0.00    -0.031 A 
HETATM   20  C   UNK     0      35.569   9.421  62.332  0.00  0.00     0.051 C 
HETATM   21  C   UNK     0      33.864  14.138  63.006  0.00  0.00     0.115 C 
HETATM   22  C   UNK     0      34.329  15.292  63.863  0.00  0.00     0.022 A 
HETATM   23  N   UNK     0      35.085  15.254  64.968  0.00  0.00    -0.361 N 
HETATM   24  C   UNK     0      35.379  16.520  65.324  0.00  0.00     0.021 A 
HETATM   25  C   UNK     0      34.790  17.396  64.432  0.00  0.00    -0.031 A 
HETATM   26  C   UNK     0      34.799  18.911  64.436  0.00  0.00     0.051 C 
HETATM   27  C   UNK     0      34.112  16.633  63.488  0.00  0.00    -0.027 A 
HETATM   28  C   UNK     0      36.282  16.982  66.455  0.00  0.00     0.115 C 
HETATM   29  H   UNK     0      37.520  14.310  66.509  0.00  0.00     0.165 HD
HETATM   30  H   UNK     0      38.888  13.974  63.422  0.00  0.00     0.165 HD
HETATM   31  H   UNK     0      36.787  14.005  62.554  0.00  0.00     0.165 HD
HETATM   32  H   UNK     0      35.382  14.332  65.533  0.00  0.00     0.165 HD
ENDROOT
BRANCH   6  33
HETATM   33  C   UNK     0      41.290  17.116  65.816  0.00  0.00     0.051 C 
BRANCH  33  34
HETATM   34  C   UNK     0      41.991  17.341  67.134  0.00  0.00     0.114 C 
BRANCH  34  35
HETATM   35  C   UNK     0      42.621  18.692  67.080  0.00  0.00     0.139 C 
HETATM   36  O   UNK     0      41.993  19.705  67.505  0.00  0.00    -0.650 OA
BRANCH  35  37
HETATM   37  O   UNK     0      43.898  18.904  66.574  0.00  0.00    -0.776 OA
HETATM   38  H   UNK     0      44.676  18.316  66.826  0.00  0.00     0.167 HD
ENDBRANCH  35  37
ENDBRANCH  34  35
ENDBRANCH  33  34
ENDBRANCH   6  33
BRANCH  27  39
HETATM   39  C   UNK     0      33.291  17.232  62.400  0.00  0.00     0.051 C 
BRANCH  39  40
HETATM   40  C   UNK     0      31.963  17.745  62.735  0.00  0.00     0.114 C 
BRANCH  40  41
HETATM   41  C   UNK     0      30.874  16.874  63.115  0.00  0.00     0.139 C 
HETATM   42  O   UNK     0      30.830  16.265  64.193  0.00  0.00    -0.650 OA
BRANCH  41  43
HETATM   43  O   UNK     0      29.786  16.695  62.215  0.00  0.00    -0.776 OA
HETATM   44  H   UNK     0      29.644  15.738  61.914  0.00  0.00     0.167 HD
ENDBRANCH  41  43
ENDBRANCH  40  41
ENDBRANCH  39  40
ENDBRANCH  27  39
BRANCH  11  45
HETATM   45  C   UNK     0      39.608   9.369  64.303  0.00  0.00     0.051 C 
BRANCH  45  46
HETATM   46  C   UNK     0      38.530   8.714  65.086  0.00  0.00     0.114 C 
BRANCH  46  47
HETATM   47  C   UNK     0      37.993   7.600  64.252  0.00  0.00     0.139 C 
HETATM   48  O   UNK     0      37.127   6.860  64.738  0.00  0.00    -0.650 OA
BRANCH  47  49
HETATM   49  O   UNK     0      38.449   7.397  62.974  0.00  0.00    -0.776 OA
HETATM   50  H   UNK     0      37.856   7.559  62.151  0.00  0.00     0.167 HD
ENDBRANCH  47  49
ENDBRANCH  46  47
ENDBRANCH  45  46
ENDBRANCH  11  45
BRANCH  18  51
HETATM   51  C   UNK     0      33.031  11.136  62.760  0.00  0.00     0.051 C 
BRANCH  51  52
HETATM   52  C   UNK     0      32.724  10.977  64.242  0.00  0.00     0.114 C 
BRANCH  52  53
HETATM   53  C   UNK     0      32.365   9.587  64.582  0.00  0.00     0.139 C 
HETATM   54  O   UNK     0      33.254   8.764  64.853  0.00  0.00    -0.650 OA
BRANCH  53  55
HETATM   55  O   UNK     0      31.044   9.210  64.595  0.00  0.00    -0.776 OA
HETATM   56  H   UNK     0      30.702   8.278  64.582  0.00  0.00     0.167 HD
ENDBRANCH  53  55
ENDBRANCH  52  53
ENDBRANCH  51  52
ENDBRANCH  18  51
TORSDOF 16
ENDMDL
MODEL 7
REMARK VINA RESULT:      -9.7      1.696      7.289
REMARK  16 active torsions:
REMARK  status: ('A' for Active; 'I' for Inactive)
REMARK    1  A    between atoms: C_6  and  C_7 
REMARK    2  A    between atoms: C_7  and  C_8 
REMARK    3  A    between atoms: C_8  and  C_9 
REMARK    4  A    between atoms: C_9  and  O_11 
REMARK    5  A    between atoms: C_16  and  C_17 
REMARK    6  A    between atoms: C_17  and  C_18 
REMARK    7  A    between atoms: C_18  and  C_19 
REMARK    8  A    between atoms: C_19  and  O_21 
REMARK    9  A    between atoms: C_28  and  C_29 
REMARK   10  A    between atoms: C_29  and  C_30 
REMARK   11  A    between atoms: C_30  and  C_31 
REMARK   12  A    between atoms: C_31  and  O_33 
REMARK   13  A    between atoms: C_42  and  C_43 
REMARK   14  A    between atoms: C_43  and  C_44 
REMARK   15  A    between atoms: C_44  and  C_45 
REMARK   16  A    between atoms: C_45  and  O_47 
ROOT
HETATM    1  C   UNK     0      36.398  19.834  65.412  0.00  0.00     0.051 C 
HETATM    2  C   UNK     0      36.953  18.433  65.573  0.00  0.00    -0.031 A 
HETATM    3  C   UNK     0      36.291  17.254  65.876  0.00  0.00     0.021 A 
HETATM    4  N   UNK     0      37.194  16.247  65.949  0.00  0.00    -0.361 N 
HETATM    5  C   UNK     0      38.416  16.758  65.691  0.00  0.00     0.022 A 
HETATM    6  C   UNK     0      38.302  18.124  65.454  0.00  0.00    -0.027 A 
HETATM    7  C   UNK     0      39.732  16.057  65.557  0.00  0.00     0.115 C 
HETATM    8  C   UNK     0      39.733  14.752  64.781  0.00  0.00     0.021 A 
HETATM    9  N   UNK     0      39.004  14.419  63.704  0.00  0.00    -0.361 N 
HETATM   10  C   UNK     0      39.263  13.128  63.406  0.00  0.00     0.022 A 
HETATM   11  C   UNK     0      40.190  12.618  64.310  0.00  0.00    -0.027 A 
HETATM   12  C   UNK     0      40.491  13.636  65.179  0.00  0.00    -0.031 A 
HETATM   13  C   UNK     0      41.464  13.542  66.332  0.00  0.00     0.051 C 
HETATM   14  C   UNK     0      38.609  12.311  62.295  0.00  0.00     0.115 C 
HETATM   15  C   UNK     0      37.102  12.170  62.440  0.00  0.00     0.021 A 
HETATM   16  N   UNK     0      36.187  13.155  62.496  0.00  0.00    -0.361 N 
HETATM   17  C   UNK     0      34.980  12.621  62.697  0.00  0.00     0.022 A 
HETATM   18  C   UNK     0      35.114  11.220  62.765  0.00  0.00    -0.027 A 
HETATM   19  C   UNK     0      36.448  10.950  62.602  0.00  0.00    -0.031 A 
HETATM   20  C   UNK     0      37.027   9.548  62.574  0.00  0.00     0.051 C 
HETATM   21  C   UNK     0      33.642  13.294  62.903  0.00  0.00     0.115 C 
HETATM   22  C   UNK     0      33.631  14.616  63.635  0.00  0.00     0.022 A 
HETATM   23  N   UNK     0      34.348  14.976  64.707  0.00  0.00    -0.361 N 
HETATM   24  C   UNK     0      34.134  16.287  64.939  0.00  0.00     0.021 A 
HETATM   25  C   UNK     0      33.249  16.780  63.999  0.00  0.00    -0.031 A 
HETATM   26  C   UNK     0      32.675  18.176  63.870  0.00  0.00     0.051 C 
HETATM   27  C   UNK     0      32.912  15.729  63.154  0.00  0.00    -0.027 A 
HETATM   28  C   UNK     0      34.795  17.167  65.986  0.00  0.00     0.115 C 
HETATM   29  H   UNK     0      36.967  15.191  66.222  0.00  0.00     0.165 HD
HETATM   30  H   UNK     0      38.344  15.107  63.122  0.00  0.00     0.165 HD
HETATM   31  H   UNK     0      36.389  14.247  62.343  0.00  0.00     0.165 HD
HETATM   32  H   UNK     0      34.980  14.298  65.337  0.00  0.00     0.165 HD
ENDROOT
BRANCH   6  33
HETATM   33  C   UNK     0      39.363  19.144  65.129  0.00  0.00     0.051 C 
BRANCH  33  34
HETATM   34  C   UNK     0      39.806  19.871  66.377  0.00  0.00     0.114 C 
BRANCH  34  35
HETATM   35  C   UNK     0      39.758  21.332  66.083  0.00  0.00     0.139 C 
HETATM   36  O   UNK     0      39.388  21.741  64.944  0.00  0.00    -0.650 OA
BRANCH  35  37
HETATM   37  O   UNK     0      40.105  22.296  67.021  0.00  0.00    -0.776 OA
HETATM   38  H   UNK     0      41.066  22.503  67.245  0.00  0.00     0.167 HD
ENDBRANCH  35  37
ENDBRANCH  34  35
ENDBRANCH  33  34
ENDBRANCH   6  33
BRANCH  27  39
HETATM   39  C   UNK     0      31.919  15.859  62.053  0.00  0.00     0.051 C 
BRANCH  39  40
HETATM   40  C   UNK     0      32.413  16.102  60.698  0.00  0.00     0.114 C 
BRANCH  40  41
HETATM   41  C   UNK     0      33.798  16.415  60.428  0.00  0.00     0.139 C 
HETATM   42  O   UNK     0      34.658  15.558  60.182  0.00  0.00    -0.650 OA
BRANCH  41  43
HETATM   43  O   UNK     0      34.214  17.777  60.440  0.00  0.00    -0.776 OA
HETATM   44  H   UNK     0      34.511  18.116  61.347  0.00  0.00     0.167 HD
ENDBRANCH  41  43
ENDBRANCH  40  41
ENDBRANCH  39  40
ENDBRANCH  27  39
BRANCH  11  45
HETATM   45  C   UNK     0      40.785  11.237  64.371  0.00  0.00     0.051 C 
BRANCH  45  46
HETATM   46  C   UNK     0      39.811  10.173  64.724  0.00  0.00     0.114 C 
BRANCH  46  47
HETATM   47  C   UNK     0      40.171   9.677  66.083  0.00  0.00     0.139 C 
HETATM   48  O   UNK     0      40.640   8.535  66.192  0.00  0.00    -0.650 OA
BRANCH  47  49
HETATM   49  O   UNK     0      39.988  10.466  67.190  0.00  0.00    -0.776 OA
HETATM   50  H   UNK     0      39.183  11.096  67.283  0.00  0.00     0.167 HD
ENDBRANCH  47  49
ENDBRANCH  46  47
ENDBRANCH  45  46
ENDBRANCH  11  45
BRANCH  18  51
HETATM   51  C   UNK     0      34.027  10.194  62.955  0.00  0.00     0.051 C 
BRANCH  51  52
HETATM   52  C   UNK     0      34.139   9.717  64.395  0.00  0.00     0.114 C 
BRANCH  52  53
HETATM   53  C   UNK     0      33.264  10.488  65.299  0.00  0.00     0.139 C 
HETATM   54  O   UNK     0      32.151  10.873  64.908  0.00  0.00    -0.650 OA
BRANCH  53  55
HETATM   55  O   UNK     0      33.690  10.779  66.573  0.00  0.00    -0.776 OA
HETATM   56  H   UNK     0      33.617  10.182  67.363  0.00  0.00     0.167 HD
ENDBRANCH  53  55
ENDBRANCH  52  53
ENDBRANCH  51  52
ENDBRANCH  18  51
TORSDOF 16
ENDMDL
MODEL 8
REMARK VINA RESULT:      -9.5      3.384      7.829
REMARK  16 active torsions:
REMARK  status: ('A' for Active; 'I' for Inactive)
REMARK    1  A    between atoms: C_6  and  C_7 
REMARK    2  A    between atoms: C_7  and  C_8 
REMARK    3  A    between atoms: C_8  and  C_9 
REMARK    4  A    between atoms: C_9  and  O_11 
REMARK    5  A    between atoms: C_16  and  C_17 
REMARK    6  A    between atoms: C_17  and  C_18 
REMARK    7  A    between atoms: C_18  and  C_19 
REMARK    8  A    between atoms: C_19  and  O_21 
REMARK    9  A    between atoms: C_28  and  C_29 
REMARK   10  A    between atoms: C_29  and  C_30 
REMARK   11  A    between atoms: C_30  and  C_31 
REMARK   12  A    between atoms: C_31  and  O_33 
REMARK   13  A    between atoms: C_42  and  C_43 
REMARK   14  A    between atoms: C_43  and  C_44 
REMARK   15  A    between atoms: C_44  and  C_45 
REMARK   16  A    between atoms: C_45  and  O_47 
ROOT
HETATM    1  C   UNK     0      37.244  16.664  66.653  0.00  0.00     0.051 C 
HETATM    2  C   UNK     0      37.137  15.195  66.298  0.00  0.00    -0.031 A 
HETATM    3  C   UNK     0      36.017  14.449  65.966  0.00  0.00     0.021 A 
HETATM    4  N   UNK     0      36.389  13.164  65.756  0.00  0.00    -0.361 N 
HETATM    5  C   UNK     0      37.723  13.076  65.938  0.00  0.00     0.022 A 
HETATM    6  C   UNK     0      38.223  14.328  66.281  0.00  0.00    -0.027 A 
HETATM    7  C   UNK     0      38.636  11.908  65.738  0.00  0.00     0.115 C 
HETATM    8  C   UNK     0      38.402  11.064  64.497  0.00  0.00     0.021 A 
HETATM    9  N   UNK     0      38.008  11.463  63.277  0.00  0.00    -0.361 N 
HETATM   10  C   UNK     0      37.841  10.364  62.511  0.00  0.00     0.022 A 
HETATM   11  C   UNK     0      38.145   9.227  63.255  0.00  0.00    -0.027 A 
HETATM   12  C   UNK     0      38.499   9.661  64.507  0.00  0.00    -0.031 A 
HETATM   13  C   UNK     0      38.915   8.770  65.656  0.00  0.00     0.051 C 
HETATM   14  C   UNK     0      37.340  10.338  61.070  0.00  0.00     0.115 C 
HETATM   15  C   UNK     0      35.939  10.901  60.895  0.00  0.00     0.021 A 
HETATM   16  N   UNK     0      35.505  12.136  61.210  0.00  0.00    -0.361 N 
HETATM   17  C   UNK     0      34.195  12.215  60.969  0.00  0.00     0.022 A 
HETATM   18  C   UNK     0      33.755  10.975  60.464  0.00  0.00    -0.027 A 
HETATM   19  C   UNK     0      34.858  10.162  60.421  0.00  0.00    -0.031 A 
HETATM   20  C   UNK     0      34.835   8.736  59.901  0.00  0.00     0.051 C 
HETATM   21  C   UNK     0      33.227  13.350  61.218  0.00  0.00     0.115 C 
HETATM   22  C   UNK     0      33.474  14.224  62.425  0.00  0.00     0.022 A 
HETATM   23  N   UNK     0      33.870  13.855  63.650  0.00  0.00    -0.361 N 
HETATM   24  C   UNK     0      34.105  14.969  64.373  0.00  0.00     0.021 A 
HETATM   25  C   UNK     0      33.844  16.082  63.597  0.00  0.00    -0.031 A 
HETATM   26  C   UNK     0      33.922  17.547  63.975  0.00  0.00     0.051 C 
HETATM   27  C   UNK     0      33.438  15.631  62.346  0.00  0.00    -0.027 A 
HETATM   28  C   UNK     0      34.657  15.062  65.785  0.00  0.00     0.115 C 
HETATM   29  H   UNK     0      35.701  12.320  65.519  0.00  0.00     0.165 HD
HETATM   30  H   UNK     0      37.896  12.522  62.939  0.00  0.00     0.165 HD
HETATM   31  H   UNK     0      36.145  12.985  61.565  0.00  0.00     0.165 HD
HETATM   32  H   UNK     0      33.946  12.803  64.031  0.00  0.00     0.165 HD
ENDROOT
BRANCH   6  33
HETATM   33  C   UNK     0      39.634  14.757  66.593  0.00  0.00     0.051 C 
BRANCH  33  34
HETATM   34  C   UNK     0      40.253  15.461  65.408  0.00  0.00     0.114 C 
BRANCH  34  35
HETATM   35  C   UNK     0      41.075  16.587  65.938  0.00  0.00     0.139 C 
HETATM   36  O   UNK     0      40.552  17.723  66.129  0.00  0.00    -0.650 OA
BRANCH  35  37
HETATM   37  O   UNK     0      42.424  16.450  66.243  0.00  0.00    -0.776 OA
HETATM   38  H   UNK     0      42.846  15.551  66.412  0.00  0.00     0.167 HD
ENDBRANCH  35  37
ENDBRANCH  34  35
ENDBRANCH  33  34
ENDBRANCH   6  33
BRANCH  27  39
HETATM   39  C   UNK     0      33.001  16.546  61.257  0.00  0.00     0.051 C 
BRANCH  39  40
HETATM   40  C   UNK     0      33.958  16.874  60.200  0.00  0.00     0.114 C 
BRANCH  40  41
HETATM   41  C   UNK     0      33.670  16.648  58.802  0.00  0.00     0.139 C 
HETATM   42  O   UNK     0      32.738  15.936  58.403  0.00  0.00    -0.650 OA
BRANCH  41  43
HETATM   43  O   UNK     0      34.491  17.267  57.818  0.00  0.00    -0.776 OA
HETATM   44  H   UNK     0      35.274  17.788  58.193  0.00  0.00     0.167 HD
ENDBRANCH  41  43
ENDBRANCH  40  41
ENDBRANCH  39  40
ENDBRANCH  27  39
BRANCH  11  45
HETATM   45  C   UNK     0      38.112   7.785  62.826  0.00  0.00     0.051 C 
BRANCH  45  46
HETATM   46  C   UNK     0      36.772   7.153  62.924  0.00  0.00     0.114 C 
BRANCH  46  47
HETATM   47  C   UNK     0      36.693   6.115  61.857  0.00  0.00     0.139 C 
HETATM   48  O   UNK     0      36.208   5.011  62.138  0.00  0.00    -0.650 OA
BRANCH  47  49
HETATM   49  O   UNK     0      37.149   6.376  60.589  0.00  0.00    -0.776 OA
HETATM   50  H   UNK     0      38.120   6.189  60.310  0.00  0.00     0.167 HD
ENDBRANCH  47  49
ENDBRANCH  46  47
ENDBRANCH  45  46
ENDBRANCH  11  45
BRANCH  18  51
HETATM   51  C   UNK     0      32.365  10.593  60.025  0.00  0.00     0.051 C 
BRANCH  51  52
HETATM   52  C   UNK     0      32.340  10.741  58.511  0.00  0.00     0.114 C 
BRANCH  52  53
HETATM   53  C   UNK     0      31.585   9.651  57.865  0.00  0.00     0.139 C 
HETATM   54  O   UNK     0      30.413   9.421  58.203  0.00  0.00    -0.650 OA
BRANCH  53  55
HETATM   55  O   UNK     0      32.186   8.891  56.891  0.00  0.00    -0.776 OA
HETATM   56  H   UNK     0      32.112   9.032  55.912  0.00  0.00     0.167 HD
ENDBRANCH  53  55
ENDBRANCH  52  53
ENDBRANCH  51  52
ENDBRANCH  18  51
TORSDOF 16
ENDMDL
MODEL 9
REMARK VINA RESULT:      -9.3      3.515      7.826
REMARK  16 active torsions:
REMARK  status: ('A' for Active; 'I' for Inactive)
REMARK    1  A    between atoms: C_6  and  C_7 
REMARK    2  A    between atoms: C_7  and  C_8 
REMARK    3  A    between atoms: C_8  and  C_9 
REMARK    4  A    between atoms: C_9  and  O_11 
REMARK    5  A    between atoms: C_16  and  C_17 
REMARK    6  A    between atoms: C_17  and  C_18 
REMARK    7  A    between atoms: C_18  and  C_19 
REMARK    8  A    between atoms: C_19  and  O_21 
REMARK    9  A    between atoms: C_28  and  C_29 
REMARK   10  A    between atoms: C_29  and  C_30 
REMARK   11  A    between atoms: C_30  and  C_31 
REMARK   12  A    between atoms: C_31  and  O_33 
REMARK   13  A    between atoms: C_42  and  C_43 
REMARK   14  A    between atoms: C_43  and  C_44 
REMARK   15  A    between atoms: C_44  and  C_45 
REMARK   16  A    between atoms: C_45  and  O_47 
ROOT
HETATM    1  C   UNK     0      39.288  13.975  66.277  0.00  0.00     0.051 C 
HETATM    2  C   UNK     0      38.582  12.737  65.764  0.00  0.00    -0.031 A 
HETATM    3  C   UNK     0      37.228  12.511  65.576  0.00  0.00     0.021 A 
HETATM    4  N   UNK     0      37.049  11.245  65.128  0.00  0.00    -0.361 N 
HETATM    5  C   UNK     0      38.261  10.663  65.018  0.00  0.00     0.022 A 
HETATM    6  C   UNK     0      39.243  11.567  65.411  0.00  0.00    -0.027 A 
HETATM    7  C   UNK     0      38.624   9.313  64.483  0.00  0.00     0.115 C 
HETATM    8  C   UNK     0      37.911   8.867  63.218  0.00  0.00     0.021 A 
HETATM    9  N   UNK     0      37.528   9.610  62.169  0.00  0.00    -0.361 N 
HETATM   10  C   UNK     0      36.848   8.813  61.317  0.00  0.00     0.022 A 
HETATM   11  C   UNK     0      36.801   7.520  61.828  0.00  0.00    -0.027 A 
HETATM   12  C   UNK     0      37.468   7.546  63.025  0.00  0.00    -0.031 A 
HETATM   13  C   UNK     0      37.675   6.358  63.938  0.00  0.00     0.051 C 
HETATM   14  C   UNK     0      36.174   9.249  60.019  0.00  0.00     0.115 C 
HETATM   15  C   UNK     0      35.082  10.289  60.212  0.00  0.00     0.021 A 
HETATM   16  N   UNK     0      35.200  11.510  60.768  0.00  0.00    -0.361 N 
HETATM   17  C   UNK     0      33.997  12.088  60.814  0.00  0.00     0.022 A 
HETATM   18  C   UNK     0      33.053  11.206  60.253  0.00  0.00    -0.027 A 
HETATM   19  C   UNK     0      33.745  10.083  59.879  0.00  0.00    -0.031 A 
HETATM   20  C   UNK     0      33.108   8.888  59.194  0.00  0.00     0.051 C 
HETATM   21  C   UNK     0      33.580  13.416  61.404  0.00  0.00     0.115 C 
HETATM   22  C   UNK     0      34.310  13.893  62.637  0.00  0.00     0.022 A 
HETATM   23  N   UNK     0      34.708  13.175  63.696  0.00  0.00    -0.361 N 
HETATM   24  C   UNK     0      35.449  13.970  64.493  0.00  0.00     0.021 A 
HETATM   25  C   UNK     0      35.522  15.234  63.939  0.00  0.00    -0.031 A 
HETATM   26  C   UNK     0      36.204  16.474  64.480  0.00  0.00     0.051 C 
HETATM   27  C   UNK     0      34.801  15.209  62.751  0.00  0.00    -0.027 A 
HETATM   28  C   UNK     0      36.192  13.584  65.760  0.00  0.00     0.115 C 
HETATM   29  H   UNK     0      36.066  10.760  64.930  0.00  0.00     0.165 HD
HETATM   30  H   UNK     0      37.779  10.686  62.002  0.00  0.00     0.165 HD
HETATM   31  H   UNK     0      36.158  11.994  61.091  0.00  0.00     0.165 HD
HETATM   32  H   UNK     0      34.432  12.110  63.912  0.00  0.00     0.165 HD
ENDROOT
BRANCH   6  33
HETATM   33  C   UNK     0      40.740  11.405  65.478  0.00  0.00     0.051 C 
BRANCH  33  34
HETATM   34  C   UNK     0      41.108  10.102  66.147  0.00  0.00     0.114 C 
BRANCH  34  35
HETATM   35  C   UNK     0      41.721  10.434  67.465  0.00  0.00     0.139 C 
HETATM   36  O   UNK     0      41.005  10.483  68.507  0.00  0.00    -0.650 OA
BRANCH  35  37
HETATM   37  O   UNK     0      43.077  10.698  67.615  0.00  0.00    -0.776 OA
HETATM   38  H   UNK     0      43.483  11.581  67.348  0.00  0.00     0.167 HD
ENDBRANCH  35  37
ENDBRANCH  34  35
ENDBRANCH  33  34
ENDBRANCH   6  33
BRANCH  27  39
HETATM   39  C   UNK     0      34.592  16.415  61.904  0.00  0.00     0.051 C 
BRANCH  39  40
HETATM   40  C   UNK     0      33.226  16.898  61.709  0.00  0.00     0.114 C 
BRANCH  40  41
HETATM   41  C   UNK     0      32.660  17.956  62.516  0.00  0.00     0.139 C 
HETATM   42  O   UNK     0      33.165  18.352  63.576  0.00  0.00    -0.650 OA
BRANCH  41  43
HETATM   43  O   UNK     0      31.460  18.588  62.084  0.00  0.00    -0.776 OA
HETATM   44  H   UNK     0      30.680  17.957  61.948  0.00  0.00     0.167 HD
ENDBRANCH  41  43
ENDBRANCH  40  41
ENDBRANCH  39  40
ENDBRANCH  27  39
BRANCH  11  45
HETATM   45  C   UNK     0      36.162   6.294  61.230  0.00  0.00     0.051 C 
BRANCH  45  46
HETATM   46  C   UNK     0      36.777   5.852  59.953  0.00  0.00     0.114 C 
BRANCH  46  47
HETATM   47  C   UNK     0      35.691   5.811  58.932  0.00  0.00     0.139 C 
HETATM   48  O   UNK     0      35.795   6.527  57.927  0.00  0.00    -0.650 OA
BRANCH  47  49
HETATM   49  O   UNK     0      34.598   4.998  59.100  0.00  0.00    -0.776 OA
HETATM   50  H   UNK     0      33.639   5.340  58.971  0.00  0.00     0.167 HD
ENDBRANCH  47  49
ENDBRANCH  46  47
ENDBRANCH  45  46
ENDBRANCH  11  45
BRANCH  18  51
HETATM   51  C   UNK     0      31.574  11.428  60.065  0.00  0.00     0.051 C 
BRANCH  51  52
HETATM   52  C   UNK     0      31.409  12.045  58.684  0.00  0.00     0.114 C 
BRANCH  52  53
HETATM   53  C   UNK     0      30.587  11.198  57.799  0.00  0.00     0.139 C 
HETATM   54  O   UNK     0      29.877  10.301  58.281  0.00  0.00    -0.650 OA
BRANCH  53  55
HETATM   55  O   UNK     0      30.616  11.405  56.441  0.00  0.00    -0.776 OA
HETATM   56  H   UNK     0      30.950  12.219  55.982  0.00  0.00     0.167 HD
ENDBRANCH  53  55
ENDBRANCH  52  53
ENDBRANCH  51  52
ENDBRANCH  18  51
TORSDOF 16
ENDMDL
MODEL 10
REMARK VINA RESULT:      -9.3      3.621      8.460
REMARK  16 active torsions:
REMARK  status: ('A' for Active; 'I' for Inactive)
REMARK    1  A    between atoms: C_6  and  C_7 
REMARK    2  A    between atoms: C_7  and  C_8 
REMARK    3  A    between atoms: C_8  and  C_9 
REMARK    4  A    between atoms: C_9  and  O_11 
REMARK    5  A    between atoms: C_16  and  C_17 
REMARK    6  A    between atoms: C_17  and  C_18 
REMARK    7  A    between atoms: C_18  and  C_19 
REMARK    8  A    between atoms: C_19  and  O_21 
REMARK    9  A    between atoms: C_28  and  C_29 
REMARK   10  A    between atoms: C_29  and  C_30 
REMARK   11  A    between atoms: C_30  and  C_31 
REMARK   12  A    between atoms: C_31  and  O_33 
REMARK   13  A    between atoms: C_42  and  C_43 
REMARK   14  A    between atoms: C_43  and  C_44 
REMARK   15  A    between atoms: C_44  and  C_45 
REMARK   16  A    between atoms: C_45  and  O_47 
ROOT
HETATM    1  C   UNK     0      32.155  14.893  59.363  0.00  0.00     0.051 C 
HETATM    2  C   UNK     0      33.000  14.582  60.581  0.00  0.00    -0.031 A 
HETATM    3  C   UNK     0      33.055  13.424  61.341  0.00  0.00     0.021 A 
HETATM    4  N   UNK     0      33.931  13.605  62.358  0.00  0.00    -0.361 N 
HETATM    5  C   UNK     0      34.443  14.849  62.257  0.00  0.00     0.022 A 
HETATM    6  C   UNK     0      33.879  15.489  61.158  0.00  0.00    -0.027 A 
HETATM    7  C   UNK     0      35.513  15.508  63.070  0.00  0.00     0.115 C 
HETATM    8  C   UNK     0      36.728  14.662  63.410  0.00  0.00     0.021 A 
HETATM    9  N   UNK     0      37.330  13.726  62.662  0.00  0.00    -0.361 N 
HETATM   10  C   UNK     0      38.313  13.168  63.400  0.00  0.00     0.022 A 
HETATM   11  C   UNK     0      38.351  13.768  64.655  0.00  0.00    -0.027 A 
HETATM   12  C   UNK     0      37.355  14.711  64.668  0.00  0.00    -0.031 A 
HETATM   13  C   UNK     0      37.025  15.618  65.832  0.00  0.00     0.051 C 
HETATM   14  C   UNK     0      39.218  12.015  62.972  0.00  0.00     0.115 C 
HETATM   15  C   UNK     0      38.469  10.730  62.657  0.00  0.00     0.021 A 
HETATM   16  N   UNK     0      37.504  10.546  61.738  0.00  0.00    -0.361 N 
HETATM   17  C   UNK     0      37.053   9.292  61.820  0.00  0.00     0.022 A 
HETATM   18  C   UNK     0      37.765   8.624  62.835  0.00  0.00    -0.027 A 
HETATM   19  C   UNK     0      38.651   9.535  63.351  0.00  0.00    -0.031 A 
HETATM   20  C   UNK     0      39.646   9.215  64.452  0.00  0.00     0.051 C 
HETATM   21  C   UNK     0      35.933   8.611  61.066  0.00  0.00     0.115 C 
HETATM   22  C   UNK     0      34.738   9.451  60.683  0.00  0.00     0.022 A 
HETATM   23  N   UNK     0      34.119  10.393  61.406  0.00  0.00    -0.361 N 
HETATM   24  C   UNK     0      33.196  10.989  60.625  0.00  0.00     0.021 A 
HETATM   25  C   UNK     0      33.213  10.408  59.371  0.00  0.00    -0.031 A 
HETATM   26  C   UNK     0      32.338  10.706  58.171  0.00  0.00     0.051 C 
HETATM   27  C   UNK     0      34.191   9.421  59.384  0.00  0.00    -0.027 A 
HETATM   28  C   UNK     0      32.310  12.173  60.971  0.00  0.00     0.115 C 
HETATM   29  H   UNK     0      34.153  12.866  63.162  0.00  0.00     0.165 HD
HETATM   30  H   UNK     0      37.097  13.490  61.594  0.00  0.00     0.165 HD
HETATM   31  H   UNK     0      37.165  11.302  60.982  0.00  0.00     0.165 HD
HETATM   32  H   UNK     0      34.300  10.618  62.490  0.00  0.00     0.165 HD
ENDROOT
BRANCH   6  33
HETATM   33  C   UNK     0      34.108  16.880  60.623  0.00  0.00     0.051 C 
BRANCH  33  34
HETATM   34  C   UNK     0      33.450  17.910  61.510  0.00  0.00     0.114 C 
BRANCH  34  35
HETATM   35  C   UNK     0      32.343  18.531  60.729  0.00  0.00     0.139 C 
HETATM   36  O   UNK     0      32.533  19.616  60.106  0.00  0.00    -0.650 OA
BRANCH  35  37
HETATM   37  O   UNK     0      31.077  17.964  60.643  0.00  0.00    -0.776 OA
HETATM   38  H   UNK     0      30.283  18.354  61.125  0.00  0.00     0.167 HD
ENDBRANCH  35  37
ENDBRANCH  34  35
ENDBRANCH  33  34
ENDBRANCH   6  33
BRANCH  27  39
HETATM   39  C   UNK     0      34.455   8.526  58.224  0.00  0.00     0.051 C 
BRANCH  39  40
HETATM   40  C   UNK     0      33.415   7.576  57.831  0.00  0.00     0.114 C 
BRANCH  40  41
HETATM   41  C   UNK     0      33.087   7.322  56.446  0.00  0.00     0.139 C 
HETATM   42  O   UNK     0      33.867   6.789  55.645  0.00  0.00    -0.650 OA
BRANCH  41  43
HETATM   43  O   UNK     0      31.803   7.700  55.959  0.00  0.00    -0.776 OA
HETATM   44  H   UNK     0      31.397   8.502  56.426  0.00  0.00     0.167 HD
ENDBRANCH  41  43
ENDBRANCH  40  41
ENDBRANCH  39  40
ENDBRANCH  27  39
BRANCH  11  45
HETATM   45  C   UNK     0      39.278  13.485  65.807  0.00  0.00     0.051 C 
BRANCH  45  46
HETATM   46  C   UNK     0      38.972  12.227  66.535  0.00  0.00     0.114 C 
BRANCH  46  47
HETATM   47  C   UNK     0      40.274  11.633  66.954  0.00  0.00     0.139 C 
HETATM   48  O   UNK     0      41.305  11.989  66.367  0.00  0.00    -0.650 OA
BRANCH  47  49
HETATM   49  O   UNK     0      40.331  10.709  67.968  0.00  0.00    -0.776 OA
HETATM   50  H   UNK     0      41.196  10.524  68.488  0.00  0.00     0.167 HD
ENDBRANCH  47  49
ENDBRANCH  46  47
ENDBRANCH  45  46
ENDBRANCH  11  45
BRANCH  18  51
HETATM   51  C   UNK     0      37.625   7.190  63.276  0.00  0.00     0.051 C 
BRANCH  51  52
HETATM   52  C   UNK     0      36.221   7.054  63.845  0.00  0.00     0.114 C 
BRANCH  52  53
HETATM   53  C   UNK     0      36.234   6.909  65.313  0.00  0.00     0.139 C 
HETATM   54  O   UNK     0      35.177   7.005  65.957  0.00  0.00    -0.650 OA
BRANCH  53  55
HETATM   55  O   UNK     0      37.422   6.672  65.962  0.00  0.00    -0.776 OA
HETATM   56  H   UNK     0      38.315   7.006  65.685  0.00  0.00     0.167 HD
ENDBRANCH  53  55
ENDBRANCH  52  53
ENDBRANCH  51  52
ENDBRANCH  18  51
TORSDOF 16
ENDMDL
MODEL 11
REMARK VINA RESULT:      -9.3     30.900     33.456
REMARK  16 active torsions:
REMARK  status: ('A' for Active; 'I' for Inactive)
REMARK    1  A    between atoms: C_6  and  C_7 
REMARK    2  A    between atoms: C_7  and  C_8 
REMARK    3  A    between atoms: C_8  and  C_9 
REMARK    4  A    between atoms: C_9  and  O_11 
REMARK    5  A    between atoms: C_16  and  C_17 
REMARK    6  A    between atoms: C_17  and  C_18 
REMARK    7  A    between atoms: C_18  and  C_19 
REMARK    8  A    between atoms: C_19  and  O_21 
REMARK    9  A    between atoms: C_28  and  C_29 
REMARK   10  A    between atoms: C_29  and  C_30 
REMARK   11  A    between atoms: C_30  and  C_31 
REMARK   12  A    between atoms: C_31  and  O_33 
REMARK   13  A    between atoms: C_42  and  C_43 
REMARK   14  A    between atoms: C_43  and  C_44 
REMARK   15  A    between atoms: C_44  and  C_45 
REMARK   16  A    between atoms: C_45  and  O_47 
ROOT
HETATM    1  C   UNK     0      45.646  19.469  31.540  0.00  0.00     0.051 C 
HETATM    2  C   UNK     0      46.314  18.984  32.811  0.00  0.00    -0.031 A 
HETATM    3  C   UNK     0      45.924  17.979  33.682  0.00  0.00     0.021 A 
HETATM    4  N   UNK     0      46.809  17.914  34.705  0.00  0.00    -0.361 N 
HETATM    5  C   UNK     0      47.759  18.849  34.500  0.00  0.00     0.022 A 
HETATM    6  C   UNK     0      47.479  19.539  33.326  0.00  0.00    -0.027 A 
HETATM    7  C   UNK     0      49.006  19.127  35.282  0.00  0.00     0.115 C 
HETATM    8  C   UNK     0      49.804  17.920  35.743  0.00  0.00     0.021 A 
HETATM    9  N   UNK     0      49.995  16.752  35.110  0.00  0.00    -0.361 N 
HETATM   10  C   UNK     0      50.692  15.939  35.932  0.00  0.00     0.022 A 
HETATM   11  C   UNK     0      50.966  16.605  37.123  0.00  0.00    -0.027 A 
HETATM   12  C   UNK     0      50.409  17.854  37.011  0.00  0.00    -0.031 A 
HETATM   13  C   UNK     0      50.462  18.933  38.069  0.00  0.00     0.051 C 
HETATM   14  C   UNK     0      51.080  14.491  35.650  0.00  0.00     0.115 C 
HETATM   15  C   UNK     0      49.893  13.566  35.437  0.00  0.00     0.021 A 
HETATM   16  N   UNK     0      48.925  13.672  34.508  0.00  0.00    -0.361 N 
HETATM   17  C   UNK     0      48.027  12.703  34.697  0.00  0.00     0.022 A 
HETATM   18  C   UNK     0      48.434  11.921  35.796  0.00  0.00    -0.027 A 
HETATM   19  C   UNK     0      49.605  12.471  36.250  0.00  0.00    -0.031 A 
HETATM   20  C   UNK     0      50.407  11.910  37.409  0.00  0.00     0.051 C 
HETATM   21  C   UNK     0      46.727  12.429  33.975  0.00  0.00     0.115 C 
HETATM   22  C   UNK     0      45.944  13.619  33.472  0.00  0.00     0.022 A 
HETATM   23  N   UNK     0      45.741  14.796  34.079  0.00  0.00    -0.361 N 
HETATM   24  C   UNK     0      45.112  15.616  33.212  0.00  0.00     0.021 A 
HETATM   25  C   UNK     0      44.897  14.948  32.022  0.00  0.00    -0.031 A 
HETATM   26  C   UNK     0      44.196  15.433  30.770  0.00  0.00     0.051 C 
HETATM   27  C   UNK     0      45.420  13.667  32.164  0.00  0.00    -0.027 A 
HETATM   28  C   UNK     0      44.753  17.078  33.411  0.00  0.00     0.115 C 
HETATM   29  H   UNK     0      46.735  17.233  35.585  0.00  0.00     0.165 HD
HETATM   30  H   UNK     0      49.682  16.516  34.064  0.00  0.00     0.165 HD
HETATM   31  H   UNK     0      48.899  14.418  33.671  0.00  0.00     0.165 HD
HETATM   32  H   UNK     0      46.001  15.044  35.140  0.00  0.00     0.165 HD
ENDROOT
BRANCH   6  33
HETATM   33  C   UNK     0      48.222  20.673  32.666  0.00  0.00     0.051 C 
BRANCH  33  34
HETATM   34  C   UNK     0      49.321  20.145  31.774  0.00  0.00     0.114 C 
BRANCH  34  35
HETATM   35  C   UNK     0      50.484  21.070  31.903  0.00  0.00     0.139 C 
HETATM   36  O   UNK     0      51.062  21.515  30.869  0.00  0.00    -0.650 OA
BRANCH  35  37
HETATM   37  O   UNK     0      50.980  21.483  33.134  0.00  0.00    -0.776 OA
HETATM   38  H   UNK     0      51.830  22.017  33.216  0.00  0.00     0.167 HD
ENDBRANCH  35  37
ENDBRANCH  34  35
ENDBRANCH  33  34
ENDBRANCH   6  33
BRANCH  27  39
HETATM   39  C   UNK     0      45.311  12.625  31.107  0.00  0.00     0.051 C 
BRANCH  39  40
HETATM   40  C   UNK     0      46.362  12.554  30.092  0.00  0.00     0.114 C 
BRANCH  40  41
HETATM   41  C   UNK     0      47.734  12.242  30.424  0.00  0.00     0.139 C 
HETATM   42  O   UNK     0      48.690  12.977  30.142  0.00  0.00    -0.650 OA
BRANCH  41  43
HETATM   43  O   UNK     0      48.020  11.029  31.113  0.00  0.00    -0.776 OA
HETATM   44  H   UNK     0      47.766  10.190  30.606  0.00  0.00     0.167 HD
ENDBRANCH  41  43
ENDBRANCH  40  41
ENDBRANCH  39  40
ENDBRANCH  27  39
BRANCH  11  45
HETATM   45  C   UNK     0      51.719  16.109  38.328  0.00  0.00     0.051 C 
BRANCH  45  46
HETATM   46  C   UNK     0      53.192  16.277  38.233  0.00  0.00     0.114 C 
BRANCH  46  47
HETATM   47  C   UNK     0      53.785  14.913  38.114  0.00  0.00     0.139 C 
HETATM   48  O   UNK     0      54.618  14.706  37.220  0.00  0.00    -0.650 OA
BRANCH  47  49
HETATM   49  O   UNK     0      53.415  13.909  38.972  0.00  0.00    -0.776 OA
HETATM   50  H   UNK     0      53.908  13.008  39.001  0.00  0.00     0.167 HD
ENDBRANCH  47  49
ENDBRANCH  46  47
ENDBRANCH  45  46
ENDBRANCH  11  45
BRANCH  18  51
HETATM   51  C   UNK     0      47.756  10.704  36.369  0.00  0.00     0.051 C 
BRANCH  51  52
HETATM   52  C   UNK     0      48.474   9.499  35.780  0.00  0.00     0.114 C 
BRANCH  52  53
HETATM   53  C   UNK     0      47.741   8.930  34.632  0.00  0.00     0.139 C 
HETATM   54  O   UNK     0      48.014   9.296  33.478  0.00  0.00    -0.650 OA
BRANCH  53  55
HETATM   55  O   UNK     0      46.756   7.998  34.850  0.00  0.00    -0.776 OA
HETATM   56  H   UNK     0      46.343   7.778  35.725  0.00  0.00     0.167 HD
ENDBRANCH  53  55
ENDBRANCH  52  53
ENDBRANCH  51  52
ENDBRANCH  18  51
TORSDOF 16
ENDMDL
MODEL 12
REMARK VINA RESULT:      -9.2     31.289     33.710
REMARK  16 active torsions:
REMARK  status: ('A' for Active; 'I' for Inactive)
REMARK    1  A    between atoms: C_6  and  C_7 
REMARK    2  A    between atoms: C_7  and  C_8 
REMARK    3  A    between atoms: C_8  and  C_9 
REMARK    4  A    between atoms: C_9  and  O_11 
REMARK    5  A    between atoms: C_16  and  C_17 
REMARK    6  A    between atoms: C_17  and  C_18 
REMARK    7  A    between atoms: C_18  and  C_19 
REMARK    8  A    between atoms: C_19  and  O_21 
REMARK    9  A    between atoms: C_28  and  C_29 
REMARK   10  A    between atoms: C_29  and  C_30 
REMARK   11  A    between atoms: C_30  and  C_31 
REMARK   12  A    between atoms: C_31  and  O_33 
REMARK   13  A    between atoms: C_42  and  C_43 
REMARK   14  A    between atoms: C_43  and  C_44 
REMARK   15  A    between atoms: C_44  and  C_45 
REMARK   16  A    between atoms: C_45  and  O_47 
ROOT
HETATM    1  C   UNK     0      46.966  21.184  30.768  0.00  0.00     0.051 C 
HETATM    2  C   UNK     0      47.326  20.664  32.145  0.00  0.00    -0.031 A 
HETATM    3  C   UNK     0      46.691  19.705  32.917  0.00  0.00     0.021 A 
HETATM    4  N   UNK     0      47.347  19.582  34.096  0.00  0.00    -0.361 N 
HETATM    5  C   UNK     0      48.392  20.435  34.087  0.00  0.00     0.022 A 
HETATM    6  C   UNK     0      48.407  21.130  32.882  0.00  0.00    -0.027 A 
HETATM    7  C   UNK     0      49.477  20.622  35.101  0.00  0.00     0.115 C 
HETATM    8  C   UNK     0      50.066  19.361  35.708  0.00  0.00     0.021 A 
HETATM    9  N   UNK     0      50.283  18.173  35.122  0.00  0.00    -0.361 N 
HETATM   10  C   UNK     0      50.735  17.318  36.064  0.00  0.00     0.022 A 
HETATM   11  C   UNK     0      50.820  17.975  37.288  0.00  0.00    -0.027 A 
HETATM   12  C   UNK     0      50.401  19.263  37.071  0.00  0.00    -0.031 A 
HETATM   13  C   UNK     0      50.330  20.348  38.122  0.00  0.00     0.051 C 
HETATM   14  C   UNK     0      51.052  15.839  35.860  0.00  0.00     0.115 C 
HETATM   15  C   UNK     0      49.859  15.010  35.412  0.00  0.00     0.021 A 
HETATM   16  N   UNK     0      49.106  15.182  34.309  0.00  0.00    -0.361 N 
HETATM   17  C   UNK     0      48.112  14.291  34.313  0.00  0.00     0.022 A 
HETATM   18  C   UNK     0      48.228  13.493  35.469  0.00  0.00    -0.027 A 
HETATM   19  C   UNK     0      49.327  13.953  36.148  0.00  0.00    -0.031 A 
HETATM   20  C   UNK     0      49.834  13.344  37.442  0.00  0.00     0.051 C 
HETATM   21  C   UNK     0      46.963  14.113  33.347  0.00  0.00     0.115 C 
HETATM   22  C   UNK     0      46.396  15.355  32.701  0.00  0.00     0.022 A 
HETATM   23  N   UNK     0      46.173  16.552  33.259  0.00  0.00    -0.361 N 
HETATM   24  C   UNK     0      45.798  17.409  32.288  0.00  0.00     0.021 A 
HETATM   25  C   UNK     0      45.769  16.745  31.077  0.00  0.00    -0.031 A 
HETATM   26  C   UNK     0      45.373  17.268  29.712  0.00  0.00     0.051 C 
HETATM   27  C   UNK     0      46.147  15.429  31.316  0.00  0.00    -0.027 A 
HETATM   28  C   UNK     0      45.527  18.898  32.416  0.00  0.00     0.115 C 
HETATM   29  H   UNK     0      47.044  18.922  34.941  0.00  0.00     0.165 HD
HETATM   30  H   UNK     0      50.166  17.949  34.034  0.00  0.00     0.165 HD
HETATM   31  H   UNK     0      49.308  15.916  33.487  0.00  0.00     0.165 HD
HETATM   32  H   UNK     0      46.236  16.793  34.352  0.00  0.00     0.165 HD
ENDROOT
BRANCH   6  33
HETATM   33  C   UNK     0      49.357  22.191  32.387  0.00  0.00     0.051 C 
BRANCH  33  34
HETATM   34  C   UNK     0      50.424  21.585  31.506  0.00  0.00     0.114 C 
BRANCH  34  35
HETATM   35  C   UNK     0      51.746  21.952  32.090  0.00  0.00     0.139 C 
HETATM   36  O   UNK     0      52.785  21.943  31.369  0.00  0.00    -0.650 OA
BRANCH  35  37
HETATM   37  O   UNK     0      51.901  22.316  33.422  0.00  0.00    -0.776 OA
HETATM   38  H   UNK     0      52.118  21.642  34.139  0.00  0.00     0.167 HD
ENDBRANCH  35  37
ENDBRANCH  34  35
ENDBRANCH  33  34
ENDBRANCH   6  33
BRANCH  27  39
HETATM   39  C   UNK     0      46.166  14.385  30.255  0.00  0.00     0.051 C 
BRANCH  39  40
HETATM   40  C   UNK     0      45.085  13.400  30.232  0.00  0.00     0.114 C 
BRANCH  40  41
HETATM   41  C   UNK     0      45.324  11.989  30.443  0.00  0.00     0.139 C 
HETATM   42  O   UNK     0      45.830  11.247  29.591  0.00  0.00    -0.650 OA
BRANCH  41  43
HETATM   43  O   UNK     0      44.963  11.407  31.691  0.00  0.00    -0.776 OA
HETATM   44  H   UNK     0      44.214  10.728  31.636  0.00  0.00     0.167 HD
ENDBRANCH  41  43
ENDBRANCH  40  41
ENDBRANCH  39  40
ENDBRANCH  27  39
BRANCH  11  45
HETATM   45  C   UNK     0      51.277  17.435  38.617  0.00  0.00     0.051 C 
BRANCH  45  46
HETATM   46  C   UNK     0      52.752  17.324  38.751  0.00  0.00     0.114 C 
BRANCH  46  47
HETATM   47  C   UNK     0      53.093  15.874  38.675  0.00  0.00     0.139 C 
HETATM   48  O   UNK     0      53.981  15.515  37.888  0.00  0.00    -0.650 OA
BRANCH  47  49
HETATM   49  O   UNK     0      52.440  14.956  39.457  0.00  0.00    -0.776 OA
HETATM   50  H   UNK     0      51.432  15.020  39.646  0.00  0.00     0.167 HD
ENDBRANCH  47  49
ENDBRANCH  46  47
ENDBRANCH  45  46
ENDBRANCH  11  45
BRANCH  18  51
HETATM   51  C   UNK     0      47.353  12.342  35.892  0.00  0.00     0.051 C 
BRANCH  51  52
HETATM   52  C   UNK     0      48.101  11.074  35.509  0.00  0.00     0.114 C 
BRANCH  52  53
HETATM   53  C   UNK     0      47.379  10.299  34.481  0.00  0.00     0.139 C 
HETATM   54  O   UNK     0      47.145  10.805  33.372  0.00  0.00    -0.650 OA
BRANCH  53  55
HETATM   55  O   UNK     0      46.967   9.019  34.761  0.00  0.00    -0.776 OA
HETATM   56  H   UNK     0      47.513   8.195  34.664  0.00  0.00     0.167 HD
ENDBRANCH  53  55
ENDBRANCH  52  53
ENDBRANCH  51  52
ENDBRANCH  18  51
TORSDOF 16
ENDMDL
MODEL 13
REMARK VINA RESULT:      -9.2      3.590      8.412
REMARK  16 active torsions:
REMARK  status: ('A' for Active; 'I' for Inactive)
REMARK    1  A    between atoms: C_6  and  C_7 
REMARK    2  A    between atoms: C_7  and  C_8 
REMARK    3  A    between atoms: C_8  and  C_9 
REMARK    4  A    between atoms: C_9  and  O_11 
REMARK    5  A    between atoms: C_16  and  C_17 
REMARK    6  A    between atoms: C_17  and  C_18 
REMARK    7  A    between atoms: C_18  and  C_19 
REMARK    8  A    between atoms: C_19  and  O_21 
REMARK    9  A    between atoms: C_28  and  C_29 
REMARK   10  A    between atoms: C_29  and  C_30 
REMARK   11  A    between atoms: C_30  and  C_31 
REMARK   12  A    between atoms: C_31  and  O_33 
REMARK   13  A    between atoms: C_42  and  C_43 
REMARK   14  A    between atoms: C_43  and  C_44 
REMARK   15  A    between atoms: C_44  and  C_45 
REMARK   16  A    between atoms: C_45  and  O_47 
ROOT
HETATM    1  C   UNK     0      31.173  13.865  58.306  0.00  0.00     0.051 C 
HETATM    2  C   UNK     0      31.984  13.934  59.583  0.00  0.00    -0.031 A 
HETATM    3  C   UNK     0      32.272  12.933  60.498  0.00  0.00     0.021 A 
HETATM    4  N   UNK     0      33.005  13.457  61.509  0.00  0.00    -0.361 N 
HETATM    5  C   UNK     0      33.199  14.767  61.254  0.00  0.00     0.022 A 
HETATM    6  C   UNK     0      32.571  15.100  60.058  0.00  0.00    -0.027 A 
HETATM    7  C   UNK     0      34.016  15.773  62.004  0.00  0.00     0.115 C 
HETATM    8  C   UNK     0      35.376  15.313  62.499  0.00  0.00     0.021 A 
HETATM    9  N   UNK     0      36.241  14.473  61.909  0.00  0.00    -0.361 N 
HETATM   10  C   UNK     0      37.278  14.281  62.750  0.00  0.00     0.022 A 
HETATM   11  C   UNK     0      37.081  15.024  63.910  0.00  0.00    -0.027 A 
HETATM   12  C   UNK     0      35.885  15.677  63.758  0.00  0.00    -0.031 A 
HETATM   13  C   UNK     0      35.263  16.610  64.774  0.00  0.00     0.051 C 
HETATM   14  C   UNK     0      38.466  13.351  62.518  0.00  0.00     0.115 C 
HETATM   15  C   UNK     0      38.082  11.889  62.359  0.00  0.00     0.021 A 
HETATM   16  N   UNK     0      37.256  11.352  61.442  0.00  0.00    -0.361 N 
HETATM   17  C   UNK     0      37.124  10.045  61.682  0.00  0.00     0.022 A 
HETATM   18  C   UNK     0      37.909   9.713  62.804  0.00  0.00    -0.027 A 
HETATM   19  C   UNK     0      38.505  10.876  63.218  0.00  0.00    -0.031 A 
HETATM   20  C   UNK     0      39.471  10.960  64.386  0.00  0.00     0.051 C 
HETATM   21  C   UNK     0      36.261   9.013  60.992  0.00  0.00     0.115 C 
HETATM   22  C   UNK     0      34.924   9.466  60.456  0.00  0.00     0.022 A 
HETATM   23  N   UNK     0      34.045  10.305  61.020  0.00  0.00    -0.361 N 
HETATM   24  C   UNK     0      33.058  10.543  60.132  0.00  0.00     0.021 A 
HETATM   25  C   UNK     0      33.303   9.833  58.973  0.00  0.00    -0.031 A 
HETATM   26  C   UNK     0      32.465   9.746  57.714  0.00  0.00     0.051 C 
HETATM   27  C   UNK     0      34.491   9.136  59.156  0.00  0.00    -0.027 A 
HETATM   28  C   UNK     0      31.886  11.498  60.280  0.00  0.00     0.115 C 
HETATM   29  H   UNK     0      33.348  12.906  62.415  0.00  0.00     0.165 HD
HETATM   30  H   UNK     0      36.146  14.054  60.877  0.00  0.00     0.165 HD
HETATM   31  H   UNK     0      36.794  11.896  60.577  0.00  0.00     0.165 HD
HETATM   32  H   UNK     0      34.090  10.702  62.067  0.00  0.00     0.165 HD
ENDROOT
BRANCH   6  33
HETATM   33  C   UNK     0      32.486  16.425  59.343  0.00  0.00     0.051 C 
BRANCH  33  34
HETATM   34  C   UNK     0      31.363  17.264  59.905  0.00  0.00     0.114 C 
BRANCH  34  35
HETATM   35  C   UNK     0      31.982  18.420  60.614  0.00  0.00     0.139 C 
HETATM   36  O   UNK     0      32.871  19.116  60.044  0.00  0.00    -0.650 OA
BRANCH  35  37
HETATM   37  O   UNK     0      31.622  18.786  61.906  0.00  0.00    -0.776 OA
HETATM   38  H   UNK     0      31.132  19.645  62.101  0.00  0.00     0.167 HD
ENDBRANCH  35  37
ENDBRANCH  34  35
ENDBRANCH  33  34
ENDBRANCH   6  33
BRANCH  27  39
HETATM   39  C   UNK     0      35.046   8.199  58.141  0.00  0.00     0.051 C 
BRANCH  39  40
HETATM   40  C   UNK     0      34.668   6.788  58.220  0.00  0.00     0.114 C 
BRANCH  40  41
HETATM   41  C   UNK     0      35.486   5.807  58.897  0.00  0.00     0.139 C 
HETATM   42  O   UNK     0      35.134   4.635  59.084  0.00  0.00    -0.650 OA
BRANCH  41  43
HETATM   43  O   UNK     0      36.768   6.193  59.382  0.00  0.00    -0.776 OA
HETATM   44  H   UNK     0      37.415   6.494  58.662  0.00  0.00     0.167 HD
ENDBRANCH  41  43
ENDBRANCH  40  41
ENDBRANCH  39  40
ENDBRANCH  27  39
BRANCH  11  45
HETATM   45  C   UNK     0      37.969  15.132  65.121  0.00  0.00     0.051 C 
BRANCH  45  46
HETATM   46  C   UNK     0      38.165  13.851  65.846  0.00  0.00     0.114 C 
BRANCH  46  47
HETATM   47  C   UNK     0      36.816  13.360  66.248  0.00  0.00     0.139 C 
HETATM   48  O   UNK     0      36.115  14.080  66.974  0.00  0.00    -0.650 OA
BRANCH  47  49
HETATM   49  O   UNK     0      36.358  12.137  65.826  0.00  0.00    -0.776 OA
HETATM   50  H   UNK     0      36.037  11.978  64.864  0.00  0.00     0.167 HD
ENDBRANCH  47  49
ENDBRANCH  46  47
ENDBRANCH  45  46
ENDBRANCH  11  45
BRANCH  18  51
HETATM   51  C   UNK     0      38.098   8.358  63.434  0.00  0.00     0.051 C 
BRANCH  51  52
HETATM   52  C   UNK     0      37.090   8.272  64.571  0.00  0.00     0.114 C 
BRANCH  52  53
HETATM   53  C   UNK     0      36.197   7.106  64.428  0.00  0.00     0.139 C 
HETATM   54  O   UNK     0      36.353   6.317  63.482  0.00  0.00    -0.650 OA
BRANCH  53  55
HETATM   55  O   UNK     0      35.194   6.901  65.344  0.00  0.00    -0.776 OA
HETATM   56  H   UNK     0      34.227   6.806  65.139  0.00  0.00     0.167 HD
ENDBRANCH  53  55
ENDBRANCH  52  53
ENDBRANCH  51  52
ENDBRANCH  18  51
TORSDOF 16
ENDMDL
MODEL 14
REMARK VINA RESULT:      -9.2     33.536     35.987
REMARK  16 active torsions:
REMARK  status: ('A' for Active; 'I' for Inactive)
REMARK    1  A    between atoms: C_6  and  C_7 
REMARK    2  A    between atoms: C_7  and  C_8 
REMARK    3  A    between atoms: C_8  and  C_9 
REMARK    4  A    between atoms: C_9  and  O_11 
REMARK    5  A    between atoms: C_16  and  C_17 
REMARK    6  A    between atoms: C_17  and  C_18 
REMARK    7  A    between atoms: C_18  and  C_19 
REMARK    8  A    between atoms: C_19  and  O_21 
REMARK    9  A    between atoms: C_28  and  C_29 
REMARK   10  A    between atoms: C_29  and  C_30 
REMARK   11  A    between atoms: C_30  and  C_31 
REMARK   12  A    between atoms: C_31  and  O_33 
REMARK   13  A    between atoms: C_42  and  C_43 
REMARK   14  A    between atoms: C_43  and  C_44 
REMARK   15  A    between atoms: C_44  and  C_45 
REMARK   16  A    between atoms: C_45  and  O_47 
ROOT
HETATM    1  C   UNK     0      44.392  13.136  31.149  0.00  0.00     0.051 C 
HETATM    2  C   UNK     0      44.020  14.585  31.386  0.00  0.00    -0.031 A 
HETATM    3  C   UNK     0      44.499  15.472  32.338  0.00  0.00     0.021 A 
HETATM    4  N   UNK     0      43.859  16.657  32.198  0.00  0.00    -0.361 N 
HETATM    5  C   UNK     0      42.989  16.548  31.173  0.00  0.00     0.022 A 
HETATM    6  C   UNK     0      43.062  15.263  30.644  0.00  0.00    -0.027 A 
HETATM    7  C   UNK     0      42.112  17.590  30.553  0.00  0.00     0.115 C 
HETATM    8  C   UNK     0      42.730  18.960  30.336  0.00  0.00     0.021 A 
HETATM    9  N   UNK     0      43.993  19.263  29.996  0.00  0.00    -0.361 N 
HETATM   10  C   UNK     0      44.119  20.607  30.006  0.00  0.00     0.022 A 
HETATM   11  C   UNK     0      42.901  21.186  30.352  0.00  0.00    -0.027 A 
HETATM   12  C   UNK     0      42.022  20.154  30.562  0.00  0.00    -0.031 A 
HETATM   13  C   UNK     0      40.570  20.309  30.955  0.00  0.00     0.051 C 
HETATM   14  C   UNK     0      45.399  21.394  29.742  0.00  0.00     0.115 C 
HETATM   15  C   UNK     0      46.519  21.096  30.725  0.00  0.00     0.021 A 
HETATM   16  N   UNK     0      47.094  19.905  30.979  0.00  0.00    -0.361 N 
HETATM   17  C   UNK     0      47.989  20.050  31.958  0.00  0.00     0.022 A 
HETATM   18  C   UNK     0      48.005  21.402  32.355  0.00  0.00    -0.027 A 
HETATM   19  C   UNK     0      47.081  22.046  31.575  0.00  0.00    -0.031 A 
HETATM   20  C   UNK     0      46.804  23.537  31.651  0.00  0.00     0.051 C 
HETATM   21  C   UNK     0      48.843  19.015  32.655  0.00  0.00     0.115 C 
HETATM   22  C   UNK     0      48.257  17.635  32.838  0.00  0.00     0.022 A 
HETATM   23  N   UNK     0      47.003  17.304  33.173  0.00  0.00    -0.361 N 
HETATM   24  C   UNK     0      46.880  15.964  33.080  0.00  0.00     0.021 A 
HETATM   25  C   UNK     0      48.087  15.419  32.687  0.00  0.00    -0.031 A 
HETATM   26  C   UNK     0      48.455  13.963  32.487  0.00  0.00     0.051 C 
HETATM   27  C   UNK     0      48.984  16.469  32.526  0.00  0.00    -0.027 A 
HETATM   28  C   UNK     0      45.625  15.131  33.272  0.00  0.00     0.115 C 
HETATM   29  H   UNK     0      43.997  17.550  32.851  0.00  0.00     0.165 HD
HETATM   30  H   UNK     0      44.784  18.532  29.699  0.00  0.00     0.165 HD
HETATM   31  H   UNK     0      46.898  18.951  30.423  0.00  0.00     0.165 HD
HETATM   32  H   UNK     0      46.204  18.010  33.519  0.00  0.00     0.165 HD
ENDROOT
BRANCH   6  33
HETATM   33  C   UNK     0      42.299  14.639  29.503  0.00  0.00     0.051 C 
BRANCH  33  34
HETATM   34  C   UNK     0      43.198  14.434  28.307  0.00  0.00     0.114 C 
BRANCH  34  35
HETATM   35  C   UNK     0      42.725  15.350  27.230  0.00  0.00     0.139 C 
HETATM   36  O   UNK     0      41.661  16.018  27.383  0.00  0.00    -0.650 OA
BRANCH  35  37
HETATM   37  O   UNK     0      43.412  15.518  26.033  0.00  0.00    -0.776 OA
HETATM   38  H   UNK     0      43.670  14.737  25.451  0.00  0.00     0.167 HD
ENDBRANCH  35  37
ENDBRANCH  34  35
ENDBRANCH  33  34
ENDBRANCH   6  33
BRANCH  27  39
HETATM   39  C   UNK     0      50.416  16.265  32.175  0.00  0.00     0.051 C 
BRANCH  39  40
HETATM   40  C   UNK     0      50.786  16.237  30.760  0.00  0.00     0.114 C 
BRANCH  40  41
HETATM   41  C   UNK     0      50.323  17.236  29.823  0.00  0.00     0.139 C 
HETATM   42  O   UNK     0      50.639  18.432  29.887  0.00  0.00    -0.650 OA
BRANCH  41  43
HETATM   43  O   UNK     0      49.456  16.842  28.764  0.00  0.00    -0.776 OA
HETATM   44  H   UNK     0      49.676  17.256  27.866  0.00  0.00     0.167 HD
ENDBRANCH  41  43
ENDBRANCH  40  41
ENDBRANCH  39  40
ENDBRANCH  27  39
BRANCH  11  45
HETATM   45  C   UNK     0      42.556  22.645  30.485  0.00  0.00     0.051 C 
BRANCH  45  46
HETATM   46  C   UNK     0      43.183  23.313  31.654  0.00  0.00     0.114 C 
BRANCH  46  47
HETATM   47  C   UNK     0      42.863  24.766  31.556  0.00  0.00     0.139 C 
HETATM   48  O   UNK     0      43.645  25.580  32.068  0.00  0.00    -0.650 OA
BRANCH  47  49
HETATM   49  O   UNK     0      41.728  25.194  30.916  0.00  0.00    -0.776 OA
HETATM   50  H   UNK     0      41.095  24.544  30.436  0.00  0.00     0.167 HD
ENDBRANCH  47  49
ENDBRANCH  46  47
ENDBRANCH  45  46
ENDBRANCH  11  45
BRANCH  18  51
HETATM   51  C   UNK     0      48.870  22.048  33.407  0.00  0.00     0.051 C 
BRANCH  51  52
HETATM   52  C   UNK     0      49.906  22.873  32.658  0.00  0.00     0.114 C 
BRANCH  52  53
HETATM   53  C   UNK     0      51.165  22.128  32.463  0.00  0.00     0.139 C 
HETATM   54  O   UNK     0      51.352  21.486  31.417  0.00  0.00    -0.650 OA
BRANCH  53  55
HETATM   55  O   UNK     0      52.125  22.146  33.446  0.00  0.00    -0.776 OA
HETATM   56  H   UNK     0      52.625  21.360  33.789  0.00  0.00     0.167 HD
ENDBRANCH  53  55
ENDBRANCH  52  53
ENDBRANCH  51  52
ENDBRANCH  18  51
TORSDOF 16
ENDMDL
MODEL 15
REMARK VINA RESULT:      -9.2      2.230      7.650
REMARK  16 active torsions:
REMARK  status: ('A' for Active; 'I' for Inactive)
REMARK    1  A    between atoms: C_6  and  C_7 
REMARK    2  A    between atoms: C_7  and  C_8 
REMARK    3  A    between atoms: C_8  and  C_9 
REMARK    4  A    between atoms: C_9  and  O_11 
REMARK    5  A    between atoms: C_16  and  C_17 
REMARK    6  A    between atoms: C_17  and  C_18 
REMARK    7  A    between atoms: C_18  and  C_19 
REMARK    8  A    between atoms: C_19  and  O_21 
REMARK    9  A    between atoms: C_28  and  C_29 
REMARK   10  A    between atoms: C_29  and  C_30 
REMARK   11  A    between atoms: C_30  and  C_31 
REMARK   12  A    between atoms: C_31  and  O_33 
REMARK   13  A    between atoms: C_42  and  C_43 
REMARK   14  A    between atoms: C_43  and  C_44 
REMARK   15  A    between atoms: C_44  and  C_45 
REMARK   16  A    between atoms: C_45  and  O_47 
ROOT
HETATM    1  C   UNK     0      32.012  12.587  60.762  0.00  0.00     0.051 C 
HETATM    2  C   UNK     0      32.883  13.095  61.894  0.00  0.00    -0.031 A 
HETATM    3  C   UNK     0      33.531  12.385  62.892  0.00  0.00     0.021 A 
HETATM    4  N   UNK     0      34.171  13.256  63.708  0.00  0.00    -0.361 N 
HETATM    5  C   UNK     0      33.953  14.504  63.247  0.00  0.00     0.022 A 
HETATM    6  C   UNK     0      33.148  14.441  62.114  0.00  0.00    -0.027 A 
HETATM    7  C   UNK     0      34.509  15.808  63.728  0.00  0.00     0.115 C 
HETATM    8  C   UNK     0      35.983  15.827  64.091  0.00  0.00     0.021 A 
HETATM    9  N   UNK     0      36.996  15.164  63.512  0.00  0.00    -0.361 N 
HETATM   10  C   UNK     0      38.118  15.409  64.221  0.00  0.00     0.022 A 
HETATM   11  C   UNK     0      37.822  16.261  65.281  0.00  0.00    -0.027 A 
HETATM   12  C   UNK     0      36.479  16.529  65.204  0.00  0.00    -0.031 A 
HETATM   13  C   UNK     0      35.710  17.420  66.154  0.00  0.00     0.051 C 
HETATM   14  C   UNK     0      39.497  14.810  63.961  0.00  0.00     0.115 C 
HETATM   15  C   UNK     0      39.540  13.294  64.064  0.00  0.00     0.021 A 
HETATM   16  N   UNK     0      38.824  12.402  63.354  0.00  0.00    -0.361 N 
HETATM   17  C   UNK     0      39.099  11.171  63.792  0.00  0.00     0.022 A 
HETATM   18  C   UNK     0      40.046  11.265  64.831  0.00  0.00    -0.027 A 
HETATM   19  C   UNK     0      40.315  12.600  64.991  0.00  0.00    -0.031 A 
HETATM   20  C   UNK     0      41.318  13.144  65.991  0.00  0.00     0.051 C 
HETATM   21  C   UNK     0      38.512   9.840  63.380  0.00  0.00     0.115 C 
HETATM   22  C   UNK     0      37.058   9.814  62.974  0.00  0.00     0.022 A 
HETATM   23  N   UNK     0      36.029  10.468  63.530  0.00  0.00    -0.361 N 
HETATM   24  C   UNK     0      34.938  10.271  62.762  0.00  0.00     0.021 A 
HETATM   25  C   UNK     0      35.270   9.464  61.692  0.00  0.00    -0.031 A 
HETATM   26  C   UNK     0      34.381   8.935  60.585  0.00  0.00     0.051 C 
HETATM   27  C   UNK     0      36.621   9.158  61.806  0.00  0.00    -0.027 A 
HETATM   28  C   UNK     0      33.559  10.883  62.934  0.00  0.00     0.115 C 
HETATM   29  H   UNK     0      34.740  12.984  64.628  0.00  0.00     0.165 HD
HETATM   30  H   UNK     0      36.932  14.562  62.572  0.00  0.00     0.165 HD
HETATM   31  H   UNK     0      38.146  12.642  62.494  0.00  0.00     0.165 HD
HETATM   32  H   UNK     0      36.053  11.039  64.494  0.00  0.00     0.165 HD
ENDROOT
BRANCH   6  33
HETATM   33  C   UNK     0      32.617  15.547  61.238  0.00  0.00     0.051 C 
BRANCH  33  34
HETATM   34  C   UNK     0      31.714  16.466  62.025  0.00  0.00     0.114 C 
BRANCH  34  35
HETATM   35  C   UNK     0      30.545  16.793  61.159  0.00  0.00     0.139 C 
HETATM   36  O   UNK     0      30.719  17.108  59.946  0.00  0.00    -0.650 OA
BRANCH  35  37
HETATM   37  O   UNK     0      29.236  16.766  61.625  0.00  0.00    -0.776 OA
HETATM   38  H   UNK     0      28.464  16.499  61.036  0.00  0.00     0.167 HD
ENDBRANCH  35  37
ENDBRANCH  34  35
ENDBRANCH  33  34
ENDBRANCH   6  33
BRANCH  27  39
HETATM   39  C   UNK     0      37.327   8.244  60.867  0.00  0.00     0.051 C 
BRANCH  39  40
HETATM   40  C   UNK     0      36.862   6.861  60.763  0.00  0.00     0.114 C 
BRANCH  40  41
HETATM   41  C   UNK     0      36.815   5.976  61.906  0.00  0.00     0.139 C 
HETATM   42  O   UNK     0      36.150   4.931  61.934  0.00  0.00    -0.650 OA
BRANCH  41  43
HETATM   43  O   UNK     0      37.567   6.308  63.068  0.00  0.00    -0.776 OA
HETATM   44  H   UNK     0      37.456   7.265  63.380  0.00  0.00     0.167 HD
ENDBRANCH  41  43
ENDBRANCH  40  41
ENDBRANCH  39  40
ENDBRANCH  27  39
BRANCH  11  45
HETATM   45  C   UNK     0      38.747  16.816  66.330  0.00  0.00     0.051 C 
BRANCH  45  46
HETATM   46  C   UNK     0      39.891  17.589  65.783  0.00  0.00     0.114 C 
BRANCH  46  47
HETATM   47  C   UNK     0      39.623  19.029  66.059  0.00  0.00     0.139 C 
HETATM   48  O   UNK     0      38.482  19.468  65.858  0.00  0.00    -0.650 OA
BRANCH  47  49
HETATM   49  O   UNK     0      40.617  19.852  66.525  0.00  0.00    -0.776 OA
HETATM   50  H   UNK     0      41.510  19.485  66.874  0.00  0.00     0.167 HD
ENDBRANCH  47  49
ENDBRANCH  46  47
ENDBRANCH  45  46
ENDBRANCH  11  45
BRANCH  18  51
HETATM   51  C   UNK     0      40.676  10.143  65.614  0.00  0.00     0.051 C 
BRANCH  51  52
HETATM   52  C   UNK     0      39.858  10.000  66.888  0.00  0.00     0.114 C 
BRANCH  52  53
HETATM   53  C   UNK     0      40.695  10.130  68.097  0.00  0.00     0.139 C 
HETATM   54  O   UNK     0      41.908  10.371  67.989  0.00  0.00    -0.650 OA
BRANCH  53  55
HETATM   55  O   UNK     0      40.125   9.978  69.337  0.00  0.00    -0.776 OA
HETATM   56  H   UNK     0      40.257   9.208  69.950  0.00  0.00     0.167 HD
ENDBRANCH  53  55
ENDBRANCH  52  53
ENDBRANCH  51  52
ENDBRANCH  18  51
TORSDOF 16
ENDMDL
MODEL 16
REMARK VINA RESULT:      -9.1      3.630      5.053
REMARK  16 active torsions:
REMARK  status: ('A' for Active; 'I' for Inactive)
REMARK    1  A    between atoms: C_6  and  C_7 
REMARK    2  A    between atoms: C_7  and  C_8 
REMARK    3  A    between atoms: C_8  and  C_9 
REMARK    4  A    between atoms: C_9  and  O_11 
REMARK    5  A    between atoms: C_16  and  C_17 
REMARK    6  A    between atoms: C_17  and  C_18 
REMARK    7  A    between atoms: C_18  and  C_19 
REMARK    8  A    between atoms: C_19  and  O_21 
REMARK    9  A    between atoms: C_28  and  C_29 
REMARK   10  A    between atoms: C_29  and  C_30 
REMARK   11  A    between atoms: C_30  and  C_31 
REMARK   12  A    between atoms: C_31  and  O_33 
REMARK   13  A    between atoms: C_42  and  C_43 
REMARK   14  A    between atoms: C_43  and  C_44 
REMARK   15  A    between atoms: C_44  and  C_45 
REMARK   16  A    between atoms: C_45  and  O_47 
ROOT
HETATM    1  C   UNK     0      36.654   6.038  60.863  0.00  0.00     0.051 C 
HETATM    2  C   UNK     0      36.869   7.429  61.423  0.00  0.00    -0.031 A 
HETATM    3  C   UNK     0      36.702   8.660  60.808  0.00  0.00     0.021 A 
HETATM    4  N   UNK     0      37.041   9.639  61.681  0.00  0.00    -0.361 N 
HETATM    5  C   UNK     0      37.412   9.059  62.841  0.00  0.00     0.022 A 
HETATM    6  C   UNK     0      37.319   7.677  62.714  0.00  0.00    -0.027 A 
HETATM    7  C   UNK     0      37.786   9.692  64.145  0.00  0.00     0.115 C 
HETATM    8  C   UNK     0      36.935  10.864  64.602  0.00  0.00     0.021 A 
HETATM    9  N   UNK     0      35.615  11.051  64.444  0.00  0.00    -0.361 N 
HETATM   10  C   UNK     0      35.305  12.274  64.925  0.00  0.00     0.022 A 
HETATM   11  C   UNK     0      36.454  12.887  65.415  0.00  0.00    -0.027 A 
HETATM   12  C   UNK     0      37.485  12.004  65.215  0.00  0.00    -0.031 A 
HETATM   13  C   UNK     0      38.928  12.243  65.599  0.00  0.00     0.051 C 
HETATM   14  C   UNK     0      33.928  12.932  64.894  0.00  0.00     0.115 C 
HETATM   15  C   UNK     0      33.376  13.138  63.493  0.00  0.00     0.021 A 
HETATM   16  N   UNK     0      33.144  12.200  62.555  0.00  0.00    -0.361 N 
HETATM   17  C   UNK     0      32.726  12.793  61.435  0.00  0.00     0.022 A 
HETATM   18  C   UNK     0      32.673  14.184  61.657  0.00  0.00    -0.027 A 
HETATM   19  C   UNK     0      33.081  14.386  62.949  0.00  0.00    -0.031 A 
HETATM   20  C   UNK     0      33.139  15.750  63.613  0.00  0.00     0.051 C 
HETATM   21  C   UNK     0      32.403  12.200  60.083  0.00  0.00     0.115 C 
HETATM   22  C   UNK     0      33.212  11.006  59.634  0.00  0.00     0.022 A 
HETATM   23  N   UNK     0      34.526  10.791  59.782  0.00  0.00    -0.361 N 
HETATM   24  C   UNK     0      34.799   9.537  59.367  0.00  0.00     0.021 A 
HETATM   25  C   UNK     0      33.634   8.934  58.932  0.00  0.00    -0.031 A 
HETATM   26  C   UNK     0      33.439   7.553  58.342  0.00  0.00     0.051 C 
HETATM   27  C   UNK     0      32.605   9.854  59.093  0.00  0.00    -0.027 A 
HETATM   28  C   UNK     0      36.130   8.808  59.427  0.00  0.00     0.115 C 
HETATM   29  H   UNK     0      37.053  10.731  61.458  0.00  0.00     0.165 HD
HETATM   30  H   UNK     0      34.892  10.302  64.039  0.00  0.00     0.165 HD
HETATM   31  H   UNK     0      33.232  11.092  62.701  0.00  0.00     0.165 HD
HETATM   32  H   UNK     0      35.281  11.538  60.140  0.00  0.00     0.165 HD
ENDROOT
BRANCH   6  33
HETATM   33  C   UNK     0      37.624   6.588  63.711  0.00  0.00     0.051 C 
BRANCH  33  34
HETATM   34  C   UNK     0      36.823   6.782  64.977  0.00  0.00     0.114 C 
BRANCH  34  35
HETATM   35  C   UNK     0      37.756   6.605  66.127  0.00  0.00     0.139 C 
HETATM   36  O   UNK     0      38.787   7.331  66.228  0.00  0.00    -0.650 OA
BRANCH  35  37
HETATM   37  O   UNK     0      37.545   5.660  67.123  0.00  0.00    -0.776 OA
HETATM   38  H   UNK     0      37.571   4.670  66.935  0.00  0.00     0.167 HD
ENDBRANCH  35  37
ENDBRANCH  34  35
ENDBRANCH  33  34
ENDBRANCH   6  33
BRANCH  27  39
HETATM   39  C   UNK     0      31.205   9.588  58.665  0.00  0.00     0.051 C 
BRANCH  39  40
HETATM   40  C   UNK     0      30.783  10.052  57.343  0.00  0.00     0.114 C 
BRANCH  40  41
HETATM   41  C   UNK     0      30.609  11.454  57.038  0.00  0.00     0.139 C 
HETATM   42  O   UNK     0      29.574  12.085  57.291  0.00  0.00    -0.650 OA
BRANCH  41  43
HETATM   43  O   UNK     0      31.675  12.163  56.415  0.00  0.00    -0.776 OA
HETATM   44  H   UNK     0      32.306  12.623  57.059  0.00  0.00     0.167 HD
ENDBRANCH  41  43
ENDBRANCH  40  41
ENDBRANCH  39  40
ENDBRANCH  27  39
BRANCH  11  45
HETATM   45  C   UNK     0      36.600  14.243  66.051  0.00  0.00     0.051 C 
BRANCH  45  46
HETATM   46  C   UNK     0      36.795  15.350  65.080  0.00  0.00     0.114 C 
BRANCH  46  47
HETATM   47  C   UNK     0      36.702  16.628  65.843  0.00  0.00     0.139 C 
HETATM   48  O   UNK     0      36.229  17.623  65.277  0.00  0.00    -0.650 OA
BRANCH  47  49
HETATM   49  O   UNK     0      37.133  16.702  67.144  0.00  0.00    -0.776 OA
HETATM   50  H   UNK     0      37.858  16.077  67.515  0.00  0.00     0.167 HD
ENDBRANCH  47  49
ENDBRANCH  46  47
ENDBRANCH  45  46
ENDBRANCH  11  45
BRANCH  18  51
HETATM   51  C   UNK     0      32.236  15.259  60.696  0.00  0.00     0.051 C 
BRANCH  51  52
HETATM   52  C   UNK     0      33.497  15.740  59.993  0.00  0.00     0.114 C 
BRANCH  52  53
HETATM   53  C   UNK     0      33.577  17.213  59.956  0.00  0.00     0.139 C 
HETATM   54  O   UNK     0      33.072  17.840  59.011  0.00  0.00    -0.650 OA
BRANCH  53  55
HETATM   55  O   UNK     0      34.217  17.885  60.970  0.00  0.00    -0.776 OA
HETATM   56  H   UNK     0      34.452  17.513  61.859  0.00  0.00     0.167 HD
ENDBRANCH  53  55
ENDBRANCH  52  53
ENDBRANCH  51  52
ENDBRANCH  18  51
TORSDOF 16
ENDMDL
MODEL 17
REMARK VINA RESULT:      -9.1     30.826     33.927
REMARK  16 active torsions:
REMARK  status: ('A' for Active; 'I' for Inactive)
REMARK    1  A    between atoms: C_6  and  C_7 
REMARK    2  A    between atoms: C_7  and  C_8 
REMARK    3  A    between atoms: C_8  and  C_9 
REMARK    4  A    between atoms: C_9  and  O_11 
REMARK    5  A    between atoms: C_16  and  C_17 
REMARK    6  A    between atoms: C_17  and  C_18 
REMARK    7  A    between atoms: C_18  and  C_19 
REMARK    8  A    between atoms: C_19  and  O_21 
REMARK    9  A    between atoms: C_28  and  C_29 
REMARK   10  A    between atoms: C_29  and  C_30 
REMARK   11  A    between atoms: C_30  and  C_31 
REMARK   12  A    between atoms: C_31  and  O_33 
REMARK   13  A    between atoms: C_42  and  C_43 
REMARK   14  A    between atoms: C_43  and  C_44 
REMARK   15  A    between atoms: C_44  and  C_45 
REMARK   16  A    between atoms: C_45  and  O_47 
ROOT
HETATM    1  C   UNK     0      46.017  19.340  30.072  0.00  0.00     0.051 C 
HETATM    2  C   UNK     0      46.351  17.897  30.389  0.00  0.00    -0.031 A 
HETATM    3  C   UNK     0      47.571  17.330  30.725  0.00  0.00     0.021 A 
HETATM    4  N   UNK     0      47.406  15.997  30.893  0.00  0.00    -0.361 N 
HETATM    5  C   UNK     0      46.107  15.703  30.681  0.00  0.00     0.022 A 
HETATM    6  C   UNK     0      45.419  16.869  30.361  0.00  0.00    -0.027 A 
HETATM    7  C   UNK     0      45.389  14.398  30.831  0.00  0.00     0.115 C 
HETATM    8  C   UNK     0      45.735  13.567  32.054  0.00  0.00     0.021 A 
HETATM    9  N   UNK     0      46.039  13.987  33.292  0.00  0.00    -0.361 N 
HETATM   10  C   UNK     0      46.368  12.906  34.032  0.00  0.00     0.022 A 
HETATM   11  C   UNK     0      46.263  11.758  33.252  0.00  0.00    -0.027 A 
HETATM   12  C   UNK     0      45.864  12.167  32.005  0.00  0.00    -0.031 A 
HETATM   13  C   UNK     0      45.615  11.255  30.824  0.00  0.00     0.051 C 
HETATM   14  C   UNK     0      46.843  12.918  35.482  0.00  0.00     0.115 C 
HETATM   15  C   UNK     0      48.133  13.692  35.701  0.00  0.00     0.021 A 
HETATM   16  N   UNK     0      48.369  14.989  35.428  0.00  0.00    -0.361 N 
HETATM   17  C   UNK     0      49.646  15.269  35.698  0.00  0.00     0.022 A 
HETATM   18  C   UNK     0      50.269  14.101  36.180  0.00  0.00    -0.027 A 
HETATM   19  C   UNK     0      49.311  13.121  36.178  0.00  0.00    -0.031 A 
HETATM   20  C   UNK     0      49.553  11.703  36.660  0.00  0.00     0.051 C 
HETATM   21  C   UNK     0      50.423  16.551  35.499  0.00  0.00     0.115 C 
HETATM   22  C   UNK     0      50.059  17.410  34.311  0.00  0.00     0.022 A 
HETATM   23  N   UNK     0      49.747  17.019  33.068  0.00  0.00    -0.361 N 
HETATM   24  C   UNK     0      49.349  18.102  32.371  0.00  0.00     0.021 A 
HETATM   25  C   UNK     0      49.415  19.219  33.181  0.00  0.00    -0.031 A 
HETATM   26  C   UNK     0      49.110  20.663  32.841  0.00  0.00     0.051 C 
HETATM   27  C   UNK     0      49.868  18.801  34.428  0.00  0.00    -0.027 A 
HETATM   28  C   UNK     0      48.812  18.147  30.951  0.00  0.00     0.115 C 
HETATM   29  H   UNK     0      48.217  15.267  31.122  0.00  0.00     0.165 HD
HETATM   30  H   UNK     0      45.976  15.040  33.660  0.00  0.00     0.165 HD
HETATM   31  H   UNK     0      47.607  15.736  35.082  0.00  0.00     0.165 HD
HETATM   32  H   UNK     0      49.847  15.980  32.659  0.00  0.00     0.165 HD
ENDROOT
BRANCH   6  33
HETATM   33  C   UNK     0      43.962  17.076  30.031  0.00  0.00     0.051 C 
BRANCH  33  34
HETATM   34  C   UNK     0      43.216  17.623  31.225  0.00  0.00     0.114 C 
BRANCH  34  35
HETATM   35  C   UNK     0      42.873  16.469  32.105  0.00  0.00     0.139 C 
HETATM   36  O   UNK     0      41.899  15.715  31.815  0.00  0.00    -0.650 OA
BRANCH  35  37
HETATM   37  O   UNK     0      43.588  16.167  33.258  0.00  0.00    -0.776 OA
HETATM   38  H   UNK     0      43.140  15.808  34.085  0.00  0.00     0.167 HD
ENDBRANCH  35  37
ENDBRANCH  34  35
ENDBRANCH  33  34
ENDBRANCH   6  33
BRANCH  27  39
HETATM   39  C   UNK     0      50.135  19.742  35.550  0.00  0.00     0.051 C 
BRANCH  39  40
HETATM   40  C   UNK     0      49.290  19.659  36.741  0.00  0.00     0.114 C 
BRANCH  40  41
HETATM   41  C   UNK     0      49.827  19.784  38.077  0.00  0.00     0.139 C 
HETATM   42  O   UNK     0      49.883  20.857  38.694  0.00  0.00    -0.650 OA
BRANCH  41  43
HETATM   43  O   UNK     0      50.324  18.623  38.734  0.00  0.00    -0.776 OA
HETATM   44  H   UNK     0      51.335  18.551  38.751  0.00  0.00     0.167 HD
ENDBRANCH  41  43
ENDBRANCH  40  41
ENDBRANCH  39  40
ENDBRANCH  27  39
BRANCH  11  45
HETATM   45  C   UNK     0      46.518  10.328  33.643  0.00  0.00     0.051 C 
BRANCH  45  46
HETATM   46  C   UNK     0      47.956   9.991  33.804  0.00  0.00     0.114 C 
BRANCH  46  47
HETATM   47  C   UNK     0      48.026   8.618  34.383  0.00  0.00     0.139 C 
HETATM   48  O   UNK     0      49.139   8.098  34.540  0.00  0.00    -0.650 OA
BRANCH  47  49
HETATM   49  O   UNK     0      46.883   7.944  34.732  0.00  0.00    -0.776 OA
HETATM   50  H   UNK     0      46.909   7.002  35.139  0.00  0.00     0.167 HD
ENDBRANCH  47  49
ENDBRANCH  46  47
ENDBRANCH  45  46
ENDBRANCH  11  45
BRANCH  18  51
HETATM   51  C   UNK     0      51.695  13.933  36.636  0.00  0.00     0.051 C 
BRANCH  51  52
HETATM   52  C   UNK     0      51.668  14.014  38.155  0.00  0.00     0.114 C 
BRANCH  52  53
HETATM   53  C   UNK     0      51.858  15.397  38.635  0.00  0.00     0.139 C 
HETATM   54  O   UNK     0      52.904  16.009  38.369  0.00  0.00    -0.650 OA
BRANCH  53  55
HETATM   55  O   UNK     0      50.872  15.999  39.380  0.00  0.00    -0.776 OA
HETATM   56  H   UNK     0      50.545  15.698  40.267  0.00  0.00     0.167 HD
ENDBRANCH  53  55
ENDBRANCH  52  53
ENDBRANCH  51  52
ENDBRANCH  18  51
TORSDOF 16
ENDMDL
MODEL 18
REMARK VINA RESULT:      -9.1     31.614     34.713
REMARK  16 active torsions:
REMARK  status: ('A' for Active; 'I' for Inactive)
REMARK    1  A    between atoms: C_6  and  C_7 
REMARK    2  A    between atoms: C_7  and  C_8 
REMARK    3  A    between atoms: C_8  and  C_9 
REMARK    4  A    between atoms: C_9  and  O_11 
REMARK    5  A    between atoms: C_16  and  C_17 
REMARK    6  A    between atoms: C_17  and  C_18 
REMARK    7  A    between atoms: C_18  and  C_19 
REMARK    8  A    between atoms: C_19  and  O_21 
REMARK    9  A    between atoms: C_28  and  C_29 
REMARK   10  A    between atoms: C_29  and  C_30 
REMARK   11  A    between atoms: C_30  and  C_31 
REMARK   12  A    between atoms: C_31  and  O_33 
REMARK   13  A    between atoms: C_42  and  C_43 
REMARK   14  A    between atoms: C_43  and  C_44 
REMARK   15  A    between atoms: C_44  and  C_45 
REMARK   16  A    between atoms: C_45  and  O_47 
ROOT
HETATM    1  C   UNK     0      43.109  18.671  29.373  0.00  0.00     0.051 C 
HETATM    2  C   UNK     0      43.991  17.483  29.699  0.00  0.00    -0.031 A 
HETATM    3  C   UNK     0      45.355  17.441  29.945  0.00  0.00     0.021 A 
HETATM    4  N   UNK     0      45.725  16.156  30.161  0.00  0.00    -0.361 N 
HETATM    5  C   UNK     0      44.626  15.380  30.065  0.00  0.00     0.022 A 
HETATM    6  C   UNK     0      43.524  16.177  29.774  0.00  0.00    -0.027 A 
HETATM    7  C   UNK     0      44.474  13.911  30.308  0.00  0.00     0.115 C 
HETATM    8  C   UNK     0      45.194  13.342  31.519  0.00  0.00     0.021 A 
HETATM    9  N   UNK     0      45.397  13.914  32.715  0.00  0.00    -0.361 N 
HETATM   10  C   UNK     0      46.163  13.083  33.453  0.00  0.00     0.022 A 
HETATM   11  C   UNK     0      46.453  11.939  32.714  0.00  0.00    -0.027 A 
HETATM   12  C   UNK     0      45.845  12.096  31.495  0.00  0.00    -0.031 A 
HETATM   13  C   UNK     0      45.885  11.094  30.363  0.00  0.00     0.051 C 
HETATM   14  C   UNK     0      46.695  13.354  34.857  0.00  0.00     0.115 C 
HETATM   15  C   UNK     0      47.601  14.571  34.948  0.00  0.00     0.021 A 
HETATM   16  N   UNK     0      47.304  15.843  34.623  0.00  0.00    -0.361 N 
HETATM   17  C   UNK     0      48.391  16.601  34.779  0.00  0.00     0.022 A 
HETATM   18  C   UNK     0      49.446  15.786  35.236  0.00  0.00    -0.027 A 
HETATM   19  C   UNK     0      48.938  14.517  35.339  0.00  0.00    -0.031 A 
HETATM   20  C   UNK     0      49.737  13.326  35.835  0.00  0.00     0.051 C 
HETATM   21  C   UNK     0      48.603  18.069  34.483  0.00  0.00     0.115 C 
HETATM   22  C   UNK     0      47.859  18.658  33.308  0.00  0.00     0.022 A 
HETATM   23  N   UNK     0      47.638  18.110  32.106  0.00  0.00    -0.361 N 
HETATM   24  C   UNK     0      46.809  18.920  31.417  0.00  0.00     0.021 A 
HETATM   25  C   UNK     0      46.497  20.022  32.190  0.00  0.00    -0.031 A 
HETATM   26  C   UNK     0      45.640  21.220  31.840  0.00  0.00     0.051 C 
HETATM   27  C   UNK     0      47.158  19.877  33.405  0.00  0.00    -0.027 A 
HETATM   28  C   UNK     0      46.201  18.679  30.046  0.00  0.00     0.115 C 
HETATM   29  H   UNK     0      46.767  15.803  30.340  0.00  0.00     0.165 HD
HETATM   30  H   UNK     0      44.960  14.883  33.061  0.00  0.00     0.165 HD
HETATM   31  H   UNK     0      46.293  16.224  34.324  0.00  0.00     0.165 HD
HETATM   32  H   UNK     0      48.100  17.166  31.716  0.00  0.00     0.165 HD
ENDROOT
BRANCH   6  33
HETATM   33  C   UNK     0      42.080  15.798  29.563  0.00  0.00     0.051 C 
BRANCH  33  34
HETATM   34  C   UNK     0      41.919  14.995  28.294  0.00  0.00     0.114 C 
BRANCH  34  35
HETATM   35  C   UNK     0      41.061  15.790  27.369  0.00  0.00     0.139 C 
HETATM   36  O   UNK     0      40.594  16.907  27.735  0.00  0.00    -0.650 OA
BRANCH  35  37
HETATM   37  O   UNK     0      40.740  15.358  26.088  0.00  0.00    -0.776 OA
HETATM   38  H   UNK     0      40.123  14.579  25.925  0.00  0.00     0.167 HD
ENDBRANCH  35  37
ENDBRANCH  34  35
ENDBRANCH  33  34
ENDBRANCH   6  33
BRANCH  27  39
HETATM   39  C   UNK     0      47.120  20.909  34.476  0.00  0.00     0.051 C 
BRANCH  39  40
HETATM   40  C   UNK     0      48.161  21.936  34.487  0.00  0.00     0.114 C 
BRANCH  40  41
HETATM   41  C   UNK     0      49.150  22.020  35.539  0.00  0.00     0.139 C 
HETATM   42  O   UNK     0      49.475  21.059  36.249  0.00  0.00    -0.650 OA
BRANCH  41  43
HETATM   43  O   UNK     0      49.793  23.266  35.785  0.00  0.00    -0.776 OA
HETATM   44  H   UNK     0      49.296  23.875  36.424  0.00  0.00     0.167 HD
ENDBRANCH  41  43
ENDBRANCH  40  41
ENDBRANCH  39  40
ENDBRANCH  27  39
BRANCH  11  45
HETATM   45  C   UNK     0      47.263  10.737  33.119  0.00  0.00     0.051 C 
BRANCH  45  46
HETATM   46  C   UNK     0      47.183  10.411  34.566  0.00  0.00     0.114 C 
BRANCH  46  47
HETATM   47  C   UNK     0      47.648   9.004  34.728  0.00  0.00     0.139 C 
HETATM   48  O   UNK     0      48.856   8.796  34.910  0.00  0.00    -0.650 OA
BRANCH  47  49
HETATM   49  O   UNK     0      46.759   7.960  34.677  0.00  0.00    -0.776 OA
HETATM   50  H   UNK     0      46.775   7.195  35.362  0.00  0.00     0.167 HD
ENDBRANCH  47  49
ENDBRANCH  46  47
ENDBRANCH  45  46
ENDBRANCH  11  45
BRANCH  18  51
HETATM   51  C   UNK     0      50.855  16.198  35.576  0.00  0.00     0.051 C 
BRANCH  51  52
HETATM   52  C   UNK     0      50.799  16.789  36.977  0.00  0.00     0.114 C 
BRANCH  52  53
HETATM   53  C   UNK     0      51.257  15.827  37.998  0.00  0.00     0.139 C 
HETATM   54  O   UNK     0      52.234  15.097  37.769  0.00  0.00    -0.650 OA
BRANCH  53  55
HETATM   55  O   UNK     0      50.594  15.744  39.198  0.00  0.00    -0.776 OA
HETATM   56  H   UNK     0      51.011  15.770  40.099  0.00  0.00     0.167 HD
ENDBRANCH  53  55
ENDBRANCH  52  53
ENDBRANCH  51  52
ENDBRANCH  18  51
TORSDOF 16
ENDMDL
MODEL 19
REMARK VINA RESULT:      -9.0     31.594     34.693
REMARK  16 active torsions:
REMARK  status: ('A' for Active; 'I' for Inactive)
REMARK    1  A    between atoms: C_6  and  C_7 
REMARK    2  A    between atoms: C_7  and  C_8 
REMARK    3  A    between atoms: C_8  and  C_9 
REMARK    4  A    between atoms: C_9  and  O_11 
REMARK    5  A    between atoms: C_16  and  C_17 
REMARK    6  A    between atoms: C_17  and  C_18 
REMARK    7  A    between atoms: C_18  and  C_19 
REMARK    8  A    between atoms: C_19  and  O_21 
REMARK    9  A    between atoms: C_28  and  C_29 
REMARK   10  A    between atoms: C_29  and  C_30 
REMARK   11  A    between atoms: C_30  and  C_31 
REMARK   12  A    between atoms: C_31  and  O_33 
REMARK   13  A    between atoms: C_42  and  C_43 
REMARK   14  A    between atoms: C_43  and  C_44 
REMARK   15  A    between atoms: C_44  and  C_45 
REMARK   16  A    between atoms: C_45  and  O_47 
ROOT
HETATM    1  C   UNK     0      45.500  20.693  29.900  0.00  0.00     0.051 C 
HETATM    2  C   UNK     0      45.853  19.233  30.102  0.00  0.00    -0.031 A 
HETATM    3  C   UNK     0      47.078  18.657  30.400  0.00  0.00     0.021 A 
HETATM    4  N   UNK     0      46.931  17.313  30.459  0.00  0.00    -0.361 N 
HETATM    5  C   UNK     0      45.637  17.020  30.214  0.00  0.00     0.022 A 
HETATM    6  C   UNK     0      44.935  18.198  29.984  0.00  0.00    -0.027 A 
HETATM    7  C   UNK     0      44.936  15.697  30.253  0.00  0.00     0.115 C 
HETATM    8  C   UNK     0      45.286  14.775  31.407  0.00  0.00     0.021 A 
HETATM    9  N   UNK     0      45.578  15.097  32.677  0.00  0.00    -0.361 N 
HETATM   10  C   UNK     0      45.917  13.965  33.330  0.00  0.00     0.022 A 
HETATM   11  C   UNK     0      45.832  12.883  32.459  0.00  0.00    -0.027 A 
HETATM   12  C   UNK     0      45.435  13.385  31.247  0.00  0.00    -0.031 A 
HETATM   13  C   UNK     0      45.206  12.569  29.995  0.00  0.00     0.051 C 
HETATM   14  C   UNK     0      46.383  13.866  34.780  0.00  0.00     0.115 C 
HETATM   15  C   UNK     0      47.660  14.637  35.070  0.00  0.00     0.021 A 
HETATM   16  N   UNK     0      47.880  15.955  34.904  0.00  0.00    -0.361 N 
HETATM   17  C   UNK     0      49.151  16.229  35.205  0.00  0.00     0.022 A 
HETATM   18  C   UNK     0      49.788  15.034  35.595  0.00  0.00    -0.027 A 
HETATM   19  C   UNK     0      48.843  14.045  35.507  0.00  0.00    -0.031 A 
HETATM   20  C   UNK     0      49.102  12.596  35.875  0.00  0.00     0.051 C 
HETATM   21  C   UNK     0      49.912  17.533  35.115  0.00  0.00     0.115 C 
HETATM   22  C   UNK     0      49.543  18.480  33.998  0.00  0.00     0.022 A 
HETATM   23  N   UNK     0      49.244  18.187  32.726  0.00  0.00    -0.361 N 
HETATM   24  C   UNK     0      48.835  19.317  32.115  0.00  0.00     0.021 A 
HETATM   25  C   UNK     0      48.881  20.366  33.013  0.00  0.00    -0.031 A 
HETATM   26  C   UNK     0      48.558  21.828  32.788  0.00  0.00     0.051 C 
HETATM   27  C   UNK     0      49.332  19.855  34.225  0.00  0.00    -0.027 A 
HETATM   28  C   UNK     0      48.306  19.469  30.699  0.00  0.00     0.115 C 
HETATM   29  H   UNK     0      47.750  16.577  30.634  0.00  0.00     0.165 HD
HETATM   30  H   UNK     0      45.497  16.116  33.129  0.00  0.00     0.165 HD
HETATM   31  H   UNK     0      47.110  16.717  34.614  0.00  0.00     0.165 HD
HETATM   32  H   UNK     0      49.361  17.186  32.234  0.00  0.00     0.165 HD
ENDROOT
BRANCH   6  33
HETATM   33  C   UNK     0      43.477  18.412  29.662  0.00  0.00     0.051 C 
BRANCH  33  34
HETATM   34  C   UNK     0      42.715  18.841  30.893  0.00  0.00     0.114 C 
BRANCH  34  35
HETATM   35  C   UNK     0      42.361  17.607  31.652  0.00  0.00     0.139 C 
HETATM   36  O   UNK     0      43.016  17.286  32.687  0.00  0.00    -0.650 OA
BRANCH  35  37
HETATM   37  O   UNK     0      41.320  16.768  31.275  0.00  0.00    -0.776 OA
HETATM   38  H   UNK     0      41.478  15.924  30.749  0.00  0.00     0.167 HD
ENDBRANCH  35  37
ENDBRANCH  34  35
ENDBRANCH  33  34
ENDBRANCH   6  33
BRANCH  27  39
HETATM   39  C   UNK     0      49.579  20.705  35.421  0.00  0.00     0.051 C 
BRANCH  39  40
HETATM   40  C   UNK     0      50.940  21.184  35.663  0.00  0.00     0.114 C 
BRANCH  40  41
HETATM   41  C   UNK     0      51.487  22.332  34.975  0.00  0.00     0.139 C 
HETATM   42  O   UNK     0      50.819  23.329  34.672  0.00  0.00    -0.650 OA
BRANCH  41  43
HETATM   43  O   UNK     0      52.866  22.332  34.619  0.00  0.00    -0.776 OA
HETATM   44  H   UNK     0      53.502  22.301  35.407  0.00  0.00     0.167 HD
ENDBRANCH  41  43
ENDBRANCH  40  41
ENDBRANCH  39  40
ENDBRANCH  27  39
BRANCH  11  45
HETATM   45  C   UNK     0      46.105  11.428  32.736  0.00  0.00     0.051 C 
BRANCH  45  46
HETATM   46  C   UNK     0      47.546  11.067  32.714  0.00  0.00     0.114 C 
BRANCH  46  47
HETATM   47  C   UNK     0      47.673   9.720  33.339  0.00  0.00     0.139 C 
HETATM   48  O   UNK     0      48.452   8.902  32.830  0.00  0.00    -0.650 OA
BRANCH  47  49
HETATM   49  O   UNK     0      46.942   9.390  34.453  0.00  0.00    -0.776 OA
HETATM   50  H   UNK     0      45.986   9.735  34.599  0.00  0.00     0.167 HD
ENDBRANCH  47  49
ENDBRANCH  46  47
ENDBRANCH  45  46
ENDBRANCH  11  45
BRANCH  18  51
HETATM   51  C   UNK     0      51.213  14.849  36.047  0.00  0.00     0.051 C 
BRANCH  51  52
HETATM   52  C   UNK     0      51.187  14.891  37.567  0.00  0.00     0.114 C 
BRANCH  52  53
HETATM   53  C   UNK     0      52.161  13.955  38.160  0.00  0.00     0.139 C 
HETATM   54  O   UNK     0      53.308  14.343  38.435  0.00  0.00    -0.650 OA
BRANCH  53  55
HETATM   55  O   UNK     0      51.793  12.654  38.402  0.00  0.00    -0.776 OA
HETATM   56  H   UNK     0      51.545  11.980  37.716  0.00  0.00     0.167 HD
ENDBRANCH  53  55
ENDBRANCH  52  53
ENDBRANCH  51  52
ENDBRANCH  18  51
TORSDOF 16
ENDMDL
MODEL 20
REMARK VINA RESULT:      -8.9     31.964     34.479
REMARK  16 active torsions:
REMARK  status: ('A' for Active; 'I' for Inactive)
REMARK    1  A    between atoms: C_6  and  C_7 
REMARK    2  A    between atoms: C_7  and  C_8 
REMARK    3  A    between atoms: C_8  and  C_9 
REMARK    4  A    between atoms: C_9  and  O_11 
REMARK    5  A    between atoms: C_16  and  C_17 
REMARK    6  A    between atoms: C_17  and  C_18 
REMARK    7  A    between atoms: C_18  and  C_19 
REMARK    8  A    between atoms: C_19  and  O_21 
REMARK    9  A    between atoms: C_28  and  C_29 
REMARK   10  A    between atoms: C_29  and  C_30 
REMARK   11  A    between atoms: C_30  and  C_31 
REMARK   12  A    between atoms: C_31  and  O_33 
REMARK   13  A    between atoms: C_42  and  C_43 
REMARK   14  A    between atoms: C_43  and  C_44 
REMARK   15  A    between atoms: C_44  and  C_45 
REMARK   16  A    between atoms: C_45  and  O_47 
ROOT
HETATM    1  C   UNK     0      42.737  14.170  31.004  0.00  0.00     0.051 C 
HETATM    2  C   UNK     0      43.126  15.604  31.301  0.00  0.00    -0.031 A 
HETATM    3  C   UNK     0      43.663  16.148  32.457  0.00  0.00     0.021 A 
HETATM    4  N   UNK     0      43.823  17.482  32.285  0.00  0.00    -0.361 N 
HETATM    5  C   UNK     0      43.407  17.798  31.041  0.00  0.00     0.022 A 
HETATM    6  C   UNK     0      42.962  16.647  30.399  0.00  0.00    -0.027 A 
HETATM    7  C   UNK     0      43.458  19.112  30.325  0.00  0.00     0.115 C 
HETATM    8  C   UNK     0      44.733  19.922  30.479  0.00  0.00     0.021 A 
HETATM    9  N   UNK     0      45.997  19.482  30.573  0.00  0.00    -0.361 N 
HETATM   10  C   UNK     0      46.797  20.548  30.790  0.00  0.00     0.022 A 
HETATM   11  C   UNK     0      46.027  21.707  30.828  0.00  0.00    -0.027 A 
HETATM   12  C   UNK     0      44.726  21.320  30.632  0.00  0.00    -0.031 A 
HETATM   13  C   UNK     0      43.535  22.251  30.590  0.00  0.00     0.051 C 
HETATM   14  C   UNK     0      48.304  20.511  31.023  0.00  0.00     0.115 C 
HETATM   15  C   UNK     0      48.718  19.714  32.250  0.00  0.00     0.021 A 
HETATM   16  N   UNK     0      48.468  18.417  32.511  0.00  0.00    -0.361 N 
HETATM   17  C   UNK     0      48.938  18.115  33.723  0.00  0.00     0.022 A 
HETATM   18  C   UNK     0      49.531  19.267  34.275  0.00  0.00    -0.027 A 
HETATM   19  C   UNK     0      49.388  20.261  33.342  0.00  0.00    -0.031 A 
HETATM   20  C   UNK     0      49.925  21.670  33.522  0.00  0.00     0.051 C 
HETATM   21  C   UNK     0      48.848  16.824  34.505  0.00  0.00     0.115 C 
HETATM   22  C   UNK     0      47.604  15.986  34.328  0.00  0.00     0.022 A 
HETATM   23  N   UNK     0      46.333  16.397  34.228  0.00  0.00    -0.361 N 
HETATM   24  C   UNK     0      45.565  15.329  33.934  0.00  0.00     0.021 A 
HETATM   25  C   UNK     0      46.358  14.201  33.853  0.00  0.00    -0.031 A 
HETATM   26  C   UNK     0      45.951  12.766  33.589  0.00  0.00     0.051 C 
HETATM   27  C   UNK     0      47.668  14.596  34.102  0.00  0.00    -0.027 A 
HETATM   28  C   UNK     0      44.076  15.310  33.634  0.00  0.00     0.115 C 
HETATM   29  H   UNK     0      44.191  18.197  33.057  0.00  0.00     0.165 HD
HETATM   30  H   UNK     0      46.334  18.426  30.436  0.00  0.00     0.165 HD
HETATM   31  H   UNK     0      47.992  17.687  31.805  0.00  0.00     0.165 HD
HETATM   32  H   UNK     0      45.961  17.439  34.406  0.00  0.00     0.165 HD
ENDROOT
BRANCH   6  33
HETATM   33  C   UNK     0      42.397  16.466  29.013  0.00  0.00     0.051 C 
BRANCH  33  34
HETATM   34  C   UNK     0      43.506  16.293  28.002  0.00  0.00     0.114 C 
BRANCH  34  35
HETATM   35  C   UNK     0      42.891  15.765  26.750  0.00  0.00     0.139 C 
HETATM   36  O   UNK     0      41.650  15.520  26.705  0.00  0.00    -0.650 OA
BRANCH  35  37
HETATM   37  O   UNK     0      43.627  15.524  25.597  0.00  0.00    -0.776 OA
HETATM   38  H   UNK     0      44.449  16.059  25.366  0.00  0.00     0.167 HD
ENDBRANCH  35  37
ENDBRANCH  34  35
ENDBRANCH  33  34
ENDBRANCH   6  33
BRANCH  27  39
HETATM   39  C   UNK     0      48.804  13.637  34.171  0.00  0.00     0.051 C 
BRANCH  39  40
HETATM   40  C   UNK     0      49.254  13.188  35.489  0.00  0.00     0.114 C 
BRANCH  40  41
HETATM   41  C   UNK     0      48.472  12.286  36.304  0.00  0.00     0.139 C 
HETATM   42  O   UNK     0      48.503  11.054  36.182  0.00  0.00    -0.650 OA
BRANCH  41  43
HETATM   43  O   UNK     0      47.614  12.825  37.304  0.00  0.00    -0.776 OA
HETATM   44  H   UNK     0      46.708  13.123  36.963  0.00  0.00     0.167 HD
ENDBRANCH  41  43
ENDBRANCH  40  41
ENDBRANCH  39  40
ENDBRANCH  27  39
BRANCH  11  45
HETATM   45  C   UNK     0      46.476  23.129  31.036  0.00  0.00     0.051 C 
BRANCH  45  46
HETATM   46  C   UNK     0      46.633  23.513  32.462  0.00  0.00     0.114 C 
BRANCH  46  47
HETATM   47  C   UNK     0      45.533  24.466  32.786  0.00  0.00     0.139 C 
HETATM   48  O   UNK     0      45.217  25.315  31.941  0.00  0.00    -0.650 OA
BRANCH  47  49
HETATM   49  O   UNK     0      44.885  24.406  33.994  0.00  0.00    -0.776 OA
HETATM   50  H   UNK     0      45.292  24.798  34.851  0.00  0.00     0.167 HD
ENDBRANCH  47  49
ENDBRANCH  46  47
ENDBRANCH  45  46
ENDBRANCH  11  45
BRANCH  18  51
HETATM   51  C   UNK     0      50.216  19.407  35.610  0.00  0.00     0.051 C 
BRANCH  51  52
HETATM   52  C   UNK     0      49.118  19.694  36.624  0.00  0.00     0.114 C 
BRANCH  52  53
HETATM   53  C   UNK     0      49.642  19.737  38.003  0.00  0.00     0.139 C 
HETATM   54  O   UNK     0      49.570  20.786  38.662  0.00  0.00    -0.650 OA
BRANCH  53  55
HETATM   55  O   UNK     0      50.210  18.612  38.549  0.00  0.00    -0.776 OA
HETATM   56  H   UNK     0      49.895  17.679  38.425  0.00  0.00     0.167 HD
ENDBRANCH  53  55
ENDBRANCH  52  53
ENDBRANCH  51  52
ENDBRANCH  18  51
TORSDOF 16
ENDMDL
