MODEL 1
REMARK VINA RESULT:      -9.8      0.000      0.000
REMARK  28 active torsions:
REMARK  status: ('A' for Active; 'I' for Inactive)
REMARK    1  A    between atoms: C_2  and  O_3 
REMARK    2  A    between atoms: C_2  and  C_4 
REMARK    3  A    between atoms: C_4  and  C_5 
REMARK    4  A    between atoms: C_5  and  C_6 
REMARK    5  A    between atoms: C_7  and  C_8 
REMARK    6  A    between atoms: C_8  and  C_9 
REMARK    7  A    between atoms: C_9  and  O_11 
REMARK    8  A    between atoms: C_28  and  C_29 
REMARK    9  A    between atoms: C_29  and  C_30 
REMARK   10  A    between atoms: C_30  and  O_32 
REMARK   11  A    between atoms: C_33  and  C_34 
REMARK   12  A    between atoms: C_34  and  C_35 
REMARK   13  A    between atoms: C_35  and  C_36 
REMARK   14  A    between atoms: C_36  and  O_38 
REMARK   15  A    between atoms: C_39  and  C_40 
REMARK   16  A    between atoms: C_40  and  C_41 
REMARK   17  A    between atoms: C_41  and  C_42 
REMARK   18  A    between atoms: C_42  and  O_44 
REMARK   19  A    between atoms: C_45  and  C_46 
REMARK   20  A    between atoms: C_46  and  C_47 
REMARK   21  A    between atoms: C_47  and  O_49 
REMARK   22  A    between atoms: C_50  and  C_51 
REMARK   23  A    between atoms: C_51  and  C_52 
REMARK   24  A    between atoms: C_52  and  O_54 
REMARK   25  A    between atoms: C_55  and  C_56 
REMARK   26  A    between atoms: C_56  and  C_57 
REMARK   27  A    between atoms: C_57  and  C_58 
REMARK   28  A    between atoms: C_58  and  O_60 
ROOT
ATOM      1  O   UNK d   0     -14.960  -5.551  17.044  0.00  0.00    -0.650 OA
ATOM      2  C   UNK d   0     -14.771  -4.363  17.387  0.00  0.00     0.139 C 
ENDROOT
BRANCH   2   3
ATOM      3  O   UNK d   0     -15.747  -3.428  17.141  0.00  0.00    -0.776 OA
ATOM      4  H   UNK d   0     -15.852  -2.605  17.738  0.00  0.00     0.167 HD
ENDBRANCH   2   3
BRANCH   2   5
ATOM      5  C   UNK d   0     -13.498  -3.970  18.054  0.00  0.00     0.115 C 
BRANCH   5   6
ATOM      6  C   UNK d   0     -12.376  -3.938  17.052  0.00  0.00     0.052 C 
BRANCH   6   7
ATOM      7  C   UNK d   0     -11.029  -4.207  17.679  0.00  0.00    -0.020 A 
ATOM      8  C   UNK d   0     -10.218  -3.341  18.231  0.00  0.00    -0.011 A 
ATOM      9  C   UNK d   0      -9.040  -4.061  18.685  0.00  0.00     0.067 A 
ATOM     10  C   UNK d   0      -7.850  -3.735  19.354  0.00  0.00     0.062 C 
ATOM     11  N   UNK d   0      -9.216  -5.360  18.364  0.00  0.00    -0.248 NA
ATOM     12  C   UNK d   0      -6.949  -4.618  19.958  0.00  0.00     0.041 A 
ATOM     13  N   UNK d   0      -6.459  -5.804  19.548  0.00  0.00    -0.355 N 
ATOM     14  C   UNK d   0      -6.460  -4.318  21.243  0.00  0.00    -0.022 A 
ATOM     15  C   UNK d   0      -5.679  -6.268  20.543  0.00  0.00     0.042 A 
ATOM     16  H   UNK d   0      -6.645  -6.294  18.567  0.00  0.00     0.166 HD
ATOM     17  C   UNK d   0      -4.929  -7.457  20.636  0.00  0.00     0.062 C 
ATOM     18  C   UNK d   0      -5.656  -5.364  21.623  0.00  0.00    -0.013 A 
ATOM     19  C   UNK d   0      -5.295  -8.736  20.302  0.00  0.00     0.067 A 
ATOM     20  N   UNK d   0      -6.430  -8.880  19.614  0.00  0.00    -0.248 NA
ATOM     21  C   UNK d   0      -4.754 -10.067  20.519  0.00  0.00    -0.011 A 
ATOM     22  C   UNK d   0      -6.672 -10.209  19.367  0.00  0.00     0.066 A 
ATOM     23  C   UNK d   0      -7.806 -10.501  18.624  0.00  0.00     0.062 C 
ATOM     24  C   UNK d   0      -5.567 -10.925  19.973  0.00  0.00    -0.020 A 
ATOM     25  C   UNK d   0      -8.692  -9.599  18.014  0.00  0.00     0.041 A 
ATOM     26  N   UNK d   0      -9.190  -8.427  18.428  0.00  0.00    -0.355 N 
ATOM     27  C   UNK d   0      -9.178  -9.898  16.723  0.00  0.00    -0.022 A 
ATOM     28  C   UNK d   0      -9.975  -7.967  17.442  0.00  0.00     0.042 A 
ATOM     29  H   UNK d   0      -9.010  -7.941  19.419  0.00  0.00     0.166 HD
ATOM     30  C   UNK d   0     -10.734  -6.791  17.339  0.00  0.00     0.062 C 
ATOM     31  C   UNK d   0      -9.990  -8.870  16.353  0.00  0.00    -0.013 A 
ATOM     32  C   UNK d   0     -10.393  -5.514  17.756  0.00  0.00     0.066 A 
BRANCH   8  33
ATOM     33  C   UNK d   0     -10.437  -1.889  18.372  0.00  0.00     0.151 C 
BRANCH  33  34
ATOM     34  C   UNK d   0      -9.425  -1.088  17.660  0.00  0.00     0.143 C 
ATOM     35  O   UNK d   0      -9.396  -1.055  16.422  0.00  0.00    -0.650 OA
BRANCH  34  36
ATOM     36  O   UNK d   0      -8.502  -0.368  18.383  0.00  0.00    -0.776 OA
ATOM     37  H   UNK d   0      -7.493  -0.474  18.215  0.00  0.00     0.167 HD
ENDBRANCH  34  36
ENDBRANCH  33  34
ENDBRANCH   8  33
BRANCH  31  38
ATOM     38  C   UNK d   0     -10.726  -8.745  15.039  0.00  0.00     0.151 C 
BRANCH  38  39
ATOM     39  C   UNK d   0     -12.093  -9.215  15.115  0.00  0.00     0.143 C 
ATOM     40  O   UNK d   0     -12.383 -10.424  15.102  0.00  0.00    -0.650 OA
BRANCH  39  41
ATOM     41  O   UNK d   0     -13.133  -8.290  15.207  0.00  0.00    -0.776 OA
ATOM     42  H   UNK d   0     -13.985  -8.599  15.685  0.00  0.00     0.167 HD
ENDBRANCH  39  41
ENDBRANCH  38  39
ENDBRANCH  31  38
BRANCH  27  43
ATOM     43  C   UNK d   0      -8.905 -11.098  15.851  0.00  0.00     0.052 C 
BRANCH  43  44
ATOM     44  C   UNK d   0      -7.684 -10.948  15.004  0.00  0.00     0.115 C 
BRANCH  44  45
ATOM     45  C   UNK d   0      -6.814 -12.115  15.303  0.00  0.00     0.139 C 
ATOM     46  O   UNK d   0      -6.991 -13.170  14.644  0.00  0.00    -0.650 OA
BRANCH  45  47
ATOM     47  O   UNK d   0      -5.825 -12.083  16.262  0.00  0.00    -0.776 OA
ATOM     48  H   UNK d   0      -5.264 -12.912  16.516  0.00  0.00     0.167 HD
ENDBRANCH  45  47
ENDBRANCH  44  45
ENDBRANCH  43  44
ENDBRANCH  27  43
BRANCH  24  49
ATOM     49  C   UNK d   0      -5.384 -12.386  19.925  0.00  0.00     0.052 C 
BRANCH  49  50
ATOM     50  C   UNK d   0      -6.510 -13.080  20.646  0.00  0.00     0.115 C 
BRANCH  50  51
ATOM     51  C   UNK d   0      -6.701 -12.753  22.053  0.00  0.00     0.139 C 
ATOM     52  O   UNK d   0      -5.885 -13.091  22.942  0.00  0.00    -0.650 OA
BRANCH  51  53
ATOM     53  O   UNK d   0      -7.824 -12.041  22.446  0.00  0.00    -0.776 OA
ATOM     54  H   UNK d   0      -8.625 -12.556  22.766  0.00  0.00     0.167 HD
ENDBRANCH  51  53
ENDBRANCH  50  51
ENDBRANCH  49  50
ENDBRANCH  24  49
BRANCH  21  55
ATOM     55  C   UNK d   0      -3.480 -10.343  21.246  0.00  0.00     0.151 C 
BRANCH  55  56
ATOM     56  C   UNK d   0      -3.574 -10.001  22.674  0.00  0.00     0.143 C 
ATOM     57  O   UNK d   0      -3.288  -8.871  23.117  0.00  0.00    -0.650 OA
BRANCH  56  58
ATOM     58  O   UNK d   0      -4.002 -10.995  23.552  0.00  0.00    -0.776 OA
ATOM     59  H   UNK d   0      -3.244 -11.562  23.973  0.00  0.00     0.167 HD
ENDBRANCH  56  58
ENDBRANCH  55  56
ENDBRANCH  21  55
BRANCH  18  60
ATOM     60  C   UNK d   0      -4.929  -5.461  22.941  0.00  0.00     0.151 C 
BRANCH  60  61
ATOM     61  C   UNK d   0      -3.502  -5.290  22.630  0.00  0.00     0.143 C 
ATOM     62  O   UNK d   0      -3.016  -4.605  21.729  0.00  0.00    -0.650 OA
BRANCH  61  63
ATOM     63  O   UNK d   0      -2.612  -5.999  23.471  0.00  0.00    -0.776 OA
ATOM     64  H   UNK d   0      -2.283  -5.600  24.332  0.00  0.00     0.167 HD
ENDBRANCH  61  63
ENDBRANCH  60  61
ENDBRANCH  18  60
BRANCH  14  65
ATOM     65  C   UNK d   0      -6.617  -3.087  22.089  0.00  0.00     0.052 C 
BRANCH  65  66
ATOM     66  C   UNK d   0      -5.683  -1.994  21.704  0.00  0.00     0.115 C 
BRANCH  66  67
ATOM     67  C   UNK d   0      -4.521  -1.736  22.507  0.00  0.00     0.139 C 
ATOM     68  O   UNK d   0      -4.665  -1.635  23.780  0.00  0.00    -0.650 OA
BRANCH  67  69
ATOM     69  O   UNK d   0      -3.205  -1.571  22.075  0.00  0.00    -0.776 OA
ATOM     70  H   UNK d   0      -2.724  -0.726  22.416  0.00  0.00     0.167 HD
ENDBRANCH  67  69
ENDBRANCH  66  67
ENDBRANCH  65  66
ENDBRANCH  14  65
ENDBRANCH   6   7
ENDBRANCH   5   6
ENDBRANCH   2   5
TORSDOF 28
ENDMDL
MODEL 2
REMARK VINA RESULT:      -9.4      1.546      7.810
REMARK  28 active torsions:
REMARK  status: ('A' for Active; 'I' for Inactive)
REMARK    1  A    between atoms: C_2  and  O_3 
REMARK    2  A    between atoms: C_2  and  C_4 
REMARK    3  A    between atoms: C_4  and  C_5 
REMARK    4  A    between atoms: C_5  and  C_6 
REMARK    5  A    between atoms: C_7  and  C_8 
REMARK    6  A    between atoms: C_8  and  C_9 
REMARK    7  A    between atoms: C_9  and  O_11 
REMARK    8  A    between atoms: C_28  and  C_29 
REMARK    9  A    between atoms: C_29  and  C_30 
REMARK   10  A    between atoms: C_30  and  O_32 
REMARK   11  A    between atoms: C_33  and  C_34 
REMARK   12  A    between atoms: C_34  and  C_35 
REMARK   13  A    between atoms: C_35  and  C_36 
REMARK   14  A    between atoms: C_36  and  O_38 
REMARK   15  A    between atoms: C_39  and  C_40 
REMARK   16  A    between atoms: C_40  and  C_41 
REMARK   17  A    between atoms: C_41  and  C_42 
REMARK   18  A    between atoms: C_42  and  O_44 
REMARK   19  A    between atoms: C_45  and  C_46 
REMARK   20  A    between atoms: C_46  and  C_47 
REMARK   21  A    between atoms: C_47  and  O_49 
REMARK   22  A    between atoms: C_50  and  C_51 
REMARK   23  A    between atoms: C_51  and  C_52 
REMARK   24  A    between atoms: C_52  and  O_54 
REMARK   25  A    between atoms: C_55  and  C_56 
REMARK   26  A    between atoms: C_56  and  C_57 
REMARK   27  A    between atoms: C_57  and  C_58 
REMARK   28  A    between atoms: C_58  and  O_60 
ROOT
ATOM      1  O   UNK d   0      -8.811  -0.131  18.132  0.00  0.00    -0.650 OA
ATOM      2  C   UNK d   0      -9.992  -0.464  18.376  0.00  0.00     0.139 C 
ENDROOT
BRANCH   2   3
ATOM      3  O   UNK d   0     -10.944   0.511  18.552  0.00  0.00    -0.776 OA
ATOM      4  H   UNK d   0     -11.833   0.478  18.048  0.00  0.00     0.167 HD
ENDBRANCH   2   3
BRANCH   2   5
ATOM      5  C   UNK d   0     -10.358  -1.905  18.475  0.00  0.00     0.115 C 
BRANCH   5   6
ATOM      6  C   UNK d   0      -9.843  -2.654  17.276  0.00  0.00     0.052 C 
BRANCH   6   7
ATOM      7  C   UNK d   0      -9.573  -4.110  17.572  0.00  0.00    -0.020 A 
ATOM      8  C   UNK d   0     -10.197  -5.152  17.086  0.00  0.00    -0.011 A 
ATOM      9  C   UNK d   0      -9.595  -6.341  17.665  0.00  0.00     0.067 A 
ATOM     10  C   UNK d   0      -9.778  -7.728  17.550  0.00  0.00     0.062 C 
ATOM     11  N   UNK d   0      -8.614  -5.929  18.497  0.00  0.00    -0.248 NA
ATOM     12  C   UNK d   0      -8.909  -8.736  17.980  0.00  0.00     0.041 A 
ATOM     13  N   UNK d   0      -8.199  -8.869  19.117  0.00  0.00    -0.355 N 
ATOM     14  C   UNK d   0      -8.630  -9.810  17.115  0.00  0.00    -0.022 A 
ATOM     15  C   UNK d   0      -7.471  -9.995  18.992  0.00  0.00     0.042 A 
ATOM     16  H   UNK d   0      -8.227  -8.191  19.998  0.00  0.00     0.166 HD
ATOM     17  C   UNK d   0      -6.563 -10.599  19.884  0.00  0.00     0.062 C 
ATOM     18  C   UNK d   0      -7.715 -10.612  17.749  0.00  0.00    -0.013 A 
ATOM     19  C   UNK d   0      -5.569 -10.017  20.628  0.00  0.00     0.067 A 
ATOM     20  N   UNK d   0      -5.560  -8.683  20.688  0.00  0.00    -0.248 NA
ATOM     21  C   UNK d   0      -4.438 -10.488  21.410  0.00  0.00    -0.011 A 
ATOM     22  C   UNK d   0      -4.505  -8.247  21.451  0.00  0.00     0.066 A 
ATOM     23  C   UNK d   0      -4.398  -6.876  21.629  0.00  0.00     0.062 C 
ATOM     24  C   UNK d   0      -3.817  -9.447  21.886  0.00  0.00    -0.020 A 
ATOM     25  C   UNK d   0      -5.289  -5.880  21.199  0.00  0.00     0.041 A 
ATOM     26  N   UNK d   0      -5.983  -5.741  20.063  0.00  0.00    -0.355 N 
ATOM     27  C   UNK d   0      -5.572  -4.806  22.070  0.00  0.00    -0.022 A 
ATOM     28  C   UNK d   0      -6.703  -4.614  20.182  0.00  0.00     0.042 A 
ATOM     29  H   UNK d   0      -5.945  -6.417  19.174  0.00  0.00     0.166 HD
ATOM     30  C   UNK d   0      -7.603  -3.997  19.299  0.00  0.00     0.062 C 
ATOM     31  C   UNK d   0      -6.466  -4.000  21.435  0.00  0.00    -0.013 A 
ATOM     32  C   UNK d   0      -8.550  -4.597  18.485  0.00  0.00     0.066 A 
BRANCH   8  33
ATOM     33  C   UNK d   0     -11.318  -5.145  16.128  0.00  0.00     0.151 C 
BRANCH  33  34
ATOM     34  C   UNK d   0     -12.613  -5.448  16.762  0.00  0.00     0.143 C 
ATOM     35  O   UNK d   0     -12.798  -5.231  17.968  0.00  0.00    -0.650 OA
BRANCH  34  36
ATOM     36  O   UNK d   0     -13.629  -5.980  16.002  0.00  0.00    -0.776 OA
ATOM     37  H   UNK d   0     -14.120  -6.837  16.292  0.00  0.00     0.167 HD
ENDBRANCH  34  36
ENDBRANCH  33  34
ENDBRANCH   8  33
BRANCH  31  38
ATOM     38  C   UNK d   0      -7.071  -2.731  21.987  0.00  0.00     0.151 C 
BRANCH  38  39
ATOM     39  C   UNK d   0      -6.308  -1.549  21.643  0.00  0.00     0.143 C 
ATOM     40  O   UNK d   0      -6.834  -0.540  21.143  0.00  0.00    -0.650 OA
BRANCH  39  41
ATOM     41  O   UNK d   0      -4.934  -1.528  21.877  0.00  0.00    -0.776 OA
ATOM     42  H   UNK d   0      -4.521  -0.623  22.125  0.00  0.00     0.167 HD
ENDBRANCH  39  41
ENDBRANCH  38  39
ENDBRANCH  31  38
BRANCH  27  43
ATOM     43  C   UNK d   0      -5.033  -4.524  23.450  0.00  0.00     0.052 C 
BRANCH  43  44
ATOM     44  C   UNK d   0      -3.546  -4.381  23.487  0.00  0.00     0.115 C 
BRANCH  44  45
ATOM     45  C   UNK d   0      -3.234  -3.473  24.621  0.00  0.00     0.139 C 
ATOM     46  O   UNK d   0      -3.712  -2.312  24.597  0.00  0.00    -0.650 OA
BRANCH  45  47
ATOM     47  O   UNK d   0      -2.453  -3.853  25.690  0.00  0.00    -0.776 OA
ATOM     48  H   UNK d   0      -1.672  -3.279  26.046  0.00  0.00     0.167 HD
ENDBRANCH  45  47
ENDBRANCH  44  45
ENDBRANCH  43  44
ENDBRANCH  27  43
BRANCH  24  49
ATOM     49  C   UNK d   0      -2.636  -9.468  22.766  0.00  0.00     0.052 C 
BRANCH  49  50
ATOM     50  C   UNK d   0      -1.923  -8.141  22.717  0.00  0.00     0.115 C 
BRANCH  50  51
ATOM     51  C   UNK d   0      -1.063  -7.807  23.845  0.00  0.00     0.139 C 
ATOM     52  O   UNK d   0       0.052  -8.350  24.028  0.00  0.00    -0.650 OA
BRANCH  51  53
ATOM     53  O   UNK d   0      -1.475  -6.855  24.764  0.00  0.00    -0.776 OA
ATOM     54  H   UNK d   0      -2.369  -6.417  24.627  0.00  0.00     0.167 HD
ENDBRANCH  51  53
ENDBRANCH  50  51
ENDBRANCH  49  50
ENDBRANCH  24  49
BRANCH  21  55
ATOM     55  C   UNK d   0      -4.098 -11.929  21.604  0.00  0.00     0.151 C 
BRANCH  55  56
ATOM     56  C   UNK d   0      -4.820 -12.517  22.743  0.00  0.00     0.143 C 
ATOM     57  O   UNK d   0      -4.384 -12.480  23.910  0.00  0.00    -0.650 OA
BRANCH  56  58
ATOM     58  O   UNK d   0      -6.042 -13.138  22.487  0.00  0.00    -0.776 OA
ATOM     59  H   UNK d   0      -6.315 -13.863  23.174  0.00  0.00     0.167 HD
ENDBRANCH  56  58
ENDBRANCH  55  56
ENDBRANCH  21  55
BRANCH  18  60
ATOM     60  C   UNK d   0      -7.129 -11.878  17.174  0.00  0.00     0.151 C 
BRANCH  60  61
ATOM     61  C   UNK d   0      -5.938 -11.464  16.416  0.00  0.00     0.143 C 
ATOM     62  O   UNK d   0      -4.867 -11.066  16.876  0.00  0.00    -0.650 OA
BRANCH  61  63
ATOM     63  O   UNK d   0      -6.064 -11.541  15.008  0.00  0.00    -0.776 OA
ATOM     64  H   UNK d   0      -5.254 -11.631  14.420  0.00  0.00     0.167 HD
ENDBRANCH  61  63
ENDBRANCH  60  61
ENDBRANCH  18  60
BRANCH  14  65
ATOM     65  C   UNK d   0      -9.231 -10.183  15.789  0.00  0.00     0.052 C 
BRANCH  65  66
ATOM     66  C   UNK d   0     -10.587 -10.782  15.913  0.00  0.00     0.115 C 
BRANCH  66  67
ATOM     67  C   UNK d   0     -11.686 -10.210  15.188  0.00  0.00     0.139 C 
ATOM     68  O   UNK d   0     -11.657  -8.953  14.919  0.00  0.00    -0.650 OA
BRANCH  67  69
ATOM     69  O   UNK d   0     -12.827 -10.859  14.717  0.00  0.00    -0.776 OA
ATOM     70  H   UNK d   0     -13.278 -10.433  13.894  0.00  0.00     0.167 HD
ENDBRANCH  67  69
ENDBRANCH  66  67
ENDBRANCH  65  66
ENDBRANCH  14  65
ENDBRANCH   6   7
ENDBRANCH   5   6
ENDBRANCH   2   5
TORSDOF 28
ENDMDL
MODEL 3
REMARK VINA RESULT:      -9.4      2.442      8.256
REMARK  28 active torsions:
REMARK  status: ('A' for Active; 'I' for Inactive)
REMARK    1  A    between atoms: C_2  and  O_3 
REMARK    2  A    between atoms: C_2  and  C_4 
REMARK    3  A    between atoms: C_4  and  C_5 
REMARK    4  A    between atoms: C_5  and  C_6 
REMARK    5  A    between atoms: C_7  and  C_8 
REMARK    6  A    between atoms: C_8  and  C_9 
REMARK    7  A    between atoms: C_9  and  O_11 
REMARK    8  A    between atoms: C_28  and  C_29 
REMARK    9  A    between atoms: C_29  and  C_30 
REMARK   10  A    between atoms: C_30  and  O_32 
REMARK   11  A    between atoms: C_33  and  C_34 
REMARK   12  A    between atoms: C_34  and  C_35 
REMARK   13  A    between atoms: C_35  and  C_36 
REMARK   14  A    between atoms: C_36  and  O_38 
REMARK   15  A    between atoms: C_39  and  C_40 
REMARK   16  A    between atoms: C_40  and  C_41 
REMARK   17  A    between atoms: C_41  and  C_42 
REMARK   18  A    between atoms: C_42  and  O_44 
REMARK   19  A    between atoms: C_45  and  C_46 
REMARK   20  A    between atoms: C_46  and  C_47 
REMARK   21  A    between atoms: C_47  and  O_49 
REMARK   22  A    between atoms: C_50  and  C_51 
REMARK   23  A    between atoms: C_51  and  C_52 
REMARK   24  A    between atoms: C_52  and  O_54 
REMARK   25  A    between atoms: C_55  and  C_56 
REMARK   26  A    between atoms: C_56  and  C_57 
REMARK   27  A    between atoms: C_57  and  C_58 
REMARK   28  A    between atoms: C_58  and  O_60 
ROOT
ATOM      1  O   UNK d   0      -8.259  -3.405  17.184  0.00  0.00    -0.650 OA
ATOM      2  C   UNK d   0      -9.134  -3.922  16.453  0.00  0.00     0.139 C 
ENDROOT
BRANCH   2   3
ATOM      3  O   UNK d   0     -10.092  -3.120  15.880  0.00  0.00    -0.776 OA
ATOM      4  H   UNK d   0      -9.851  -2.453  15.144  0.00  0.00     0.167 HD
ENDBRANCH   2   3
BRANCH   2   5
ATOM      5  C   UNK d   0      -9.133  -5.392  16.210  0.00  0.00     0.115 C 
BRANCH   5   6
ATOM      6  C   UNK d   0      -9.925  -6.094  17.279  0.00  0.00     0.052 C 
BRANCH   6   7
ATOM      7  C   UNK d   0      -9.128  -7.164  17.985  0.00  0.00    -0.020 A 
ATOM      8  C   UNK d   0      -9.312  -8.459  17.937  0.00  0.00    -0.011 A 
ATOM      9  C   UNK d   0      -8.309  -9.082  18.784  0.00  0.00     0.067 A 
ATOM     10  C   UNK d   0      -7.956 -10.394  19.138  0.00  0.00     0.062 C 
ATOM     11  N   UNK d   0      -7.560  -8.092  19.313  0.00  0.00    -0.248 NA
ATOM     12  C   UNK d   0      -6.773 -10.816  19.755  0.00  0.00     0.041 A 
ATOM     13  N   UNK d   0      -6.071 -10.292  20.778  0.00  0.00    -0.355 N 
ATOM     14  C   UNK d   0      -6.107 -11.946  19.247  0.00  0.00    -0.022 A 
ATOM     15  C   UNK d   0      -4.972 -11.056  20.927  0.00  0.00     0.042 A 
ATOM     16  H   UNK d   0      -6.357  -9.412  21.395  0.00  0.00     0.166 HD
ATOM     17  C   UNK d   0      -3.908 -10.955  21.844  0.00  0.00     0.062 C 
ATOM     18  C   UNK d   0      -4.960 -12.103  19.985  0.00  0.00    -0.013 A 
ATOM     19  C   UNK d   0      -3.209  -9.841  22.236  0.00  0.00     0.067 A 
ATOM     20  N   UNK d   0      -3.704  -8.657  21.868  0.00  0.00    -0.248 NA
ATOM     21  C   UNK d   0      -1.988  -9.582  22.980  0.00  0.00    -0.011 A 
ATOM     22  C   UNK d   0      -2.894  -7.642  22.316  0.00  0.00     0.066 A 
ATOM     23  C   UNK d   0      -3.312  -6.350  22.034  0.00  0.00     0.062 C 
ATOM     24  C   UNK d   0      -1.807  -8.294  23.019  0.00  0.00    -0.020 A 
ATOM     25  C   UNK d   0      -4.510  -5.947  21.425  0.00  0.00     0.041 A 
ATOM     26  N   UNK d   0      -5.200  -6.459  20.399  0.00  0.00    -0.355 N 
ATOM     27  C   UNK d   0      -5.181  -4.815  21.938  0.00  0.00    -0.022 A 
ATOM     28  C   UNK d   0      -6.292  -5.694  20.242  0.00  0.00     0.042 A 
ATOM     29  H   UNK d   0      -4.907  -7.337  19.773  0.00  0.00     0.166 HD
ATOM     30  C   UNK d   0      -7.354  -5.777  19.328  0.00  0.00     0.062 C 
ATOM     31  C   UNK d   0      -6.310  -4.648  21.196  0.00  0.00    -0.013 A 
ATOM     32  C   UNK d   0      -8.001  -6.914  18.871  0.00  0.00     0.066 A 
BRANCH   8  33
ATOM     33  C   UNK d   0     -10.348  -9.178  17.173  0.00  0.00     0.151 C 
BRANCH  33  34
ATOM     34  C   UNK d   0      -9.816  -9.825  15.960  0.00  0.00     0.143 C 
ATOM     35  O   UNK d   0     -10.548 -10.511  15.232  0.00  0.00    -0.650 OA
BRANCH  34  36
ATOM     36  O   UNK d   0      -8.489  -9.665  15.635  0.00  0.00    -0.776 OA
ATOM     37  H   UNK d   0      -7.748 -10.142  16.166  0.00  0.00     0.167 HD
ENDBRANCH  34  36
ENDBRANCH  33  34
ENDBRANCH   8  33
BRANCH  31  38
ATOM     38  C   UNK d   0      -7.351  -3.570  21.387  0.00  0.00     0.151 C 
BRANCH  38  39
ATOM     39  C   UNK d   0      -7.051  -2.362  20.648  0.00  0.00     0.143 C 
ATOM     40  O   UNK d   0      -7.069  -1.237  21.177  0.00  0.00    -0.650 OA
BRANCH  39  41
ATOM     41  O   UNK d   0      -6.727  -2.449  19.295  0.00  0.00    -0.776 OA
ATOM     42  H   UNK d   0      -7.509  -2.448  18.632  0.00  0.00     0.167 HD
ENDBRANCH  39  41
ENDBRANCH  38  39
ENDBRANCH  31  38
BRANCH  27  43
ATOM     43  C   UNK d   0      -4.795  -3.908  23.079  0.00  0.00     0.052 C 
BRANCH  43  44
ATOM     44  C   UNK d   0      -3.892  -2.791  22.666  0.00  0.00     0.115 C 
BRANCH  44  45
ATOM     45  C   UNK d   0      -4.550  -1.531  23.100  0.00  0.00     0.139 C 
ATOM     46  O   UNK d   0      -5.182  -1.536  24.185  0.00  0.00    -0.650 OA
BRANCH  45  47
ATOM     47  O   UNK d   0      -4.490  -0.366  22.366  0.00  0.00    -0.776 OA
ATOM     48  H   UNK d   0      -3.639  -0.063  21.865  0.00  0.00     0.167 HD
ENDBRANCH  45  47
ENDBRANCH  44  45
ENDBRANCH  43  44
ENDBRANCH  27  43
BRANCH  24  49
ATOM     49  C   UNK d   0      -0.709  -7.592  23.707  0.00  0.00     0.052 C 
BRANCH  49  50
ATOM     50  C   UNK d   0       0.395  -7.265  22.734  0.00  0.00     0.115 C 
BRANCH  50  51
ATOM     51  C   UNK d   0       0.567  -5.866  22.368  0.00  0.00     0.139 C 
ATOM     52  O   UNK d   0       1.275  -5.074  23.034  0.00  0.00    -0.650 OA
BRANCH  51  53
ATOM     53  O   UNK d   0      -0.072  -5.368  21.243  0.00  0.00    -0.776 OA
ATOM     54  H   UNK d   0      -0.996  -5.703  21.033  0.00  0.00     0.167 HD
ENDBRANCH  51  53
ENDBRANCH  50  51
ENDBRANCH  49  50
ENDBRANCH  24  49
BRANCH  21  55
ATOM     55  C   UNK d   0      -1.132 -10.649  23.577  0.00  0.00     0.151 C 
BRANCH  55  56
ATOM     56  C   UNK d   0      -1.548 -10.988  24.947  0.00  0.00     0.143 C 
ATOM     57  O   UNK d   0      -0.776 -10.919  25.923  0.00  0.00    -0.650 OA
BRANCH  56  58
ATOM     58  O   UNK d   0      -2.865 -11.401  25.142  0.00  0.00    -0.776 OA
ATOM     59  H   UNK d   0      -2.991 -12.425  25.239  0.00  0.00     0.167 HD
ENDBRANCH  56  58
ENDBRANCH  55  56
ENDBRANCH  21  55
BRANCH  18  60
ATOM     60  C   UNK d   0      -3.938 -13.192  19.773  0.00  0.00     0.151 C 
BRANCH  60  61
ATOM     61  C   UNK d   0      -2.952 -12.643  18.830  0.00  0.00     0.143 C 
ATOM     62  O   UNK d   0      -2.991 -11.548  18.269  0.00  0.00    -0.650 OA
BRANCH  61  63
ATOM     63  O   UNK d   0      -1.847 -13.485  18.555  0.00  0.00    -0.776 OA
ATOM     64  H   UNK d   0      -0.905 -13.164  18.689  0.00  0.00     0.167 HD
ENDBRANCH  61  63
ENDBRANCH  60  61
ENDBRANCH  18  60
BRANCH  14  65
ATOM     65  C   UNK d   0      -6.517 -12.936  18.194  0.00  0.00     0.052 C 
BRANCH  65  66
ATOM     66  C   UNK d   0      -6.134 -12.515  16.820  0.00  0.00     0.115 C 
BRANCH  66  67
ATOM     67  C   UNK d   0      -6.944 -12.910  15.703  0.00  0.00     0.139 C 
ATOM     68  O   UNK d   0      -6.400 -13.596  14.761  0.00  0.00    -0.650 OA
BRANCH  67  69
ATOM     69  O   UNK d   0      -8.296 -12.639  15.491  0.00  0.00    -0.776 OA
ATOM     70  H   UNK d   0      -8.689 -12.986  14.604  0.00  0.00     0.167 HD
ENDBRANCH  67  69
ENDBRANCH  66  67
ENDBRANCH  65  66
ENDBRANCH  14  65
ENDBRANCH   6   7
ENDBRANCH   5   6
ENDBRANCH   2   5
TORSDOF 28
ENDMDL
MODEL 4
REMARK VINA RESULT:      -9.4      1.934      6.993
REMARK  28 active torsions:
REMARK  status: ('A' for Active; 'I' for Inactive)
REMARK    1  A    between atoms: C_2  and  O_3 
REMARK    2  A    between atoms: C_2  and  C_4 
REMARK    3  A    between atoms: C_4  and  C_5 
REMARK    4  A    between atoms: C_5  and  C_6 
REMARK    5  A    between atoms: C_7  and  C_8 
REMARK    6  A    between atoms: C_8  and  C_9 
REMARK    7  A    between atoms: C_9  and  O_11 
REMARK    8  A    between atoms: C_28  and  C_29 
REMARK    9  A    between atoms: C_29  and  C_30 
REMARK   10  A    between atoms: C_30  and  O_32 
REMARK   11  A    between atoms: C_33  and  C_34 
REMARK   12  A    between atoms: C_34  and  C_35 
REMARK   13  A    between atoms: C_35  and  C_36 
REMARK   14  A    between atoms: C_36  and  O_38 
REMARK   15  A    between atoms: C_39  and  C_40 
REMARK   16  A    between atoms: C_40  and  C_41 
REMARK   17  A    between atoms: C_41  and  C_42 
REMARK   18  A    between atoms: C_42  and  O_44 
REMARK   19  A    between atoms: C_45  and  C_46 
REMARK   20  A    between atoms: C_46  and  C_47 
REMARK   21  A    between atoms: C_47  and  O_49 
REMARK   22  A    between atoms: C_50  and  C_51 
REMARK   23  A    between atoms: C_51  and  C_52 
REMARK   24  A    between atoms: C_52  and  O_54 
REMARK   25  A    between atoms: C_55  and  C_56 
REMARK   26  A    between atoms: C_56  and  C_57 
REMARK   27  A    between atoms: C_57  and  C_58 
REMARK   28  A    between atoms: C_58  and  O_60 
ROOT
ATOM      1  O   UNK d   0      -7.470  -3.375  24.941  0.00  0.00    -0.650 OA
ATOM      2  C   UNK d   0      -7.506  -2.149  24.694  0.00  0.00     0.139 C 
ENDROOT
BRANCH   2   3
ATOM      3  O   UNK d   0      -8.564  -1.401  25.150  0.00  0.00    -0.776 OA
ATOM      4  H   UNK d   0      -9.171  -1.745  25.897  0.00  0.00     0.167 HD
ENDBRANCH   2   3
BRANCH   2   5
ATOM      5  C   UNK d   0      -6.410  -1.511  23.911  0.00  0.00     0.115 C 
BRANCH   5   6
ATOM      6  C   UNK d   0      -6.654  -1.689  22.437  0.00  0.00     0.052 C 
BRANCH   6   7
ATOM      7  C   UNK d   0      -6.123  -3.002  21.914  0.00  0.00    -0.020 A 
ATOM      8  C   UNK d   0      -4.960  -3.547  22.160  0.00  0.00    -0.011 A 
ATOM      9  C   UNK d   0      -4.894  -4.803  21.432  0.00  0.00     0.067 A 
ATOM     10  C   UNK d   0      -3.962  -5.843  21.289  0.00  0.00     0.062 C 
ATOM     11  N   UNK d   0      -6.058  -4.940  20.764  0.00  0.00    -0.248 NA
ATOM     12  C   UNK d   0      -4.190  -7.118  20.758  0.00  0.00     0.041 A 
ATOM     13  N   UNK d   0      -4.883  -7.516  19.675  0.00  0.00    -0.355 N 
ATOM     14  C   UNK d   0      -3.687  -8.239  21.442  0.00  0.00    -0.022 A 
ATOM     15  C   UNK d   0      -4.840  -8.861  19.658  0.00  0.00     0.042 A 
ATOM     16  H   UNK d   0      -5.376  -6.858  18.926  0.00  0.00     0.166 HD
ATOM     17  C   UNK d   0      -5.397  -9.782  18.748  0.00  0.00     0.062 C 
ATOM     18  C   UNK d   0      -4.099  -9.351  20.751  0.00  0.00    -0.013 A 
ATOM     19  C   UNK d   0      -6.653  -9.797  18.197  0.00  0.00     0.067 A 
ATOM     20  N   UNK d   0      -7.403  -8.706  18.371  0.00  0.00    -0.248 NA
ATOM     21  C   UNK d   0      -7.448 -10.746  17.435  0.00  0.00    -0.011 A 
ATOM     22  C   UNK d   0      -8.632  -8.873  17.780  0.00  0.00     0.066 A 
ATOM     23  C   UNK d   0      -9.502  -7.796  17.853  0.00  0.00     0.062 C 
ATOM     24  C   UNK d   0      -8.606 -10.201  17.198  0.00  0.00    -0.020 A 
ATOM     25  C   UNK d   0      -9.250  -6.520  18.380  0.00  0.00     0.041 A 
ATOM     26  N   UNK d   0      -8.573  -6.125  19.465  0.00  0.00    -0.355 N 
ATOM     27  C   UNK d   0      -9.751  -5.394  17.690  0.00  0.00    -0.022 A 
ATOM     28  C   UNK d   0      -8.622  -4.783  19.489  0.00  0.00     0.042 A 
ATOM     29  H   UNK d   0      -8.087  -6.787  20.222  0.00  0.00     0.166 HD
ATOM     30  C   UNK d   0      -8.081  -3.856  20.392  0.00  0.00     0.062 C 
ATOM     31  C   UNK d   0      -9.358  -4.291  18.384  0.00  0.00    -0.013 A 
ATOM     32  C   UNK d   0      -6.842  -3.890  21.013  0.00  0.00     0.066 A 
BRANCH   8  33
ATOM     33  C   UNK d   0      -3.889  -3.001  23.015  0.00  0.00     0.151 C 
BRANCH  33  34
ATOM     34  C   UNK d   0      -3.720  -3.756  24.270  0.00  0.00     0.143 C 
ATOM     35  O   UNK d   0      -2.592  -4.059  24.683  0.00  0.00    -0.650 OA
BRANCH  34  36
ATOM     36  O   UNK d   0      -4.832  -4.129  24.989  0.00  0.00    -0.776 OA
ATOM     37  H   UNK d   0      -4.747  -4.560  25.920  0.00  0.00     0.167 HD
ENDBRANCH  34  36
ENDBRANCH  33  34
ENDBRANCH   8  33
BRANCH  31  38
ATOM     38  C   UNK d   0      -9.650  -2.855  18.016  0.00  0.00     0.151 C 
BRANCH  38  39
ATOM     39  C   UNK d   0     -10.789  -2.314  18.727  0.00  0.00     0.143 C 
ATOM     40  O   UNK d   0     -11.052  -1.099  18.736  0.00  0.00    -0.650 OA
BRANCH  39  41
ATOM     41  O   UNK d   0     -11.632  -3.176  19.429  0.00  0.00    -0.776 OA
ATOM     42  H   UNK d   0     -11.211  -4.035  19.796  0.00  0.00     0.167 HD
ENDBRANCH  39  41
ENDBRANCH  38  39
ENDBRANCH  31  38
BRANCH  27  43
ATOM     43  C   UNK d   0     -10.572  -5.331  16.426  0.00  0.00     0.052 C 
BRANCH  43  44
ATOM     44  C   UNK d   0     -11.994  -5.746  16.624  0.00  0.00     0.115 C 
BRANCH  44  45
ATOM     45  C   UNK d   0     -12.832  -4.570  16.275  0.00  0.00     0.139 C 
ATOM     46  O   UNK d   0     -13.342  -3.907  17.212  0.00  0.00    -0.650 OA
BRANCH  45  47
ATOM     47  O   UNK d   0     -13.063  -4.177  14.974  0.00  0.00    -0.776 OA
ATOM     48  H   UNK d   0     -12.782  -4.746  14.159  0.00  0.00     0.167 HD
ENDBRANCH  45  47
ENDBRANCH  44  45
ENDBRANCH  43  44
ENDBRANCH  27  43
BRANCH  24  49
ATOM     49  C   UNK d   0      -9.706 -10.800  16.423  0.00  0.00     0.052 C 
BRANCH  49  50
ATOM     50  C   UNK d   0      -9.491 -10.574  14.948  0.00  0.00     0.115 C 
BRANCH  50  51
ATOM     51  C   UNK d   0      -9.662 -11.722  14.068  0.00  0.00     0.139 C 
ATOM     52  O   UNK d   0      -9.874 -11.605  12.838  0.00  0.00    -0.650 OA
BRANCH  51  53
ATOM     53  O   UNK d   0      -9.594 -13.004  14.591  0.00  0.00    -0.776 OA
ATOM     54  H   UNK d   0      -8.964 -13.173  15.356  0.00  0.00     0.167 HD
ENDBRANCH  51  53
ENDBRANCH  50  51
ENDBRANCH  49  50
ENDBRANCH  24  49
BRANCH  21  55
ATOM     55  C   UNK d   0      -6.966 -12.096  17.020  0.00  0.00     0.151 C 
BRANCH  55  56
ATOM     56  C   UNK d   0      -6.397 -12.086  15.663  0.00  0.00     0.143 C 
ATOM     57  O   UNK d   0      -6.503 -13.050  14.880  0.00  0.00    -0.650 OA
BRANCH  56  58
ATOM     58  O   UNK d   0      -5.716 -10.940  15.254  0.00  0.00    -0.776 OA
ATOM     59  H   UNK d   0      -4.933 -11.110  14.597  0.00  0.00     0.167 HD
ENDBRANCH  56  58
ENDBRANCH  55  56
ENDBRANCH  21  55
BRANCH  18  60
ATOM     60  C   UNK d   0      -3.790 -10.776  21.141  0.00  0.00     0.151 C 
BRANCH  60  61
ATOM     61  C   UNK d   0      -4.793 -11.145  22.151  0.00  0.00     0.143 C 
ATOM     62  O   UNK d   0      -4.611 -11.817  23.167  0.00  0.00    -0.650 OA
BRANCH  61  63
ATOM     63  O   UNK d   0      -6.101 -10.664  21.905  0.00  0.00    -0.776 OA
ATOM     64  H   UNK d   0      -6.263  -9.701  21.669  0.00  0.00     0.167 HD
ENDBRANCH  61  63
ENDBRANCH  60  61
ENDBRANCH  18  60
BRANCH  14  65
ATOM     65  C   UNK d   0      -2.774  -8.335  22.632  0.00  0.00     0.052 C 
BRANCH  65  66
ATOM     66  C   UNK d   0      -1.647  -7.366  22.579  0.00  0.00     0.115 C 
BRANCH  66  67
ATOM     67  C   UNK d   0      -1.064  -6.886  23.800  0.00  0.00     0.139 C 
ATOM     68  O   UNK d   0      -1.239  -7.570  24.875  0.00  0.00    -0.650 OA
BRANCH  67  69
ATOM     69  O   UNK d   0      -0.303  -5.732  23.986  0.00  0.00    -0.776 OA
ATOM     70  H   UNK d   0       0.714  -5.841  23.862  0.00  0.00     0.167 HD
ENDBRANCH  67  69
ENDBRANCH  66  67
ENDBRANCH  65  66
ENDBRANCH  14  65
ENDBRANCH   6   7
ENDBRANCH   5   6
ENDBRANCH   2   5
TORSDOF 28
ENDMDL
MODEL 5
REMARK VINA RESULT:      -9.2      1.891      5.754
REMARK  28 active torsions:
REMARK  status: ('A' for Active; 'I' for Inactive)
REMARK    1  A    between atoms: C_2  and  O_3 
REMARK    2  A    between atoms: C_2  and  C_4 
REMARK    3  A    between atoms: C_4  and  C_5 
REMARK    4  A    between atoms: C_5  and  C_6 
REMARK    5  A    between atoms: C_7  and  C_8 
REMARK    6  A    between atoms: C_8  and  C_9 
REMARK    7  A    between atoms: C_9  and  O_11 
REMARK    8  A    between atoms: C_28  and  C_29 
REMARK    9  A    between atoms: C_29  and  C_30 
REMARK   10  A    between atoms: C_30  and  O_32 
REMARK   11  A    between atoms: C_33  and  C_34 
REMARK   12  A    between atoms: C_34  and  C_35 
REMARK   13  A    between atoms: C_35  and  C_36 
REMARK   14  A    between atoms: C_36  and  O_38 
REMARK   15  A    between atoms: C_39  and  C_40 
REMARK   16  A    between atoms: C_40  and  C_41 
REMARK   17  A    between atoms: C_41  and  C_42 
REMARK   18  A    between atoms: C_42  and  O_44 
REMARK   19  A    between atoms: C_45  and  C_46 
REMARK   20  A    between atoms: C_46  and  C_47 
REMARK   21  A    between atoms: C_47  and  O_49 
REMARK   22  A    between atoms: C_50  and  C_51 
REMARK   23  A    between atoms: C_51  and  C_52 
REMARK   24  A    between atoms: C_52  and  O_54 
REMARK   25  A    between atoms: C_55  and  C_56 
REMARK   26  A    between atoms: C_56  and  C_57 
REMARK   27  A    between atoms: C_57  and  C_58 
REMARK   28  A    between atoms: C_58  and  O_60 
ROOT
ATOM      1  O   UNK d   0      -9.714 -11.665  12.842  0.00  0.00    -0.650 OA
ATOM      2  C   UNK d   0     -10.233 -11.835  13.968  0.00  0.00     0.139 C 
ENDROOT
BRANCH   2   3
ATOM      3  O   UNK d   0      -9.734 -12.807  14.801  0.00  0.00    -0.776 OA
ATOM      4  H   UNK d   0      -8.726 -12.924  14.929  0.00  0.00     0.167 HD
ENDBRANCH   2   3
BRANCH   2   5
ATOM      5  C   UNK d   0     -11.384 -10.990  14.396  0.00  0.00     0.115 C 
BRANCH   5   6
ATOM      6  C   UNK d   0     -11.447 -10.924  15.898  0.00  0.00     0.052 C 
BRANCH   6   7
ATOM      7  C   UNK d   0     -10.686  -9.747  16.460  0.00  0.00    -0.020 A 
ATOM      8  C   UNK d   0     -10.983  -8.478  16.351  0.00  0.00    -0.011 A 
ATOM      9  C   UNK d   0      -9.957  -7.719  17.046  0.00  0.00     0.067 A 
ATOM     10  C   UNK d   0      -9.705  -6.364  17.313  0.00  0.00     0.062 C 
ATOM     11  N   UNK d   0      -9.070  -8.607  17.543  0.00  0.00    -0.248 NA
ATOM     12  C   UNK d   0      -8.804  -5.837  18.245  0.00  0.00     0.041 A 
ATOM     13  N   UNK d   0      -7.542  -6.189  18.554  0.00  0.00    -0.355 N 
ATOM     14  C   UNK d   0      -9.227  -4.789  19.083  0.00  0.00    -0.022 A 
ATOM     15  C   UNK d   0      -7.155  -5.397  19.572  0.00  0.00     0.042 A 
ATOM     16  H   UNK d   0      -6.929  -6.969  18.050  0.00  0.00     0.166 HD
ATOM     17  C   UNK d   0      -5.935  -5.343  20.274  0.00  0.00     0.062 C 
ATOM     18  C   UNK d   0      -8.186  -4.507  19.931  0.00  0.00    -0.013 A 
ATOM     19  C   UNK d   0      -5.175  -6.374  20.764  0.00  0.00     0.067 A 
ATOM     20  N   UNK d   0      -5.505  -7.607  20.372  0.00  0.00    -0.248 NA
ATOM     21  C   UNK d   0      -4.041  -6.500  21.665  0.00  0.00    -0.011 A 
ATOM     22  C   UNK d   0      -4.670  -8.531  20.953  0.00  0.00     0.066 A 
ATOM     23  C   UNK d   0      -4.878  -9.856  20.601  0.00  0.00     0.062 C 
ATOM     24  C   UNK d   0      -3.753  -7.765  21.774  0.00  0.00    -0.020 A 
ATOM     25  C   UNK d   0      -5.780 -10.364  19.653  0.00  0.00     0.041 A 
ATOM     26  N   UNK d   0      -7.039 -10.024  19.356  0.00  0.00    -0.355 N 
ATOM     27  C   UNK d   0      -5.353 -11.412  18.809  0.00  0.00    -0.022 A 
ATOM     28  C   UNK d   0      -7.430 -10.818  18.346  0.00  0.00     0.042 A 
ATOM     29  H   UNK d   0      -7.657  -9.247  19.870  0.00  0.00     0.166 HD
ATOM     30  C   UNK d   0      -8.644 -10.890  17.645  0.00  0.00     0.062 C 
ATOM     31  C   UNK d   0      -6.391 -11.706  17.979  0.00  0.00    -0.013 A 
ATOM     32  C   UNK d   0      -9.452  -9.844  17.226  0.00  0.00     0.066 A 
BRANCH   8  33
ATOM     33  C   UNK d   0     -12.143  -7.898  15.650  0.00  0.00     0.151 C 
BRANCH  33  34
ATOM     34  C   UNK d   0     -12.766  -6.790  16.396  0.00  0.00     0.143 C 
ATOM     35  O   UNK d   0     -13.376  -6.998  17.454  0.00  0.00    -0.650 OA
BRANCH  34  36
ATOM     36  O   UNK d   0     -12.668  -5.507  15.907  0.00  0.00    -0.776 OA
ATOM     37  H   UNK d   0     -11.778  -4.991  15.938  0.00  0.00     0.167 HD
ENDBRANCH  34  36
ENDBRANCH  33  34
ENDBRANCH   8  33
BRANCH  31  38
ATOM     38  C   UNK d   0      -6.394 -12.755  16.892  0.00  0.00     0.151 C 
BRANCH  38  39
ATOM     39  C   UNK d   0      -6.315 -12.188  15.563  0.00  0.00     0.143 C 
ATOM     40  O   UNK d   0      -6.738 -12.786  14.558  0.00  0.00    -0.650 OA
BRANCH  39  41
ATOM     41  O   UNK d   0      -5.747 -10.926  15.388  0.00  0.00    -0.776 OA
ATOM     42  H   UNK d   0      -6.058 -10.188  16.027  0.00  0.00     0.167 HD
ENDBRANCH  39  41
ENDBRANCH  38  39
ENDBRANCH  31  38
BRANCH  27  43
ATOM     43  C   UNK d   0      -4.027 -12.129  18.767  0.00  0.00     0.052 C 
BRANCH  43  44
ATOM     44  C   UNK d   0      -4.014 -13.395  19.561  0.00  0.00     0.115 C 
BRANCH  44  45
ATOM     45  C   UNK d   0      -3.324 -13.087  20.840  0.00  0.00     0.139 C 
ATOM     46  O   UNK d   0      -4.030 -12.866  21.855  0.00  0.00    -0.650 OA
BRANCH  45  47
ATOM     47  O   UNK d   0      -1.952 -13.040  20.957  0.00  0.00    -0.776 OA
ATOM     48  H   UNK d   0      -1.337 -12.695  20.202  0.00  0.00     0.167 HD
ENDBRANCH  45  47
ENDBRANCH  44  45
ENDBRANCH  43  44
ENDBRANCH  27  43
BRANCH  24  49
ATOM     49  C   UNK d   0      -2.647  -8.339  22.560  0.00  0.00     0.052 C 
BRANCH  49  50
ATOM     50  C   UNK d   0      -2.654  -9.842  22.454  0.00  0.00     0.115 C 
BRANCH  50  51
ATOM     51  C   UNK d   0      -1.941 -10.585  23.484  0.00  0.00     0.139 C 
ATOM     52  O   UNK d   0      -2.353 -10.669  24.665  0.00  0.00    -0.650 OA
BRANCH  51  53
ATOM     53  O   UNK d   0      -0.754 -11.229  23.169  0.00  0.00    -0.776 OA
ATOM     54  H   UNK d   0      -0.356 -11.851  23.850  0.00  0.00     0.167 HD
ENDBRANCH  51  53
ENDBRANCH  50  51
ENDBRANCH  49  50
ENDBRANCH  24  49
BRANCH  21  55
ATOM     55  C   UNK d   0      -3.362  -5.343  22.319  0.00  0.00     0.151 C 
BRANCH  55  56
ATOM     56  C   UNK d   0      -4.118  -4.841  23.476  0.00  0.00     0.143 C 
ATOM     57  O   UNK d   0      -5.335  -5.060  23.634  0.00  0.00    -0.650 OA
BRANCH  56  58
ATOM     58  O   UNK d   0      -3.428  -4.091  24.427  0.00  0.00    -0.776 OA
ATOM     59  H   UNK d   0      -3.746  -4.225  25.404  0.00  0.00     0.167 HD
ENDBRANCH  56  58
ENDBRANCH  55  56
ENDBRANCH  21  55
BRANCH  18  60
ATOM     60  C   UNK d   0      -8.210  -3.449  21.007  0.00  0.00     0.151 C 
BRANCH  60  61
ATOM     61  C   UNK d   0      -7.124  -2.513  20.677  0.00  0.00     0.143 C 
ATOM     62  O   UNK d   0      -6.359  -1.957  21.465  0.00  0.00    -0.650 OA
BRANCH  61  63
ATOM     63  O   UNK d   0      -6.962  -2.240  19.297  0.00  0.00    -0.776 OA
ATOM     64  H   UNK d   0      -7.194  -1.340  18.916  0.00  0.00     0.167 HD
ENDBRANCH  61  63
ENDBRANCH  60  61
ENDBRANCH  18  60
BRANCH  14  65
ATOM     65  C   UNK d   0     -10.491  -3.978  19.077  0.00  0.00     0.052 C 
BRANCH  65  66
ATOM     66  C   UNK d   0     -10.703  -3.241  17.802  0.00  0.00     0.115 C 
BRANCH  66  67
ATOM     67  C   UNK d   0      -9.741  -2.263  17.376  0.00  0.00     0.139 C 
ATOM     68  O   UNK d   0      -9.280  -2.337  16.178  0.00  0.00    -0.650 OA
BRANCH  67  69
ATOM     69  O   UNK d   0      -9.218  -1.203  18.116  0.00  0.00    -0.776 OA
ATOM     70  H   UNK d   0      -9.167  -1.349  19.134  0.00  0.00     0.167 HD
ENDBRANCH  67  69
ENDBRANCH  66  67
ENDBRANCH  65  66
ENDBRANCH  14  65
ENDBRANCH   6   7
ENDBRANCH   5   6
ENDBRANCH   2   5
TORSDOF 28
ENDMDL
MODEL 6
REMARK VINA RESULT:      -9.0      1.949      8.254
REMARK  28 active torsions:
REMARK  status: ('A' for Active; 'I' for Inactive)
REMARK    1  A    between atoms: C_2  and  O_3 
REMARK    2  A    between atoms: C_2  and  C_4 
REMARK    3  A    between atoms: C_4  and  C_5 
REMARK    4  A    between atoms: C_5  and  C_6 
REMARK    5  A    between atoms: C_7  and  C_8 
REMARK    6  A    between atoms: C_8  and  C_9 
REMARK    7  A    between atoms: C_9  and  O_11 
REMARK    8  A    between atoms: C_28  and  C_29 
REMARK    9  A    between atoms: C_29  and  C_30 
REMARK   10  A    between atoms: C_30  and  O_32 
REMARK   11  A    between atoms: C_33  and  C_34 
REMARK   12  A    between atoms: C_34  and  C_35 
REMARK   13  A    between atoms: C_35  and  C_36 
REMARK   14  A    between atoms: C_36  and  O_38 
REMARK   15  A    between atoms: C_39  and  C_40 
REMARK   16  A    between atoms: C_40  and  C_41 
REMARK   17  A    between atoms: C_41  and  C_42 
REMARK   18  A    between atoms: C_42  and  O_44 
REMARK   19  A    between atoms: C_45  and  C_46 
REMARK   20  A    between atoms: C_46  and  C_47 
REMARK   21  A    between atoms: C_47  and  O_49 
REMARK   22  A    between atoms: C_50  and  C_51 
REMARK   23  A    between atoms: C_51  and  C_52 
REMARK   24  A    between atoms: C_52  and  O_54 
REMARK   25  A    between atoms: C_55  and  C_56 
REMARK   26  A    between atoms: C_56  and  C_57 
REMARK   27  A    between atoms: C_57  and  C_58 
REMARK   28  A    between atoms: C_58  and  O_60 
ROOT
ATOM      1  O   UNK d   0      -0.392  -3.820  21.164  0.00  0.00    -0.650 OA
ATOM      2  C   UNK d   0      -0.625  -4.251  22.316  0.00  0.00     0.139 C 
ENDROOT
BRANCH   2   3
ATOM      3  O   UNK d   0      -0.547  -3.391  23.385  0.00  0.00    -0.776 OA
ATOM      4  H   UNK d   0      -0.168  -3.699  24.283  0.00  0.00     0.167 HD
ENDBRANCH   2   3
BRANCH   2   5
ATOM      5  C   UNK d   0      -0.984  -5.683  22.521  0.00  0.00     0.115 C 
BRANCH   5   6
ATOM      6  C   UNK d   0      -2.221  -5.790  23.370  0.00  0.00     0.052 C 
BRANCH   6   7
ATOM      7  C   UNK d   0      -3.492  -5.700  22.558  0.00  0.00    -0.020 A 
ATOM      8  C   UNK d   0      -4.278  -4.663  22.420  0.00  0.00    -0.011 A 
ATOM      9  C   UNK d   0      -5.379  -5.053  21.555  0.00  0.00     0.067 A 
ATOM     10  C   UNK d   0      -6.513  -4.426  21.013  0.00  0.00     0.062 C 
ATOM     11  N   UNK d   0      -5.186  -6.346  21.218  0.00  0.00    -0.248 NA
ATOM     12  C   UNK d   0      -7.318  -4.889  19.967  0.00  0.00     0.041 A 
ATOM     13  N   UNK d   0      -7.799  -6.116  19.695  0.00  0.00    -0.355 N 
ATOM     14  C   UNK d   0      -7.693  -3.992  18.949  0.00  0.00    -0.022 A 
ATOM     15  C   UNK d   0      -8.462  -6.024  18.526  0.00  0.00     0.042 A 
ATOM     16  H   UNK d   0      -7.688  -7.026  20.325  0.00  0.00     0.166 HD
ATOM     17  C   UNK d   0      -9.155  -7.005  17.789  0.00  0.00     0.062 C 
ATOM     18  C   UNK d   0      -8.417  -4.707  18.029  0.00  0.00    -0.013 A 
ATOM     19  C   UNK d   0      -8.774  -8.289  17.492  0.00  0.00     0.067 A 
ATOM     20  N   UNK d   0      -7.704  -8.767  18.134  0.00  0.00    -0.248 NA
ATOM     21  C   UNK d   0      -9.240  -9.337  16.600  0.00  0.00    -0.011 A 
ATOM     22  C   UNK d   0      -7.437 -10.050  17.725  0.00  0.00     0.066 A 
ATOM     23  C   UNK d   0      -6.368 -10.683  18.342  0.00  0.00     0.062 C 
ATOM     24  C   UNK d   0      -8.451 -10.363  16.737  0.00  0.00    -0.020 A 
ATOM     25  C   UNK d   0      -5.580 -10.206  19.400  0.00  0.00     0.041 A 
ATOM     26  N   UNK d   0      -5.089  -8.989  19.663  0.00  0.00    -0.355 N 
ATOM     27  C   UNK d   0      -5.208 -11.106  20.423  0.00  0.00    -0.022 A 
ATOM     28  C   UNK d   0      -4.420  -9.081  20.823  0.00  0.00     0.042 A 
ATOM     29  H   UNK d   0      -5.192  -8.079  19.023  0.00  0.00     0.166 HD
ATOM     30  C   UNK d   0      -3.719  -8.115  21.563  0.00  0.00     0.062 C 
ATOM     31  C   UNK d   0      -4.474 -10.402  21.328  0.00  0.00    -0.013 A 
ATOM     32  C   UNK d   0      -4.067  -6.793  21.789  0.00  0.00     0.066 A 
BRANCH   8  33
ATOM     33  C   UNK d   0      -4.103  -3.331  23.027  0.00  0.00     0.151 C 
BRANCH  33  34
ATOM     34  C   UNK d   0      -4.065  -3.376  24.500  0.00  0.00     0.143 C 
ATOM     35  O   UNK d   0      -5.048  -3.761  25.150  0.00  0.00    -0.650 OA
BRANCH  34  36
ATOM     36  O   UNK d   0      -2.923  -2.984  25.159  0.00  0.00    -0.776 OA
ATOM     37  H   UNK d   0      -2.938  -2.212  25.840  0.00  0.00     0.167 HD
ENDBRANCH  34  36
ENDBRANCH  33  34
ENDBRANCH   8  33
BRANCH  31  38
ATOM     38  C   UNK d   0      -3.872 -10.944  22.603  0.00  0.00     0.151 C 
BRANCH  38  39
ATOM     39  C   UNK d   0      -2.499 -11.373  22.437  0.00  0.00     0.143 C 
ATOM     40  O   UNK d   0      -2.186 -12.342  21.724  0.00  0.00    -0.650 OA
BRANCH  39  41
ATOM     41  O   UNK d   0      -1.481 -10.683  23.094  0.00  0.00    -0.776 OA
ATOM     42  H   UNK d   0      -0.726 -10.308  22.510  0.00  0.00     0.167 HD
ENDBRANCH  39  41
ENDBRANCH  38  39
ENDBRANCH  31  38
BRANCH  27  43
ATOM     43  C   UNK d   0      -5.516 -12.575  20.566  0.00  0.00     0.052 C 
BRANCH  43  44
ATOM     44  C   UNK d   0      -6.661 -12.852  21.486  0.00  0.00     0.115 C 
BRANCH  44  45
ATOM     45  C   UNK d   0      -7.865 -13.007  20.630  0.00  0.00     0.139 C 
ATOM     46  O   UNK d   0      -7.755 -13.669  19.568  0.00  0.00    -0.650 OA
BRANCH  45  47
ATOM     47  O   UNK d   0      -9.089 -12.463  20.955  0.00  0.00    -0.776 OA
ATOM     48  H   UNK d   0      -9.213 -11.780  21.720  0.00  0.00     0.167 HD
ENDBRANCH  45  47
ENDBRANCH  44  45
ENDBRANCH  43  44
ENDBRANCH  27  43
BRANCH  24  49
ATOM     49  C   UNK d   0      -8.583 -11.658  16.048  0.00  0.00     0.052 C 
BRANCH  49  50
ATOM     50  C   UNK d   0      -8.156 -11.532  14.608  0.00  0.00     0.115 C 
BRANCH  50  51
ATOM     51  C   UNK d   0      -8.585 -12.581  13.693  0.00  0.00     0.139 C 
ATOM     52  O   UNK d   0      -8.207 -13.771  13.804  0.00  0.00    -0.650 OA
BRANCH  51  53
ATOM     53  O   UNK d   0      -9.445 -12.273  12.650  0.00  0.00    -0.776 OA
ATOM     54  H   UNK d   0     -10.432 -12.386  12.798  0.00  0.00     0.167 HD
ENDBRANCH  51  53
ENDBRANCH  50  51
ENDBRANCH  49  50
ENDBRANCH  24  49
BRANCH  21  55
ATOM     55  C   UNK d   0     -10.429  -9.205  15.706  0.00  0.00     0.151 C 
BRANCH  55  56
ATOM     56  C   UNK d   0     -11.654  -8.898  16.459  0.00  0.00     0.143 C 
ATOM     57  O   UNK d   0     -12.416  -7.959  16.155  0.00  0.00    -0.650 OA
BRANCH  56  58
ATOM     58  O   UNK d   0     -11.960  -9.702  17.556  0.00  0.00    -0.776 OA
ATOM     59  H   UNK d   0     -11.834  -9.248  18.478  0.00  0.00     0.167 HD
ENDBRANCH  56  58
ENDBRANCH  55  56
ENDBRANCH  21  55
BRANCH  18  60
ATOM     60  C   UNK d   0      -9.011  -4.137  16.764  0.00  0.00     0.151 C 
BRANCH  60  61
ATOM     61  C   UNK d   0     -10.468  -4.142  16.964  0.00  0.00     0.143 C 
ATOM     62  O   UNK d   0     -11.084  -3.717  17.942  0.00  0.00    -0.650 OA
BRANCH  61  63
ATOM     63  O   UNK d   0     -11.220  -4.699  15.903  0.00  0.00    -0.776 OA
ATOM     64  H   UNK d   0     -12.203  -4.883  16.004  0.00  0.00     0.167 HD
ENDBRANCH  61  63
ENDBRANCH  60  61
ENDBRANCH  18  60
BRANCH  14  65
ATOM     65  C   UNK d   0      -7.504  -2.507  18.832  0.00  0.00     0.052 C 
BRANCH  65  66
ATOM     66  C   UNK d   0      -8.723  -1.735  19.192  0.00  0.00     0.115 C 
BRANCH  66  67
ATOM     67  C   UNK d   0      -9.130  -0.626  18.376  0.00  0.00     0.139 C 
ATOM     68  O   UNK d   0      -9.375  -0.837  17.131  0.00  0.00    -0.650 OA
BRANCH  67  69
ATOM     69  O   UNK d   0      -9.302   0.702  18.765  0.00  0.00    -0.776 OA
ATOM     70  H   UNK d   0      -8.437   1.228  18.957  0.00  0.00     0.167 HD
ENDBRANCH  67  69
ENDBRANCH  66  67
ENDBRANCH  65  66
ENDBRANCH  14  65
ENDBRANCH   6   7
ENDBRANCH   5   6
ENDBRANCH   2   5
TORSDOF 28
ENDMDL
MODEL 7
REMARK VINA RESULT:      -9.0      1.507     10.824
REMARK  28 active torsions:
REMARK  status: ('A' for Active; 'I' for Inactive)
REMARK    1  A    between atoms: C_2  and  O_3 
REMARK    2  A    between atoms: C_2  and  C_4 
REMARK    3  A    between atoms: C_4  and  C_5 
REMARK    4  A    between atoms: C_5  and  C_6 
REMARK    5  A    between atoms: C_7  and  C_8 
REMARK    6  A    between atoms: C_8  and  C_9 
REMARK    7  A    between atoms: C_9  and  O_11 
REMARK    8  A    between atoms: C_28  and  C_29 
REMARK    9  A    between atoms: C_29  and  C_30 
REMARK   10  A    between atoms: C_30  and  O_32 
REMARK   11  A    between atoms: C_33  and  C_34 
REMARK   12  A    between atoms: C_34  and  C_35 
REMARK   13  A    between atoms: C_35  and  C_36 
REMARK   14  A    between atoms: C_36  and  O_38 
REMARK   15  A    between atoms: C_39  and  C_40 
REMARK   16  A    between atoms: C_40  and  C_41 
REMARK   17  A    between atoms: C_41  and  C_42 
REMARK   18  A    between atoms: C_42  and  O_44 
REMARK   19  A    between atoms: C_45  and  C_46 
REMARK   20  A    between atoms: C_46  and  C_47 
REMARK   21  A    between atoms: C_47  and  O_49 
REMARK   22  A    between atoms: C_50  and  C_51 
REMARK   23  A    between atoms: C_51  and  C_52 
REMARK   24  A    between atoms: C_52  and  O_54 
REMARK   25  A    between atoms: C_55  and  C_56 
REMARK   26  A    between atoms: C_56  and  C_57 
REMARK   27  A    between atoms: C_57  and  C_58 
REMARK   28  A    between atoms: C_58  and  O_60 
ROOT
ATOM      1  O   UNK d   0      -4.389 -12.498  23.625  0.00  0.00    -0.650 OA
ATOM      2  C   UNK d   0      -3.685 -11.879  22.796  0.00  0.00     0.139 C 
ENDROOT
BRANCH   2   3
ATOM      3  O   UNK d   0      -2.708 -12.554  22.106  0.00  0.00    -0.776 OA
ATOM      4  H   UNK d   0      -2.493 -12.322  21.133  0.00  0.00     0.167 HD
ENDBRANCH   2   3
BRANCH   2   5
ATOM      5  C   UNK d   0      -3.908 -10.423  22.565  0.00  0.00     0.115 C 
BRANCH   5   6
ATOM      6  C   UNK d   0      -3.275 -10.003  21.266  0.00  0.00     0.052 C 
BRANCH   6   7
ATOM      7  C   UNK d   0      -4.295  -9.662  20.206  0.00  0.00    -0.020 A 
ATOM      8  C   UNK d   0      -4.572 -10.337  19.120  0.00  0.00    -0.011 A 
ATOM      9  C   UNK d   0      -5.614  -9.619  18.404  0.00  0.00     0.067 A 
ATOM     10  C   UNK d   0      -6.347  -9.810  17.223  0.00  0.00     0.062 C 
ATOM     11  N   UNK d   0      -5.907  -8.515  19.124  0.00  0.00    -0.248 NA
ATOM     12  C   UNK d   0      -7.515  -9.146  16.834  0.00  0.00     0.041 A 
ATOM     13  N   UNK d   0      -7.862  -7.846  16.904  0.00  0.00    -0.355 N 
ATOM     14  C   UNK d   0      -8.586  -9.898  16.319  0.00  0.00    -0.022 A 
ATOM     15  C   UNK d   0      -9.128  -7.757  16.454  0.00  0.00     0.042 A 
ATOM     16  H   UNK d   0      -7.218  -7.007  17.246  0.00  0.00     0.166 HD
ATOM     17  C   UNK d   0      -9.970  -6.635  16.314  0.00  0.00     0.062 C 
ATOM     18  C   UNK d   0      -9.616  -9.023  16.078  0.00  0.00    -0.013 A 
ATOM     19  C   UNK d   0     -10.191  -5.607  17.195  0.00  0.00     0.067 A 
ATOM     20  N   UNK d   0      -9.371  -5.525  18.246  0.00  0.00    -0.248 NA
ATOM     21  C   UNK d   0     -11.146  -4.519  17.311  0.00  0.00    -0.011 A 
ATOM     22  C   UNK d   0      -9.722  -4.462  19.042  0.00  0.00     0.066 A 
ATOM     23  C   UNK d   0      -8.926  -4.236  20.155  0.00  0.00     0.062 C 
ATOM     24  C   UNK d   0     -10.869  -3.855  18.397  0.00  0.00    -0.020 A 
ATOM     25  C   UNK d   0      -7.748  -4.907  20.521  0.00  0.00     0.041 A 
ATOM     26  N   UNK d   0      -7.409  -6.200  20.465  0.00  0.00    -0.355 N 
ATOM     27  C   UNK d   0      -6.672  -4.150  21.034  0.00  0.00    -0.022 A 
ATOM     28  C   UNK d   0      -6.150  -6.294  20.922  0.00  0.00     0.042 A 
ATOM     29  H   UNK d   0      -8.062  -7.044  20.131  0.00  0.00     0.166 HD
ATOM     30  C   UNK d   0      -5.304  -7.403  21.075  0.00  0.00     0.062 C 
ATOM     31  C   UNK d   0      -5.657  -5.019  21.289  0.00  0.00    -0.013 A 
ATOM     32  C   UNK d   0      -5.148  -8.483  20.221  0.00  0.00     0.066 A 
BRANCH   8  33
ATOM     33  C   UNK d   0      -3.949 -11.598  18.678  0.00  0.00     0.151 C 
BRANCH  33  34
ATOM     34  C   UNK d   0      -4.766 -12.782  19.000  0.00  0.00     0.143 C 
ATOM     35  O   UNK d   0      -5.824 -13.009  18.396  0.00  0.00    -0.650 OA
BRANCH  34  36
ATOM     36  O   UNK d   0      -4.347 -13.643  19.988  0.00  0.00    -0.776 OA
ATOM     37  H   UNK d   0      -3.496 -14.212  19.875  0.00  0.00     0.167 HD
ENDBRANCH  34  36
ENDBRANCH  33  34
ENDBRANCH   8  33
BRANCH  31  38
ATOM     38  C   UNK d   0      -4.295  -4.663  21.837  0.00  0.00     0.151 C 
BRANCH  38  39
ATOM     39  C   UNK d   0      -4.200  -4.847  23.269  0.00  0.00     0.143 C 
ATOM     40  O   UNK d   0      -3.109  -4.978  23.852  0.00  0.00    -0.650 OA
BRANCH  39  41
ATOM     41  O   UNK d   0      -5.364  -4.879  24.036  0.00  0.00    -0.776 OA
ATOM     42  H   UNK d   0      -6.246  -5.005  23.530  0.00  0.00     0.167 HD
ENDBRANCH  39  41
ENDBRANCH  38  39
ENDBRANCH  31  38
BRANCH  27  43
ATOM     43  C   UNK d   0      -6.579  -2.666  21.286  0.00  0.00     0.052 C 
BRANCH  43  44
ATOM     44  C   UNK d   0      -6.970  -2.276  22.674  0.00  0.00     0.115 C 
BRANCH  44  45
ATOM     45  C   UNK d   0      -5.853  -1.459  23.216  0.00  0.00     0.139 C 
ATOM     46  O   UNK d   0      -5.565  -0.387  22.629  0.00  0.00    -0.650 OA
BRANCH  45  47
ATOM     47  O   UNK d   0      -5.132  -1.826  24.332  0.00  0.00    -0.776 OA
ATOM     48  H   UNK d   0      -4.102  -1.774  24.375  0.00  0.00     0.167 HD
ENDBRANCH  45  47
ENDBRANCH  44  45
ENDBRANCH  43  44
ENDBRANCH  27  43
BRANCH  24  49
ATOM     49  C   UNK d   0     -11.565  -2.649  18.879  0.00  0.00     0.052 C 
BRANCH  49  50
ATOM     50  C   UNK d   0     -10.903  -1.409  18.336  0.00  0.00     0.115 C 
BRANCH  50  51
ATOM     51  C   UNK d   0      -9.560  -1.557  17.790  0.00  0.00     0.139 C 
ATOM     52  O   UNK d   0      -9.346  -1.922  16.610  0.00  0.00    -0.650 OA
BRANCH  51  53
ATOM     53  O   UNK d   0      -8.460  -1.290  18.591  0.00  0.00    -0.776 OA
ATOM     54  H   UNK d   0      -7.546  -1.351  18.179  0.00  0.00     0.167 HD
ENDBRANCH  51  53
ENDBRANCH  50  51
ENDBRANCH  49  50
ENDBRANCH  24  49
BRANCH  21  55
ATOM     55  C   UNK d   0     -12.234  -4.253  16.324  0.00  0.00     0.151 C 
BRANCH  55  56
ATOM     56  C   UNK d   0     -13.472  -4.973  16.660  0.00  0.00     0.143 C 
ATOM     57  O   UNK d   0     -14.404  -4.450  17.302  0.00  0.00    -0.650 OA
BRANCH  56  58
ATOM     58  O   UNK d   0     -13.590  -6.294  16.233  0.00  0.00    -0.776 OA
ATOM     59  H   UNK d   0     -12.828  -6.622  15.613  0.00  0.00     0.167 HD
ENDBRANCH  56  58
ENDBRANCH  55  56
ENDBRANCH  21  55
BRANCH  18  60
ATOM     60  C   UNK d   0     -10.967  -9.407  15.527  0.00  0.00     0.151 C 
BRANCH  60  61
ATOM     61  C   UNK d   0     -11.662 -10.110  16.616  0.00  0.00     0.143 C 
ATOM     62  O   UNK d   0     -11.735  -9.764  17.796  0.00  0.00    -0.650 OA
BRANCH  61  63
ATOM     63  O   UNK d   0     -12.310 -11.311  16.241  0.00  0.00    -0.776 OA
ATOM     64  H   UNK d   0     -11.933 -12.206  16.499  0.00  0.00     0.167 HD
ENDBRANCH  61  63
ENDBRANCH  60  61
ENDBRANCH  18  60
BRANCH  14  65
ATOM     65  C   UNK d   0      -8.675 -11.352  15.948  0.00  0.00     0.052 C 
BRANCH  65  66
ATOM     66  C   UNK d   0      -7.956 -11.675  14.686  0.00  0.00     0.115 C 
BRANCH  66  67
ATOM     67  C   UNK d   0      -8.640 -12.378  13.638  0.00  0.00     0.139 C 
ATOM     68  O   UNK d   0      -8.213 -13.544  13.301  0.00  0.00    -0.650 OA
BRANCH  67  69
ATOM     69  O   UNK d   0      -9.747 -11.952  12.905  0.00  0.00    -0.776 OA
ATOM     70  H   UNK d   0     -10.354 -12.697  12.536  0.00  0.00     0.167 HD
ENDBRANCH  67  69
ENDBRANCH  66  67
ENDBRANCH  65  66
ENDBRANCH  14  65
ENDBRANCH   6   7
ENDBRANCH   5   6
ENDBRANCH   2   5
TORSDOF 28
ENDMDL
MODEL 8
REMARK VINA RESULT:      -8.9      1.524      7.810
REMARK  28 active torsions:
REMARK  status: ('A' for Active; 'I' for Inactive)
REMARK    1  A    between atoms: C_2  and  O_3 
REMARK    2  A    between atoms: C_2  and  C_4 
REMARK    3  A    between atoms: C_4  and  C_5 
REMARK    4  A    between atoms: C_5  and  C_6 
REMARK    5  A    between atoms: C_7  and  C_8 
REMARK    6  A    between atoms: C_8  and  C_9 
REMARK    7  A    between atoms: C_9  and  O_11 
REMARK    8  A    between atoms: C_28  and  C_29 
REMARK    9  A    between atoms: C_29  and  C_30 
REMARK   10  A    between atoms: C_30  and  O_32 
REMARK   11  A    between atoms: C_33  and  C_34 
REMARK   12  A    between atoms: C_34  and  C_35 
REMARK   13  A    between atoms: C_35  and  C_36 
REMARK   14  A    between atoms: C_36  and  O_38 
REMARK   15  A    between atoms: C_39  and  C_40 
REMARK   16  A    between atoms: C_40  and  C_41 
REMARK   17  A    between atoms: C_41  and  C_42 
REMARK   18  A    between atoms: C_42  and  O_44 
REMARK   19  A    between atoms: C_45  and  C_46 
REMARK   20  A    between atoms: C_46  and  C_47 
REMARK   21  A    between atoms: C_47  and  O_49 
REMARK   22  A    between atoms: C_50  and  C_51 
REMARK   23  A    between atoms: C_51  and  C_52 
REMARK   24  A    between atoms: C_52  and  O_54 
REMARK   25  A    between atoms: C_55  and  C_56 
REMARK   26  A    between atoms: C_56  and  C_57 
REMARK   27  A    between atoms: C_57  and  C_58 
REMARK   28  A    between atoms: C_58  and  O_60 
ROOT
ATOM      1  O   UNK d   0      -2.143  -5.725  24.033  0.00  0.00    -0.650 OA
ATOM      2  C   UNK d   0      -2.435  -6.466  23.069  0.00  0.00     0.139 C 
ENDROOT
BRANCH   2   3
ATOM      3  O   UNK d   0      -2.255  -7.824  23.184  0.00  0.00    -0.776 OA
ATOM      4  H   UNK d   0      -1.628  -8.328  22.554  0.00  0.00     0.167 HD
ENDBRANCH   2   3
BRANCH   2   5
ATOM      5  C   UNK d   0      -2.970  -5.878  21.808  0.00  0.00     0.115 C 
BRANCH   5   6
ATOM      6  C   UNK d   0      -4.018  -4.845  22.123  0.00  0.00     0.052 C 
BRANCH   6   7
ATOM      7  C   UNK d   0      -5.324  -5.106  21.413  0.00  0.00    -0.020 A 
ATOM      8  C   UNK d   0      -6.432  -4.416  21.501  0.00  0.00    -0.011 A 
ATOM      9  C   UNK d   0      -7.420  -5.050  20.644  0.00  0.00     0.067 A 
ATOM     10  C   UNK d   0      -8.755  -4.805  20.284  0.00  0.00     0.062 C 
ATOM     11  N   UNK d   0      -6.829  -6.122  20.076  0.00  0.00    -0.248 NA
ATOM     12  C   UNK d   0      -9.463  -5.373  19.220  0.00  0.00     0.041 A 
ATOM     13  N   UNK d   0      -9.514  -6.639  18.764  0.00  0.00    -0.355 N 
ATOM     14  C   UNK d   0     -10.240  -4.538  18.397  0.00  0.00    -0.022 A 
ATOM     15  C   UNK d   0     -10.298  -6.627  17.669  0.00  0.00     0.042 A 
ATOM     16  H   UNK d   0      -9.023  -7.527  19.219  0.00  0.00     0.166 HD
ATOM     17  C   UNK d   0     -10.685  -7.676  16.811  0.00  0.00     0.062 C 
ATOM     18  C   UNK d   0     -10.771  -5.327  17.407  0.00  0.00    -0.013 A 
ATOM     19  C   UNK d   0      -9.918  -8.678  16.274  0.00  0.00     0.067 A 
ATOM     20  N   UNK d   0      -8.683  -8.823  16.762  0.00  0.00    -0.248 NA
ATOM     21  C   UNK d   0     -10.089  -9.685  15.239  0.00  0.00    -0.011 A 
ATOM     22  C   UNK d   0      -8.034  -9.849  16.120  0.00  0.00     0.066 A 
ATOM     23  C   UNK d   0      -6.748 -10.134  16.557  0.00  0.00     0.062 C 
ATOM     24  C   UNK d   0      -8.982 -10.364  15.151  0.00  0.00    -0.020 A 
ATOM     25  C   UNK d   0      -6.060  -9.560  17.637  0.00  0.00     0.041 A 
ATOM     26  N   UNK d   0      -5.997  -8.299  18.081  0.00  0.00    -0.355 N 
ATOM     27  C   UNK d   0      -5.283 -10.400  18.465  0.00  0.00    -0.022 A 
ATOM     28  C   UNK d   0      -5.209  -8.307  19.168  0.00  0.00     0.042 A 
ATOM     29  H   UNK d   0      -6.483  -7.406  17.616  0.00  0.00     0.166 HD
ATOM     30  C   UNK d   0      -4.808  -7.270  20.025  0.00  0.00     0.062 C 
ATOM     31  C   UNK d   0      -4.742  -9.616  19.436  0.00  0.00    -0.013 A 
ATOM     32  C   UNK d   0      -5.567  -6.211  20.497  0.00  0.00     0.066 A 
BRANCH   8  33
ATOM     33  C   UNK d   0      -6.663  -3.212  22.321  0.00  0.00     0.151 C 
BRANCH  33  34
ATOM     34  C   UNK d   0      -6.371  -1.963  21.596  0.00  0.00     0.143 C 
ATOM     35  O   UNK d   0      -6.102  -0.919  22.208  0.00  0.00    -0.650 OA
BRANCH  34  36
ATOM     36  O   UNK d   0      -6.398  -1.959  20.220  0.00  0.00    -0.776 OA
ATOM     37  H   UNK d   0      -7.282  -1.852  19.704  0.00  0.00     0.167 HD
ENDBRANCH  34  36
ENDBRANCH  33  34
ENDBRANCH   8  33
BRANCH  31  38
ATOM     38  C   UNK d   0      -3.847 -10.080  20.561  0.00  0.00     0.151 C 
BRANCH  38  39
ATOM     39  C   UNK d   0      -4.559 -10.261  21.808  0.00  0.00     0.143 C 
ATOM     40  O   UNK d   0      -5.755 -10.598  21.848  0.00  0.00    -0.650 OA
BRANCH  39  41
ATOM     41  O   UNK d   0      -3.892 -10.054  23.015  0.00  0.00    -0.776 OA
ATOM     42  H   UNK d   0      -3.321 -10.830  23.366  0.00  0.00     0.167 HD
ENDBRANCH  39  41
ENDBRANCH  38  39
ENDBRANCH  31  38
BRANCH  27  43
ATOM     43  C   UNK d   0      -5.042 -11.886  18.366  0.00  0.00     0.052 C 
BRANCH  43  44
ATOM     44  C   UNK d   0      -6.152 -12.704  18.941  0.00  0.00     0.115 C 
BRANCH  44  45
ATOM     45  C   UNK d   0      -5.610 -13.359  20.160  0.00  0.00     0.139 C 
ATOM     46  O   UNK d   0      -4.383 -13.626  20.192  0.00  0.00    -0.650 OA
BRANCH  45  47
ATOM     47  O   UNK d   0      -6.393 -13.675  21.249  0.00  0.00    -0.776 OA
ATOM     48  H   UNK d   0      -5.997 -13.951  22.162  0.00  0.00     0.167 HD
ENDBRANCH  45  47
ENDBRANCH  44  45
ENDBRANCH  43  44
ENDBRANCH  27  43
BRANCH  24  49
ATOM     49  C   UNK d   0      -8.732 -11.506  14.255  0.00  0.00     0.052 C 
BRANCH  49  50
ATOM     50  C   UNK d   0      -8.941 -12.805  14.990  0.00  0.00     0.115 C 
BRANCH  50  51
ATOM     51  C   UNK d   0      -7.829 -13.745  15.009  0.00  0.00     0.139 C 
ATOM     52  O   UNK d   0      -7.981 -14.968  15.239  0.00  0.00    -0.650 OA
BRANCH  51  53
ATOM     53  O   UNK d   0      -6.542 -13.290  14.767  0.00  0.00    -0.776 OA
ATOM     54  H   UNK d   0      -6.003 -13.745  14.052  0.00  0.00     0.167 HD
ENDBRANCH  51  53
ENDBRANCH  50  51
ENDBRANCH  49  50
ENDBRANCH  24  49
BRANCH  21  55
ATOM     55  C   UNK d   0     -11.343  -9.865  14.450  0.00  0.00     0.151 C 
BRANCH  55  56
ATOM     56  C   UNK d   0     -12.282 -10.785  15.110  0.00  0.00     0.143 C 
ATOM     57  O   UNK d   0     -13.231 -11.327  14.509  0.00  0.00    -0.650 OA
BRANCH  56  58
ATOM     58  O   UNK d   0     -12.088 -11.050  16.464  0.00  0.00    -0.776 OA
ATOM     59  H   UNK d   0     -11.097 -11.087  16.764  0.00  0.00     0.167 HD
ENDBRANCH  56  58
ENDBRANCH  55  56
ENDBRANCH  21  55
BRANCH  18  60
ATOM     60  C   UNK d   0     -11.667  -4.836  16.297  0.00  0.00     0.151 C 
BRANCH  60  61
ATOM     61  C   UNK d   0     -13.044  -5.078  16.752  0.00  0.00     0.143 C 
ATOM     62  O   UNK d   0     -13.397  -5.540  17.838  0.00  0.00    -0.650 OA
BRANCH  61  63
ATOM     63  O   UNK d   0     -14.055  -4.734  15.822  0.00  0.00    -0.776 OA
ATOM     64  H   UNK d   0     -13.902  -4.022  15.130  0.00  0.00     0.167 HD
ENDBRANCH  61  63
ENDBRANCH  60  61
ENDBRANCH  18  60
BRANCH  14  65
ATOM     65  C   UNK d   0     -10.595  -3.084  18.531  0.00  0.00     0.052 C 
BRANCH  65  66
ATOM     66  C   UNK d   0      -9.643  -2.186  17.824  0.00  0.00     0.115 C 
BRANCH  66  67
ATOM     67  C   UNK d   0      -9.473  -0.833  18.274  0.00  0.00     0.139 C 
ATOM     68  O   UNK d   0     -10.518  -0.096  18.411  0.00  0.00    -0.650 OA
BRANCH  67  69
ATOM     69  O   UNK d   0      -8.282  -0.184  18.595  0.00  0.00    -0.776 OA
ATOM     70  H   UNK d   0      -7.452  -0.788  18.681  0.00  0.00     0.167 HD
ENDBRANCH  67  69
ENDBRANCH  66  67
ENDBRANCH  65  66
ENDBRANCH  14  65
ENDBRANCH   6   7
ENDBRANCH   5   6
ENDBRANCH   2   5
TORSDOF 28
ENDMDL
MODEL 9
REMARK VINA RESULT:      -8.9      1.624      8.000
REMARK  28 active torsions:
REMARK  status: ('A' for Active; 'I' for Inactive)
REMARK    1  A    between atoms: C_2  and  O_3 
REMARK    2  A    between atoms: C_2  and  C_4 
REMARK    3  A    between atoms: C_4  and  C_5 
REMARK    4  A    between atoms: C_5  and  C_6 
REMARK    5  A    between atoms: C_7  and  C_8 
REMARK    6  A    between atoms: C_8  and  C_9 
REMARK    7  A    between atoms: C_9  and  O_11 
REMARK    8  A    between atoms: C_28  and  C_29 
REMARK    9  A    between atoms: C_29  and  C_30 
REMARK   10  A    between atoms: C_30  and  O_32 
REMARK   11  A    between atoms: C_33  and  C_34 
REMARK   12  A    between atoms: C_34  and  C_35 
REMARK   13  A    between atoms: C_35  and  C_36 
REMARK   14  A    between atoms: C_36  and  O_38 
REMARK   15  A    between atoms: C_39  and  C_40 
REMARK   16  A    between atoms: C_40  and  C_41 
REMARK   17  A    between atoms: C_41  and  C_42 
REMARK   18  A    between atoms: C_42  and  O_44 
REMARK   19  A    between atoms: C_45  and  C_46 
REMARK   20  A    between atoms: C_46  and  C_47 
REMARK   21  A    between atoms: C_47  and  O_49 
REMARK   22  A    between atoms: C_50  and  C_51 
REMARK   23  A    between atoms: C_51  and  C_52 
REMARK   24  A    between atoms: C_52  and  O_54 
REMARK   25  A    between atoms: C_55  and  C_56 
REMARK   26  A    between atoms: C_56  and  C_57 
REMARK   27  A    between atoms: C_57  and  C_58 
REMARK   28  A    between atoms: C_58  and  O_60 
ROOT
ATOM      1  O   UNK d   0      -5.877  -1.382  23.672  0.00  0.00    -0.650 OA
ATOM      2  C   UNK d   0      -5.382  -1.457  22.525  0.00  0.00     0.139 C 
ENDROOT
BRANCH   2   3
ATOM      3  O   UNK d   0      -4.047  -1.184  22.349  0.00  0.00    -0.776 OA
ATOM      4  H   UNK d   0      -3.482  -1.718  21.686  0.00  0.00     0.167 HD
ENDBRANCH   2   3
BRANCH   2   5
ATOM      5  C   UNK d   0      -6.236  -1.839  21.365  0.00  0.00     0.115 C 
BRANCH   5   6
ATOM      6  C   UNK d   0      -7.161  -2.961  21.751  0.00  0.00     0.052 C 
BRANCH   6   7
ATOM      7  C   UNK d   0      -6.917  -4.217  20.949  0.00  0.00    -0.020 A 
ATOM      8  C   UNK d   0      -5.829  -4.943  20.914  0.00  0.00    -0.011 A 
ATOM      9  C   UNK d   0      -6.059  -6.047  19.996  0.00  0.00     0.067 A 
ATOM     10  C   UNK d   0      -5.329  -7.156  19.542  0.00  0.00     0.062 C 
ATOM     11  N   UNK d   0      -7.312  -5.911  19.513  0.00  0.00    -0.248 NA
ATOM     12  C   UNK d   0      -5.822  -8.275  18.862  0.00  0.00     0.041 A 
ATOM     13  N   UNK d   0      -6.711  -8.380  17.857  0.00  0.00    -0.355 N 
ATOM     14  C   UNK d   0      -5.410  -9.556  19.271  0.00  0.00    -0.022 A 
ATOM     15  C   UNK d   0      -6.880  -9.695  17.622  0.00  0.00     0.042 A 
ATOM     16  H   UNK d   0      -7.195  -7.540  17.310  0.00  0.00     0.166 HD
ATOM     17  C   UNK d   0      -7.693 -10.358  16.682  0.00  0.00     0.062 C 
ATOM     18  C   UNK d   0      -6.080 -10.464  18.490  0.00  0.00    -0.013 A 
ATOM     19  C   UNK d   0      -9.000 -10.112  16.346  0.00  0.00     0.067 A 
ATOM     20  N   UNK d   0      -9.541  -8.982  16.809  0.00  0.00    -0.248 NA
ATOM     21  C   UNK d   0     -10.030 -10.799  15.584  0.00  0.00    -0.011 A 
ATOM     22  C   UNK d   0     -10.850  -8.881  16.406  0.00  0.00     0.066 A 
ATOM     23  C   UNK d   0     -11.525  -7.731  16.788  0.00  0.00     0.062 C 
ATOM     24  C   UNK d   0     -11.111 -10.075  15.627  0.00  0.00    -0.020 A 
ATOM     25  C   UNK d   0     -11.008  -6.613  17.460  0.00  0.00     0.041 A 
ATOM     26  N   UNK d   0     -10.135  -6.509  18.469  0.00  0.00    -0.355 N 
ATOM     27  C   UNK d   0     -11.419  -5.327  17.046  0.00  0.00    -0.022 A 
ATOM     28  C   UNK d   0      -9.972  -5.199  18.711  0.00  0.00     0.042 A 
ATOM     29  H   UNK d   0      -9.657  -7.353  19.025  0.00  0.00     0.166 HD
ATOM     30  C   UNK d   0      -9.174  -4.525  19.649  0.00  0.00     0.062 C 
ATOM     31  C   UNK d   0     -10.768  -4.426  17.832  0.00  0.00    -0.013 A 
ATOM     32  C   UNK d   0      -7.882  -4.830  20.048  0.00  0.00     0.066 A 
BRANCH   8  33
ATOM     33  C   UNK d   0      -4.579  -4.702  21.659  0.00  0.00     0.151 C 
BRANCH  33  34
ATOM     34  C   UNK d   0      -4.541  -5.407  22.952  0.00  0.00     0.143 C 
ATOM     35  O   UNK d   0      -5.156  -4.969  23.935  0.00  0.00    -0.650 OA
BRANCH  34  36
ATOM     36  O   UNK d   0      -3.810  -6.567  23.067  0.00  0.00    -0.776 OA
ATOM     37  H   UNK d   0      -3.607  -6.982  23.987  0.00  0.00     0.167 HD
ENDBRANCH  34  36
ENDBRANCH  33  34
ENDBRANCH   8  33
BRANCH  31  38
ATOM     38  C   UNK d   0     -10.882  -2.922  17.747  0.00  0.00     0.151 C 
BRANCH  38  39
ATOM     39  C   UNK d   0      -9.741  -2.308  17.102  0.00  0.00     0.143 C 
ATOM     40  O   UNK d   0      -9.103  -1.377  17.624  0.00  0.00    -0.650 OA
BRANCH  39  41
ATOM     41  O   UNK d   0      -9.331  -2.767  15.850  0.00  0.00    -0.776 OA
ATOM     42  H   UNK d   0     -10.064  -2.918  15.151  0.00  0.00     0.167 HD
ENDBRANCH  39  41
ENDBRANCH  38  39
ENDBRANCH  31  38
BRANCH  27  43
ATOM     43  C   UNK d   0     -12.387  -4.934  15.958  0.00  0.00     0.052 C 
BRANCH  43  44
ATOM     44  C   UNK d   0     -13.632  -4.292  16.479  0.00  0.00     0.115 C 
BRANCH  44  45
ATOM     45  C   UNK d   0     -14.678  -5.348  16.496  0.00  0.00     0.139 C 
ATOM     46  O   UNK d   0     -15.584  -5.298  15.629  0.00  0.00    -0.650 OA
BRANCH  45  47
ATOM     47  O   UNK d   0     -14.688  -6.374  17.417  0.00  0.00    -0.776 OA
ATOM     48  H   UNK d   0     -14.163  -7.253  17.281  0.00  0.00     0.167 HD
ENDBRANCH  45  47
ENDBRANCH  44  45
ENDBRANCH  43  44
ENDBRANCH  27  43
BRANCH  24  49
ATOM     49  C   UNK d   0     -12.386 -10.379  14.956  0.00  0.00     0.052 C 
BRANCH  49  50
ATOM     50  C   UNK d   0     -12.533 -11.866  14.755  0.00  0.00     0.115 C 
BRANCH  50  51
ATOM     51  C   UNK d   0     -13.870 -12.371  14.478  0.00  0.00     0.139 C 
ATOM     52  O   UNK d   0     -14.339 -12.441  13.317  0.00  0.00    -0.650 OA
BRANCH  51  53
ATOM     53  O   UNK d   0     -14.675 -12.794  15.525  0.00  0.00    -0.776 OA
ATOM     54  H   UNK d   0     -14.527 -13.717  15.895  0.00  0.00     0.167 HD
ENDBRANCH  51  53
ENDBRANCH  50  51
ENDBRANCH  49  50
ENDBRANCH  24  49
BRANCH  21  55
ATOM     55  C   UNK d   0      -9.824 -12.104  14.889  0.00  0.00     0.151 C 
BRANCH  55  56
ATOM     56  C   UNK d   0      -9.029 -11.955  13.660  0.00  0.00     0.143 C 
ATOM     57  O   UNK d   0      -9.539 -11.691  12.554  0.00  0.00    -0.650 OA
BRANCH  56  58
ATOM     58  O   UNK d   0      -7.648 -12.121  13.757  0.00  0.00    -0.776 OA
ATOM     59  H   UNK d   0      -7.247 -12.822  13.108  0.00  0.00     0.167 HD
ENDBRANCH  56  58
ENDBRANCH  55  56
ENDBRANCH  21  55
BRANCH  18  60
ATOM     60  C   UNK d   0      -5.944 -11.963  18.595  0.00  0.00     0.151 C 
BRANCH  60  61
ATOM     61  C   UNK d   0      -6.870 -12.378  19.660  0.00  0.00     0.143 C 
ATOM     62  O   UNK d   0      -7.870 -11.776  20.051  0.00  0.00    -0.650 OA
BRANCH  61  63
ATOM     63  O   UNK d   0      -6.554 -13.608  20.287  0.00  0.00    -0.776 OA
ATOM     64  H   UNK d   0      -6.738 -13.754  21.263  0.00  0.00     0.167 HD
ENDBRANCH  61  63
ENDBRANCH  60  61
ENDBRANCH  18  60
BRANCH  14  65
ATOM     65  C   UNK d   0      -4.367  -9.980  20.266  0.00  0.00     0.052 C 
BRANCH  65  66
ATOM     66  C   UNK d   0      -4.863  -9.968  21.669  0.00  0.00     0.115 C 
BRANCH  66  67
ATOM     67  C   UNK d   0      -4.885 -11.187  22.426  0.00  0.00     0.139 C 
ATOM     68  O   UNK d   0      -3.776 -11.636  22.899  0.00  0.00    -0.650 OA
BRANCH  67  69
ATOM     69  O   UNK d   0      -5.989 -11.983  22.731  0.00  0.00    -0.776 OA
ATOM     70  H   UNK d   0      -6.857 -11.477  22.956  0.00  0.00     0.167 HD
ENDBRANCH  67  69
ENDBRANCH  66  67
ENDBRANCH  65  66
ENDBRANCH  14  65
ENDBRANCH   6   7
ENDBRANCH   5   6
ENDBRANCH   2   5
TORSDOF 28
ENDMDL
MODEL 10
REMARK VINA RESULT:      -8.9      2.234      8.288
REMARK  28 active torsions:
REMARK  status: ('A' for Active; 'I' for Inactive)
REMARK    1  A    between atoms: C_2  and  O_3 
REMARK    2  A    between atoms: C_2  and  C_4 
REMARK    3  A    between atoms: C_4  and  C_5 
REMARK    4  A    between atoms: C_5  and  C_6 
REMARK    5  A    between atoms: C_7  and  C_8 
REMARK    6  A    between atoms: C_8  and  C_9 
REMARK    7  A    between atoms: C_9  and  O_11 
REMARK    8  A    between atoms: C_28  and  C_29 
REMARK    9  A    between atoms: C_29  and  C_30 
REMARK   10  A    between atoms: C_30  and  O_32 
REMARK   11  A    between atoms: C_33  and  C_34 
REMARK   12  A    between atoms: C_34  and  C_35 
REMARK   13  A    between atoms: C_35  and  C_36 
REMARK   14  A    between atoms: C_36  and  O_38 
REMARK   15  A    between atoms: C_39  and  C_40 
REMARK   16  A    between atoms: C_40  and  C_41 
REMARK   17  A    between atoms: C_41  and  C_42 
REMARK   18  A    between atoms: C_42  and  O_44 
REMARK   19  A    between atoms: C_45  and  C_46 
REMARK   20  A    between atoms: C_46  and  C_47 
REMARK   21  A    between atoms: C_47  and  O_49 
REMARK   22  A    between atoms: C_50  and  C_51 
REMARK   23  A    between atoms: C_51  and  C_52 
REMARK   24  A    between atoms: C_52  and  O_54 
REMARK   25  A    between atoms: C_55  and  C_56 
REMARK   26  A    between atoms: C_56  and  C_57 
REMARK   27  A    between atoms: C_57  and  C_58 
REMARK   28  A    between atoms: C_58  and  O_60 
ROOT
ATOM      1  O   UNK d   0      -7.368 -12.873  18.784  0.00  0.00    -0.650 OA
ATOM      2  C   UNK d   0      -6.590 -13.034  19.750  0.00  0.00     0.139 C 
ENDROOT
BRANCH   2   3
ATOM      3  O   UNK d   0      -7.050 -12.826  21.028  0.00  0.00    -0.776 OA
ATOM      4  H   UNK d   0      -7.030 -11.896  21.452  0.00  0.00     0.167 HD
ENDBRANCH   2   3
BRANCH   2   5
ATOM      5  C   UNK d   0      -5.177 -13.445  19.512  0.00  0.00     0.115 C 
BRANCH   5   6
ATOM      6  C   UNK d   0      -4.425 -12.338  18.824  0.00  0.00     0.052 C 
BRANCH   6   7
ATOM      7  C   UNK d   0      -4.345 -11.083  19.659  0.00  0.00    -0.020 A 
ATOM      8  C   UNK d   0      -3.584 -10.864  20.700  0.00  0.00    -0.011 A 
ATOM      9  C   UNK d   0      -3.859  -9.519  21.178  0.00  0.00     0.067 A 
ATOM     10  C   UNK d   0      -3.383  -8.692  22.208  0.00  0.00     0.062 C 
ATOM     11  N   UNK d   0      -4.805  -8.993  20.371  0.00  0.00    -0.248 NA
ATOM     12  C   UNK d   0      -3.572  -7.313  22.343  0.00  0.00     0.041 A 
ATOM     13  N   UNK d   0      -4.662  -6.545  22.155  0.00  0.00    -0.355 N 
ATOM     14  C   UNK d   0      -2.471  -6.505  22.678  0.00  0.00    -0.022 A 
ATOM     15  C   UNK d   0      -4.279  -5.269  22.355  0.00  0.00     0.042 A 
ATOM     16  H   UNK d   0      -5.687  -6.898  21.906  0.00  0.00     0.166 HD
ATOM     17  C   UNK d   0      -5.019  -4.072  22.288  0.00  0.00     0.062 C 
ATOM     18  C   UNK d   0      -2.911  -5.205  22.684  0.00  0.00    -0.013 A 
ATOM     19  C   UNK d   0      -5.925  -3.670  21.341  0.00  0.00     0.067 A 
ATOM     20  N   UNK d   0      -6.327  -4.590  20.460  0.00  0.00    -0.248 NA
ATOM     21  C   UNK d   0      -6.602  -2.429  21.002  0.00  0.00    -0.011 A 
ATOM     22  C   UNK d   0      -7.216  -4.040  19.569  0.00  0.00     0.066 A 
ATOM     23  C   UNK d   0      -7.746  -4.899  18.617  0.00  0.00     0.062 C 
ATOM     24  C   UNK d   0      -7.353  -2.651  19.962  0.00  0.00    -0.020 A 
ATOM     25  C   UNK d   0      -7.553  -6.284  18.506  0.00  0.00     0.041 A 
ATOM     26  N   UNK d   0      -6.466  -7.046  18.678  0.00  0.00    -0.355 N 
ATOM     27  C   UNK d   0      -8.660  -7.095  18.174  0.00  0.00    -0.022 A 
ATOM     28  C   UNK d   0      -6.844  -8.318  18.470  0.00  0.00     0.042 A 
ATOM     29  H   UNK d   0      -5.435  -6.688  18.918  0.00  0.00     0.166 HD
ATOM     30  C   UNK d   0      -6.117  -9.517  18.525  0.00  0.00     0.062 C 
ATOM     31  C   UNK d   0      -8.221  -8.383  18.150  0.00  0.00    -0.013 A 
ATOM     32  C   UNK d   0      -5.140  -9.884  19.436  0.00  0.00     0.066 A 
BRANCH   8  33
ATOM     33  C   UNK d   0      -2.618 -11.800  21.303  0.00  0.00     0.151 C 
BRANCH  33  34
ATOM     34  C   UNK d   0      -2.797 -11.947  22.759  0.00  0.00     0.143 C 
ATOM     35  O   UNK d   0      -3.840 -12.427  23.226  0.00  0.00    -0.650 OA
BRANCH  34  36
ATOM     36  O   UNK d   0      -1.792 -11.544  23.607  0.00  0.00    -0.776 OA
ATOM     37  H   UNK d   0      -0.885 -11.219  23.245  0.00  0.00     0.167 HD
ENDBRANCH  34  36
ENDBRANCH  33  34
ENDBRANCH   8  33
BRANCH  31  38
ATOM     38  C   UNK d   0      -9.058  -9.605  17.854  0.00  0.00     0.151 C 
BRANCH  38  39
ATOM     39  C   UNK d   0      -9.748 -10.110  19.022  0.00  0.00     0.143 C 
ATOM     40  O   UNK d   0     -10.988 -10.100  19.118  0.00  0.00    -0.650 OA
BRANCH  39  41
ATOM     41  O   UNK d   0      -9.009 -10.628  20.085  0.00  0.00    -0.776 OA
ATOM     42  H   UNK d   0      -8.173 -11.169  19.845  0.00  0.00     0.167 HD
ENDBRANCH  39  41
ENDBRANCH  38  39
ENDBRANCH  31  38
BRANCH  27  43
ATOM     43  C   UNK d   0     -10.086  -6.698  17.884  0.00  0.00     0.052 C 
BRANCH  43  44
ATOM     44  C   UNK d   0     -10.329  -6.376  16.445  0.00  0.00     0.115 C 
BRANCH  44  45
ATOM     45  C   UNK d   0     -11.769  -6.032  16.324  0.00  0.00     0.139 C 
ATOM     46  O   UNK d   0     -12.603  -6.760  16.917  0.00  0.00    -0.650 OA
BRANCH  45  47
ATOM     47  O   UNK d   0     -12.221  -4.951  15.598  0.00  0.00    -0.776 OA
ATOM     48  H   UNK d   0     -11.981  -4.803  14.605  0.00  0.00     0.167 HD
ENDBRANCH  45  47
ENDBRANCH  44  45
ENDBRANCH  43  44
ENDBRANCH  27  43
BRANCH  24  49
ATOM     49  C   UNK d   0      -8.242  -1.676  19.309  0.00  0.00     0.052 C 
BRANCH  49  50
ATOM     50  C   UNK d   0      -9.361  -2.385  18.591  0.00  0.00     0.115 C 
BRANCH  50  51
ATOM     51  C   UNK d   0      -9.598  -2.018  17.202  0.00  0.00     0.139 C 
ATOM     52  O   UNK d   0      -9.396  -0.860  16.764  0.00  0.00    -0.650 OA
BRANCH  51  53
ATOM     53  O   UNK d   0     -10.068  -2.970  16.310  0.00  0.00    -0.776 OA
ATOM     54  H   UNK d   0      -9.830  -2.871  15.339  0.00  0.00     0.167 HD
ENDBRANCH  51  53
ENDBRANCH  50  51
ENDBRANCH  49  50
ENDBRANCH  24  49
BRANCH  21  55
ATOM     55  C   UNK d   0      -6.430  -1.152  21.756  0.00  0.00     0.151 C 
BRANCH  55  56
ATOM     56  C   UNK d   0      -6.467  -1.362  23.212  0.00  0.00     0.143 C 
ATOM     57  O   UNK d   0      -5.502  -1.101  23.956  0.00  0.00    -0.650 OA
BRANCH  56  58
ATOM     58  O   UNK d   0      -7.640  -1.874  23.764  0.00  0.00    -0.776 OA
ATOM     59  H   UNK d   0      -7.500  -2.528  24.556  0.00  0.00     0.167 HD
ENDBRANCH  56  58
ENDBRANCH  55  56
ENDBRANCH  21  55
BRANCH  18  60
ATOM     60  C   UNK d   0      -2.052  -4.002  22.987  0.00  0.00     0.151 C 
BRANCH  60  61
ATOM     61  C   UNK d   0      -2.211  -3.744  24.426  0.00  0.00     0.143 C 
ATOM     62  O   UNK d   0      -3.256  -3.784  25.076  0.00  0.00    -0.650 OA
BRANCH  61  63
ATOM     63  O   UNK d   0      -1.018  -3.417  25.116  0.00  0.00    -0.776 OA
ATOM     64  H   UNK d   0      -1.004  -3.335  26.117  0.00  0.00     0.167 HD
ENDBRANCH  61  63
ENDBRANCH  60  61
ENDBRANCH  18  60
BRANCH  14  65
ATOM     65  C   UNK d   0      -1.072  -6.873  23.084  0.00  0.00     0.052 C 
BRANCH  65  66
ATOM     66  C   UNK d   0      -0.888  -6.918  24.560  0.00  0.00     0.115 C 
BRANCH  66  67
ATOM     67  C   UNK d   0      -0.382  -8.111  25.178  0.00  0.00     0.139 C 
ATOM     68  O   UNK d   0      -0.986  -9.223  24.950  0.00  0.00    -0.650 OA
BRANCH  67  69
ATOM     69  O   UNK d   0       0.718  -8.232  26.026  0.00  0.00    -0.776 OA
ATOM     70  H   UNK d   0       1.514  -7.613  25.819  0.00  0.00     0.167 HD
ENDBRANCH  67  69
ENDBRANCH  66  67
ENDBRANCH  65  66
ENDBRANCH  14  65
ENDBRANCH   6   7
ENDBRANCH   5   6
ENDBRANCH   2   5
TORSDOF 28
ENDMDL
MODEL 11
REMARK VINA RESULT:      -8.9      2.051      8.122
REMARK  28 active torsions:
REMARK  status: ('A' for Active; 'I' for Inactive)
REMARK    1  A    between atoms: C_2  and  O_3 
REMARK    2  A    between atoms: C_2  and  C_4 
REMARK    3  A    between atoms: C_4  and  C_5 
REMARK    4  A    between atoms: C_5  and  C_6 
REMARK    5  A    between atoms: C_7  and  C_8 
REMARK    6  A    between atoms: C_8  and  C_9 
REMARK    7  A    between atoms: C_9  and  O_11 
REMARK    8  A    between atoms: C_28  and  C_29 
REMARK    9  A    between atoms: C_29  and  C_30 
REMARK   10  A    between atoms: C_30  and  O_32 
REMARK   11  A    between atoms: C_33  and  C_34 
REMARK   12  A    between atoms: C_34  and  C_35 
REMARK   13  A    between atoms: C_35  and  C_36 
REMARK   14  A    between atoms: C_36  and  O_38 
REMARK   15  A    between atoms: C_39  and  C_40 
REMARK   16  A    between atoms: C_40  and  C_41 
REMARK   17  A    between atoms: C_41  and  C_42 
REMARK   18  A    between atoms: C_42  and  O_44 
REMARK   19  A    between atoms: C_45  and  C_46 
REMARK   20  A    between atoms: C_46  and  C_47 
REMARK   21  A    between atoms: C_47  and  O_49 
REMARK   22  A    between atoms: C_50  and  C_51 
REMARK   23  A    between atoms: C_51  and  C_52 
REMARK   24  A    between atoms: C_52  and  O_54 
REMARK   25  A    between atoms: C_55  and  C_56 
REMARK   26  A    between atoms: C_56  and  C_57 
REMARK   27  A    between atoms: C_57  and  C_58 
REMARK   28  A    between atoms: C_58  and  O_60 
ROOT
ATOM      1  O   UNK d   0      -9.921 -12.482  14.817  0.00  0.00    -0.650 OA
ATOM      2  C   UNK d   0      -8.671 -12.469  14.761  0.00  0.00     0.139 C 
ENDROOT
BRANCH   2   3
ATOM      3  O   UNK d   0      -8.037 -13.083  13.708  0.00  0.00    -0.776 OA
ATOM      4  H   UNK d   0      -7.518 -13.953  13.840  0.00  0.00     0.167 HD
ENDBRANCH   2   3
BRANCH   2   5
ATOM      5  C   UNK d   0      -7.881 -11.793  15.830  0.00  0.00     0.115 C 
BRANCH   5   6
ATOM      6  C   UNK d   0      -8.804 -11.211  16.865  0.00  0.00     0.052 C 
BRANCH   6   7
ATOM      7  C   UNK d   0      -8.608  -9.724  17.047  0.00  0.00    -0.020 A 
ATOM      8  C   UNK d   0      -9.113  -8.758  16.323  0.00  0.00    -0.011 A 
ATOM      9  C   UNK d   0      -8.641  -7.498  16.871  0.00  0.00     0.067 A 
ATOM     10  C   UNK d   0      -8.824  -6.136  16.583  0.00  0.00     0.062 C 
ATOM     11  N   UNK d   0      -7.848  -7.791  17.924  0.00  0.00    -0.248 NA
ATOM     12  C   UNK d   0      -8.504  -5.047  17.401  0.00  0.00     0.041 A 
ATOM     13  N   UNK d   0      -7.422  -4.797  18.163  0.00  0.00    -0.355 N 
ATOM     14  C   UNK d   0      -9.445  -4.012  17.553  0.00  0.00    -0.022 A 
ATOM     15  C   UNK d   0      -7.655  -3.634  18.800  0.00  0.00     0.042 A 
ATOM     16  H   UNK d   0      -6.504  -5.421  18.233  0.00  0.00     0.166 HD
ATOM     17  C   UNK d   0      -6.856  -2.917  19.712  0.00  0.00     0.062 C 
ATOM     18  C   UNK d   0      -8.914  -3.112  18.444  0.00  0.00    -0.013 A 
ATOM     19  C   UNK d   0      -6.142  -3.383  20.786  0.00  0.00     0.067 A 
ATOM     20  N   UNK d   0      -6.006  -4.708  20.893  0.00  0.00    -0.248 NA
ATOM     21  C   UNK d   0      -5.457  -2.790  21.923  0.00  0.00    -0.011 A 
ATOM     22  C   UNK d   0      -5.285  -5.023  22.018  0.00  0.00     0.066 A 
ATOM     23  C   UNK d   0      -5.036  -6.371  22.233  0.00  0.00     0.062 C 
ATOM     24  C   UNK d   0      -4.962  -3.755  22.642  0.00  0.00    -0.020 A 
ATOM     25  C   UNK d   0      -5.354  -7.449  21.392  0.00  0.00     0.041 A 
ATOM     26  N   UNK d   0      -6.436  -7.705  20.647  0.00  0.00    -0.355 N 
ATOM     27  C   UNK d   0      -4.408  -8.485  21.236  0.00  0.00    -0.022 A 
ATOM     28  C   UNK d   0      -6.210  -8.868  20.017  0.00  0.00     0.042 A 
ATOM     29  H   UNK d   0      -7.363  -7.083  20.585  0.00  0.00     0.166 HD
ATOM     30  C   UNK d   0      -7.000  -9.598  19.115  0.00  0.00     0.062 C 
ATOM     31  C   UNK d   0      -4.941  -9.387  20.367  0.00  0.00    -0.013 A 
ATOM     32  C   UNK d   0      -7.788  -9.114  18.083  0.00  0.00     0.066 A 
BRANCH   8  33
ATOM     33  C   UNK d   0     -10.001  -8.900  15.154  0.00  0.00     0.151 C 
BRANCH  33  34
ATOM     34  C   UNK d   0     -11.401  -9.168  15.529  0.00  0.00     0.143 C 
ATOM     35  O   UNK d   0     -11.985  -8.457  16.358  0.00  0.00    -0.650 OA
BRANCH  34  36
ATOM     36  O   UNK d   0     -12.064 -10.225  14.950  0.00  0.00    -0.776 OA
ATOM     37  H   UNK d   0     -13.068 -10.381  15.115  0.00  0.00     0.167 HD
ENDBRANCH  34  36
ENDBRANCH  33  34
ENDBRANCH   8  33
BRANCH  31  38
ATOM     38  C   UNK d   0      -4.282 -10.659  19.886  0.00  0.00     0.151 C 
BRANCH  38  39
ATOM     39  C   UNK d   0      -3.949 -10.621  18.478  0.00  0.00     0.143 C 
ATOM     40  O   UNK d   0      -3.561  -9.583  17.914  0.00  0.00    -0.650 OA
BRANCH  39  41
ATOM     41  O   UNK d   0      -4.062 -11.783  17.715  0.00  0.00    -0.776 OA
ATOM     42  H   UNK d   0      -3.220 -12.093  17.220  0.00  0.00     0.167 HD
ENDBRANCH  39  41
ENDBRANCH  38  39
ENDBRANCH  31  38
BRANCH  27  43
ATOM     43  C   UNK d   0      -3.049  -8.646  21.871  0.00  0.00     0.052 C 
BRANCH  43  44
ATOM     44  C   UNK d   0      -2.994  -9.748  22.878  0.00  0.00     0.115 C 
BRANCH  44  45
ATOM     45  C   UNK d   0      -1.668  -9.649  23.543  0.00  0.00     0.139 C 
ATOM     46  O   UNK d   0      -1.185 -10.688  24.056  0.00  0.00    -0.650 OA
BRANCH  45  47
ATOM     47  O   UNK d   0      -0.953  -8.473  23.612  0.00  0.00    -0.776 OA
ATOM     48  H   UNK d   0      -0.796  -7.964  24.497  0.00  0.00     0.167 HD
ENDBRANCH  45  47
ENDBRANCH  44  45
ENDBRANCH  43  44
ENDBRANCH  27  43
BRANCH  24  49
ATOM     49  C   UNK d   0      -4.157  -3.601  23.866  0.00  0.00     0.052 C 
BRANCH  49  50
ATOM     50  C   UNK d   0      -5.011  -3.077  24.992  0.00  0.00     0.115 C 
BRANCH  50  51
ATOM     51  C   UNK d   0      -6.304  -3.715  25.199  0.00  0.00     0.139 C 
ATOM     52  O   UNK d   0      -7.370  -3.252  24.727  0.00  0.00    -0.650 OA
BRANCH  51  53
ATOM     53  O   UNK d   0      -6.384  -4.880  25.946  0.00  0.00    -0.776 OA
ATOM     54  H   UNK d   0      -7.206  -5.450  25.852  0.00  0.00     0.167 HD
ENDBRANCH  51  53
ENDBRANCH  50  51
ENDBRANCH  49  50
ENDBRANCH  24  49
BRANCH  21  55
ATOM     55  C   UNK d   0      -5.367  -1.321  22.169  0.00  0.00     0.151 C 
BRANCH  55  56
ATOM     56  C   UNK d   0      -6.694  -0.689  22.234  0.00  0.00     0.143 C 
ATOM     57  O   UNK d   0      -7.136   0.047  21.331  0.00  0.00    -0.650 OA
BRANCH  56  58
ATOM     58  O   UNK d   0      -7.476  -0.937  23.361  0.00  0.00    -0.776 OA
ATOM     59  H   UNK d   0      -7.280  -1.835  23.839  0.00  0.00     0.167 HD
ENDBRANCH  56  58
ENDBRANCH  55  56
ENDBRANCH  21  55
BRANCH  18  60
ATOM     60  C   UNK d   0      -9.594  -1.847  18.904  0.00  0.00     0.151 C 
BRANCH  60  61
ATOM     61  C   UNK d   0      -9.105  -0.780  18.018  0.00  0.00     0.143 C 
ATOM     62  O   UNK d   0      -9.339  -0.647  16.817  0.00  0.00    -0.650 OA
BRANCH  61  63
ATOM     63  O   UNK d   0      -8.277   0.187  18.640  0.00  0.00    -0.776 OA
ATOM     64  H   UNK d   0      -8.535   0.602  19.517  0.00  0.00     0.167 HD
ENDBRANCH  61  63
ENDBRANCH  60  61
ENDBRANCH  18  60
BRANCH  14  65
ATOM     65  C   UNK d   0     -10.751  -3.762  16.854  0.00  0.00     0.052 C 
BRANCH  65  66
ATOM     66  C   UNK d   0     -11.930  -4.187  17.654  0.00  0.00     0.115 C 
BRANCH  66  67
ATOM     67  C   UNK d   0     -12.922  -5.040  17.062  0.00  0.00     0.139 C 
ATOM     68  O   UNK d   0     -14.062  -5.153  17.647  0.00  0.00    -0.650 OA
BRANCH  67  69
ATOM     69  O   UNK d   0     -12.813  -5.791  15.893  0.00  0.00    -0.776 OA
ATOM     70  H   UNK d   0     -13.605  -5.718  15.238  0.00  0.00     0.167 HD
ENDBRANCH  67  69
ENDBRANCH  66  67
ENDBRANCH  65  66
ENDBRANCH  14  65
ENDBRANCH   6   7
ENDBRANCH   5   6
ENDBRANCH   2   5
TORSDOF 28
ENDMDL
MODEL 12
REMARK VINA RESULT:      -8.8      1.578      7.461
REMARK  28 active torsions:
REMARK  status: ('A' for Active; 'I' for Inactive)
REMARK    1  A    between atoms: C_2  and  O_3 
REMARK    2  A    between atoms: C_2  and  C_4 
REMARK    3  A    between atoms: C_4  and  C_5 
REMARK    4  A    between atoms: C_5  and  C_6 
REMARK    5  A    between atoms: C_7  and  C_8 
REMARK    6  A    between atoms: C_8  and  C_9 
REMARK    7  A    between atoms: C_9  and  O_11 
REMARK    8  A    between atoms: C_28  and  C_29 
REMARK    9  A    between atoms: C_29  and  C_30 
REMARK   10  A    between atoms: C_30  and  O_32 
REMARK   11  A    between atoms: C_33  and  C_34 
REMARK   12  A    between atoms: C_34  and  C_35 
REMARK   13  A    between atoms: C_35  and  C_36 
REMARK   14  A    between atoms: C_36  and  O_38 
REMARK   15  A    between atoms: C_39  and  C_40 
REMARK   16  A    between atoms: C_40  and  C_41 
REMARK   17  A    between atoms: C_41  and  C_42 
REMARK   18  A    between atoms: C_42  and  O_44 
REMARK   19  A    between atoms: C_45  and  C_46 
REMARK   20  A    between atoms: C_46  and  C_47 
REMARK   21  A    between atoms: C_47  and  O_49 
REMARK   22  A    between atoms: C_50  and  C_51 
REMARK   23  A    between atoms: C_51  and  C_52 
REMARK   24  A    between atoms: C_52  and  O_54 
REMARK   25  A    between atoms: C_55  and  C_56 
REMARK   26  A    between atoms: C_56  and  C_57 
REMARK   27  A    between atoms: C_57  and  C_58 
REMARK   28  A    between atoms: C_58  and  O_60 
ROOT
ATOM      1  O   UNK d   0      -6.868  -0.463  21.529  0.00  0.00    -0.650 OA
ATOM      2  C   UNK d   0      -5.972  -0.475  22.402  0.00  0.00     0.139 C 
ENDROOT
BRANCH   2   3
ATOM      3  O   UNK d   0      -4.836   0.275  22.212  0.00  0.00    -0.776 OA
ATOM      4  H   UNK d   0      -3.928  -0.049  22.550  0.00  0.00     0.167 HD
ENDBRANCH   2   3
BRANCH   2   5
ATOM      5  C   UNK d   0      -6.139  -1.296  23.634  0.00  0.00     0.115 C 
BRANCH   5   6
ATOM      6  C   UNK d   0      -7.143  -2.391  23.395  0.00  0.00     0.052 C 
BRANCH   6   7
ATOM      7  C   UNK d   0      -6.598  -3.499  22.525  0.00  0.00    -0.020 A 
ATOM      8  C   UNK d   0      -5.416  -4.056  22.589  0.00  0.00    -0.011 A 
ATOM      9  C   UNK d   0      -5.343  -5.067  21.548  0.00  0.00     0.067 A 
ATOM     10  C   UNK d   0      -4.392  -6.002  21.109  0.00  0.00     0.062 C 
ATOM     11  N   UNK d   0      -6.523  -5.054  20.893  0.00  0.00    -0.248 NA
ATOM     12  C   UNK d   0      -4.607  -7.093  20.259  0.00  0.00     0.041 A 
ATOM     13  N   UNK d   0      -5.322  -7.205  19.124  0.00  0.00    -0.355 N 
ATOM     14  C   UNK d   0      -4.059  -8.342  20.604  0.00  0.00    -0.022 A 
ATOM     15  C   UNK d   0      -5.250  -8.495  18.744  0.00  0.00     0.042 A 
ATOM     16  H   UNK d   0      -5.852  -6.385  18.592  0.00  0.00     0.166 HD
ATOM     17  C   UNK d   0      -5.812  -9.152  17.632  0.00  0.00     0.062 C 
ATOM     18  C   UNK d   0      -4.467  -9.239  19.648  0.00  0.00    -0.013 A 
ATOM     19  C   UNK d   0      -7.083  -9.056  17.125  0.00  0.00     0.067 A 
ATOM     20  N   UNK d   0      -7.852  -8.075  17.604  0.00  0.00    -0.248 NA
ATOM     21  C   UNK d   0      -7.878  -9.788  16.154  0.00  0.00    -0.011 A 
ATOM     22  C   UNK d   0      -9.093  -8.113  17.017  0.00  0.00     0.066 A 
ATOM     23  C   UNK d   0      -9.986  -7.121  17.397  0.00  0.00     0.062 C 
ATOM     24  C   UNK d   0      -9.055  -9.233  16.098  0.00  0.00    -0.020 A 
ATOM     25  C   UNK d   0      -9.746  -6.027  18.243  0.00  0.00     0.041 A 
ATOM     26  N   UNK d   0      -9.048  -5.918  19.379  0.00  0.00    -0.355 N 
ATOM     27  C   UNK d   0     -10.293  -4.772  17.893  0.00  0.00    -0.022 A 
ATOM     28  C   UNK d   0      -9.126  -4.635  19.764  0.00  0.00     0.042 A 
ATOM     29  H   UNK d   0      -8.525  -6.746  19.919  0.00  0.00     0.166 HD
ATOM     30  C   UNK d   0      -8.579  -3.969  20.873  0.00  0.00     0.062 C 
ATOM     31  C   UNK d   0      -9.904  -3.886  18.850  0.00  0.00    -0.013 A 
ATOM     32  C   UNK d   0      -7.322  -4.133  21.434  0.00  0.00     0.066 A 
BRANCH   8  33
ATOM     33  C   UNK d   0      -4.333  -3.728  23.536  0.00  0.00     0.151 C 
BRANCH  33  34
ATOM     34  C   UNK d   0      -3.086  -3.329  22.860  0.00  0.00     0.143 C 
ATOM     35  O   UNK d   0      -2.092  -4.069  22.870  0.00  0.00    -0.650 OA
BRANCH  34  36
ATOM     36  O   UNK d   0      -3.027  -2.116  22.213  0.00  0.00    -0.776 OA
ATOM     37  H   UNK d   0      -3.506  -1.287  22.587  0.00  0.00     0.167 HD
ENDBRANCH  34  36
ENDBRANCH  33  34
ENDBRANCH   8  33
BRANCH  31  38
ATOM     38  C   UNK d   0     -10.239  -2.413  18.890  0.00  0.00     0.151 C 
BRANCH  38  39
ATOM     39  C   UNK d   0      -9.281  -1.600  18.173  0.00  0.00     0.143 C 
ATOM     40  O   UNK d   0      -9.492  -1.183  17.020  0.00  0.00    -0.650 OA
BRANCH  39  41
ATOM     41  O   UNK d   0      -8.073  -1.262  18.784  0.00  0.00    -0.776 OA
ATOM     42  H   UNK d   0      -7.878  -0.263  18.900  0.00  0.00     0.167 HD
ENDBRANCH  39  41
ENDBRANCH  38  39
ENDBRANCH  31  38
BRANCH  27  43
ATOM     43  C   UNK d   0     -11.151  -4.396  16.712  0.00  0.00     0.052 C 
BRANCH  43  44
ATOM     44  C   UNK d   0     -12.409  -5.197  16.617  0.00  0.00     0.115 C 
BRANCH  44  45
ATOM     45  C   UNK d   0     -13.532  -4.255  16.867  0.00  0.00     0.139 C 
ATOM     46  O   UNK d   0     -13.622  -3.730  18.004  0.00  0.00    -0.650 OA
BRANCH  45  47
ATOM     47  O   UNK d   0     -14.466  -3.935  15.906  0.00  0.00    -0.776 OA
ATOM     48  H   UNK d   0     -14.770  -4.599  15.176  0.00  0.00     0.167 HD
ENDBRANCH  45  47
ENDBRANCH  44  45
ENDBRANCH  43  44
ENDBRANCH  27  43
BRANCH  24  49
ATOM     49  C   UNK d   0     -10.163  -9.634  15.214  0.00  0.00     0.052 C 
BRANCH  49  50
ATOM     50  C   UNK d   0     -11.129 -10.523  15.954  0.00  0.00     0.115 C 
BRANCH  50  51
ATOM     51  C   UNK d   0     -11.584 -11.726  15.270  0.00  0.00     0.139 C 
ATOM     52  O   UNK d   0     -12.798 -12.015  15.145  0.00  0.00    -0.650 OA
BRANCH  51  53
ATOM     53  O   UNK d   0     -10.654 -12.602  14.730  0.00  0.00    -0.776 OA
ATOM     54  H   UNK d   0     -10.707 -13.571  14.991  0.00  0.00     0.167 HD
ENDBRANCH  51  53
ENDBRANCH  50  51
ENDBRANCH  49  50
ENDBRANCH  24  49
BRANCH  21  55
ATOM     55  C   UNK d   0      -7.378 -10.962  15.379  0.00  0.00     0.151 C 
BRANCH  55  56
ATOM     56  C   UNK d   0      -7.553 -12.223  16.115  0.00  0.00     0.143 C 
ATOM     57  O   UNK d   0      -7.469 -12.297  17.357  0.00  0.00    -0.650 OA
BRANCH  56  58
ATOM     58  O   UNK d   0      -7.823 -13.374  15.377  0.00  0.00    -0.776 OA
ATOM     59  H   UNK d   0      -7.002 -13.980  15.197  0.00  0.00     0.167 HD
ENDBRANCH  56  58
ENDBRANCH  55  56
ENDBRANCH  21  55
BRANCH  18  60
ATOM     60  C   UNK d   0      -4.113 -10.705  19.632  0.00  0.00     0.151 C 
BRANCH  60  61
ATOM     61  C   UNK d   0      -5.232 -11.397  20.291  0.00  0.00     0.143 C 
ATOM     62  O   UNK d   0      -6.366 -10.958  20.483  0.00  0.00    -0.650 OA
BRANCH  61  63
ATOM     63  O   UNK d   0      -4.948 -12.708  20.741  0.00  0.00    -0.776 OA
ATOM     64  H   UNK d   0      -5.102 -12.972  21.698  0.00  0.00     0.167 HD
ENDBRANCH  61  63
ENDBRANCH  60  61
ENDBRANCH  18  60
BRANCH  14  65
ATOM     65  C   UNK d   0      -3.110  -8.727  21.703  0.00  0.00     0.052 C 
BRANCH  65  66
ATOM     66  C   UNK d   0      -3.721  -9.640  22.706  0.00  0.00     0.115 C 
BRANCH  66  67
ATOM     67  C   UNK d   0      -2.953 -10.732  23.235  0.00  0.00     0.139 C 
ATOM     68  O   UNK d   0      -2.364 -10.577  24.367  0.00  0.00    -0.650 OA
BRANCH  67  69
ATOM     69  O   UNK d   0      -2.752 -11.989  22.665  0.00  0.00    -0.776 OA
ATOM     70  H   UNK d   0      -1.783 -12.338  22.681  0.00  0.00     0.167 HD
ENDBRANCH  67  69
ENDBRANCH  66  67
ENDBRANCH  65  66
ENDBRANCH  14  65
ENDBRANCH   6   7
ENDBRANCH   5   6
ENDBRANCH   2   5
TORSDOF 28
ENDMDL
MODEL 13
REMARK VINA RESULT:      -8.8      2.520      4.861
REMARK  28 active torsions:
REMARK  status: ('A' for Active; 'I' for Inactive)
REMARK    1  A    between atoms: C_2  and  O_3 
REMARK    2  A    between atoms: C_2  and  C_4 
REMARK    3  A    between atoms: C_4  and  C_5 
REMARK    4  A    between atoms: C_5  and  C_6 
REMARK    5  A    between atoms: C_7  and  C_8 
REMARK    6  A    between atoms: C_8  and  C_9 
REMARK    7  A    between atoms: C_9  and  O_11 
REMARK    8  A    between atoms: C_28  and  C_29 
REMARK    9  A    between atoms: C_29  and  C_30 
REMARK   10  A    between atoms: C_30  and  O_32 
REMARK   11  A    between atoms: C_33  and  C_34 
REMARK   12  A    between atoms: C_34  and  C_35 
REMARK   13  A    between atoms: C_35  and  C_36 
REMARK   14  A    between atoms: C_36  and  O_38 
REMARK   15  A    between atoms: C_39  and  C_40 
REMARK   16  A    between atoms: C_40  and  C_41 
REMARK   17  A    between atoms: C_41  and  C_42 
REMARK   18  A    between atoms: C_42  and  O_44 
REMARK   19  A    between atoms: C_45  and  C_46 
REMARK   20  A    between atoms: C_46  and  C_47 
REMARK   21  A    between atoms: C_47  and  O_49 
REMARK   22  A    between atoms: C_50  and  C_51 
REMARK   23  A    between atoms: C_51  and  C_52 
REMARK   24  A    between atoms: C_52  and  O_54 
REMARK   25  A    between atoms: C_55  and  C_56 
REMARK   26  A    between atoms: C_56  and  C_57 
REMARK   27  A    between atoms: C_57  and  C_58 
REMARK   28  A    between atoms: C_58  and  O_60 
ROOT
ATOM      1  O   UNK d   0      -9.825 -11.189  15.861  0.00  0.00    -0.650 OA
ATOM      2  C   UNK d   0     -10.315 -10.151  16.358  0.00  0.00     0.139 C 
ENDROOT
BRANCH   2   3
ATOM      3  O   UNK d   0     -11.532 -10.218  16.994  0.00  0.00    -0.776 OA
ATOM      4  H   UNK d   0     -12.282 -10.812  16.635  0.00  0.00     0.167 HD
ENDBRANCH   2   3
BRANCH   2   5
ATOM      5  C   UNK d   0      -9.585  -8.856  16.258  0.00  0.00     0.115 C 
BRANCH   5   6
ATOM      6  C   UNK d   0     -10.106  -7.886  17.284  0.00  0.00     0.052 C 
BRANCH   6   7
ATOM      7  C   UNK d   0      -9.004  -7.251  18.097  0.00  0.00    -0.020 A 
ATOM      8  C   UNK d   0      -8.863  -5.986  18.400  0.00  0.00    -0.011 A 
ATOM      9  C   UNK d   0      -7.650  -5.850  19.189  0.00  0.00     0.067 A 
ATOM     10  C   UNK d   0      -6.967  -4.800  19.822  0.00  0.00     0.062 C 
ATOM     11  N   UNK d   0      -7.112  -7.082  19.313  0.00  0.00    -0.248 NA
ATOM     12  C   UNK d   0      -5.951  -4.906  20.779  0.00  0.00     0.041 A 
ATOM     13  N   UNK d   0      -4.880  -5.719  20.848  0.00  0.00    -0.355 N 
ATOM     14  C   UNK d   0      -6.011  -4.096  21.927  0.00  0.00    -0.022 A 
ATOM     15  C   UNK d   0      -4.263  -5.451  22.015  0.00  0.00     0.042 A 
ATOM     16  H   UNK d   0      -4.555  -6.454  20.079  0.00  0.00     0.166 HD
ATOM     17  C   UNK d   0      -3.101  -6.009  22.583  0.00  0.00     0.062 C 
ATOM     18  C   UNK d   0      -4.944  -4.439  22.719  0.00  0.00    -0.013 A 
ATOM     19  C   UNK d   0      -2.730  -7.327  22.669  0.00  0.00     0.067 A 
ATOM     20  N   UNK d   0      -3.446  -8.204  21.961  0.00  0.00    -0.248 NA
ATOM     21  C   UNK d   0      -1.711  -8.081  23.380  0.00  0.00    -0.011 A 
ATOM     22  C   UNK d   0      -2.970  -9.477  22.158  0.00  0.00     0.066 A 
ATOM     23  C   UNK d   0      -3.602 -10.488  21.448  0.00  0.00     0.062 C 
ATOM     24  C   UNK d   0      -1.860  -9.339  23.080  0.00  0.00    -0.020 A 
ATOM     25  C   UNK d   0      -4.611 -10.359  20.482  0.00  0.00     0.041 A 
ATOM     26  N   UNK d   0      -5.684  -9.562  20.420  0.00  0.00    -0.355 N 
ATOM     27  C   UNK d   0      -4.548 -11.170  19.327  0.00  0.00    -0.022 A 
ATOM     28  C   UNK d   0      -6.306  -9.833  19.261  0.00  0.00     0.042 A 
ATOM     29  H   UNK d   0      -6.015  -8.831  21.198  0.00  0.00     0.166 HD
ATOM     30  C   UNK d   0      -7.468  -9.292  18.688  0.00  0.00     0.062 C 
ATOM     31  C   UNK d   0      -5.616 -10.843  18.549  0.00  0.00    -0.013 A 
ATOM     32  C   UNK d   0      -7.880  -7.969  18.678  0.00  0.00     0.066 A 
BRANCH   8  33
ATOM     33  C   UNK d   0      -9.758  -4.879  18.016  0.00  0.00     0.151 C 
BRANCH  33  34
ATOM     34  C   UNK d   0      -9.148  -3.966  17.033  0.00  0.00     0.143 C 
ATOM     35  O   UNK d   0      -8.622  -2.903  17.392  0.00  0.00    -0.650 OA
BRANCH  34  36
ATOM     36  O   UNK d   0      -9.165  -4.301  15.698  0.00  0.00    -0.776 OA
ATOM     37  H   UNK d   0      -9.915  -4.885  15.304  0.00  0.00     0.167 HD
ENDBRANCH  34  36
ENDBRANCH  33  34
ENDBRANCH   8  33
BRANCH  31  38
ATOM     38  C   UNK d   0      -5.956 -11.442  17.205  0.00  0.00     0.151 C 
BRANCH  38  39
ATOM     39  C   UNK d   0      -6.935 -12.505  17.295  0.00  0.00     0.143 C 
ATOM     40  O   UNK d   0      -7.346 -12.941  18.385  0.00  0.00    -0.650 OA
BRANCH  39  41
ATOM     41  O   UNK d   0      -7.446 -13.068  16.126  0.00  0.00    -0.776 OA
ATOM     42  H   UNK d   0      -8.461 -13.198  16.082  0.00  0.00     0.167 HD
ENDBRANCH  39  41
ENDBRANCH  38  39
ENDBRANCH  31  38
BRANCH  27  43
ATOM     43  C   UNK d   0      -3.534 -12.220  18.948  0.00  0.00     0.052 C 
BRANCH  43  44
ATOM     44  C   UNK d   0      -3.916 -13.596  19.386  0.00  0.00     0.115 C 
BRANCH  44  45
ATOM     45  C   UNK d   0      -2.664 -14.396  19.415  0.00  0.00     0.139 C 
ATOM     46  O   UNK d   0      -2.388 -15.099  18.411  0.00  0.00    -0.650 OA
BRANCH  45  47
ATOM     47  O   UNK d   0      -1.799 -14.392  20.488  0.00  0.00    -0.776 OA
ATOM     48  H   UNK d   0      -1.510 -15.254  20.977  0.00  0.00     0.167 HD
ENDBRANCH  45  47
ENDBRANCH  44  45
ENDBRANCH  43  44
ENDBRANCH  27  43
BRANCH  24  49
ATOM     49  C   UNK d   0      -1.014 -10.450  23.550  0.00  0.00     0.052 C 
BRANCH  49  50
ATOM     50  C   UNK d   0      -1.768 -11.300  24.540  0.00  0.00     0.115 C 
BRANCH  50  51
ATOM     51  C   UNK d   0      -1.357 -11.218  25.935  0.00  0.00     0.139 C 
ATOM     52  O   UNK d   0      -2.178 -11.215  26.883  0.00  0.00    -0.650 OA
BRANCH  51  53
ATOM     53  O   UNK d   0      -0.009 -11.136  26.250  0.00  0.00    -0.776 OA
ATOM     54  H   UNK d   0       0.282 -11.417  27.170  0.00  0.00     0.167 HD
ENDBRANCH  51  53
ENDBRANCH  50  51
ENDBRANCH  49  50
ENDBRANCH  24  49
BRANCH  21  55
ATOM     55  C   UNK d   0      -0.693  -7.466  24.281  0.00  0.00     0.151 C 
BRANCH  55  56
ATOM     56  C   UNK d   0       0.415  -6.859  23.529  0.00  0.00     0.143 C 
ATOM     57  O   UNK d   0       1.306  -7.535  22.976  0.00  0.00    -0.650 OA
BRANCH  56  58
ATOM     58  O   UNK d   0       0.455  -5.469  23.439  0.00  0.00    -0.776 OA
ATOM     59  H   UNK d   0       0.913  -4.993  24.238  0.00  0.00     0.167 HD
ENDBRANCH  56  58
ENDBRANCH  55  56
ENDBRANCH  21  55
BRANCH  18  60
ATOM     60  C   UNK d   0      -4.627  -3.820  24.058  0.00  0.00     0.151 C 
BRANCH  60  61
ATOM     61  C   UNK d   0      -3.360  -3.094  23.878  0.00  0.00     0.143 C 
ATOM     62  O   UNK d   0      -2.355  -3.169  24.585  0.00  0.00    -0.650 OA
BRANCH  61  63
ATOM     63  O   UNK d   0      -3.318  -2.223  22.763  0.00  0.00    -0.776 OA
ATOM     64  H   UNK d   0      -2.820  -1.352  22.804  0.00  0.00     0.167 HD
ENDBRANCH  61  63
ENDBRANCH  60  61
ENDBRANCH  18  60
BRANCH  14  65
ATOM     65  C   UNK d   0      -6.935  -2.966  22.283  0.00  0.00     0.052 C 
BRANCH  65  66
ATOM     66  C   UNK d   0      -6.829  -1.812  21.350  0.00  0.00     0.115 C 
BRANCH  66  67
ATOM     67  C   UNK d   0      -6.377  -0.540  21.839  0.00  0.00     0.139 C 
ATOM     68  O   UNK d   0      -5.637  -0.514  22.890  0.00  0.00    -0.650 OA
BRANCH  67  69
ATOM     69  O   UNK d   0      -6.643   0.722  21.308  0.00  0.00    -0.776 OA
ATOM     70  H   UNK d   0      -5.820   1.316  21.133  0.00  0.00     0.167 HD
ENDBRANCH  67  69
ENDBRANCH  66  67
ENDBRANCH  65  66
ENDBRANCH  14  65
ENDBRANCH   6   7
ENDBRANCH   5   6
ENDBRANCH   2   5
TORSDOF 28
ENDMDL
MODEL 14
REMARK VINA RESULT:      -8.8      2.557     11.049
REMARK  28 active torsions:
REMARK  status: ('A' for Active; 'I' for Inactive)
REMARK    1  A    between atoms: C_2  and  O_3 
REMARK    2  A    between atoms: C_2  and  C_4 
REMARK    3  A    between atoms: C_4  and  C_5 
REMARK    4  A    between atoms: C_5  and  C_6 
REMARK    5  A    between atoms: C_7  and  C_8 
REMARK    6  A    between atoms: C_8  and  C_9 
REMARK    7  A    between atoms: C_9  and  O_11 
REMARK    8  A    between atoms: C_28  and  C_29 
REMARK    9  A    between atoms: C_29  and  C_30 
REMARK   10  A    between atoms: C_30  and  O_32 
REMARK   11  A    between atoms: C_33  and  C_34 
REMARK   12  A    between atoms: C_34  and  C_35 
REMARK   13  A    between atoms: C_35  and  C_36 
REMARK   14  A    between atoms: C_36  and  O_38 
REMARK   15  A    between atoms: C_39  and  C_40 
REMARK   16  A    between atoms: C_40  and  C_41 
REMARK   17  A    between atoms: C_41  and  C_42 
REMARK   18  A    between atoms: C_42  and  O_44 
REMARK   19  A    between atoms: C_45  and  C_46 
REMARK   20  A    between atoms: C_46  and  C_47 
REMARK   21  A    between atoms: C_47  and  O_49 
REMARK   22  A    between atoms: C_50  and  C_51 
REMARK   23  A    between atoms: C_51  and  C_52 
REMARK   24  A    between atoms: C_52  and  O_54 
REMARK   25  A    between atoms: C_55  and  C_56 
REMARK   26  A    between atoms: C_56  and  C_57 
REMARK   27  A    between atoms: C_57  and  C_58 
REMARK   28  A    between atoms: C_58  and  O_60 
ROOT
ATOM      1  O   UNK d   0       1.055 -10.256  23.444  0.00  0.00    -0.650 OA
ATOM      2  C   UNK d   0       0.122 -10.959  22.997  0.00  0.00     0.139 C 
ENDROOT
BRANCH   2   3
ATOM      3  O   UNK d   0       0.417 -12.095  22.282  0.00  0.00    -0.776 OA
ATOM      4  H   UNK d   0       1.002 -12.832  22.681  0.00  0.00     0.167 HD
ENDBRANCH   2   3
BRANCH   2   5
ATOM      5  C   UNK d   0      -1.295 -10.563  23.238  0.00  0.00     0.115 C 
BRANCH   5   6
ATOM      6  C   UNK d   0      -2.221 -11.667  22.808  0.00  0.00     0.052 C 
BRANCH   6   7
ATOM      7  C   UNK d   0      -3.065 -11.286  21.615  0.00  0.00    -0.020 A 
ATOM      8  C   UNK d   0      -3.297 -11.998  20.541  0.00  0.00    -0.011 A 
ATOM      9  C   UNK d   0      -4.155 -11.216  19.666  0.00  0.00     0.067 A 
ATOM     10  C   UNK d   0      -4.766 -11.403  18.417  0.00  0.00     0.062 C 
ATOM     11  N   UNK d   0      -4.391 -10.039  20.284  0.00  0.00    -0.248 NA
ATOM     12  C   UNK d   0      -5.793 -10.638  17.853  0.00  0.00     0.041 A 
ATOM     13  N   UNK d   0      -5.984  -9.306  17.809  0.00  0.00    -0.355 N 
ATOM     14  C   UNK d   0      -6.882 -11.297  17.254  0.00  0.00    -0.022 A 
ATOM     15  C   UNK d   0      -7.170  -9.103  17.205  0.00  0.00     0.042 A 
ATOM     16  H   UNK d   0      -5.286  -8.524  18.180  0.00  0.00     0.166 HD
ATOM     17  C   UNK d   0      -7.848  -7.905  16.902  0.00  0.00     0.062 C 
ATOM     18  C   UNK d   0      -7.763 -10.328  16.843  0.00  0.00    -0.013 A 
ATOM     19  C   UNK d   0      -8.040  -6.800  17.692  0.00  0.00     0.067 A 
ATOM     20  N   UNK d   0      -7.341  -6.739  18.828  0.00  0.00    -0.248 NA
ATOM     21  C   UNK d   0      -8.863  -5.603  17.631  0.00  0.00    -0.011 A 
ATOM     22  C   UNK d   0      -7.648  -5.591  19.516  0.00  0.00     0.066 A 
ATOM     23  C   UNK d   0      -6.963  -5.381  20.703  0.00  0.00     0.062 C 
ATOM     24  C   UNK d   0      -8.632  -4.902  18.703  0.00  0.00    -0.020 A 
ATOM     25  C   UNK d   0      -5.925  -6.156  21.246  0.00  0.00     0.041 A 
ATOM     26  N   UNK d   0      -5.743  -7.480  21.303  0.00  0.00    -0.355 N 
ATOM     27  C   UNK d   0      -4.830  -5.493  21.843  0.00  0.00    -0.022 A 
ATOM     28  C   UNK d   0      -4.564  -7.686  21.913  0.00  0.00     0.042 A 
ATOM     29  H   UNK d   0      -6.450  -8.265  20.939  0.00  0.00     0.166 HD
ATOM     30  C   UNK d   0      -3.883  -8.872  22.228  0.00  0.00     0.062 C 
ATOM     31  C   UNK d   0      -3.964  -6.454  22.267  0.00  0.00    -0.013 A 
ATOM     32  C   UNK d   0      -3.763 -10.019  21.460  0.00  0.00     0.066 A 
BRANCH   8  33
ATOM     33  C   UNK d   0      -2.786 -13.350  20.248  0.00  0.00     0.151 C 
BRANCH  33  34
ATOM     34  C   UNK d   0      -1.534 -13.330  19.471  0.00  0.00     0.143 C 
ATOM     35  O   UNK d   0      -0.437 -13.481  20.028  0.00  0.00    -0.650 OA
BRANCH  34  36
ATOM     36  O   UNK d   0      -1.587 -13.141  18.109  0.00  0.00    -0.776 OA
ATOM     37  H   UNK d   0      -1.952 -13.871  17.482  0.00  0.00     0.167 HD
ENDBRANCH  34  36
ENDBRANCH  33  34
ENDBRANCH   8  33
BRANCH  31  38
ATOM     38  C   UNK d   0      -2.640  -6.219  22.955  0.00  0.00     0.151 C 
BRANCH  38  39
ATOM     39  C   UNK d   0      -1.736  -5.404  22.171  0.00  0.00     0.143 C 
ATOM     40  O   UNK d   0      -1.149  -4.417  22.646  0.00  0.00    -0.650 OA
BRANCH  39  41
ATOM     41  O   UNK d   0      -1.506  -5.727  20.834  0.00  0.00    -0.776 OA
ATOM     42  H   UNK d   0      -1.100  -6.649  20.645  0.00  0.00     0.167 HD
ENDBRANCH  39  41
ENDBRANCH  38  39
ENDBRANCH  31  38
BRANCH  27  43
ATOM     43  C   UNK d   0      -4.585  -4.016  22.022  0.00  0.00     0.052 C 
BRANCH  43  44
ATOM     44  C   UNK d   0      -5.569  -3.360  22.935  0.00  0.00     0.115 C 
BRANCH  44  45
ATOM     45  C   UNK d   0      -5.309  -3.899  24.296  0.00  0.00     0.139 C 
ATOM     46  O   UNK d   0      -4.195  -3.660  24.824  0.00  0.00    -0.650 OA
BRANCH  45  47
ATOM     47  O   UNK d   0      -6.237  -4.640  24.996  0.00  0.00    -0.776 OA
ATOM     48  H   UNK d   0      -6.021  -5.560  25.413  0.00  0.00     0.167 HD
ENDBRANCH  45  47
ENDBRANCH  44  45
ENDBRANCH  43  44
ENDBRANCH  27  43
BRANCH  24  49
ATOM     49  C   UNK d   0      -9.226  -3.594  19.030  0.00  0.00     0.052 C 
BRANCH  49  50
ATOM     50  C   UNK d   0     -10.125  -3.713  20.234  0.00  0.00     0.115 C 
BRANCH  50  51
ATOM     51  C   UNK d   0     -11.542  -3.437  20.035  0.00  0.00     0.139 C 
ATOM     52  O   UNK d   0     -12.055  -3.321  18.897  0.00  0.00    -0.650 OA
BRANCH  51  53
ATOM     53  O   UNK d   0     -12.373  -3.289  21.135  0.00  0.00    -0.776 OA
ATOM     54  H   UNK d   0     -12.310  -2.440  21.668  0.00  0.00     0.167 HD
ENDBRANCH  51  53
ENDBRANCH  50  51
ENDBRANCH  49  50
ENDBRANCH  24  49
BRANCH  21  55
ATOM     55  C   UNK d   0      -9.790  -5.283  16.506  0.00  0.00     0.151 C 
BRANCH  55  56
ATOM     56  C   UNK d   0     -10.998  -6.123  16.531  0.00  0.00     0.143 C 
ATOM     57  O   UNK d   0     -11.162  -7.092  15.764  0.00  0.00    -0.650 OA
BRANCH  56  58
ATOM     58  O   UNK d   0     -11.989  -5.806  17.458  0.00  0.00    -0.776 OA
ATOM     59  H   UNK d   0     -12.957  -6.012  17.149  0.00  0.00     0.167 HD
ENDBRANCH  56  58
ENDBRANCH  55  56
ENDBRANCH  21  55
BRANCH  18  60
ATOM     60  C   UNK d   0      -9.079 -10.592  16.154  0.00  0.00     0.151 C 
BRANCH  60  61
ATOM     61  C   UNK d   0     -10.123 -10.259  17.136  0.00  0.00     0.143 C 
ATOM     62  O   UNK d   0     -10.022 -10.281  18.363  0.00  0.00    -0.650 OA
BRANCH  61  63
ATOM     63  O   UNK d   0     -11.368  -9.873  16.584  0.00  0.00    -0.776 OA
ATOM     64  H   UNK d   0     -11.513  -8.944  16.229  0.00  0.00     0.167 HD
ENDBRANCH  61  63
ENDBRANCH  60  61
ENDBRANCH  18  60
BRANCH  14  65
ATOM     65  C   UNK d   0      -7.105 -12.752  16.956  0.00  0.00     0.052 C 
BRANCH  65  66
ATOM     66  C   UNK d   0      -6.716 -13.129  15.570  0.00  0.00     0.115 C 
BRANCH  66  67
ATOM     67  C   UNK d   0      -7.697 -13.689  14.684  0.00  0.00     0.139 C 
ATOM     68  O   UNK d   0      -8.246 -14.807  15.003  0.00  0.00    -0.650 OA
BRANCH  67  69
ATOM     69  O   UNK d   0      -8.152 -13.165  13.474  0.00  0.00    -0.776 OA
ATOM     70  H   UNK d   0      -8.246 -12.140  13.437  0.00  0.00     0.167 HD
ENDBRANCH  67  69
ENDBRANCH  66  67
ENDBRANCH  65  66
ENDBRANCH  14  65
ENDBRANCH   6   7
ENDBRANCH   5   6
ENDBRANCH   2   5
TORSDOF 28
ENDMDL
MODEL 15
REMARK VINA RESULT:      -8.8      1.884      4.828
REMARK  28 active torsions:
REMARK  status: ('A' for Active; 'I' for Inactive)
REMARK    1  A    between atoms: C_2  and  O_3 
REMARK    2  A    between atoms: C_2  and  C_4 
REMARK    3  A    between atoms: C_4  and  C_5 
REMARK    4  A    between atoms: C_5  and  C_6 
REMARK    5  A    between atoms: C_7  and  C_8 
REMARK    6  A    between atoms: C_8  and  C_9 
REMARK    7  A    between atoms: C_9  and  O_11 
REMARK    8  A    between atoms: C_28  and  C_29 
REMARK    9  A    between atoms: C_29  and  C_30 
REMARK   10  A    between atoms: C_30  and  O_32 
REMARK   11  A    between atoms: C_33  and  C_34 
REMARK   12  A    between atoms: C_34  and  C_35 
REMARK   13  A    between atoms: C_35  and  C_36 
REMARK   14  A    between atoms: C_36  and  O_38 
REMARK   15  A    between atoms: C_39  and  C_40 
REMARK   16  A    between atoms: C_40  and  C_41 
REMARK   17  A    between atoms: C_41  and  C_42 
REMARK   18  A    between atoms: C_42  and  O_44 
REMARK   19  A    between atoms: C_45  and  C_46 
REMARK   20  A    between atoms: C_46  and  C_47 
REMARK   21  A    between atoms: C_47  and  O_49 
REMARK   22  A    between atoms: C_50  and  C_51 
REMARK   23  A    between atoms: C_51  and  C_52 
REMARK   24  A    between atoms: C_52  and  O_54 
REMARK   25  A    between atoms: C_55  and  C_56 
REMARK   26  A    between atoms: C_56  and  C_57 
REMARK   27  A    between atoms: C_57  and  C_58 
REMARK   28  A    between atoms: C_58  and  O_60 
ROOT
ATOM      1  O   UNK d   0     -10.695 -12.477  14.869  0.00  0.00    -0.650 OA
ATOM      2  C   UNK d   0     -11.443 -11.479  14.966  0.00  0.00     0.139 C 
ENDROOT
BRANCH   2   3
ATOM      3  O   UNK d   0     -12.784 -11.662  15.201  0.00  0.00    -0.776 OA
ATOM      4  H   UNK d   0     -13.112 -12.381  15.849  0.00  0.00     0.167 HD
ENDBRANCH   2   3
BRANCH   2   5
ATOM      5  C   UNK d   0     -10.880 -10.106  14.825  0.00  0.00     0.115 C 
BRANCH   5   6
ATOM      6  C   UNK d   0     -11.500  -9.185  15.840  0.00  0.00     0.052 C 
BRANCH   6   7
ATOM      7  C   UNK d   0     -10.475  -8.358  16.577  0.00  0.00    -0.020 A 
ATOM      8  C   UNK d   0     -10.412  -7.053  16.660  0.00  0.00    -0.011 A 
ATOM      9  C   UNK d   0      -9.252  -6.714  17.466  0.00  0.00     0.067 A 
ATOM     10  C   UNK d   0      -8.655  -5.534  17.936  0.00  0.00     0.062 C 
ATOM     11  N   UNK d   0      -8.662  -7.873  17.828  0.00  0.00    -0.248 NA
ATOM     12  C   UNK d   0      -7.689  -5.415  18.941  0.00  0.00     0.041 A 
ATOM     13  N   UNK d   0      -6.584  -6.141  19.199  0.00  0.00    -0.355 N 
ATOM     14  C   UNK d   0      -7.849  -4.423  19.926  0.00  0.00    -0.022 A 
ATOM     15  C   UNK d   0      -6.045  -5.641  20.327  0.00  0.00     0.042 A 
ATOM     16  H   UNK d   0      -6.184  -6.978  18.586  0.00  0.00     0.166 HD
ATOM     17  C   UNK d   0      -4.889  -6.026  21.035  0.00  0.00     0.062 C 
ATOM     18  C   UNK d   0      -6.811  -4.563  20.812  0.00  0.00    -0.013 A 
ATOM     19  C   UNK d   0      -4.460  -7.286  21.367  0.00  0.00     0.067 A 
ATOM     20  N   UNK d   0      -5.094  -8.311  20.792  0.00  0.00    -0.248 NA
ATOM     21  C   UNK d   0      -3.446  -7.847  22.244  0.00  0.00    -0.011 A 
ATOM     22  C   UNK d   0      -4.568  -9.502  21.230  0.00  0.00     0.066 A 
ATOM     23  C   UNK d   0      -5.110 -10.654  20.680  0.00  0.00     0.062 C 
ATOM     24  C   UNK d   0      -3.517  -9.144  22.162  0.00  0.00    -0.020 A 
ATOM     25  C   UNK d   0      -6.072 -10.752  19.663  0.00  0.00     0.041 A 
ATOM     26  N   UNK d   0      -7.177 -10.040  19.414  0.00  0.00    -0.355 N 
ATOM     27  C   UNK d   0      -5.907 -11.745  18.672  0.00  0.00    -0.022 A 
ATOM     28  C   UNK d   0      -7.722 -10.542  18.295  0.00  0.00     0.042 A 
ATOM     29  H   UNK d   0      -7.585  -9.206  20.037  0.00  0.00     0.166 HD
ATOM     30  C   UNK d   0      -8.876 -10.175  17.585  0.00  0.00     0.062 C 
ATOM     31  C   UNK d   0      -6.946 -11.618  17.802  0.00  0.00    -0.013 A 
ATOM     32  C   UNK d   0      -9.351  -8.899  17.325  0.00  0.00     0.066 A 
BRANCH   8  33
ATOM     33  C   UNK d   0     -11.338  -6.082  16.049  0.00  0.00     0.151 C 
BRANCH  33  34
ATOM     34  C   UNK d   0     -12.208  -5.421  17.039  0.00  0.00     0.143 C 
ATOM     35  O   UNK d   0     -13.129  -6.040  17.591  0.00  0.00    -0.650 OA
BRANCH  34  36
ATOM     36  O   UNK d   0     -11.991  -4.099  17.352  0.00  0.00    -0.776 OA
ATOM     37  H   UNK d   0     -12.775  -3.448  17.492  0.00  0.00     0.167 HD
ENDBRANCH  34  36
ENDBRANCH  33  34
ENDBRANCH   8  33
BRANCH  31  38
ATOM     38  C   UNK d   0      -7.184 -12.459  16.569  0.00  0.00     0.151 C 
BRANCH  38  39
ATOM     39  C   UNK d   0      -6.846 -11.767  15.344  0.00  0.00     0.143 C 
ATOM     40  O   UNK d   0      -7.631 -11.694  14.382  0.00  0.00    -0.650 OA
BRANCH  39  41
ATOM     41  O   UNK d   0      -5.599 -11.153  15.224  0.00  0.00    -0.776 OA
ATOM     42  H   UNK d   0      -4.778 -11.765  15.266  0.00  0.00     0.167 HD
ENDBRANCH  39  41
ENDBRANCH  38  39
ENDBRANCH  31  38
BRANCH  27  43
ATOM     43  C   UNK d   0      -4.824 -12.785  18.528  0.00  0.00     0.052 C 
BRANCH  43  44
ATOM     44  C   UNK d   0      -3.447 -12.206  18.522  0.00  0.00     0.115 C 
BRANCH  44  45
ATOM     45  C   UNK d   0      -2.504 -13.354  18.574  0.00  0.00     0.139 C 
ATOM     46  O   UNK d   0      -1.335 -13.180  18.149  0.00  0.00    -0.650 OA
BRANCH  45  47
ATOM     47  O   UNK d   0      -2.858 -14.589  19.073  0.00  0.00    -0.776 OA
ATOM     48  H   UNK d   0      -3.579 -14.714  19.802  0.00  0.00     0.167 HD
ENDBRANCH  45  47
ENDBRANCH  44  45
ENDBRANCH  43  44
ENDBRANCH  27  43
BRANCH  24  49
ATOM     49  C   UNK d   0      -2.645 -10.107  22.856  0.00  0.00     0.052 C 
BRANCH  49  50
ATOM     50  C   UNK d   0      -3.461 -11.244  23.416  0.00  0.00     0.115 C 
BRANCH  50  51
ATOM     51  C   UNK d   0      -3.388 -11.470  24.853  0.00  0.00     0.139 C 
ATOM     52  O   UNK d   0      -4.374 -11.849  25.529  0.00  0.00    -0.650 OA
BRANCH  51  53
ATOM     53  O   UNK d   0      -2.192 -11.261  25.521  0.00  0.00    -0.776 OA
ATOM     54  H   UNK d   0      -1.774 -12.038  26.003  0.00  0.00     0.167 HD
ENDBRANCH  51  53
ENDBRANCH  50  51
ENDBRANCH  49  50
ENDBRANCH  24  49
BRANCH  21  55
ATOM     55  C   UNK d   0      -2.509  -7.028  23.068  0.00  0.00     0.151 C 
BRANCH  55  56
ATOM     56  C   UNK d   0      -1.340  -6.582  22.294  0.00  0.00     0.143 C 
ATOM     57  O   UNK d   0      -1.398  -5.664  21.452  0.00  0.00    -0.650 OA
BRANCH  56  58
ATOM     58  O   UNK d   0      -0.124  -7.223  22.527  0.00  0.00    -0.776 OA
ATOM     59  H   UNK d   0       0.608  -7.040  21.817  0.00  0.00     0.167 HD
ENDBRANCH  56  58
ENDBRANCH  55  56
ENDBRANCH  21  55
BRANCH  18  60
ATOM     60  C   UNK d   0      -6.596  -3.706  22.035  0.00  0.00     0.151 C 
BRANCH  60  61
ATOM     61  C   UNK d   0      -5.543  -2.745  21.675  0.00  0.00     0.143 C 
ATOM     62  O   UNK d   0      -4.333  -2.860  21.878  0.00  0.00    -0.650 OA
BRANCH  61  63
ATOM     63  O   UNK d   0      -5.994  -1.571  21.027  0.00  0.00    -0.776 OA
ATOM     64  H   UNK d   0      -6.778  -1.051  21.382  0.00  0.00     0.167 HD
ENDBRANCH  61  63
ENDBRANCH  60  61
ENDBRANCH  18  60
BRANCH  14  65
ATOM     65  C   UNK d   0      -8.845  -3.303  20.037  0.00  0.00     0.052 C 
BRANCH  65  66
ATOM     66  C   UNK d   0      -8.572  -2.187  19.093  0.00  0.00     0.115 C 
BRANCH  66  67
ATOM     67  C   UNK d   0      -9.534  -1.862  18.078  0.00  0.00     0.139 C 
ATOM     68  O   UNK d   0     -10.453  -1.006  18.355  0.00  0.00    -0.650 OA
BRANCH  67  69
ATOM     69  O   UNK d   0      -9.612  -2.369  16.781  0.00  0.00    -0.776 OA
ATOM     70  H   UNK d   0      -9.770  -1.675  16.037  0.00  0.00     0.167 HD
ENDBRANCH  67  69
ENDBRANCH  66  67
ENDBRANCH  65  66
ENDBRANCH  14  65
ENDBRANCH   6   7
ENDBRANCH   5   6
ENDBRANCH   2   5
TORSDOF 28
ENDMDL
MODEL 16
REMARK VINA RESULT:      -8.7      2.291      3.713
REMARK  28 active torsions:
REMARK  status: ('A' for Active; 'I' for Inactive)
REMARK    1  A    between atoms: C_2  and  O_3 
REMARK    2  A    between atoms: C_2  and  C_4 
REMARK    3  A    between atoms: C_4  and  C_5 
REMARK    4  A    between atoms: C_5  and  C_6 
REMARK    5  A    between atoms: C_7  and  C_8 
REMARK    6  A    between atoms: C_8  and  C_9 
REMARK    7  A    between atoms: C_9  and  O_11 
REMARK    8  A    between atoms: C_28  and  C_29 
REMARK    9  A    between atoms: C_29  and  C_30 
REMARK   10  A    between atoms: C_30  and  O_32 
REMARK   11  A    between atoms: C_33  and  C_34 
REMARK   12  A    between atoms: C_34  and  C_35 
REMARK   13  A    between atoms: C_35  and  C_36 
REMARK   14  A    between atoms: C_36  and  O_38 
REMARK   15  A    between atoms: C_39  and  C_40 
REMARK   16  A    between atoms: C_40  and  C_41 
REMARK   17  A    between atoms: C_41  and  C_42 
REMARK   18  A    between atoms: C_42  and  O_44 
REMARK   19  A    between atoms: C_45  and  C_46 
REMARK   20  A    between atoms: C_46  and  C_47 
REMARK   21  A    between atoms: C_47  and  O_49 
REMARK   22  A    between atoms: C_50  and  C_51 
REMARK   23  A    between atoms: C_51  and  C_52 
REMARK   24  A    between atoms: C_52  and  O_54 
REMARK   25  A    between atoms: C_55  and  C_56 
REMARK   26  A    between atoms: C_56  and  C_57 
REMARK   27  A    between atoms: C_57  and  C_58 
REMARK   28  A    between atoms: C_58  and  O_60 
ROOT
ATOM      1  O   UNK d   0     -12.300  -4.490  16.109  0.00  0.00    -0.650 OA
ATOM      2  C   UNK d   0     -12.116  -5.173  17.141  0.00  0.00     0.139 C 
ENDROOT
BRANCH   2   3
ATOM      3  O   UNK d   0     -13.192  -5.760  17.761  0.00  0.00    -0.776 OA
ATOM      4  H   UNK d   0     -14.013  -5.212  18.024  0.00  0.00     0.167 HD
ENDBRANCH   2   3
BRANCH   2   5
ATOM      5  C   UNK d   0     -10.740  -5.344  17.689  0.00  0.00     0.115 C 
BRANCH   5   6
ATOM      6  C   UNK d   0     -10.677  -4.825  19.099  0.00  0.00     0.052 C 
BRANCH   6   7
ATOM      7  C   UNK d   0      -9.270  -4.804  19.648  0.00  0.00    -0.020 A 
ATOM      8  C   UNK d   0      -8.546  -3.756  19.948  0.00  0.00    -0.011 A 
ATOM      9  C   UNK d   0      -7.260  -4.229  20.432  0.00  0.00     0.067 A 
ATOM     10  C   UNK d   0      -6.082  -3.639  20.919  0.00  0.00     0.062 C 
ATOM     11  N   UNK d   0      -7.286  -5.577  20.389  0.00  0.00    -0.248 NA
ATOM     12  C   UNK d   0      -5.040  -4.271  21.605  0.00  0.00     0.041 A 
ATOM     13  N   UNK d   0      -4.428  -5.452  21.396  0.00  0.00    -0.355 N 
ATOM     14  C   UNK d   0      -4.516  -3.660  22.759  0.00  0.00    -0.022 A 
ATOM     15  C   UNK d   0      -3.535  -5.610  22.392  0.00  0.00     0.042 A 
ATOM     16  H   UNK d   0      -4.609  -6.151  20.550  0.00  0.00     0.166 HD
ATOM     17  C   UNK d   0      -2.634  -6.661  22.653  0.00  0.00     0.062 C 
ATOM     18  C   UNK d   0      -3.562  -4.507  23.267  0.00  0.00    -0.013 A 
ATOM     19  C   UNK d   0      -2.852  -8.015  22.609  0.00  0.00     0.067 A 
ATOM     20  N   UNK d   0      -3.999  -8.425  22.063  0.00  0.00    -0.248 NA
ATOM     21  C   UNK d   0      -2.132  -9.203  23.037  0.00  0.00    -0.011 A 
ATOM     22  C   UNK d   0      -4.083  -9.795  22.104  0.00  0.00     0.066 A 
ATOM     23  C   UNK d   0      -5.214 -10.361  21.533  0.00  0.00     0.062 C 
ATOM     24  C   UNK d   0      -2.860 -10.241  22.742  0.00  0.00    -0.020 A 
ATOM     25  C   UNK d   0      -6.243  -9.710  20.836  0.00  0.00     0.041 A 
ATOM     26  N   UNK d   0      -6.862  -8.543  21.053  0.00  0.00    -0.355 N 
ATOM     27  C   UNK d   0      -6.765 -10.322  19.675  0.00  0.00    -0.022 A 
ATOM     28  C   UNK d   0      -7.759  -8.387  20.066  0.00  0.00     0.042 A 
ATOM     29  H   UNK d   0      -6.686  -7.847  21.909  0.00  0.00     0.166 HD
ATOM     30  C   UNK d   0      -8.667  -7.352  19.799  0.00  0.00     0.062 C 
ATOM     31  C   UNK d   0      -7.723  -9.492  19.181  0.00  0.00    -0.013 A 
ATOM     32  C   UNK d   0      -8.468  -5.986  19.927  0.00  0.00     0.066 A 
BRANCH   8  33
ATOM     33  C   UNK d   0      -8.940  -2.341  19.819  0.00  0.00     0.151 C 
BRANCH  33  34
ATOM     34  C   UNK d   0      -8.784  -1.828  18.446  0.00  0.00     0.143 C 
ATOM     35  O   UNK d   0      -8.712  -2.602  17.481  0.00  0.00    -0.650 OA
BRANCH  34  36
ATOM     36  O   UNK d   0      -8.716  -0.470  18.237  0.00  0.00    -0.776 OA
ATOM     37  H   UNK d   0      -7.942  -0.049  17.705  0.00  0.00     0.167 HD
ENDBRANCH  34  36
ENDBRANCH  33  34
ENDBRANCH   8  33
BRANCH  31  38
ATOM     38  C   UNK d   0      -8.549  -9.724  17.937  0.00  0.00     0.151 C 
BRANCH  38  39
ATOM     39  C   UNK d   0      -7.922  -9.201  16.742  0.00  0.00     0.143 C 
ATOM     40  O   UNK d   0      -7.185  -9.894  16.019  0.00  0.00    -0.650 OA
BRANCH  39  41
ATOM     41  O   UNK d   0      -8.143  -7.873  16.375  0.00  0.00    -0.776 OA
ATOM     42  H   UNK d   0      -7.380  -7.213  16.550  0.00  0.00     0.167 HD
ENDBRANCH  39  41
ENDBRANCH  38  39
ENDBRANCH  31  38
BRANCH  27  43
ATOM     43  C   UNK d   0      -6.394 -11.637  19.036  0.00  0.00     0.052 C 
BRANCH  43  44
ATOM     44  C   UNK d   0      -7.476 -12.664  19.129  0.00  0.00     0.115 C 
BRANCH  44  45
ATOM     45  C   UNK d   0      -7.689 -12.927  20.576  0.00  0.00     0.139 C 
ATOM     46  O   UNK d   0      -8.760 -12.530  21.098  0.00  0.00    -0.650 OA
BRANCH  45  47
ATOM     47  O   UNK d   0      -6.768 -13.589  21.358  0.00  0.00    -0.776 OA
ATOM     48  H   UNK d   0      -5.849 -13.898  21.002  0.00  0.00     0.167 HD
ENDBRANCH  45  47
ENDBRANCH  44  45
ENDBRANCH  43  44
ENDBRANCH  27  43
BRANCH  24  49
ATOM     49  C   UNK d   0      -2.494 -11.650  22.966  0.00  0.00     0.052 C 
BRANCH  49  50
ATOM     50  C   UNK d   0      -1.655 -12.162  21.823  0.00  0.00     0.115 C 
BRANCH  50  51
ATOM     51  C   UNK d   0      -2.269 -13.139  20.934  0.00  0.00     0.139 C 
ATOM     52  O   UNK d   0      -3.396 -12.965  20.413  0.00  0.00    -0.650 OA
BRANCH  51  53
ATOM     53  O   UNK d   0      -1.599 -14.316  20.640  0.00  0.00    -0.776 OA
ATOM     54  H   UNK d   0      -0.697 -14.253  20.200  0.00  0.00     0.167 HD
ENDBRANCH  51  53
ENDBRANCH  50  51
ENDBRANCH  49  50
ENDBRANCH  24  49
BRANCH  21  55
ATOM     55  C   UNK d   0      -0.791  -9.177  23.691  0.00  0.00     0.151 C 
BRANCH  55  56
ATOM     56  C   UNK d   0      -0.893  -9.202  25.158  0.00  0.00     0.143 C 
ATOM     57  O   UNK d   0      -1.035 -10.257  25.807  0.00  0.00    -0.650 OA
BRANCH  56  58
ATOM     58  O   UNK d   0      -0.824  -7.985  25.835  0.00  0.00    -0.776 OA
ATOM     59  H   UNK d   0       0.072  -7.477  25.729  0.00  0.00     0.167 HD
ENDBRANCH  56  58
ENDBRANCH  55  56
ENDBRANCH  21  55
BRANCH  18  60
ATOM     60  C   UNK d   0      -2.750  -4.247  24.511  0.00  0.00     0.151 C 
BRANCH  60  61
ATOM     61  C   UNK d   0      -1.352  -4.145  24.067  0.00  0.00     0.143 C 
ATOM     62  O   UNK d   0      -0.898  -3.380  23.216  0.00  0.00    -0.650 OA
BRANCH  61  63
ATOM     63  O   UNK d   0      -0.451  -5.032  24.703  0.00  0.00    -0.776 OA
ATOM     64  H   UNK d   0      -0.342  -5.978  24.383  0.00  0.00     0.167 HD
ENDBRANCH  61  63
ENDBRANCH  60  61
ENDBRANCH  18  60
BRANCH  14  65
ATOM     65  C   UNK d   0      -4.778  -2.307  23.357  0.00  0.00     0.052 C 
BRANCH  65  66
ATOM     66  C   UNK d   0      -5.608  -2.366  24.590  0.00  0.00     0.115 C 
BRANCH  66  67
ATOM     67  C   UNK d   0      -6.700  -3.295  24.669  0.00  0.00     0.139 C 
ATOM     68  O   UNK d   0      -6.507  -4.420  25.259  0.00  0.00    -0.650 OA
BRANCH  67  69
ATOM     69  O   UNK d   0      -7.993  -3.136  24.171  0.00  0.00    -0.776 OA
ATOM     70  H   UNK d   0      -8.632  -2.577  24.755  0.00  0.00     0.167 HD
ENDBRANCH  67  69
ENDBRANCH  66  67
ENDBRANCH  65  66
ENDBRANCH  14  65
ENDBRANCH   6   7
ENDBRANCH   5   6
ENDBRANCH   2   5
TORSDOF 28
ENDMDL
MODEL 17
REMARK VINA RESULT:      -8.6      1.811      7.606
REMARK  28 active torsions:
REMARK  status: ('A' for Active; 'I' for Inactive)
REMARK    1  A    between atoms: C_2  and  O_3 
REMARK    2  A    between atoms: C_2  and  C_4 
REMARK    3  A    between atoms: C_4  and  C_5 
REMARK    4  A    between atoms: C_5  and  C_6 
REMARK    5  A    between atoms: C_7  and  C_8 
REMARK    6  A    between atoms: C_8  and  C_9 
REMARK    7  A    between atoms: C_9  and  O_11 
REMARK    8  A    between atoms: C_28  and  C_29 
REMARK    9  A    between atoms: C_29  and  C_30 
REMARK   10  A    between atoms: C_30  and  O_32 
REMARK   11  A    between atoms: C_33  and  C_34 
REMARK   12  A    between atoms: C_34  and  C_35 
REMARK   13  A    between atoms: C_35  and  C_36 
REMARK   14  A    between atoms: C_36  and  O_38 
REMARK   15  A    between atoms: C_39  and  C_40 
REMARK   16  A    between atoms: C_40  and  C_41 
REMARK   17  A    between atoms: C_41  and  C_42 
REMARK   18  A    between atoms: C_42  and  O_44 
REMARK   19  A    between atoms: C_45  and  C_46 
REMARK   20  A    between atoms: C_46  and  C_47 
REMARK   21  A    between atoms: C_47  and  O_49 
REMARK   22  A    between atoms: C_50  and  C_51 
REMARK   23  A    between atoms: C_51  and  C_52 
REMARK   24  A    between atoms: C_52  and  O_54 
REMARK   25  A    between atoms: C_55  and  C_56 
REMARK   26  A    between atoms: C_56  and  C_57 
REMARK   27  A    between atoms: C_57  and  C_58 
REMARK   28  A    between atoms: C_58  and  O_60 
ROOT
ATOM      1  O   UNK d   0      -7.985  -2.324  25.245  0.00  0.00    -0.650 OA
ATOM      2  C   UNK d   0      -7.074  -2.189  24.398  0.00  0.00     0.139 C 
ENDROOT
BRANCH   2   3
ATOM      3  O   UNK d   0      -7.223  -1.268  23.389  0.00  0.00    -0.776 OA
ATOM      4  H   UNK d   0      -7.359  -0.276  23.597  0.00  0.00     0.167 HD
ENDBRANCH   2   3
BRANCH   2   5
ATOM      5  C   UNK d   0      -5.841  -3.022  24.486  0.00  0.00     0.115 C 
BRANCH   5   6
ATOM      6  C   UNK d   0      -5.086  -2.968  23.186  0.00  0.00     0.052 C 
BRANCH   6   7
ATOM      7  C   UNK d   0      -4.833  -4.337  22.603  0.00  0.00    -0.020 A 
ATOM      8  C   UNK d   0      -3.895  -5.186  22.937  0.00  0.00    -0.011 A 
ATOM      9  C   UNK d   0      -4.042  -6.364  22.098  0.00  0.00     0.067 A 
ATOM     10  C   UNK d   0      -3.393  -7.602  21.968  0.00  0.00     0.062 C 
ATOM     11  N   UNK d   0      -5.091  -6.144  21.278  0.00  0.00    -0.248 NA
ATOM     12  C   UNK d   0      -3.855  -8.733  21.286  0.00  0.00     0.041 A 
ATOM     13  N   UNK d   0      -4.458  -8.861  20.088  0.00  0.00    -0.355 N 
ATOM     14  C   UNK d   0      -3.760  -9.990  21.910  0.00  0.00    -0.022 A 
ATOM     15  C   UNK d   0      -4.755 -10.166  19.940  0.00  0.00     0.042 A 
ATOM     16  H   UNK d   0      -4.652  -8.048  19.354  0.00  0.00     0.166 HD
ATOM     17  C   UNK d   0      -5.386 -10.844  18.878  0.00  0.00     0.062 C 
ATOM     18  C   UNK d   0      -4.333 -10.905  21.062  0.00  0.00    -0.013 A 
ATOM     19  C   UNK d   0      -6.508 -10.490  18.174  0.00  0.00     0.067 A 
ATOM     20  N   UNK d   0      -6.975  -9.253  18.363  0.00  0.00    -0.248 NA
ATOM     21  C   UNK d   0      -7.396 -11.141  17.225  0.00  0.00    -0.011 A 
ATOM     22  C   UNK d   0      -8.104  -9.049  17.608  0.00  0.00     0.066 A 
ATOM     23  C   UNK d   0      -8.675  -7.787  17.680  0.00  0.00     0.062 C 
ATOM     24  C   UNK d   0      -8.330 -10.295  16.901  0.00  0.00    -0.020 A 
ATOM     25  C   UNK d   0      -8.188  -6.660  18.362  0.00  0.00     0.041 A 
ATOM     26  N   UNK d   0      -7.602  -6.531  19.558  0.00  0.00    -0.355 N 
ATOM     27  C   UNK d   0      -8.280  -5.400  17.733  0.00  0.00    -0.022 A 
ATOM     28  C   UNK d   0      -7.313  -5.229  19.712  0.00  0.00     0.042 A 
ATOM     29  H   UNK d   0      -7.418  -7.347  20.299  0.00  0.00     0.166 HD
ATOM     30  C   UNK d   0      -6.694  -4.540  20.767  0.00  0.00     0.062 C 
ATOM     31  C   UNK d   0      -7.727  -4.489  18.580  0.00  0.00    -0.013 A 
ATOM     32  C   UNK d   0      -5.611  -4.942  21.532  0.00  0.00     0.066 A 
BRANCH   8  33
ATOM     33  C   UNK d   0      -2.860  -5.001  23.971  0.00  0.00     0.151 C 
BRANCH  33  34
ATOM     34  C   UNK d   0      -1.564  -4.578  23.412  0.00  0.00     0.143 C 
ATOM     35  O   UNK d   0      -0.687  -5.410  23.137  0.00  0.00    -0.650 OA
BRANCH  34  36
ATOM     36  O   UNK d   0      -1.325  -3.241  23.194  0.00  0.00    -0.776 OA
ATOM     37  H   UNK d   0      -1.058  -2.890  22.264  0.00  0.00     0.167 HD
ENDBRANCH  34  36
ENDBRANCH  33  34
ENDBRANCH   8  33
BRANCH  31  38
ATOM     38  C   UNK d   0      -7.589  -3.006  18.327  0.00  0.00     0.151 C 
BRANCH  38  39
ATOM     39  C   UNK d   0      -8.703  -2.241  18.844  0.00  0.00     0.143 C 
ATOM     40  O   UNK d   0      -9.622  -2.763  19.500  0.00  0.00    -0.650 OA
BRANCH  39  41
ATOM     41  O   UNK d   0      -8.763  -0.868  18.607  0.00  0.00    -0.776 OA
ATOM     42  H   UNK d   0      -9.332  -0.561  17.812  0.00  0.00     0.167 HD
ENDBRANCH  39  41
ENDBRANCH  38  39
ENDBRANCH  31  38
BRANCH  27  43
ATOM     43  C   UNK d   0      -8.861  -5.039  16.389  0.00  0.00     0.052 C 
BRANCH  43  44
ATOM     44  C   UNK d   0     -10.188  -4.359  16.482  0.00  0.00     0.115 C 
BRANCH  44  45
ATOM     45  C   UNK d   0     -11.194  -5.424  16.731  0.00  0.00     0.139 C 
ATOM     46  O   UNK d   0     -11.677  -5.524  17.886  0.00  0.00    -0.650 OA
BRANCH  45  47
ATOM     47  O   UNK d   0     -11.619  -6.295  15.751  0.00  0.00    -0.776 OA
ATOM     48  H   UNK d   0     -11.200  -6.323  14.807  0.00  0.00     0.167 HD
ENDBRANCH  45  47
ENDBRANCH  44  45
ENDBRANCH  43  44
ENDBRANCH  27  43
BRANCH  24  49
ATOM     49  C   UNK d   0      -9.418 -10.529  15.936  0.00  0.00     0.052 C 
BRANCH  49  50
ATOM     50  C   UNK d   0     -10.752 -10.216  16.564  0.00  0.00     0.115 C 
BRANCH  50  51
ATOM     51  C   UNK d   0     -11.893 -10.082  15.668  0.00  0.00     0.139 C 
ATOM     52  O   UNK d   0     -12.284  -8.974  15.232  0.00  0.00    -0.650 OA
BRANCH  51  53
ATOM     53  O   UNK d   0     -12.589 -11.213  15.271  0.00  0.00    -0.776 OA
ATOM     54  H   UNK d   0     -13.593 -11.167  15.239  0.00  0.00     0.167 HD
ENDBRANCH  51  53
ENDBRANCH  50  51
ENDBRANCH  49  50
ENDBRANCH  24  49
BRANCH  21  55
ATOM     55  C   UNK d   0      -7.215 -12.541  16.739  0.00  0.00     0.151 C 
BRANCH  55  56
ATOM     56  C   UNK d   0      -6.744 -12.584  15.346  0.00  0.00     0.143 C 
ATOM     57  O   UNK d   0      -7.033 -13.510  14.564  0.00  0.00    -0.650 OA
BRANCH  56  58
ATOM     58  O   UNK d   0      -5.940 -11.536  14.900  0.00  0.00    -0.776 OA
ATOM     59  H   UNK d   0      -4.922 -11.726  14.924  0.00  0.00     0.167 HD
ENDBRANCH  56  58
ENDBRANCH  55  56
ENDBRANCH  21  55
BRANCH  18  60
ATOM     60  C   UNK d   0      -4.456 -12.383  21.340  0.00  0.00     0.151 C 
BRANCH  60  61
ATOM     61  C   UNK d   0      -5.708 -12.550  22.093  0.00  0.00     0.143 C 
ATOM     62  O   UNK d   0      -6.843 -12.250  21.721  0.00  0.00    -0.650 OA
BRANCH  61  63
ATOM     63  O   UNK d   0      -5.565 -13.120  23.381  0.00  0.00    -0.776 OA
ATOM     64  H   UNK d   0      -5.035 -12.657  24.097  0.00  0.00     0.167 HD
ENDBRANCH  61  63
ENDBRANCH  60  61
ENDBRANCH  18  60
BRANCH  14  65
ATOM     65  C   UNK d   0      -3.088 -10.403  23.188  0.00  0.00     0.052 C 
BRANCH  65  66
ATOM     66  C   UNK d   0      -1.622 -10.604  23.036  0.00  0.00     0.115 C 
BRANCH  66  67
ATOM     67  C   UNK d   0      -0.710  -9.815  23.815  0.00  0.00     0.139 C 
ATOM     68  O   UNK d   0      -1.015  -9.552  25.036  0.00  0.00    -0.650 OA
BRANCH  67  69
ATOM     69  O   UNK d   0       0.509  -9.273  23.411  0.00  0.00    -0.776 OA
ATOM     70  H   UNK d   0       0.576  -9.011  22.417  0.00  0.00     0.167 HD
ENDBRANCH  67  69
ENDBRANCH  66  67
ENDBRANCH  65  66
ENDBRANCH  14  65
ENDBRANCH   6   7
ENDBRANCH   5   6
ENDBRANCH   2   5
TORSDOF 28
ENDMDL
MODEL 18
REMARK VINA RESULT:      -8.6      1.999      8.133
REMARK  28 active torsions:
REMARK  status: ('A' for Active; 'I' for Inactive)
REMARK    1  A    between atoms: C_2  and  O_3 
REMARK    2  A    between atoms: C_2  and  C_4 
REMARK    3  A    between atoms: C_4  and  C_5 
REMARK    4  A    between atoms: C_5  and  C_6 
REMARK    5  A    between atoms: C_7  and  C_8 
REMARK    6  A    between atoms: C_8  and  C_9 
REMARK    7  A    between atoms: C_9  and  O_11 
REMARK    8  A    between atoms: C_28  and  C_29 
REMARK    9  A    between atoms: C_29  and  C_30 
REMARK   10  A    between atoms: C_30  and  O_32 
REMARK   11  A    between atoms: C_33  and  C_34 
REMARK   12  A    between atoms: C_34  and  C_35 
REMARK   13  A    between atoms: C_35  and  C_36 
REMARK   14  A    between atoms: C_36  and  O_38 
REMARK   15  A    between atoms: C_39  and  C_40 
REMARK   16  A    between atoms: C_40  and  C_41 
REMARK   17  A    between atoms: C_41  and  C_42 
REMARK   18  A    between atoms: C_42  and  O_44 
REMARK   19  A    between atoms: C_45  and  C_46 
REMARK   20  A    between atoms: C_46  and  C_47 
REMARK   21  A    between atoms: C_47  and  O_49 
REMARK   22  A    between atoms: C_50  and  C_51 
REMARK   23  A    between atoms: C_51  and  C_52 
REMARK   24  A    between atoms: C_52  and  O_54 
REMARK   25  A    between atoms: C_55  and  C_56 
REMARK   26  A    between atoms: C_56  and  C_57 
REMARK   27  A    between atoms: C_57  and  C_58 
REMARK   28  A    between atoms: C_58  and  O_60 
ROOT
ATOM      1  O   UNK d   0      -7.903 -12.538  15.537  0.00  0.00    -0.650 OA
ATOM      2  C   UNK d   0      -6.762 -12.024  15.540  0.00  0.00     0.139 C 
ENDROOT
BRANCH   2   3
ATOM      3  O   UNK d   0      -6.457 -11.057  14.613  0.00  0.00    -0.776 OA
ATOM      4  H   UNK d   0      -7.156 -10.372  14.315  0.00  0.00     0.167 HD
ENDBRANCH   2   3
BRANCH   2   5
ATOM      5  C   UNK d   0      -5.748 -12.460  16.541  0.00  0.00     0.115 C 
BRANCH   5   6
ATOM      6  C   UNK d   0      -6.383 -12.594  17.898  0.00  0.00     0.052 C 
BRANCH   6   7
ATOM      7  C   UNK d   0      -5.988 -11.481  18.838  0.00  0.00    -0.020 A 
ATOM      8  C   UNK d   0      -5.153 -11.544  19.843  0.00  0.00    -0.011 A 
ATOM      9  C   UNK d   0      -5.098 -10.229  20.459  0.00  0.00     0.067 A 
ATOM     10  C   UNK d   0      -4.404  -9.639  21.528  0.00  0.00     0.062 C 
ATOM     11  N   UNK d   0      -5.936  -9.428  19.768  0.00  0.00    -0.248 NA
ATOM     12  C   UNK d   0      -4.273  -8.273  21.802  0.00  0.00     0.041 A 
ATOM     13  N   UNK d   0      -5.170  -7.270  21.758  0.00  0.00    -0.355 N 
ATOM     14  C   UNK d   0      -3.004  -7.766  22.137  0.00  0.00    -0.022 A 
ATOM     15  C   UNK d   0      -4.502  -6.138  22.049  0.00  0.00     0.042 A 
ATOM     16  H   UNK d   0      -6.258  -7.363  21.545  0.00  0.00     0.166 HD
ATOM     17  C   UNK d   0      -4.956  -4.807  22.142  0.00  0.00     0.062 C 
ATOM     18  C   UNK d   0      -3.141  -6.409  22.292  0.00  0.00    -0.013 A 
ATOM     19  C   UNK d   0      -5.789  -4.120  21.297  0.00  0.00     0.067 A 
ATOM     20  N   UNK d   0      -6.426  -4.832  20.363  0.00  0.00    -0.248 NA
ATOM     21  C   UNK d   0      -6.185  -2.732  21.119  0.00  0.00    -0.011 A 
ATOM     22  C   UNK d   0      -7.207  -4.011  19.587  0.00  0.00     0.066 A 
ATOM     23  C   UNK d   0      -7.956  -4.628  18.597  0.00  0.00     0.062 C 
ATOM     24  C   UNK d   0      -7.011  -2.675  20.115  0.00  0.00    -0.020 A 
ATOM     25  C   UNK d   0      -8.084  -6.003  18.346  0.00  0.00     0.041 A 
ATOM     26  N   UNK d   0      -7.190  -6.998  18.375  0.00  0.00    -0.355 N 
ATOM     27  C   UNK d   0      -9.359  -6.513  18.014  0.00  0.00    -0.022 A 
ATOM     28  C   UNK d   0      -7.852  -8.127  18.076  0.00  0.00     0.042 A 
ATOM     29  H   UNK d   0      -6.095  -6.902  18.579  0.00  0.00     0.166 HD
ATOM     30  C   UNK d   0      -7.411  -9.456  17.972  0.00  0.00     0.062 C 
ATOM     31  C   UNK d   0      -9.221  -7.856  17.842  0.00  0.00    -0.013 A 
ATOM     32  C   UNK d   0      -6.502 -10.121  18.780  0.00  0.00     0.066 A 
BRANCH   8  33
ATOM     33  C   UNK d   0      -4.396 -12.727  20.292  0.00  0.00     0.151 C 
BRANCH  33  34
ATOM     34  C   UNK d   0      -2.985 -12.698  19.865  0.00  0.00     0.143 C 
ATOM     35  O   UNK d   0      -2.068 -12.802  20.692  0.00  0.00    -0.650 OA
BRANCH  34  36
ATOM     36  O   UNK d   0      -2.686 -12.551  18.531  0.00  0.00    -0.776 OA
ATOM     37  H   UNK d   0      -2.822 -13.323  17.864  0.00  0.00     0.167 HD
ENDBRANCH  34  36
ENDBRANCH  33  34
ENDBRANCH   8  33
BRANCH  31  38
ATOM     38  C   UNK d   0     -10.323  -8.827  17.490  0.00  0.00     0.151 C 
BRANCH  38  39
ATOM     39  C   UNK d   0     -10.445  -9.046  16.065  0.00  0.00     0.143 C 
ATOM     40  O   UNK d   0      -9.665  -9.783  15.436  0.00  0.00    -0.650 OA
BRANCH  39  41
ATOM     41  O   UNK d   0     -11.468  -8.415  15.358  0.00  0.00    -0.776 OA
ATOM     42  H   UNK d   0     -11.467  -7.390  15.361  0.00  0.00     0.167 HD
ENDBRANCH  39  41
ENDBRANCH  38  39
ENDBRANCH  31  38
BRANCH  27  43
ATOM     43  C   UNK d   0     -10.670  -5.785  17.856  0.00  0.00     0.052 C 
BRANCH  43  44
ATOM     44  C   UNK d   0     -10.842  -5.163  16.508  0.00  0.00     0.115 C 
BRANCH  44  45
ATOM     45  C   UNK d   0     -12.292  -5.239  16.188  0.00  0.00     0.139 C 
ATOM     46  O   UNK d   0     -12.959  -6.179  16.686  0.00  0.00    -0.650 OA
BRANCH  45  47
ATOM     47  O   UNK d   0     -12.927  -4.323  15.377  0.00  0.00    -0.776 OA
ATOM     48  H   UNK d   0     -13.275  -3.415  15.724  0.00  0.00     0.167 HD
ENDBRANCH  45  47
ENDBRANCH  44  45
ENDBRANCH  43  44
ENDBRANCH  27  43
BRANCH  24  49
ATOM     49  C   UNK d   0      -7.686  -1.465  19.615  0.00  0.00     0.052 C 
BRANCH  49  50
ATOM     50  C   UNK d   0      -9.007  -1.825  18.984  0.00  0.00     0.115 C 
BRANCH  50  51
ATOM     51  C   UNK d   0      -9.583  -0.865  18.052  0.00  0.00     0.139 C 
ATOM     52  O   UNK d   0      -9.387  -0.922  16.815  0.00  0.00    -0.650 OA
BRANCH  51  53
ATOM     53  O   UNK d   0     -10.380   0.163  18.531  0.00  0.00    -0.776 OA
ATOM     54  H   UNK d   0      -9.983   1.084  18.591  0.00  0.00     0.167 HD
ENDBRANCH  51  53
ENDBRANCH  50  51
ENDBRANCH  49  50
ENDBRANCH  24  49
BRANCH  21  55
ATOM     55  C   UNK d   0      -5.699  -1.610  21.975  0.00  0.00     0.151 C 
BRANCH  55  56
ATOM     56  C   UNK d   0      -6.050  -1.804  23.391  0.00  0.00     0.143 C 
ATOM     57  O   UNK d   0      -7.187  -1.565  23.842  0.00  0.00    -0.650 OA
BRANCH  56  58
ATOM     58  O   UNK d   0      -5.056  -2.274  24.247  0.00  0.00    -0.776 OA
ATOM     59  H   UNK d   0      -4.697  -1.576  24.923  0.00  0.00     0.167 HD
ENDBRANCH  56  58
ENDBRANCH  55  56
ENDBRANCH  21  55
BRANCH  18  60
ATOM     60  C   UNK d   0      -2.022  -5.462  22.648  0.00  0.00     0.151 C 
BRANCH  60  61
ATOM     61  C   UNK d   0      -2.111  -5.259  24.102  0.00  0.00     0.143 C 
ATOM     62  O   UNK d   0      -2.708  -4.356  24.689  0.00  0.00    -0.650 OA
BRANCH  61  63
ATOM     63  O   UNK d   0      -1.429  -6.219  24.887  0.00  0.00    -0.776 OA
ATOM     64  H   UNK d   0      -0.441  -6.368  24.782  0.00  0.00     0.167 HD
ENDBRANCH  61  63
ENDBRANCH  60  61
ENDBRANCH  18  60
BRANCH  14  65
ATOM     65  C   UNK d   0      -1.708  -8.471  22.415  0.00  0.00     0.052 C 
BRANCH  65  66
ATOM     66  C   UNK d   0      -1.841  -9.556  23.424  0.00  0.00     0.115 C 
BRANCH  66  67
ATOM     67  C   UNK d   0      -0.856  -9.689  24.460  0.00  0.00     0.139 C 
ATOM     68  O   UNK d   0       0.078 -10.561  24.312  0.00  0.00    -0.650 OA
BRANCH  67  69
ATOM     69  O   UNK d   0      -0.771  -8.973  25.654  0.00  0.00    -0.776 OA
ATOM     70  H   UNK d   0      -1.606  -8.425  25.907  0.00  0.00     0.167 HD
ENDBRANCH  67  69
ENDBRANCH  66  67
ENDBRANCH  65  66
ENDBRANCH  14  65
ENDBRANCH   6   7
ENDBRANCH   5   6
ENDBRANCH   2   5
TORSDOF 28
ENDMDL
MODEL 19
REMARK VINA RESULT:      -8.6      2.584      8.286
REMARK  28 active torsions:
REMARK  status: ('A' for Active; 'I' for Inactive)
REMARK    1  A    between atoms: C_2  and  O_3 
REMARK    2  A    between atoms: C_2  and  C_4 
REMARK    3  A    between atoms: C_4  and  C_5 
REMARK    4  A    between atoms: C_5  and  C_6 
REMARK    5  A    between atoms: C_7  and  C_8 
REMARK    6  A    between atoms: C_8  and  C_9 
REMARK    7  A    between atoms: C_9  and  O_11 
REMARK    8  A    between atoms: C_28  and  C_29 
REMARK    9  A    between atoms: C_29  and  C_30 
REMARK   10  A    between atoms: C_30  and  O_32 
REMARK   11  A    between atoms: C_33  and  C_34 
REMARK   12  A    between atoms: C_34  and  C_35 
REMARK   13  A    between atoms: C_35  and  C_36 
REMARK   14  A    between atoms: C_36  and  O_38 
REMARK   15  A    between atoms: C_39  and  C_40 
REMARK   16  A    between atoms: C_40  and  C_41 
REMARK   17  A    between atoms: C_41  and  C_42 
REMARK   18  A    between atoms: C_42  and  O_44 
REMARK   19  A    between atoms: C_45  and  C_46 
REMARK   20  A    between atoms: C_46  and  C_47 
REMARK   21  A    between atoms: C_47  and  O_49 
REMARK   22  A    between atoms: C_50  and  C_51 
REMARK   23  A    between atoms: C_51  and  C_52 
REMARK   24  A    between atoms: C_52  and  O_54 
REMARK   25  A    between atoms: C_55  and  C_56 
REMARK   26  A    between atoms: C_56  and  C_57 
REMARK   27  A    between atoms: C_57  and  C_58 
REMARK   28  A    between atoms: C_58  and  O_60 
ROOT
ATOM      1  O   UNK d   0     -11.720  -8.357  15.444  0.00  0.00    -0.650 OA
ATOM      2  C   UNK d   0     -11.311  -7.255  15.873  0.00  0.00     0.139 C 
ENDROOT
BRANCH   2   3
ATOM      3  O   UNK d   0     -12.159  -6.174  15.868  0.00  0.00    -0.776 OA
ATOM      4  H   UNK d   0     -11.880  -5.287  15.444  0.00  0.00     0.167 HD
ENDBRANCH   2   3
BRANCH   2   5
ATOM      5  C   UNK d   0      -9.917  -7.121  16.383  0.00  0.00     0.115 C 
BRANCH   5   6
ATOM      6  C   UNK d   0      -9.932  -6.824  17.858  0.00  0.00     0.052 C 
BRANCH   6   7
ATOM      7  C   UNK d   0      -8.991  -7.711  18.639  0.00  0.00    -0.020 A 
ATOM      8  C   UNK d   0      -9.066  -9.007  18.803  0.00  0.00    -0.011 A 
ATOM      9  C   UNK d   0      -7.948  -9.416  19.635  0.00  0.00     0.067 A 
ATOM     10  C   UNK d   0      -7.456 -10.627  20.147  0.00  0.00     0.062 C 
ATOM     11  N   UNK d   0      -7.245  -8.304  19.937  0.00  0.00    -0.248 NA
ATOM     12  C   UNK d   0      -6.195 -10.861  20.706  0.00  0.00     0.041 A 
ATOM     13  N   UNK d   0      -5.459 -10.134  21.568  0.00  0.00    -0.355 N 
ATOM     14  C   UNK d   0      -5.478 -12.006  20.313  0.00  0.00    -0.022 A 
ATOM     15  C   UNK d   0      -4.290 -10.784  21.726  0.00  0.00     0.042 A 
ATOM     16  H   UNK d   0      -5.767  -9.190  22.070  0.00  0.00     0.166 HD
ATOM     17  C   UNK d   0      -3.167 -10.464  22.514  0.00  0.00     0.062 C 
ATOM     18  C   UNK d   0      -4.265 -11.962  20.954  0.00  0.00    -0.013 A 
ATOM     19  C   UNK d   0      -2.536  -9.256  22.667  0.00  0.00     0.067 A 
ATOM     20  N   UNK d   0      -3.159  -8.182  22.173  0.00  0.00    -0.248 NA
ATOM     21  C   UNK d   0      -1.285  -8.796  23.245  0.00  0.00    -0.011 A 
ATOM     22  C   UNK d   0      -2.405  -7.054  22.386  0.00  0.00     0.066 A 
ATOM     23  C   UNK d   0      -2.953  -5.855  21.955  0.00  0.00     0.062 C 
ATOM     24  C   UNK d   0      -1.212  -7.507  23.074  0.00  0.00    -0.020 A 
ATOM     25  C   UNK d   0      -4.227  -5.640  21.407  0.00  0.00     0.041 A 
ATOM     26  N   UNK d   0      -4.953  -6.355  20.539  0.00  0.00    -0.355 N 
ATOM     27  C   UNK d   0      -4.948  -4.493  21.806  0.00  0.00    -0.022 A 
ATOM     28  C   UNK d   0      -6.115  -5.704  20.373  0.00  0.00     0.042 A 
ATOM     29  H   UNK d   0      -4.638  -7.297  20.027  0.00  0.00     0.166 HD
ATOM     30  C   UNK d   0      -7.238  -6.006  19.586  0.00  0.00     0.062 C 
ATOM     31  C   UNK d   0      -6.144  -4.526  21.157  0.00  0.00    -0.013 A 
ATOM     32  C   UNK d   0      -7.821  -7.244  19.367  0.00  0.00     0.066 A 
BRANCH   8  33
ATOM     33  C   UNK d   0     -10.096  -9.909  18.256  0.00  0.00     0.151 C 
BRANCH  33  34
ATOM     34  C   UNK d   0     -11.127 -10.266  19.247  0.00  0.00     0.143 C 
ATOM     35  O   UNK d   0     -10.875 -10.252  20.460  0.00  0.00    -0.650 OA
BRANCH  34  36
ATOM     36  O   UNK d   0     -12.385 -10.620  18.816  0.00  0.00    -0.776 OA
ATOM     37  H   UNK d   0     -13.230 -10.261  19.280  0.00  0.00     0.167 HD
ENDBRANCH  34  36
ENDBRANCH  33  34
ENDBRANCH   8  33
BRANCH  31  38
ATOM     38  C   UNK d   0      -7.255  -3.509  21.282  0.00  0.00     0.151 C 
BRANCH  38  39
ATOM     39  C   UNK d   0      -7.018  -2.320  20.492  0.00  0.00     0.143 C 
ATOM     40  O   UNK d   0      -6.878  -1.196  21.006  0.00  0.00    -0.650 OA
BRANCH  39  41
ATOM     41  O   UNK d   0      -6.941  -2.423  19.103  0.00  0.00    -0.776 OA
ATOM     42  H   UNK d   0      -7.819  -2.321  18.584  0.00  0.00     0.167 HD
ENDBRANCH  39  41
ENDBRANCH  38  39
ENDBRANCH  31  38
BRANCH  27  43
ATOM     43  C   UNK d   0      -4.549  -3.393  22.757  0.00  0.00     0.052 C 
BRANCH  43  44
ATOM     44  C   UNK d   0      -4.550  -3.820  24.189  0.00  0.00     0.115 C 
BRANCH  44  45
ATOM     45  C   UNK d   0      -3.193  -3.527  24.720  0.00  0.00     0.139 C 
ATOM     46  O   UNK d   0      -2.339  -3.052  23.932  0.00  0.00    -0.650 OA
BRANCH  45  47
ATOM     47  O   UNK d   0      -2.841  -3.750  26.034  0.00  0.00    -0.776 OA
ATOM     48  H   UNK d   0      -2.861  -3.009  26.753  0.00  0.00     0.167 HD
ENDBRANCH  45  47
ENDBRANCH  44  45
ENDBRANCH  43  44
ENDBRANCH  27  43
BRANCH  24  49
ATOM     49  C   UNK d   0      -0.126  -6.629  23.543  0.00  0.00     0.052 C 
BRANCH  49  50
ATOM     50  C   UNK d   0       0.805  -6.294  22.405  0.00  0.00     0.115 C 
BRANCH  50  51
ATOM     51  C   UNK d   0       0.683  -4.967  21.816  0.00  0.00     0.139 C 
ATOM     52  O   UNK d   0       1.163  -4.679  20.694  0.00  0.00    -0.650 OA
BRANCH  51  53
ATOM     53  O   UNK d   0       0.015  -3.968  22.507  0.00  0.00    -0.776 OA
ATOM     54  H   UNK d   0       0.228  -3.840  23.481  0.00  0.00     0.167 HD
ENDBRANCH  51  53
ENDBRANCH  50  51
ENDBRANCH  49  50
ENDBRANCH  24  49
BRANCH  21  55
ATOM     55  C   UNK d   0      -0.294  -9.692  23.913  0.00  0.00     0.151 C 
BRANCH  55  56
ATOM     56  C   UNK d   0      -0.673  -9.995  25.301  0.00  0.00     0.143 C 
ATOM     57  O   UNK d   0      -0.838 -11.158  25.717  0.00  0.00    -0.650 OA
BRANCH  56  58
ATOM     58  O   UNK d   0      -0.850  -8.923  26.175  0.00  0.00    -0.776 OA
ATOM     59  H   UNK d   0      -1.678  -8.332  25.978  0.00  0.00     0.167 HD
ENDBRANCH  56  58
ENDBRANCH  55  56
ENDBRANCH  21  55
BRANCH  18  60
ATOM     60  C   UNK d   0      -3.175 -12.995  20.813  0.00  0.00     0.151 C 
BRANCH  60  61
ATOM     61  C   UNK d   0      -2.481 -12.680  19.555  0.00  0.00     0.143 C 
ATOM     62  O   UNK d   0      -2.725 -11.750  18.786  0.00  0.00    -0.650 OA
BRANCH  61  63
ATOM     63  O   UNK d   0      -1.423 -13.557  19.214  0.00  0.00    -0.776 OA
ATOM     64  H   UNK d   0      -1.606 -14.451  18.793  0.00  0.00     0.167 HD
ENDBRANCH  61  63
ENDBRANCH  60  61
ENDBRANCH  18  60
BRANCH  14  65
ATOM     65  C   UNK d   0      -5.887 -13.175  19.463  0.00  0.00     0.052 C 
BRANCH  65  66
ATOM     66  C   UNK d   0      -5.508 -13.016  18.034  0.00  0.00     0.115 C 
BRANCH  66  67
ATOM     67  C   UNK d   0      -6.356 -12.263  17.153  0.00  0.00     0.139 C 
ATOM     68  O   UNK d   0      -5.807 -11.479  16.294  0.00  0.00    -0.650 OA
BRANCH  67  69
ATOM     69  O   UNK d   0      -7.749 -12.266  17.100  0.00  0.00    -0.776 OA
ATOM     70  H   UNK d   0      -8.198 -11.339  17.069  0.00  0.00     0.167 HD
ENDBRANCH  67  69
ENDBRANCH  66  67
ENDBRANCH  65  66
ENDBRANCH  14  65
ENDBRANCH   6   7
ENDBRANCH   5   6
ENDBRANCH   2   5
TORSDOF 28
ENDMDL
MODEL 20
REMARK VINA RESULT:      -8.5      2.672      8.091
REMARK  28 active torsions:
REMARK  status: ('A' for Active; 'I' for Inactive)
REMARK    1  A    between atoms: C_2  and  O_3 
REMARK    2  A    between atoms: C_2  and  C_4 
REMARK    3  A    between atoms: C_4  and  C_5 
REMARK    4  A    between atoms: C_5  and  C_6 
REMARK    5  A    between atoms: C_7  and  C_8 
REMARK    6  A    between atoms: C_8  and  C_9 
REMARK    7  A    between atoms: C_9  and  O_11 
REMARK    8  A    between atoms: C_28  and  C_29 
REMARK    9  A    between atoms: C_29  and  C_30 
REMARK   10  A    between atoms: C_30  and  O_32 
REMARK   11  A    between atoms: C_33  and  C_34 
REMARK   12  A    between atoms: C_34  and  C_35 
REMARK   13  A    between atoms: C_35  and  C_36 
REMARK   14  A    between atoms: C_36  and  O_38 
REMARK   15  A    between atoms: C_39  and  C_40 
REMARK   16  A    between atoms: C_40  and  C_41 
REMARK   17  A    between atoms: C_41  and  C_42 
REMARK   18  A    between atoms: C_42  and  O_44 
REMARK   19  A    between atoms: C_45  and  C_46 
REMARK   20  A    between atoms: C_46  and  C_47 
REMARK   21  A    between atoms: C_47  and  O_49 
REMARK   22  A    between atoms: C_50  and  C_51 
REMARK   23  A    between atoms: C_51  and  C_52 
REMARK   24  A    between atoms: C_52  and  O_54 
REMARK   25  A    between atoms: C_55  and  C_56 
REMARK   26  A    between atoms: C_56  and  C_57 
REMARK   27  A    between atoms: C_57  and  C_58 
REMARK   28  A    between atoms: C_58  and  O_60 
ROOT
ATOM      1  O   UNK d   0     -11.497  -2.673  18.153  0.00  0.00    -0.650 OA
ATOM      2  C   UNK d   0     -10.758  -3.512  17.592  0.00  0.00     0.139 C 
ENDROOT
BRANCH   2   3
ATOM      3  O   UNK d   0     -10.554  -3.430  16.235  0.00  0.00    -0.776 OA
ATOM      4  H   UNK d   0     -10.529  -2.526  15.760  0.00  0.00     0.167 HD
ENDBRANCH   2   3
BRANCH   2   5
ATOM      5  C   UNK d   0     -10.108  -4.590  18.391  0.00  0.00     0.115 C 
BRANCH   5   6
ATOM      6  C   UNK d   0      -9.074  -5.299  17.558  0.00  0.00     0.052 C 
BRANCH   6   7
ATOM      7  C   UNK d   0      -8.476  -6.491  18.266  0.00  0.00    -0.020 A 
ATOM      8  C   UNK d   0      -8.879  -7.735  18.213  0.00  0.00    -0.011 A 
ATOM      9  C   UNK d   0      -8.002  -8.523  19.064  0.00  0.00     0.067 A 
ATOM     10  C   UNK d   0      -7.881  -9.876  19.416  0.00  0.00     0.062 C 
ATOM     11  N   UNK d   0      -7.098  -7.677  19.600  0.00  0.00    -0.248 NA
ATOM     12  C   UNK d   0      -6.792 -10.496  20.039  0.00  0.00     0.041 A 
ATOM     13  N   UNK d   0      -6.017 -10.101  21.067  0.00  0.00    -0.355 N 
ATOM     14  C   UNK d   0      -6.325 -11.722  19.531  0.00  0.00    -0.022 A 
ATOM     15  C   UNK d   0      -5.066 -11.042  21.220  0.00  0.00     0.042 A 
ATOM     16  H   UNK d   0      -6.152  -9.186  21.685  0.00  0.00     0.166 HD
ATOM     17  C   UNK d   0      -4.006 -11.127  22.144  0.00  0.00     0.062 C 
ATOM     18  C   UNK d   0      -5.226 -12.074  20.275  0.00  0.00    -0.013 A 
ATOM     19  C   UNK d   0      -3.129 -10.150  22.543  0.00  0.00     0.067 A 
ATOM     20  N   UNK d   0      -3.412  -8.897  22.176  0.00  0.00    -0.248 NA
ATOM     21  C   UNK d   0      -1.886 -10.105  23.296  0.00  0.00    -0.011 A 
ATOM     22  C   UNK d   0      -2.443  -8.037  22.632  0.00  0.00     0.066 A 
ATOM     23  C   UNK d   0      -2.632  -6.692  22.352  0.00  0.00     0.062 C 
ATOM     24  C   UNK d   0      -1.488  -8.867  23.340  0.00  0.00    -0.020 A 
ATOM     25  C   UNK d   0      -3.740  -6.089  21.737  0.00  0.00     0.041 A 
ATOM     26  N   UNK d   0      -4.501  -6.473  20.705  0.00  0.00    -0.355 N 
ATOM     27  C   UNK d   0      -4.210  -4.860  22.249  0.00  0.00    -0.022 A 
ATOM     28  C   UNK d   0      -5.445  -5.532  20.545  0.00  0.00     0.042 A 
ATOM     29  H   UNK d   0      -4.358  -7.387  20.078  0.00  0.00     0.166 HD
ATOM     30  C   UNK d   0      -6.500  -5.430  19.624  0.00  0.00     0.062 C 
ATOM     31  C   UNK d   0      -5.289  -4.501  21.502  0.00  0.00    -0.013 A 
ATOM     32  C   UNK d   0      -7.329  -6.439  19.160  0.00  0.00     0.066 A 
BRANCH   8  33
ATOM     33  C   UNK d   0     -10.017  -8.265  17.440  0.00  0.00     0.151 C 
BRANCH  33  34
ATOM     34  C   UNK d   0      -9.595  -9.077  16.285  0.00  0.00     0.143 C 
ATOM     35  O   UNK d   0      -8.525  -8.848  15.704  0.00  0.00    -0.650 OA
BRANCH  34  36
ATOM     36  O   UNK d   0     -10.402 -10.102  15.849  0.00  0.00    -0.776 OA
ATOM     37  H   UNK d   0     -10.062 -10.798  15.171  0.00  0.00     0.167 HD
ENDBRANCH  34  36
ENDBRANCH  33  34
ENDBRANCH   8  33
BRANCH  31  38
ATOM     38  C   UNK d   0      -6.132  -3.261  21.690  0.00  0.00     0.151 C 
BRANCH  38  39
ATOM     39  C   UNK d   0      -7.284  -3.488  22.536  0.00  0.00     0.143 C 
ATOM     40  O   UNK d   0      -7.215  -3.458  23.778  0.00  0.00    -0.650 OA
BRANCH  39  41
ATOM     41  O   UNK d   0      -8.523  -3.752  21.953  0.00  0.00    -0.776 OA
ATOM     42  H   UNK d   0      -8.576  -4.563  21.329  0.00  0.00     0.167 HD
ENDBRANCH  39  41
ENDBRANCH  38  39
ENDBRANCH  31  38
BRANCH  27  43
ATOM     43  C   UNK d   0      -3.682  -4.034  23.396  0.00  0.00     0.052 C 
BRANCH  43  44
ATOM     44  C   UNK d   0      -2.286  -3.548  23.180  0.00  0.00     0.115 C 
BRANCH  44  45
ATOM     45  C   UNK d   0      -1.503  -3.962  24.373  0.00  0.00     0.139 C 
ATOM     46  O   UNK d   0      -0.744  -3.115  24.906  0.00  0.00    -0.650 OA
BRANCH  45  47
ATOM     47  O   UNK d   0      -1.580  -5.227  24.915  0.00  0.00    -0.776 OA
ATOM     48  H   UNK d   0      -0.874  -5.599  25.572  0.00  0.00     0.167 HD
ENDBRANCH  45  47
ENDBRANCH  44  45
ENDBRANCH  43  44
ENDBRANCH  27  43
BRANCH  24  49
ATOM     49  C   UNK d   0      -0.291  -8.364  24.036  0.00  0.00     0.052 C 
BRANCH  49  50
ATOM     50  C   UNK d   0       0.954  -8.729  23.269  0.00  0.00     0.115 C 
BRANCH  50  51
ATOM     51  C   UNK d   0       2.000  -9.435  23.996  0.00  0.00     0.139 C 
ATOM     52  O   UNK d   0       3.047  -9.848  23.444  0.00  0.00    -0.650 OA
BRANCH  51  53
ATOM     53  O   UNK d   0       1.851  -9.674  25.354  0.00  0.00    -0.776 OA
ATOM     54  H   UNK d   0       2.647 -10.009  25.868  0.00  0.00     0.167 HD
ENDBRANCH  51  53
ENDBRANCH  50  51
ENDBRANCH  49  50
ENDBRANCH  24  49
BRANCH  21  55
ATOM     55  C   UNK d   0      -1.229 -11.304  23.895  0.00  0.00     0.151 C 
BRANCH  55  56
ATOM     56  C   UNK d   0      -1.392 -11.350  25.356  0.00  0.00     0.143 C 
ATOM     57  O   UNK d   0      -0.425 -11.392  26.142  0.00  0.00    -0.650 OA
BRANCH  56  58
ATOM     58  O   UNK d   0      -2.690 -11.345  25.865  0.00  0.00    -0.776 OA
ATOM     59  H   UNK d   0      -3.387 -11.847  25.287  0.00  0.00     0.167 HD
ENDBRANCH  56  58
ENDBRANCH  55  56
ENDBRANCH  21  55
BRANCH  18  60
ATOM     60  C   UNK d   0      -4.405 -13.322  20.066  0.00  0.00     0.151 C 
BRANCH  60  61
ATOM     61  C   UNK d   0      -3.395 -12.975  19.054  0.00  0.00     0.143 C 
ATOM     62  O   UNK d   0      -3.080 -11.846  18.676  0.00  0.00    -0.650 OA
BRANCH  61  63
ATOM     63  O   UNK d   0      -2.727 -14.077  18.468  0.00  0.00    -0.776 OA
ATOM     64  H   UNK d   0      -2.051 -13.944  17.736  0.00  0.00     0.167 HD
ENDBRANCH  61  63
ENDBRANCH  60  61
ENDBRANCH  18  60
BRANCH  14  65
ATOM     65  C   UNK d   0      -6.892 -12.625  18.473  0.00  0.00     0.052 C 
BRANCH  65  66
ATOM     66  C   UNK d   0      -6.258 -12.429  17.141  0.00  0.00     0.115 C 
BRANCH  66  67
ATOM     67  C   UNK d   0      -7.022 -11.862  16.066  0.00  0.00     0.139 C 
ATOM     68  O   UNK d   0      -8.248 -12.224  15.926  0.00  0.00    -0.650 OA
BRANCH  67  69
ATOM     69  O   UNK d   0      -6.598 -10.935  15.114  0.00  0.00    -0.776 OA
ATOM     70  H   UNK d   0      -6.650 -11.245  14.133  0.00  0.00     0.167 HD
ENDBRANCH  67  69
ENDBRANCH  66  67
ENDBRANCH  65  66
ENDBRANCH  14  65
ENDBRANCH   6   7
ENDBRANCH   5   6
ENDBRANCH   2   5
TORSDOF 28
ENDMDL
