MODEL 1
REMARK VINA RESULT:     -10.5      0.000      0.000
REMARK  16 active torsions:
REMARK  status: ('A' for Active; 'I' for Inactive)
REMARK    1  A    between atoms: C_6  and  C_7 
REMARK    2  A    between atoms: C_7  and  C_8 
REMARK    3  A    between atoms: C_8  and  C_9 
REMARK    4  A    between atoms: C_9  and  O_11 
REMARK    5  A    between atoms: C_16  and  C_17 
REMARK    6  A    between atoms: C_17  and  C_18 
REMARK    7  A    between atoms: C_18  and  C_19 
REMARK    8  A    between atoms: C_19  and  O_21 
REMARK    9  A    between atoms: C_28  and  C_29 
REMARK   10  A    between atoms: C_29  and  C_30 
REMARK   11  A    between atoms: C_30  and  C_31 
REMARK   12  A    between atoms: C_31  and  O_33 
REMARK   13  A    between atoms: C_42  and  C_43 
REMARK   14  A    between atoms: C_43  and  C_44 
REMARK   15  A    between atoms: C_44  and  C_45 
REMARK   16  A    between atoms: C_45  and  O_47 
ROOT
HETATM    1  C   UNK     0      -5.721  -7.356  28.603  0.00  0.00     0.051 C 
HETATM    2  C   UNK     0      -4.484  -6.534  28.303  0.00  0.00    -0.031 A 
HETATM    3  C   UNK     0      -4.246  -5.650  27.263  0.00  0.00     0.021 A 
HETATM    4  N   UNK     0      -2.987  -5.164  27.375  0.00  0.00    -0.361 N 
HETATM    5  C   UNK     0      -2.421  -5.713  28.470  0.00  0.00     0.022 A 
HETATM    6  C   UNK     0      -3.329  -6.577  29.073  0.00  0.00    -0.027 A 
HETATM    7  C   UNK     0      -1.084  -5.442  29.088  0.00  0.00     0.115 C 
HETATM    8  C   UNK     0      -0.653  -3.988  29.169  0.00  0.00     0.021 A 
HETATM    9  N   UNK     0      -1.411  -2.903  29.390  0.00  0.00    -0.361 N 
HETATM   10  C   UNK     0      -0.622  -1.812  29.285  0.00  0.00     0.022 A 
HETATM   11  C   UNK     0       0.682  -2.207  28.998  0.00  0.00    -0.027 A 
HETATM   12  C   UNK     0       0.669  -3.577  28.923  0.00  0.00    -0.031 A 
HETATM   13  C   UNK     0       1.871  -4.448  28.635  0.00  0.00     0.051 C 
HETATM   14  C   UNK     0      -1.073  -0.359  29.399  0.00  0.00     0.115 C 
HETATM   15  C   UNK     0      -2.097   0.051  28.352  0.00  0.00     0.021 A 
HETATM   16  N   UNK     0      -3.308  -0.492  28.131  0.00  0.00    -0.361 N 
HETATM   17  C   UNK     0      -3.871   0.104  27.079  0.00  0.00     0.022 A 
HETATM   18  C   UNK     0      -2.988   1.091  26.596  0.00  0.00    -0.027 A 
HETATM   19  C   UNK     0      -1.881   1.048  27.403  0.00  0.00    -0.031 A 
HETATM   20  C   UNK     0      -0.691   1.979  27.253  0.00  0.00     0.051 C 
HETATM   21  C   UNK     0      -5.184  -0.183  26.385  0.00  0.00     0.115 C 
HETATM   22  C   UNK     0      -5.646  -1.620  26.336  0.00  0.00     0.022 A 
HETATM   23  N   UNK     0      -4.914  -2.721  26.122  0.00  0.00    -0.361 N 
HETATM   24  C   UNK     0      -5.704  -3.798  26.308  0.00  0.00     0.021 A 
HETATM   25  C   UNK     0      -6.978  -3.380  26.640  0.00  0.00    -0.031 A 
HETATM   26  C   UNK     0      -8.216  -4.213  26.904  0.00  0.00     0.051 C 
HETATM   27  C   UNK     0      -6.966  -1.990  26.664  0.00  0.00    -0.027 A 
HETATM   28  C   UNK     0      -5.303  -5.263  26.267  0.00  0.00     0.115 C 
HETATM   29  H   UNK     0      -2.493  -4.468  26.659  0.00  0.00     0.165 HD
HETATM   30  H   UNK     0      -2.493  -2.905  29.671  0.00  0.00     0.165 HD
HETATM   31  H   UNK     0      -3.797  -1.281  28.760  0.00  0.00     0.165 HD
HETATM   32  H   UNK     0      -3.842  -2.747  25.794  0.00  0.00     0.165 HD
ENDROOT
BRANCH   6  33
HETATM   33  C   UNK     0      -3.183  -7.431  30.307  0.00  0.00     0.051 C 
BRANCH  33  34
HETATM   34  C   UNK     0      -3.313  -6.593  31.556  0.00  0.00     0.114 C 
BRANCH  34  35
HETATM   35  C   UNK     0      -2.240  -7.024  32.497  0.00  0.00     0.139 C 
HETATM   36  O   UNK     0      -1.032  -6.726  32.266  0.00  0.00    -0.650 OA
BRANCH  35  37
HETATM   37  O   UNK     0      -2.503  -7.756  33.649  0.00  0.00    -0.776 OA
HETATM   38  H   UNK     0      -3.432  -8.065  33.885  0.00  0.00     0.167 HD
ENDBRANCH  35  37
ENDBRANCH  34  35
ENDBRANCH  33  34
ENDBRANCH   6  33
BRANCH  27  39
HETATM   39  C   UNK     0      -8.185  -1.174  26.917  0.00  0.00     0.051 C 
BRANCH  39  40
HETATM   40  C   UNK     0      -8.968  -0.723  25.767  0.00  0.00     0.114 C 
BRANCH  40  41
HETATM   41  C   UNK     0      -8.415   0.143  24.749  0.00  0.00     0.139 C 
HETATM   42  O   UNK     0      -8.112   1.327  24.950  0.00  0.00    -0.650 OA
BRANCH  41  43
HETATM   43  O   UNK     0      -8.201  -0.376  23.441  0.00  0.00    -0.776 OA
HETATM   44  H   UNK     0      -8.616  -1.286  23.279  0.00  0.00     0.167 HD
ENDBRANCH  41  43
ENDBRANCH  40  41
ENDBRANCH  39  40
ENDBRANCH  27  39
BRANCH  11  45
HETATM   45  C   UNK     0       1.903  -1.350  28.800  0.00  0.00     0.051 C 
BRANCH  45  46
HETATM   46  C   UNK     0       1.954  -0.661  27.485  0.00  0.00     0.114 C 
BRANCH  46  47
HETATM   47  C   UNK     0       2.596  -1.599  26.520  0.00  0.00     0.139 C 
HETATM   48  O   UNK     0       3.833  -1.669  26.496  0.00  0.00    -0.650 OA
BRANCH  47  49
HETATM   49  O   UNK     0       1.836  -2.368  25.675  0.00  0.00    -0.776 OA
HETATM   50  H   UNK     0       1.602  -2.062  24.723  0.00  0.00     0.167 HD
ENDBRANCH  47  49
ENDBRANCH  46  47
ENDBRANCH  45  46
ENDBRANCH  11  45
BRANCH  18  51
HETATM   51  C   UNK     0      -3.197   2.037  25.442  0.00  0.00     0.051 C 
BRANCH  51  52
HETATM   52  C   UNK     0      -3.907   3.255  26.013  0.00  0.00     0.114 C 
BRANCH  52  53
HETATM   53  C   UNK     0      -5.232   3.459  25.397  0.00  0.00     0.139 C 
HETATM   54  O   UNK     0      -6.024   4.282  25.884  0.00  0.00    -0.650 OA
BRANCH  53  55
HETATM   55  O   UNK     0      -5.584   2.731  24.286  0.00  0.00    -0.776 OA
HETATM   56  H   UNK     0      -4.998   2.101  23.791  0.00  0.00     0.167 HD
ENDBRANCH  53  55
ENDBRANCH  52  53
ENDBRANCH  51  52
ENDBRANCH  18  51
TORSDOF 16
ENDMDL
MODEL 2
REMARK VINA RESULT:      -9.7      2.045      6.934
REMARK  16 active torsions:
REMARK  status: ('A' for Active; 'I' for Inactive)
REMARK    1  A    between atoms: C_6  and  C_7 
REMARK    2  A    between atoms: C_7  and  C_8 
REMARK    3  A    between atoms: C_8  and  C_9 
REMARK    4  A    between atoms: C_9  and  O_11 
REMARK    5  A    between atoms: C_16  and  C_17 
REMARK    6  A    between atoms: C_17  and  C_18 
REMARK    7  A    between atoms: C_18  and  C_19 
REMARK    8  A    between atoms: C_19  and  O_21 
REMARK    9  A    between atoms: C_28  and  C_29 
REMARK   10  A    between atoms: C_29  and  C_30 
REMARK   11  A    between atoms: C_30  and  C_31 
REMARK   12  A    between atoms: C_31  and  O_33 
REMARK   13  A    between atoms: C_42  and  C_43 
REMARK   14  A    between atoms: C_43  and  C_44 
REMARK   15  A    between atoms: C_44  and  C_45 
REMARK   16  A    between atoms: C_45  and  O_47 
ROOT
HETATM    1  C   UNK     0       1.126  -6.843  31.050  0.00  0.00     0.051 C 
HETATM    2  C   UNK     0      -0.266  -6.418  30.630  0.00  0.00    -0.031 A 
HETATM    3  C   UNK     0      -0.909  -5.204  30.814  0.00  0.00     0.021 A 
HETATM    4  N   UNK     0      -2.159  -5.285  30.301  0.00  0.00    -0.361 N 
HETATM    5  C   UNK     0      -2.325  -6.521  29.786  0.00  0.00     0.022 A 
HETATM    6  C   UNK     0      -1.160  -7.257  29.977  0.00  0.00    -0.027 A 
HETATM    7  C   UNK     0      -3.483  -7.088  29.027  0.00  0.00     0.115 C 
HETATM    8  C   UNK     0      -4.116  -6.191  27.978  0.00  0.00     0.021 A 
HETATM    9  N   UNK     0      -3.521  -5.301  27.170  0.00  0.00    -0.361 N 
HETATM   10  C   UNK     0      -4.482  -4.664  26.467  0.00  0.00     0.022 A 
HETATM   11  C   UNK     0      -5.730  -5.164  26.827  0.00  0.00    -0.027 A 
HETATM   12  C   UNK     0      -5.507  -6.127  27.778  0.00  0.00    -0.031 A 
HETATM   13  C   UNK     0      -6.579  -6.948  28.458  0.00  0.00     0.051 C 
HETATM   14  C   UNK     0      -4.267  -3.527  25.473  0.00  0.00     0.115 C 
HETATM   15  C   UNK     0      -3.631  -2.288  26.082  0.00  0.00     0.021 A 
HETATM   16  N   UNK     0      -2.443  -2.199  26.710  0.00  0.00    -0.361 N 
HETATM   17  C   UNK     0      -2.278  -0.954  27.162  0.00  0.00     0.022 A 
HETATM   18  C   UNK     0      -3.408  -0.192  26.802  0.00  0.00    -0.027 A 
HETATM   19  C   UNK     0      -4.247  -1.039  26.125  0.00  0.00    -0.031 A 
HETATM   20  C   UNK     0      -5.574  -0.611  25.526  0.00  0.00     0.051 C 
HETATM   21  C   UNK     0      -1.159  -0.359  27.986  0.00  0.00     0.115 C 
HETATM   22  C   UNK     0      -0.491  -1.254  29.003  0.00  0.00     0.022 A 
HETATM   23  N   UNK     0      -1.058  -2.153  29.819  0.00  0.00    -0.361 N 
HETATM   24  C   UNK     0      -0.078  -2.829  30.451  0.00  0.00     0.021 A 
HETATM   25  C   UNK     0       1.150  -2.347  30.041  0.00  0.00    -0.031 A 
HETATM   26  C   UNK     0       2.536  -2.757  30.495  0.00  0.00     0.051 C 
HETATM   27  C   UNK     0       0.912  -1.338  29.114  0.00  0.00    -0.027 A 
HETATM   28  C   UNK     0      -0.224  -4.003  31.403  0.00  0.00     0.115 C 
HETATM   29  H   UNK     0      -2.930  -4.481  30.342  0.00  0.00     0.165 HD
HETATM   30  H   UNK     0      -2.419  -5.154  27.056  0.00  0.00     0.165 HD
HETATM   31  H   UNK     0      -1.684  -3.019  26.795  0.00  0.00     0.165 HD
HETATM   32  H   UNK     0      -2.158  -2.288  29.988  0.00  0.00     0.165 HD
ENDROOT
BRANCH   6  33
HETATM   33  C   UNK     0      -0.838  -8.679  29.594  0.00  0.00     0.051 C 
BRANCH  33  34
HETATM   34  C   UNK     0      -1.120  -9.619  30.742  0.00  0.00     0.114 C 
BRANCH  34  35
HETATM   35  C   UNK     0       0.113 -10.427  30.970  0.00  0.00     0.139 C 
HETATM   36  O   UNK     0       0.099 -11.393  31.787  0.00  0.00    -0.650 OA
BRANCH  35  37
HETATM   37  O   UNK     0       1.310 -10.170  30.313  0.00  0.00    -0.776 OA
HETATM   38  H   UNK     0       1.343  -9.949  29.331  0.00  0.00     0.167 HD
ENDBRANCH  35  37
ENDBRANCH  34  35
ENDBRANCH  33  34
ENDBRANCH   6  33
BRANCH  27  39
HETATM   39  C   UNK     0       1.999  -0.530  28.498  0.00  0.00     0.051 C 
BRANCH  39  40
HETATM   40  C   UNK     0       2.432  -0.867  27.142  0.00  0.00     0.114 C 
BRANCH  40  41
HETATM   41  C   UNK     0       2.388  -2.219  26.633  0.00  0.00     0.139 C 
HETATM   42  O   UNK     0       3.328  -3.019  26.735  0.00  0.00    -0.650 OA
BRANCH  41  43
HETATM   43  O   UNK     0       1.208  -2.672  25.976  0.00  0.00    -0.776 OA
HETATM   44  H   UNK     0       1.327  -3.526  25.445  0.00  0.00     0.167 HD
ENDBRANCH  41  43
ENDBRANCH  40  41
ENDBRANCH  39  40
ENDBRANCH  27  39
BRANCH  11  45
HETATM   45  C   UNK     0      -7.087  -4.771  26.308  0.00  0.00     0.051 C 
BRANCH  45  46
HETATM   46  C   UNK     0      -7.637  -3.537  26.925  0.00  0.00     0.114 C 
BRANCH  46  47
HETATM   47  C   UNK     0      -8.858  -3.165  26.155  0.00  0.00     0.139 C 
HETATM   48  O   UNK     0      -9.421  -4.038  25.478  0.00  0.00    -0.650 OA
BRANCH  47  49
HETATM   49  O   UNK     0      -9.349  -1.885  26.192  0.00  0.00    -0.776 OA
HETATM   50  H   UNK     0     -10.312  -1.678  26.483  0.00  0.00     0.167 HD
ENDBRANCH  47  49
ENDBRANCH  46  47
ENDBRANCH  45  46
ENDBRANCH  11  45
BRANCH  18  51
HETATM   51  C   UNK     0      -3.665   1.268  27.071  0.00  0.00     0.051 C 
BRANCH  51  52
HETATM   52  C   UNK     0      -2.827   2.040  26.064  0.00  0.00     0.114 C 
BRANCH  52  53
HETATM   53  C   UNK     0      -3.666   2.813  25.128  0.00  0.00     0.139 C 
HETATM   54  O   UNK     0      -4.195   3.874  25.498  0.00  0.00    -0.650 OA
BRANCH  53  55
HETATM   55  O   UNK     0      -3.861   2.351  23.849  0.00  0.00    -0.776 OA
HETATM   56  H   UNK     0      -4.689   2.454  23.311  0.00  0.00     0.167 HD
ENDBRANCH  53  55
ENDBRANCH  52  53
ENDBRANCH  51  52
ENDBRANCH  18  51
TORSDOF 16
ENDMDL
MODEL 3
REMARK VINA RESULT:      -9.6      2.982      7.164
REMARK  16 active torsions:
REMARK  status: ('A' for Active; 'I' for Inactive)
REMARK    1  A    between atoms: C_6  and  C_7 
REMARK    2  A    between atoms: C_7  and  C_8 
REMARK    3  A    between atoms: C_8  and  C_9 
REMARK    4  A    between atoms: C_9  and  O_11 
REMARK    5  A    between atoms: C_16  and  C_17 
REMARK    6  A    between atoms: C_17  and  C_18 
REMARK    7  A    between atoms: C_18  and  C_19 
REMARK    8  A    between atoms: C_19  and  O_21 
REMARK    9  A    between atoms: C_28  and  C_29 
REMARK   10  A    between atoms: C_29  and  C_30 
REMARK   11  A    between atoms: C_30  and  C_31 
REMARK   12  A    between atoms: C_31  and  O_33 
REMARK   13  A    between atoms: C_42  and  C_43 
REMARK   14  A    between atoms: C_43  and  C_44 
REMARK   15  A    between atoms: C_44  and  C_45 
REMARK   16  A    between atoms: C_45  and  O_47 
ROOT
HETATM    1  C   UNK     0      -7.953  -2.515  25.185  0.00  0.00     0.051 C 
HETATM    2  C   UNK     0      -6.964  -3.521  25.738  0.00  0.00    -0.031 A 
HETATM    3  C   UNK     0      -5.583  -3.555  25.618  0.00  0.00     0.021 A 
HETATM    4  N   UNK     0      -5.112  -4.657  26.247  0.00  0.00    -0.361 N 
HETATM    5  C   UNK     0      -6.162  -5.323  26.773  0.00  0.00     0.022 A 
HETATM    6  C   UNK     0      -7.336  -4.641  26.470  0.00  0.00    -0.027 A 
HETATM    7  C   UNK     0      -6.178  -6.544  27.638  0.00  0.00     0.115 C 
HETATM    8  C   UNK     0      -5.139  -6.610  28.744  0.00  0.00     0.021 A 
HETATM    9  N   UNK     0      -4.652  -5.609  29.494  0.00  0.00    -0.361 N 
HETATM   10  C   UNK     0      -3.682  -6.113  30.286  0.00  0.00     0.022 A 
HETATM   11  C   UNK     0      -3.547  -7.477  30.046  0.00  0.00    -0.027 A 
HETATM   12  C   UNK     0      -4.462  -7.797  29.076  0.00  0.00    -0.031 A 
HETATM   13  C   UNK     0      -4.678  -9.178  28.499  0.00  0.00     0.051 C 
HETATM   14  C   UNK     0      -2.811  -5.322  31.258  0.00  0.00     0.115 C 
HETATM   15  C   UNK     0      -1.968  -4.246  30.594  0.00  0.00     0.021 A 
HETATM   16  N   UNK     0      -2.397  -3.205  29.856  0.00  0.00    -0.361 N 
HETATM   17  C   UNK     0      -1.342  -2.531  29.393  0.00  0.00     0.022 A 
HETATM   18  C   UNK     0      -0.169  -3.156  29.859  0.00  0.00    -0.027 A 
HETATM   19  C   UNK     0      -0.575  -4.228  30.611  0.00  0.00    -0.031 A 
HETATM   20  C   UNK     0       0.380  -5.160  31.335  0.00  0.00     0.051 C 
HETATM   21  C   UNK     0      -1.282  -1.337  28.466  0.00  0.00     0.115 C 
HETATM   22  C   UNK     0      -2.336  -1.236  27.389  0.00  0.00     0.022 A 
HETATM   23  N   UNK     0      -2.843  -2.216  26.629  0.00  0.00    -0.361 N 
HETATM   24  C   UNK     0      -3.860  -1.708  25.905  0.00  0.00     0.021 A 
HETATM   25  C   UNK     0      -4.005  -0.365  26.197  0.00  0.00    -0.031 A 
HETATM   26  C   UNK     0      -4.977   0.639  25.612  0.00  0.00     0.051 C 
HETATM   27  C   UNK     0      -3.041  -0.040  27.145  0.00  0.00    -0.027 A 
HETATM   28  C   UNK     0      -4.797  -2.451  24.969  0.00  0.00     0.115 C 
HETATM   29  H   UNK     0      -4.046  -4.979  26.281  0.00  0.00     0.165 HD
HETATM   30  H   UNK     0      -5.025  -4.556  29.503  0.00  0.00     0.165 HD
HETATM   31  H   UNK     0      -3.468  -2.911  29.697  0.00  0.00     0.165 HD
HETATM   32  H   UNK     0      -2.459  -3.268  26.565  0.00  0.00     0.165 HD
ENDROOT
BRANCH   6  33
HETATM   33  C   UNK     0      -8.766  -4.970  26.818  0.00  0.00     0.051 C 
BRANCH  33  34
HETATM   34  C   UNK     0      -9.347  -5.946  25.823  0.00  0.00     0.114 C 
BRANCH  34  35
HETATM   35  C   UNK     0     -10.635  -6.443  26.387  0.00  0.00     0.139 C 
HETATM   36  O   UNK     0     -10.932  -6.214  27.595  0.00  0.00    -0.650 OA
BRANCH  35  37
HETATM   37  O   UNK     0     -11.554  -7.164  25.633  0.00  0.00    -0.776 OA
HETATM   38  H   UNK     0     -12.547  -7.077  25.776  0.00  0.00     0.167 HD
ENDBRANCH  35  37
ENDBRANCH  34  35
ENDBRANCH  33  34
ENDBRANCH   6  33
BRANCH  27  39
HETATM   39  C   UNK     0      -2.840   1.343  27.656  0.00  0.00     0.051 C 
BRANCH  39  40
HETATM   40  C   UNK     0      -1.507   1.935  27.551  0.00  0.00     0.114 C 
BRANCH  40  41
HETATM   41  C   UNK     0      -0.772   2.389  28.710  0.00  0.00     0.139 C 
HETATM   42  O   UNK     0      -1.027   2.026  29.866  0.00  0.00    -0.650 OA
BRANCH  41  43
HETATM   43  O   UNK     0       0.307   3.301  28.531  0.00  0.00    -0.776 OA
HETATM   44  H   UNK     0       1.067   2.945  27.964  0.00  0.00     0.167 HD
ENDBRANCH  41  43
ENDBRANCH  40  41
ENDBRANCH  39  40
ENDBRANCH  27  39
BRANCH  11  45
HETATM   45  C   UNK     0      -2.606  -8.458  30.692  0.00  0.00     0.051 C 
BRANCH  45  46
HETATM   46  C   UNK     0      -1.242  -8.469  30.103  0.00  0.00     0.114 C 
BRANCH  46  47
HETATM   47  C   UNK     0      -0.421  -9.418  30.907  0.00  0.00     0.139 C 
HETATM   48  O   UNK     0      -0.999 -10.186  31.689  0.00  0.00    -0.650 OA
BRANCH  47  49
HETATM   49  O   UNK     0       0.945  -9.442  30.786  0.00  0.00    -0.776 OA
HETATM   50  H   UNK     0       1.410  -9.576  29.881  0.00  0.00     0.167 HD
ENDBRANCH  47  49
ENDBRANCH  46  47
ENDBRANCH  45  46
ENDBRANCH  11  45
BRANCH  18  51
HETATM   51  C   UNK     0       1.259  -2.743  29.619  0.00  0.00     0.051 C 
BRANCH  51  52
HETATM   52  C   UNK     0       1.690  -1.963  30.852  0.00  0.00     0.114 C 
BRANCH  52  53
HETATM   53  C   UNK     0       1.319  -0.538  30.759  0.00  0.00     0.139 C 
HETATM   54  O   UNK     0       1.794   0.170  29.857  0.00  0.00    -0.650 OA
BRANCH  53  55
HETATM   55  O   UNK     0       0.449  -0.001  31.677  0.00  0.00    -0.776 OA
HETATM   56  H   UNK     0      -0.524   0.142  31.545  0.00  0.00     0.167 HD
ENDBRANCH  53  55
ENDBRANCH  52  53
ENDBRANCH  51  52
ENDBRANCH  18  51
TORSDOF 16
ENDMDL
MODEL 4
REMARK VINA RESULT:      -9.4      3.175      7.932
REMARK  16 active torsions:
REMARK  status: ('A' for Active; 'I' for Inactive)
REMARK    1  A    between atoms: C_6  and  C_7 
REMARK    2  A    between atoms: C_7  and  C_8 
REMARK    3  A    between atoms: C_8  and  C_9 
REMARK    4  A    between atoms: C_9  and  O_11 
REMARK    5  A    between atoms: C_16  and  C_17 
REMARK    6  A    between atoms: C_17  and  C_18 
REMARK    7  A    between atoms: C_18  and  C_19 
REMARK    8  A    between atoms: C_19  and  O_21 
REMARK    9  A    between atoms: C_28  and  C_29 
REMARK   10  A    between atoms: C_29  and  C_30 
REMARK   11  A    between atoms: C_30  and  C_31 
REMARK   12  A    between atoms: C_31  and  O_33 
REMARK   13  A    between atoms: C_42  and  C_43 
REMARK   14  A    between atoms: C_43  and  C_44 
REMARK   15  A    between atoms: C_44  and  C_45 
REMARK   16  A    between atoms: C_45  and  O_47 
ROOT
HETATM    1  C   UNK     0      -6.903  -9.645  27.205  0.00  0.00     0.051 C 
HETATM    2  C   UNK     0      -6.986  -8.139  27.350  0.00  0.00    -0.031 A 
HETATM    3  C   UNK     0      -6.381  -7.311  28.282  0.00  0.00     0.021 A 
HETATM    4  N   UNK     0      -6.763  -6.032  28.049  0.00  0.00    -0.361 N 
HETATM    5  C   UNK     0      -7.591  -6.027  26.984  0.00  0.00     0.022 A 
HETATM    6  C   UNK     0      -7.754  -7.329  26.524  0.00  0.00    -0.027 A 
HETATM    7  C   UNK     0      -8.212  -4.869  26.267  0.00  0.00     0.115 C 
HETATM    8  C   UNK     0      -7.322  -3.665  26.017  0.00  0.00     0.021 A 
HETATM    9  N   UNK     0      -6.010  -3.639  25.733  0.00  0.00    -0.361 N 
HETATM   10  C   UNK     0      -5.617  -2.349  25.683  0.00  0.00     0.022 A 
HETATM   11  C   UNK     0      -6.707  -1.520  25.934  0.00  0.00    -0.027 A 
HETATM   12  C   UNK     0      -7.784  -2.343  26.145  0.00  0.00    -0.031 A 
HETATM   13  C   UNK     0      -9.191  -1.880  26.450  0.00  0.00     0.051 C 
HETATM   14  C   UNK     0      -4.194  -1.848  25.452  0.00  0.00     0.115 C 
HETATM   15  C   UNK     0      -3.202  -2.305  26.509  0.00  0.00     0.021 A 
HETATM   16  N   UNK     0      -2.890  -3.569  26.851  0.00  0.00    -0.361 N 
HETATM   17  C   UNK     0      -2.028  -3.547  27.870  0.00  0.00     0.022 A 
HETATM   18  C   UNK     0      -1.757  -2.204  28.201  0.00  0.00    -0.027 A 
HETATM   19  C   UNK     0      -2.497  -1.437  27.340  0.00  0.00    -0.031 A 
HETATM   20  C   UNK     0      -2.472   0.081  27.328  0.00  0.00     0.051 C 
HETATM   21  C   UNK     0      -1.430  -4.688  28.662  0.00  0.00     0.115 C 
HETATM   22  C   UNK     0      -2.290  -5.911  28.881  0.00  0.00     0.022 A 
HETATM   23  N   UNK     0      -3.598  -5.966  29.162  0.00  0.00    -0.361 N 
HETATM   24  C   UNK     0      -3.984  -7.258  29.129  0.00  0.00     0.021 A 
HETATM   25  C   UNK     0      -2.896  -8.054  28.830  0.00  0.00    -0.031 A 
HETATM   26  C   UNK     0      -2.819  -9.563  28.721  0.00  0.00     0.051 C 
HETATM   27  C   UNK     0      -1.799  -7.215  28.667  0.00  0.00    -0.027 A 
HETATM   28  C   UNK     0      -5.389  -7.813  29.292  0.00  0.00     0.115 C 
HETATM   29  H   UNK     0      -6.476  -5.148  28.664  0.00  0.00     0.165 HD
HETATM   30  H   UNK     0      -5.370  -4.529  25.516  0.00  0.00     0.165 HD
HETATM   31  H   UNK     0      -3.249  -4.496  26.333  0.00  0.00     0.165 HD
HETATM   32  H   UNK     0      -4.254  -5.097  29.429  0.00  0.00     0.165 HD
ENDROOT
BRANCH   6  33
HETATM   33  C   UNK     0      -8.577  -7.856  25.374  0.00  0.00     0.051 C 
BRANCH  33  34
HETATM   34  C   UNK     0      -9.972  -8.208  25.832  0.00  0.00     0.114 C 
BRANCH  34  35
HETATM   35  C   UNK     0     -10.233  -9.618  25.422  0.00  0.00     0.139 C 
HETATM   36  O   UNK     0      -9.406 -10.231  24.686  0.00  0.00    -0.650 OA
BRANCH  35  37
HETATM   37  O   UNK     0     -11.368 -10.316  25.819  0.00  0.00    -0.776 OA
HETATM   38  H   UNK     0     -12.297  -9.974  25.634  0.00  0.00     0.167 HD
ENDBRANCH  35  37
ENDBRANCH  34  35
ENDBRANCH  33  34
ENDBRANCH   6  33
BRANCH  27  39
HETATM   39  C   UNK     0      -0.424  -7.719  28.405  0.00  0.00     0.051 C 
BRANCH  39  40
HETATM   40  C   UNK     0       0.422  -8.056  29.549  0.00  0.00     0.114 C 
BRANCH  40  41
HETATM   41  C   UNK     0       1.485  -7.188  30.004  0.00  0.00     0.139 C 
HETATM   42  O   UNK     0       1.352  -5.966  30.155  0.00  0.00    -0.650 OA
BRANCH  41  43
HETATM   43  O   UNK     0       2.759  -7.752  30.297  0.00  0.00    -0.776 OA
HETATM   44  H   UNK     0       3.049  -7.653  31.263  0.00  0.00     0.167 HD
ENDBRANCH  41  43
ENDBRANCH  40  41
ENDBRANCH  39  40
ENDBRANCH  27  39
BRANCH  11  45
HETATM   45  C   UNK     0      -6.757  -0.017  25.975  0.00  0.00     0.051 C 
BRANCH  45  46
HETATM   46  C   UNK     0      -6.454   0.636  24.676  0.00  0.00     0.114 C 
BRANCH  46  47
HETATM   47  C   UNK     0      -5.397   1.656  24.930  0.00  0.00     0.139 C 
HETATM   48  O   UNK     0      -4.672   2.005  23.988  0.00  0.00    -0.650 OA
BRANCH  47  49
HETATM   49  O   UNK     0      -5.228   2.197  26.179  0.00  0.00    -0.776 OA
HETATM   50  H   UNK     0      -5.330   1.637  27.034  0.00  0.00     0.167 HD
ENDBRANCH  47  49
ENDBRANCH  46  47
ENDBRANCH  45  46
ENDBRANCH  11  45
BRANCH  18  51
HETATM   51  C   UNK     0      -0.827  -1.682  29.265  0.00  0.00     0.051 C 
BRANCH  51  52
HETATM   52  C   UNK     0       0.539  -1.546  28.608  0.00  0.00     0.114 C 
BRANCH  52  53
HETATM   53  C   UNK     0       0.986  -0.141  28.556  0.00  0.00     0.139 C 
HETATM   54  O   UNK     0       1.099   0.515  29.604  0.00  0.00    -0.650 OA
BRANCH  53  55
HETATM   55  O   UNK     0       1.271   0.437  27.343  0.00  0.00    -0.776 OA
HETATM   56  H   UNK     0       0.934   0.136  26.459  0.00  0.00     0.167 HD
ENDBRANCH  53  55
ENDBRANCH  52  53
ENDBRANCH  51  52
ENDBRANCH  18  51
TORSDOF 16
ENDMDL
MODEL 5
REMARK VINA RESULT:      -9.3      1.860      7.016
REMARK  16 active torsions:
REMARK  status: ('A' for Active; 'I' for Inactive)
REMARK    1  A    between atoms: C_6  and  C_7 
REMARK    2  A    between atoms: C_7  and  C_8 
REMARK    3  A    between atoms: C_8  and  C_9 
REMARK    4  A    between atoms: C_9  and  O_11 
REMARK    5  A    between atoms: C_16  and  C_17 
REMARK    6  A    between atoms: C_17  and  C_18 
REMARK    7  A    between atoms: C_18  and  C_19 
REMARK    8  A    between atoms: C_19  and  O_21 
REMARK    9  A    between atoms: C_28  and  C_29 
REMARK   10  A    between atoms: C_29  and  C_30 
REMARK   11  A    between atoms: C_30  and  C_31 
REMARK   12  A    between atoms: C_31  and  O_33 
REMARK   13  A    between atoms: C_42  and  C_43 
REMARK   14  A    between atoms: C_43  and  C_44 
REMARK   15  A    between atoms: C_44  and  C_45 
REMARK   16  A    between atoms: C_45  and  O_47 
ROOT
HETATM    1  C   UNK     0       0.563   1.111  27.809  0.00  0.00     0.051 C 
HETATM    2  C   UNK     0       0.161  -0.120  28.596  0.00  0.00    -0.031 A 
HETATM    3  C   UNK     0      -1.097  -0.526  29.012  0.00  0.00     0.021 A 
HETATM    4  N   UNK     0      -0.978  -1.677  29.716  0.00  0.00    -0.361 N 
HETATM    5  C   UNK     0       0.327  -2.018  29.750  0.00  0.00     0.022 A 
HETATM    6  C   UNK     0       1.068  -1.064  29.061  0.00  0.00    -0.027 A 
HETATM    7  C   UNK     0       0.977  -3.241  30.317  0.00  0.00     0.115 C 
HETATM    8  C   UNK     0       0.282  -4.565  30.055  0.00  0.00     0.021 A 
HETATM    9  N   UNK     0      -0.391  -4.955  28.961  0.00  0.00    -0.361 N 
HETATM   10  C   UNK     0      -0.919  -6.173  29.205  0.00  0.00     0.022 A 
HETATM   11  C   UNK     0      -0.569  -6.583  30.489  0.00  0.00    -0.027 A 
HETATM   12  C   UNK     0       0.187  -5.575  31.030  0.00  0.00    -0.031 A 
HETATM   13  C   UNK     0       0.795  -5.585  32.415  0.00  0.00     0.051 C 
HETATM   14  C   UNK     0      -1.815  -6.972  28.263  0.00  0.00     0.115 C 
HETATM   15  C   UNK     0      -3.117  -6.272  27.911  0.00  0.00     0.021 A 
HETATM   16  N   UNK     0      -3.271  -5.071  27.323  0.00  0.00    -0.361 N 
HETATM   17  C   UNK     0      -4.572  -4.782  27.251  0.00  0.00     0.022 A 
HETATM   18  C   UNK     0      -5.302  -5.850  27.810  0.00  0.00    -0.027 A 
HETATM   19  C   UNK     0      -4.379  -6.777  28.218  0.00  0.00    -0.031 A 
HETATM   20  C   UNK     0      -4.743  -8.110  28.847  0.00  0.00     0.051 C 
HETATM   21  C   UNK     0      -5.264  -3.534  26.749  0.00  0.00     0.115 C 
HETATM   22  C   UNK     0      -4.563  -2.214  26.963  0.00  0.00     0.022 A 
HETATM   23  N   UNK     0      -3.882  -1.800  28.040  0.00  0.00    -0.361 N 
HETATM   24  C   UNK     0      -3.300  -0.620  27.746  0.00  0.00     0.021 A 
HETATM   25  C   UNK     0      -3.622  -0.260  26.452  0.00  0.00    -0.031 A 
HETATM   26  C   UNK     0      -3.242   0.992  25.688  0.00  0.00     0.051 C 
HETATM   27  C   UNK     0      -4.430  -1.264  25.930  0.00  0.00    -0.027 A 
HETATM   28  C   UNK     0      -2.355   0.192  28.615  0.00  0.00     0.115 C 
HETATM   29  H   UNK     0      -1.813  -2.220  30.218  0.00  0.00     0.165 HD
HETATM   30  H   UNK     0      -0.453  -4.394  27.997  0.00  0.00     0.165 HD
HETATM   31  H   UNK     0      -2.447  -4.435  26.907  0.00  0.00     0.165 HD
HETATM   32  H   UNK     0      -3.842  -2.318  29.034  0.00  0.00     0.165 HD
ENDROOT
BRANCH   6  33
HETATM   33  C   UNK     0       2.554  -0.980  28.817  0.00  0.00     0.051 C 
BRANCH  33  34
HETATM   34  C   UNK     0       3.035  -2.177  28.031  0.00  0.00     0.114 C 
BRANCH  34  35
HETATM   35  C   UNK     0       2.816  -1.879  26.586  0.00  0.00     0.139 C 
HETATM   36  O   UNK     0       1.690  -2.102  26.053  0.00  0.00    -0.650 OA
BRANCH  35  37
HETATM   37  O   UNK     0       3.810  -1.352  25.771  0.00  0.00    -0.776 OA
HETATM   38  H   UNK     0       3.665  -1.190  24.787  0.00  0.00     0.167 HD
ENDBRANCH  35  37
ENDBRANCH  34  35
ENDBRANCH  33  34
ENDBRANCH   6  33
BRANCH  27  39
HETATM   39  C   UNK     0      -5.036  -1.193  24.573  0.00  0.00     0.051 C 
BRANCH  39  40
HETATM   40  C   UNK     0      -6.259  -0.410  24.400  0.00  0.00     0.114 C 
BRANCH  40  41
HETATM   41  C   UNK     0      -7.562  -1.028  24.296  0.00  0.00     0.139 C 
HETATM   42  O   UNK     0      -7.889  -2.042  24.926  0.00  0.00    -0.650 OA
BRANCH  41  43
HETATM   43  O   UNK     0      -8.533  -0.452  23.429  0.00  0.00    -0.776 OA
HETATM   44  H   UNK     0      -8.392   0.532  23.236  0.00  0.00     0.167 HD
ENDBRANCH  41  43
ENDBRANCH  40  41
ENDBRANCH  39  40
ENDBRANCH  27  39
BRANCH  11  45
HETATM   45  C   UNK     0      -0.918  -7.866  31.195  0.00  0.00     0.051 C 
BRANCH  45  46
HETATM   46  C   UNK     0      -2.346  -7.970  31.592  0.00  0.00     0.114 C 
BRANCH  46  47
HETATM   47  C   UNK     0      -2.510  -7.199  32.858  0.00  0.00     0.139 C 
HETATM   48  O   UNK     0      -2.940  -6.039  32.794  0.00  0.00    -0.650 OA
BRANCH  47  49
HETATM   49  O   UNK     0      -2.190  -7.761  34.068  0.00  0.00    -0.776 OA
HETATM   50  H   UNK     0      -2.569  -7.402  34.953  0.00  0.00     0.167 HD
ENDBRANCH  47  49
ENDBRANCH  46  47
ENDBRANCH  45  46
ENDBRANCH  11  45
BRANCH  18  51
HETATM   51  C   UNK     0      -6.797  -5.988  27.929  0.00  0.00     0.051 C 
BRANCH  51  52
HETATM   52  C   UNK     0      -7.274  -6.602  26.621  0.00  0.00     0.114 C 
BRANCH  52  53
HETATM   53  C   UNK     0      -8.426  -5.873  26.058  0.00  0.00     0.139 C 
HETATM   54  O   UNK     0      -9.222  -6.454  25.304  0.00  0.00    -0.650 OA
BRANCH  53  55
HETATM   55  O   UNK     0      -8.610  -4.548  26.372  0.00  0.00    -0.776 OA
HETATM   56  H   UNK     0      -8.277  -3.772  25.849  0.00  0.00     0.167 HD
ENDBRANCH  53  55
ENDBRANCH  52  53
ENDBRANCH  51  52
ENDBRANCH  18  51
TORSDOF 16
ENDMDL
MODEL 6
REMARK VINA RESULT:      -9.3      3.042      8.226
REMARK  16 active torsions:
REMARK  status: ('A' for Active; 'I' for Inactive)
REMARK    1  A    between atoms: C_6  and  C_7 
REMARK    2  A    between atoms: C_7  and  C_8 
REMARK    3  A    between atoms: C_8  and  C_9 
REMARK    4  A    between atoms: C_9  and  O_11 
REMARK    5  A    between atoms: C_16  and  C_17 
REMARK    6  A    between atoms: C_17  and  C_18 
REMARK    7  A    between atoms: C_18  and  C_19 
REMARK    8  A    between atoms: C_19  and  O_21 
REMARK    9  A    between atoms: C_28  and  C_29 
REMARK   10  A    between atoms: C_29  and  C_30 
REMARK   11  A    between atoms: C_30  and  C_31 
REMARK   12  A    between atoms: C_31  and  O_33 
REMARK   13  A    between atoms: C_42  and  C_43 
REMARK   14  A    between atoms: C_43  and  C_44 
REMARK   15  A    between atoms: C_44  and  C_45 
REMARK   16  A    between atoms: C_45  and  O_47 
ROOT
HETATM    1  C   UNK     0      -7.013  -9.530  27.147  0.00  0.00     0.051 C 
HETATM    2  C   UNK     0      -6.776  -8.061  27.437  0.00  0.00    -0.031 A 
HETATM    3  C   UNK     0      -5.954  -7.474  28.386  0.00  0.00     0.021 A 
HETATM    4  N   UNK     0      -6.081  -6.128  28.306  0.00  0.00    -0.361 N 
HETATM    5  C   UNK     0      -6.958  -5.845  27.321  0.00  0.00     0.022 A 
HETATM    6  C   UNK     0      -7.414  -7.032  26.758  0.00  0.00    -0.027 A 
HETATM    7  C   UNK     0      -7.374  -4.517  26.769  0.00  0.00     0.115 C 
HETATM    8  C   UNK     0      -6.274  -3.492  26.556  0.00  0.00     0.021 A 
HETATM    9  N   UNK     0      -5.007  -3.695  26.163  0.00  0.00    -0.361 N 
HETATM   10  C   UNK     0      -4.362  -2.510  26.200  0.00  0.00     0.022 A 
HETATM   11  C   UNK     0      -5.240  -1.515  26.618  0.00  0.00    -0.027 A 
HETATM   12  C   UNK     0      -6.447  -2.127  26.844  0.00  0.00    -0.031 A 
HETATM   13  C   UNK     0      -7.706  -1.431  27.310  0.00  0.00     0.051 C 
HETATM   14  C   UNK     0      -2.885  -2.278  25.894  0.00  0.00     0.115 C 
HETATM   15  C   UNK     0      -1.940  -3.032  26.816  0.00  0.00     0.021 A 
HETATM   16  N   UNK     0      -1.872  -4.362  27.013  0.00  0.00    -0.361 N 
HETATM   17  C   UNK     0      -0.959  -4.620  27.951  0.00  0.00     0.022 A 
HETATM   18  C   UNK     0      -0.398  -3.401  28.380  0.00  0.00    -0.027 A 
HETATM   19  C   UNK     0      -1.020  -2.414  27.660  0.00  0.00    -0.031 A 
HETATM   20  C   UNK     0      -0.685  -0.939  27.786  0.00  0.00     0.051 C 
HETATM   21  C   UNK     0      -0.557  -5.935  28.581  0.00  0.00     0.115 C 
HETATM   22  C   UNK     0      -1.633  -6.981  28.759  0.00  0.00     0.022 A 
HETATM   23  N   UNK     0      -2.904  -6.807  29.144  0.00  0.00    -0.361 N 
HETATM   24  C   UNK     0      -3.547  -7.986  29.026  0.00  0.00     0.021 A 
HETATM   25  C   UNK     0      -2.667  -8.944  28.563  0.00  0.00    -0.031 A 
HETATM   26  C   UNK     0      -2.909 -10.418  28.310  0.00  0.00     0.051 C 
HETATM   27  C   UNK     0      -1.435  -8.325  28.384  0.00  0.00    -0.027 A 
HETATM   28  C   UNK     0      -5.022  -8.267  29.257  0.00  0.00     0.115 C 
HETATM   29  H   UNK     0      -5.579  -5.388  28.973  0.00  0.00     0.165 HD
HETATM   30  H   UNK     0      -4.578  -4.665  25.812  0.00  0.00     0.165 HD
HETATM   31  H   UNK     0      -2.446  -5.139  26.444  0.00  0.00     0.165 HD
HETATM   32  H   UNK     0      -3.348  -5.859  29.546  0.00  0.00     0.165 HD
ENDROOT
BRANCH   6  33
HETATM   33  C   UNK     0      -8.400  -7.259  25.640  0.00  0.00     0.051 C 
BRANCH  33  34
HETATM   34  C   UNK     0      -9.816  -7.253  26.166  0.00  0.00     0.114 C 
BRANCH  34  35
HETATM   35  C   UNK     0     -10.531  -8.400  25.535  0.00  0.00     0.139 C 
HETATM   36  O   UNK     0     -10.056  -8.957  24.503  0.00  0.00    -0.650 OA
BRANCH  35  37
HETATM   37  O   UNK     0     -11.724  -8.906  26.037  0.00  0.00    -0.776 OA
HETATM   38  H   UNK     0     -12.179  -9.707  25.628  0.00  0.00     0.167 HD
ENDBRANCH  35  37
ENDBRANCH  34  35
ENDBRANCH  33  34
ENDBRANCH   6  33
BRANCH  27  39
HETATM   39  C   UNK     0      -0.212  -9.060  27.960  0.00  0.00     0.051 C 
BRANCH  39  40
HETATM   40  C   UNK     0       0.806  -9.353  28.968  0.00  0.00     0.114 C 
BRANCH  40  41
HETATM   41  C   UNK     0       0.590  -9.106  30.376  0.00  0.00     0.139 C 
HETATM   42  O   UNK     0      -0.019  -9.886  31.121  0.00  0.00    -0.650 OA
BRANCH  41  43
HETATM   43  O   UNK     0       1.099  -7.909  30.954  0.00  0.00    -0.776 OA
HETATM   44  H   UNK     0       1.371  -7.202  30.281  0.00  0.00     0.167 HD
ENDBRANCH  41  43
ENDBRANCH  40  41
ENDBRANCH  39  40
ENDBRANCH  27  39
BRANCH  11  45
HETATM   45  C   UNK     0      -4.978  -0.044  26.802  0.00  0.00     0.051 C 
BRANCH  45  46
HETATM   46  C   UNK     0      -5.185   0.767  25.575  0.00  0.00     0.114 C 
BRANCH  46  47
HETATM   47  C   UNK     0      -3.886   1.425  25.256  0.00  0.00     0.139 C 
HETATM   48  O   UNK     0      -2.984   1.397  26.105  0.00  0.00    -0.650 OA
BRANCH  47  49
HETATM   49  O   UNK     0      -3.692   2.051  24.050  0.00  0.00    -0.776 OA
HETATM   50  H   UNK     0      -4.419   2.073  23.325  0.00  0.00     0.167 HD
ENDBRANCH  47  49
ENDBRANCH  46  47
ENDBRANCH  45  46
ENDBRANCH  11  45
BRANCH  18  51
HETATM   51  C   UNK     0       0.687  -3.189  29.404  0.00  0.00     0.051 C 
BRANCH  51  52
HETATM   52  C   UNK     0      -0.012  -3.102  30.753  0.00  0.00     0.114 C 
BRANCH  52  53
HETATM   53  C   UNK     0       0.543  -4.067  31.722  0.00  0.00     0.139 C 
HETATM   54  O   UNK     0       0.029  -4.184  32.846  0.00  0.00    -0.650 OA
BRANCH  53  55
HETATM   55  O   UNK     0       1.632  -4.829  31.375  0.00  0.00    -0.776 OA
HETATM   56  H   UNK     0       1.640  -5.568  30.712  0.00  0.00     0.167 HD
ENDBRANCH  53  55
ENDBRANCH  52  53
ENDBRANCH  51  52
ENDBRANCH  18  51
TORSDOF 16
ENDMDL
MODEL 7
REMARK VINA RESULT:      -9.2      1.891      6.558
REMARK  16 active torsions:
REMARK  status: ('A' for Active; 'I' for Inactive)
REMARK    1  A    between atoms: C_6  and  C_7 
REMARK    2  A    between atoms: C_7  and  C_8 
REMARK    3  A    between atoms: C_8  and  C_9 
REMARK    4  A    between atoms: C_9  and  O_11 
REMARK    5  A    between atoms: C_16  and  C_17 
REMARK    6  A    between atoms: C_17  and  C_18 
REMARK    7  A    between atoms: C_18  and  C_19 
REMARK    8  A    between atoms: C_19  and  O_21 
REMARK    9  A    between atoms: C_28  and  C_29 
REMARK   10  A    between atoms: C_29  and  C_30 
REMARK   11  A    between atoms: C_30  and  C_31 
REMARK   12  A    between atoms: C_31  and  O_33 
REMARK   13  A    between atoms: C_42  and  C_43 
REMARK   14  A    between atoms: C_43  and  C_44 
REMARK   15  A    between atoms: C_44  and  C_45 
REMARK   16  A    between atoms: C_45  and  O_47 
ROOT
HETATM    1  C   UNK     0       1.572  -1.603  28.663  0.00  0.00     0.051 C 
HETATM    2  C   UNK     0       0.301  -2.363  28.982  0.00  0.00    -0.031 A 
HETATM    3  C   UNK     0      -0.954  -1.878  29.315  0.00  0.00     0.021 A 
HETATM    4  N   UNK     0      -1.783  -2.923  29.549  0.00  0.00    -0.361 N 
HETATM    5  C   UNK     0      -1.086  -4.063  29.364  0.00  0.00     0.022 A 
HETATM    6  C   UNK     0       0.222  -3.750  29.011  0.00  0.00    -0.027 A 
HETATM    7  C   UNK     0      -1.557  -5.484  29.405  0.00  0.00     0.115 C 
HETATM    8  C   UNK     0      -2.888  -5.781  28.736  0.00  0.00     0.021 A 
HETATM    9  N   UNK     0      -3.407  -5.232  27.627  0.00  0.00    -0.361 N 
HETATM   10  C   UNK     0      -4.650  -5.730  27.456  0.00  0.00     0.022 A 
HETATM   11  C   UNK     0      -4.935  -6.631  28.477  0.00  0.00    -0.027 A 
HETATM   12  C   UNK     0      -3.829  -6.668  29.287  0.00  0.00    -0.031 A 
HETATM   13  C   UNK     0      -3.683  -7.519  30.529  0.00  0.00     0.051 C 
HETATM   14  C   UNK     0      -5.634  -5.339  26.357  0.00  0.00     0.115 C 
HETATM   15  C   UNK     0      -6.023  -3.869  26.374  0.00  0.00     0.021 A 
HETATM   16  N   UNK     0      -5.209  -2.802  26.270  0.00  0.00    -0.361 N 
HETATM   17  C   UNK     0      -5.929  -1.686  26.401  0.00  0.00     0.022 A 
HETATM   18  C   UNK     0      -7.279  -2.043  26.590  0.00  0.00    -0.027 A 
HETATM   19  C   UNK     0      -7.325  -3.413  26.570  0.00  0.00    -0.031 A 
HETATM   20  C   UNK     0      -8.606  -4.216  26.704  0.00  0.00     0.051 C 
HETATM   21  C   UNK     0      -5.486  -0.241  26.431  0.00  0.00     0.115 C 
HETATM   22  C   UNK     0      -4.144   0.063  27.054  0.00  0.00     0.022 A 
HETATM   23  N   UNK     0      -3.599  -0.470  28.155  0.00  0.00    -0.361 N 
HETATM   24  C   UNK     0      -2.333  -0.019  28.263  0.00  0.00     0.021 A 
HETATM   25  C   UNK     0      -2.059   0.834  27.211  0.00  0.00    -0.031 A 
HETATM   26  C   UNK     0      -0.794   1.615  26.922  0.00  0.00     0.051 C 
HETATM   27  C   UNK     0      -3.203   0.903  26.424  0.00  0.00    -0.027 A 
HETATM   28  C   UNK     0      -1.291  -0.414  29.295  0.00  0.00     0.115 C 
HETATM   29  H   UNK     0      -2.844  -2.847  29.881  0.00  0.00     0.165 HD
HETATM   30  H   UNK     0      -2.880  -4.531  26.935  0.00  0.00     0.165 HD
HETATM   31  H   UNK     0      -4.110  -2.836  26.051  0.00  0.00     0.165 HD
HETATM   32  H   UNK     0      -4.119  -1.137  28.891  0.00  0.00     0.165 HD
ENDROOT
BRANCH   6  33
HETATM   33  C   UNK     0       1.388  -4.656  28.706  0.00  0.00     0.051 C 
BRANCH  33  34
HETATM   34  C   UNK     0       2.247  -4.853  29.933  0.00  0.00     0.114 C 
BRANCH  34  35
HETATM   35  C   UNK     0       2.937  -6.167  29.788  0.00  0.00     0.139 C 
HETATM   36  O   UNK     0       3.881  -6.303  28.956  0.00  0.00    -0.650 OA
BRANCH  35  37
HETATM   37  O   UNK     0       2.590  -7.283  30.540  0.00  0.00    -0.776 OA
HETATM   38  H   UNK     0       2.219  -8.118  30.117  0.00  0.00     0.167 HD
ENDBRANCH  35  37
ENDBRANCH  34  35
ENDBRANCH  33  34
ENDBRANCH   6  33
BRANCH  27  39
HETATM   39  C   UNK     0      -3.313   1.785  25.230  0.00  0.00     0.051 C 
BRANCH  39  40
HETATM   40  C   UNK     0      -3.871   3.125  25.408  0.00  0.00     0.114 C 
BRANCH  40  41
HETATM   41  C   UNK     0      -5.256   3.428  25.122  0.00  0.00     0.139 C 
HETATM   42  O   UNK     0      -5.878   2.944  24.167  0.00  0.00    -0.650 OA
BRANCH  41  43
HETATM   43  O   UNK     0      -5.956   4.327  25.975  0.00  0.00    -0.776 OA
HETATM   44  H   UNK     0      -6.357   3.897  26.800  0.00  0.00     0.167 HD
ENDBRANCH  41  43
ENDBRANCH  40  41
ENDBRANCH  39  40
ENDBRANCH  27  39
BRANCH  11  45
HETATM   45  C   UNK     0      -6.187  -7.437  28.700  0.00  0.00     0.051 C 
BRANCH  45  46
HETATM   46  C   UNK     0      -6.589  -8.267  27.535  0.00  0.00     0.114 C 
BRANCH  46  47
HETATM   47  C   UNK     0      -6.213  -9.676  27.845  0.00  0.00     0.139 C 
HETATM   48  O   UNK     0      -7.104 -10.536  27.868  0.00  0.00    -0.650 OA
BRANCH  47  49
HETATM   49  O   UNK     0      -4.908 -10.014  28.103  0.00  0.00    -0.776 OA
HETATM   50  H   UNK     0      -4.123  -9.574  27.608  0.00  0.00     0.167 HD
ENDBRANCH  47  49
ENDBRANCH  46  47
ENDBRANCH  45  46
ENDBRANCH  11  45
BRANCH  18  51
HETATM   51  C   UNK     0      -8.464  -1.128  26.760  0.00  0.00     0.051 C 
BRANCH  51  52
HETATM   52  C   UNK     0      -9.199  -1.131  25.428  0.00  0.00     0.114 C 
BRANCH  52  53
HETATM   53  C   UNK     0      -8.547  -0.253  24.437  0.00  0.00     0.139 C 
HETATM   54  O   UNK     0      -8.538   0.977  24.608  0.00  0.00    -0.650 OA
BRANCH  53  55
HETATM   55  O   UNK     0      -7.956  -0.803  23.326  0.00  0.00    -0.776 OA
HETATM   56  H   UNK     0      -7.267  -0.370  22.757  0.00  0.00     0.167 HD
ENDBRANCH  53  55
ENDBRANCH  52  53
ENDBRANCH  51  52
ENDBRANCH  18  51
TORSDOF 16
ENDMDL
MODEL 8
REMARK VINA RESULT:      -9.2      2.626      7.681
REMARK  16 active torsions:
REMARK  status: ('A' for Active; 'I' for Inactive)
REMARK    1  A    between atoms: C_6  and  C_7 
REMARK    2  A    between atoms: C_7  and  C_8 
REMARK    3  A    between atoms: C_8  and  C_9 
REMARK    4  A    between atoms: C_9  and  O_11 
REMARK    5  A    between atoms: C_16  and  C_17 
REMARK    6  A    between atoms: C_17  and  C_18 
REMARK    7  A    between atoms: C_18  and  C_19 
REMARK    8  A    between atoms: C_19  and  O_21 
REMARK    9  A    between atoms: C_28  and  C_29 
REMARK   10  A    between atoms: C_29  and  C_30 
REMARK   11  A    between atoms: C_30  and  C_31 
REMARK   12  A    between atoms: C_31  and  O_33 
REMARK   13  A    between atoms: C_42  and  C_43 
REMARK   14  A    between atoms: C_43  and  C_44 
REMARK   15  A    between atoms: C_44  and  C_45 
REMARK   16  A    between atoms: C_45  and  O_47 
ROOT
HETATM    1  C   UNK     0      -8.480   0.183  24.676  0.00  0.00     0.051 C 
HETATM    2  C   UNK     0      -7.300   0.014  25.610  0.00  0.00    -0.031 A 
HETATM    3  C   UNK     0      -7.163  -0.813  26.714  0.00  0.00     0.021 A 
HETATM    4  N   UNK     0      -5.945  -0.611  27.269  0.00  0.00    -0.361 N 
HETATM    5  C   UNK     0      -5.298   0.320  26.537  0.00  0.00     0.022 A 
HETATM    6  C   UNK     0      -6.119   0.735  25.493  0.00  0.00    -0.027 A 
HETATM    7  C   UNK     0      -3.897   0.830  26.669  0.00  0.00     0.115 C 
HETATM    8  C   UNK     0      -2.819  -0.203  26.942  0.00  0.00     0.021 A 
HETATM    9  N   UNK     0      -2.732  -1.462  26.486  0.00  0.00    -0.361 N 
HETATM   10  C   UNK     0      -1.657  -2.043  27.060  0.00  0.00     0.022 A 
HETATM   11  C   UNK     0      -1.029  -1.130  27.902  0.00  0.00    -0.027 A 
HETATM   12  C   UNK     0      -1.755   0.031  27.833  0.00  0.00    -0.031 A 
HETATM   13  C   UNK     0      -1.440   1.306  28.583  0.00  0.00     0.051 C 
HETATM   14  C   UNK     0      -1.211  -3.492  26.879  0.00  0.00     0.115 C 
HETATM   15  C   UNK     0      -2.241  -4.513  27.335  0.00  0.00     0.021 A 
HETATM   16  N   UNK     0      -3.503  -4.661  26.892  0.00  0.00    -0.361 N 
HETATM   17  C   UNK     0      -4.104  -5.625  27.593  0.00  0.00     0.022 A 
HETATM   18  C   UNK     0      -3.186  -6.137  28.531  0.00  0.00    -0.027 A 
HETATM   19  C   UNK     0      -2.022  -5.433  28.359  0.00  0.00    -0.031 A 
HETATM   20  C   UNK     0      -0.754  -5.693  29.150  0.00  0.00     0.051 C 
HETATM   21  C   UNK     0      -5.531  -6.123  27.537  0.00  0.00     0.115 C 
HETATM   22  C   UNK     0      -6.610  -5.113  27.222  0.00  0.00     0.022 A 
HETATM   23  N   UNK     0      -6.719  -3.852  27.659  0.00  0.00    -0.361 N 
HETATM   24  C   UNK     0      -7.750  -3.269  27.015  0.00  0.00     0.021 A 
HETATM   25  C   UNK     0      -8.325  -4.180  26.150  0.00  0.00    -0.031 A 
HETATM   26  C   UNK     0      -9.528  -4.008  25.245  0.00  0.00     0.051 C 
HETATM   27  C   UNK     0      -7.612  -5.368  26.264  0.00  0.00    -0.027 A 
HETATM   28  C   UNK     0      -8.205  -1.822  27.107  0.00  0.00     0.115 C 
HETATM   29  H   UNK     0      -5.565  -1.099  28.196  0.00  0.00     0.165 HD
HETATM   30  H   UNK     0      -3.398  -1.928  25.719  0.00  0.00     0.165 HD
HETATM   31  H   UNK     0      -3.966  -4.107  26.034  0.00  0.00     0.165 HD
HETATM   32  H   UNK     0      -6.096  -3.374  28.459  0.00  0.00     0.165 HD
ENDROOT
BRANCH   6  33
HETATM   33  C   UNK     0      -5.869   1.752  24.409  0.00  0.00     0.051 C 
BRANCH  33  34
HETATM   34  C   UNK     0      -5.651   3.124  25.003  0.00  0.00     0.114 C 
BRANCH  34  35
HETATM   35  C   UNK     0      -6.977   3.803  25.056  0.00  0.00     0.139 C 
HETATM   36  O   UNK     0      -7.186   4.729  25.893  0.00  0.00    -0.650 OA
BRANCH  35  37
HETATM   37  O   UNK     0      -8.027   3.466  24.209  0.00  0.00    -0.776 OA
HETATM   38  H   UNK     0      -8.109   2.550  23.798  0.00  0.00     0.167 HD
ENDBRANCH  35  37
ENDBRANCH  34  35
ENDBRANCH  33  34
ENDBRANCH   6  33
BRANCH  27  39
HETATM   39  C   UNK     0      -7.984  -6.610  25.533  0.00  0.00     0.051 C 
BRANCH  39  40
HETATM   40  C   UNK     0      -8.843  -7.582  26.209  0.00  0.00     0.114 C 
BRANCH  40  41
HETATM   41  C   UNK     0     -10.285  -7.519  26.134  0.00  0.00     0.139 C 
HETATM   42  O   UNK     0     -10.954  -8.140  25.296  0.00  0.00    -0.650 OA
BRANCH  41  43
HETATM   43  O   UNK     0     -10.991  -6.705  27.065  0.00  0.00    -0.776 OA
HETATM   44  H   UNK     0     -10.443  -5.952  27.463  0.00  0.00     0.167 HD
ENDBRANCH  41  43
ENDBRANCH  40  41
ENDBRANCH  39  40
ENDBRANCH  27  39
BRANCH  11  45
HETATM   45  C   UNK     0       0.204  -1.320  28.744  0.00  0.00     0.051 C 
BRANCH  45  46
HETATM   46  C   UNK     0      -0.076  -1.668  30.160  0.00  0.00     0.114 C 
BRANCH  46  47
HETATM   47  C   UNK     0       0.603  -0.647  31.009  0.00  0.00     0.139 C 
HETATM   48  O   UNK     0       1.508   0.034  30.506  0.00  0.00    -0.650 OA
BRANCH  47  49
HETATM   49  O   UNK     0       0.238  -0.465  32.319  0.00  0.00    -0.776 OA
HETATM   50  H   UNK     0       0.270   0.456  32.771  0.00  0.00     0.167 HD
ENDBRANCH  47  49
ENDBRANCH  46  47
ENDBRANCH  45  46
ENDBRANCH  11  45
BRANCH  18  51
HETATM   51  C   UNK     0      -3.399  -7.250  29.524  0.00  0.00     0.051 C 
BRANCH  51  52
HETATM   52  C   UNK     0      -4.266  -6.672  30.633  0.00  0.00     0.114 C 
BRANCH  52  53
HETATM   53  C   UNK     0      -3.454  -6.089  31.718  0.00  0.00     0.139 C 
HETATM   54  O   UNK     0      -2.425  -6.667  32.103  0.00  0.00    -0.650 OA
BRANCH  53  55
HETATM   55  O   UNK     0      -3.846  -4.909  32.302  0.00  0.00    -0.776 OA
HETATM   56  H   UNK     0      -3.844  -4.709  33.274  0.00  0.00     0.167 HD
ENDBRANCH  53  55
ENDBRANCH  52  53
ENDBRANCH  51  52
ENDBRANCH  18  51
TORSDOF 16
ENDMDL
MODEL 9
REMARK VINA RESULT:      -9.1      2.995      8.106
REMARK  16 active torsions:
REMARK  status: ('A' for Active; 'I' for Inactive)
REMARK    1  A    between atoms: C_6  and  C_7 
REMARK    2  A    between atoms: C_7  and  C_8 
REMARK    3  A    between atoms: C_8  and  C_9 
REMARK    4  A    between atoms: C_9  and  O_11 
REMARK    5  A    between atoms: C_16  and  C_17 
REMARK    6  A    between atoms: C_17  and  C_18 
REMARK    7  A    between atoms: C_18  and  C_19 
REMARK    8  A    between atoms: C_19  and  O_21 
REMARK    9  A    between atoms: C_28  and  C_29 
REMARK   10  A    between atoms: C_29  and  C_30 
REMARK   11  A    between atoms: C_30  and  C_31 
REMARK   12  A    between atoms: C_31  and  O_33 
REMARK   13  A    between atoms: C_42  and  C_43 
REMARK   14  A    between atoms: C_43  and  C_44 
REMARK   15  A    between atoms: C_44  and  C_45 
REMARK   16  A    between atoms: C_45  and  O_47 
ROOT
HETATM    1  C   UNK     0      -8.892   0.532  24.430  0.00  0.00     0.051 C 
HETATM    2  C   UNK     0      -7.812   0.083  25.393  0.00  0.00    -0.031 A 
HETATM    3  C   UNK     0      -7.896  -0.798  26.460  0.00  0.00     0.021 A 
HETATM    4  N   UNK     0      -6.686  -0.876  27.063  0.00  0.00    -0.361 N 
HETATM    5  C   UNK     0      -5.831  -0.071  26.399  0.00  0.00     0.022 A 
HETATM    6  C   UNK     0      -6.503   0.547  25.350  0.00  0.00    -0.027 A 
HETATM    7  C   UNK     0      -4.362   0.130  26.602  0.00  0.00     0.115 C 
HETATM    8  C   UNK     0      -3.532  -1.115  26.860  0.00  0.00     0.021 A 
HETATM    9  N   UNK     0      -3.688  -2.345  26.347  0.00  0.00    -0.361 N 
HETATM   10  C   UNK     0      -2.781  -3.160  26.927  0.00  0.00     0.022 A 
HETATM   11  C   UNK     0      -2.015  -2.432  27.833  0.00  0.00    -0.027 A 
HETATM   12  C   UNK     0      -2.482  -1.143  27.795  0.00  0.00    -0.031 A 
HETATM   13  C   UNK     0      -1.942   0.006  28.616  0.00  0.00     0.051 C 
HETATM   14  C   UNK     0      -2.637  -4.661  26.692  0.00  0.00     0.115 C 
HETATM   15  C   UNK     0      -3.874  -5.463  27.064  0.00  0.00     0.021 A 
HETATM   16  N   UNK     0      -5.120  -5.327  26.573  0.00  0.00    -0.361 N 
HETATM   17  C   UNK     0      -5.936  -6.172  27.207  0.00  0.00     0.022 A 
HETATM   18  C   UNK     0      -5.183  -6.901  28.149  0.00  0.00    -0.027 A 
HETATM   19  C   UNK     0      -3.893  -6.449  28.049  0.00  0.00    -0.031 A 
HETATM   20  C   UNK     0      -2.740  -6.998  28.868  0.00  0.00     0.051 C 
HETATM   21  C   UNK     0      -7.431  -6.359  27.080  0.00  0.00     0.115 C 
HETATM   22  C   UNK     0      -8.264  -5.136  26.779  0.00  0.00     0.022 A 
HETATM   23  N   UNK     0      -8.129  -3.898  27.272  0.00  0.00    -0.361 N 
HETATM   24  C   UNK     0      -8.989  -3.087  26.623  0.00  0.00     0.021 A 
HETATM   25  C   UNK     0      -9.703  -3.823  25.697  0.00  0.00    -0.031 A 
HETATM   26  C   UNK     0     -10.805  -3.369  24.763  0.00  0.00     0.051 C 
HETATM   27  C   UNK     0      -9.256  -5.137  25.778  0.00  0.00    -0.027 A 
HETATM   28  C   UNK     0      -9.139  -1.583  26.770  0.00  0.00     0.115 C 
HETATM   29  H   UNK     0      -6.455  -1.469  27.978  0.00  0.00     0.165 HD
HETATM   30  H   UNK     0      -4.404  -2.631  25.537  0.00  0.00     0.165 HD
HETATM   31  H   UNK     0      -5.422  -4.654  25.729  0.00  0.00     0.165 HD
HETATM   32  H   UNK     0      -7.455  -3.593  28.114  0.00  0.00     0.165 HD
ENDROOT
BRANCH   6  33
HETATM   33  C   UNK     0      -6.004   1.533  24.325  0.00  0.00     0.051 C 
BRANCH  33  34
HETATM   34  C   UNK     0      -5.826   2.901  24.940  0.00  0.00     0.114 C 
BRANCH  34  35
HETATM   35  C   UNK     0      -4.363   3.180  24.993  0.00  0.00     0.139 C 
HETATM   36  O   UNK     0      -3.897   3.978  25.858  0.00  0.00    -0.650 OA
BRANCH  35  37
HETATM   37  O   UNK     0      -3.456   2.592  24.119  0.00  0.00    -0.776 OA
HETATM   38  H   UNK     0      -3.466   1.604  23.923  0.00  0.00     0.167 HD
ENDBRANCH  35  37
ENDBRANCH  34  35
ENDBRANCH  33  34
ENDBRANCH   6  33
BRANCH  27  39
HETATM   39  C   UNK     0      -9.845  -6.244  24.976  0.00  0.00     0.051 C 
BRANCH  39  40
HETATM   40  C   UNK     0     -10.626  -7.267  25.672  0.00  0.00     0.114 C 
BRANCH  40  41
HETATM   41  C   UNK     0     -12.034  -7.103  25.952  0.00  0.00     0.139 C 
HETATM   42  O   UNK     0     -12.628  -7.713  26.852  0.00  0.00    -0.650 OA
BRANCH  41  43
HETATM   43  O   UNK     0     -12.795  -6.196  25.161  0.00  0.00    -0.776 OA
HETATM   44  H   UNK     0     -12.385  -5.980  24.261  0.00  0.00     0.167 HD
ENDBRANCH  41  43
ENDBRANCH  40  41
ENDBRANCH  39  40
ENDBRANCH  27  39
BRANCH  11  45
HETATM   45  C   UNK     0      -0.884  -2.908  28.704  0.00  0.00     0.051 C 
BRANCH  45  46
HETATM   46  C   UNK     0      -1.323  -3.562  29.964  0.00  0.00     0.114 C 
BRANCH  46  47
HETATM   47  C   UNK     0      -0.122  -4.210  30.567  0.00  0.00     0.139 C 
HETATM   48  O   UNK     0       0.117  -5.392  30.284  0.00  0.00    -0.650 OA
BRANCH  47  49
HETATM   49  O   UNK     0       0.699  -3.514  31.417  0.00  0.00    -0.776 OA
HETATM   50  H   UNK     0       0.533  -3.480  32.430  0.00  0.00     0.167 HD
ENDBRANCH  47  49
ENDBRANCH  46  47
ENDBRANCH  45  46
ENDBRANCH  11  45
BRANCH  18  51
HETATM   51  C   UNK     0      -5.664  -7.985  29.080  0.00  0.00     0.051 C 
BRANCH  51  52
HETATM   52  C   UNK     0      -6.211  -9.094  28.195  0.00  0.00     0.114 C 
BRANCH  52  53
HETATM   53  C   UNK     0      -5.238 -10.189  28.021  0.00  0.00     0.139 C 
HETATM   54  O   UNK     0      -4.044 -10.012  28.312  0.00  0.00    -0.650 OA
BRANCH  53  55
HETATM   55  O   UNK     0      -5.659 -11.402  27.533  0.00  0.00    -0.776 OA
HETATM   56  H   UNK     0      -6.224 -12.062  28.015  0.00  0.00     0.167 HD
ENDBRANCH  53  55
ENDBRANCH  52  53
ENDBRANCH  51  52
ENDBRANCH  18  51
TORSDOF 16
ENDMDL
MODEL 10
REMARK VINA RESULT:      -9.0      2.352      6.732
REMARK  16 active torsions:
REMARK  status: ('A' for Active; 'I' for Inactive)
REMARK    1  A    between atoms: C_6  and  C_7 
REMARK    2  A    between atoms: C_7  and  C_8 
REMARK    3  A    between atoms: C_8  and  C_9 
REMARK    4  A    between atoms: C_9  and  O_11 
REMARK    5  A    between atoms: C_16  and  C_17 
REMARK    6  A    between atoms: C_17  and  C_18 
REMARK    7  A    between atoms: C_18  and  C_19 
REMARK    8  A    between atoms: C_19  and  O_21 
REMARK    9  A    between atoms: C_28  and  C_29 
REMARK   10  A    between atoms: C_29  and  C_30 
REMARK   11  A    between atoms: C_30  and  C_31 
REMARK   12  A    between atoms: C_31  and  O_33 
REMARK   13  A    between atoms: C_42  and  C_43 
REMARK   14  A    between atoms: C_43  and  C_44 
REMARK   15  A    between atoms: C_44  and  C_45 
REMARK   16  A    between atoms: C_45  and  O_47 
ROOT
HETATM    1  C   UNK     0      -8.121  -3.535  25.722  0.00  0.00     0.051 C 
HETATM    2  C   UNK     0      -6.896  -4.314  26.156  0.00  0.00    -0.031 A 
HETATM    3  C   UNK     0      -5.565  -4.121  25.818  0.00  0.00     0.021 A 
HETATM    4  N   UNK     0      -4.815  -5.077  26.416  0.00  0.00    -0.361 N 
HETATM    5  C   UNK     0      -5.638  -5.869  27.135  0.00  0.00     0.022 A 
HETATM    6  C   UNK     0      -6.947  -5.421  26.992  0.00  0.00    -0.027 A 
HETATM    7  C   UNK     0      -5.305  -7.006  28.049  0.00  0.00     0.115 C 
HETATM    8  C   UNK     0      -4.118  -6.811  28.976  0.00  0.00     0.021 A 
HETATM    9  N   UNK     0      -3.712  -5.688  29.589  0.00  0.00    -0.361 N 
HETATM   10  C   UNK     0      -2.560  -5.959  30.239  0.00  0.00     0.022 A 
HETATM   11  C   UNK     0      -2.219  -7.294  30.046  0.00  0.00    -0.027 A 
HETATM   12  C   UNK     0      -3.197  -7.837  29.252  0.00  0.00    -0.031 A 
HETATM   13  C   UNK     0      -3.245  -9.275  28.785  0.00  0.00     0.051 C 
HETATM   14  C   UNK     0      -1.709  -4.960  31.019  0.00  0.00     0.115 C 
HETATM   15  C   UNK     0      -1.182  -3.810  30.177  0.00  0.00     0.021 A 
HETATM   16  N   UNK     0      -1.897  -2.916  29.468  0.00  0.00    -0.361 N 
HETATM   17  C   UNK     0      -1.061  -2.109  28.810  0.00  0.00     0.022 A 
HETATM   18  C   UNK     0       0.261  -2.490  29.112  0.00  0.00    -0.027 A 
HETATM   19  C   UNK     0       0.172  -3.555  29.970  0.00  0.00    -0.031 A 
HETATM   20  C   UNK     0       1.375  -4.254  30.575  0.00  0.00     0.051 C 
HETATM   21  C   UNK     0      -1.355  -0.997  27.829  0.00  0.00     0.115 C 
HETATM   22  C   UNK     0      -2.559  -1.158  26.931  0.00  0.00     0.022 A 
HETATM   23  N   UNK     0      -2.990  -2.264  26.311  0.00  0.00    -0.361 N 
HETATM   24  C   UNK     0      -4.178  -1.992  25.735  0.00  0.00     0.021 A 
HETATM   25  C   UNK     0      -4.516  -0.675  25.982  0.00  0.00    -0.031 A 
HETATM   26  C   UNK     0      -5.729   0.102  25.513  0.00  0.00     0.051 C 
HETATM   27  C   UNK     0      -3.495  -0.121  26.746  0.00  0.00    -0.027 A 
HETATM   28  C   UNK     0      -5.096  -2.952  24.999  0.00  0.00     0.115 C 
HETATM   29  H   UNK     0      -3.715  -5.209  26.294  0.00  0.00     0.165 HD
HETATM   30  H   UNK     0      -4.262  -4.716  29.607  0.00  0.00     0.165 HD
HETATM   31  H   UNK     0      -3.014  -2.821  29.469  0.00  0.00     0.165 HD
HETATM   32  H   UNK     0      -2.437  -3.237  26.237  0.00  0.00     0.165 HD
ENDROOT
BRANCH   6  33
HETATM   33  C   UNK     0      -8.226  -5.961  27.580  0.00  0.00     0.051 C 
BRANCH  33  34
HETATM   34  C   UNK     0      -8.861  -6.966  26.648  0.00  0.00     0.114 C 
BRANCH  34  35
HETATM   35  C   UNK     0     -10.280  -6.553  26.447  0.00  0.00     0.139 C 
HETATM   36  O   UNK     0     -11.028  -6.336  27.445  0.00  0.00    -0.650 OA
BRANCH  35  37
HETATM   37  O   UNK     0     -10.841  -6.387  25.187  0.00  0.00    -0.776 OA
HETATM   38  H   UNK     0     -11.075  -5.478  24.822  0.00  0.00     0.167 HD
ENDBRANCH  35  37
ENDBRANCH  34  35
ENDBRANCH  33  34
ENDBRANCH   6  33
BRANCH  27  39
HETATM   39  C   UNK     0      -3.472   1.311  27.151  0.00  0.00     0.051 C 
BRANCH  39  40
HETATM   40  C   UNK     0      -2.864   2.280  26.239  0.00  0.00     0.114 C 
BRANCH  40  41
HETATM   41  C   UNK     0      -3.603   2.887  25.155  0.00  0.00     0.139 C 
HETATM   42  O   UNK     0      -3.613   2.440  24.000  0.00  0.00    -0.650 OA
BRANCH  41  43
HETATM   43  O   UNK     0      -4.364   4.062  25.410  0.00  0.00    -0.776 OA
HETATM   44  H   UNK     0      -4.970   4.002  26.220  0.00  0.00     0.167 HD
ENDBRANCH  41  43
ENDBRANCH  40  41
ENDBRANCH  39  40
ENDBRANCH  27  39
BRANCH  11  45
HETATM   45  C   UNK     0      -1.032  -8.050  30.580  0.00  0.00     0.051 C 
BRANCH  45  46
HETATM   46  C   UNK     0      -1.378  -9.102  31.569  0.00  0.00     0.114 C 
BRANCH  46  47
HETATM   47  C   UNK     0      -0.544 -10.297  31.252  0.00  0.00     0.139 C 
HETATM   48  O   UNK     0      -1.031 -11.423  31.427  0.00  0.00    -0.650 OA
BRANCH  47  49
HETATM   49  O   UNK     0       0.736 -10.155  30.778  0.00  0.00    -0.776 OA
HETATM   50  H   UNK     0       0.988 -10.388  29.811  0.00  0.00     0.167 HD
ENDBRANCH  47  49
ENDBRANCH  46  47
ENDBRANCH  45  46
ENDBRANCH  11  45
BRANCH  18  51
HETATM   51  C   UNK     0       1.541  -1.859  28.626  0.00  0.00     0.051 C 
BRANCH  51  52
HETATM   52  C   UNK     0       1.840  -2.489  27.274  0.00  0.00     0.114 C 
BRANCH  52  53
HETATM   53  C   UNK     0       3.271  -2.396  26.928  0.00  0.00     0.139 C 
HETATM   54  O   UNK     0       4.069  -3.251  27.346  0.00  0.00    -0.650 OA
BRANCH  53  55
HETATM   55  O   UNK     0       3.715  -1.357  26.147  0.00  0.00    -0.776 OA
HETATM   56  H   UNK     0       3.922  -0.438  26.460  0.00  0.00     0.167 HD
ENDBRANCH  53  55
ENDBRANCH  52  53
ENDBRANCH  51  52
ENDBRANCH  18  51
TORSDOF 16
ENDMDL
MODEL 11
REMARK VINA RESULT:      -9.0     35.821     38.959
REMARK  16 active torsions:
REMARK  status: ('A' for Active; 'I' for Inactive)
REMARK    1  A    between atoms: C_6  and  C_7 
REMARK    2  A    between atoms: C_7  and  C_8 
REMARK    3  A    between atoms: C_8  and  C_9 
REMARK    4  A    between atoms: C_9  and  O_11 
REMARK    5  A    between atoms: C_16  and  C_17 
REMARK    6  A    between atoms: C_17  and  C_18 
REMARK    7  A    between atoms: C_18  and  C_19 
REMARK    8  A    between atoms: C_19  and  O_21 
REMARK    9  A    between atoms: C_28  and  C_29 
REMARK   10  A    between atoms: C_29  and  C_30 
REMARK   11  A    between atoms: C_30  and  C_31 
REMARK   12  A    between atoms: C_31  and  O_33 
REMARK   13  A    between atoms: C_42  and  C_43 
REMARK   14  A    between atoms: C_43  and  C_44 
REMARK   15  A    between atoms: C_44  and  C_45 
REMARK   16  A    between atoms: C_45  and  O_47 
ROOT
HETATM    1  C   UNK     0      14.026 -16.709  -1.862  0.00  0.00     0.051 C 
HETATM    2  C   UNK     0      14.732 -18.040  -1.705  0.00  0.00    -0.031 A 
HETATM    3  C   UNK     0      16.090 -18.315  -1.650  0.00  0.00     0.021 A 
HETATM    4  N   UNK     0      16.265 -19.653  -1.535  0.00  0.00    -0.361 N 
HETATM    5  C   UNK     0      15.049 -20.236  -1.508  0.00  0.00     0.022 A 
HETATM    6  C   UNK     0      14.068 -19.256  -1.615  0.00  0.00    -0.027 A 
HETATM    7  C   UNK     0      14.687 -21.674  -1.302  0.00  0.00     0.115 C 
HETATM    8  C   UNK     0      15.452 -22.421  -0.224  0.00  0.00     0.021 A 
HETATM    9  N   UNK     0      15.901 -21.961   0.954  0.00  0.00    -0.361 N 
HETATM   10  C   UNK     0      16.607 -22.947   1.548  0.00  0.00     0.022 A 
HETATM   11  C   UNK     0      16.604 -24.076   0.734  0.00  0.00    -0.027 A 
HETATM   12  C   UNK     0      15.878 -23.752  -0.383  0.00  0.00    -0.031 A 
HETATM   13  C   UNK     0      15.604 -24.678  -1.547  0.00  0.00     0.051 C 
HETATM   14  C   UNK     0      17.353 -22.848   2.876  0.00  0.00     0.115 C 
HETATM   15  C   UNK     0      18.454 -21.800   2.886  0.00  0.00     0.021 A 
HETATM   16  N   UNK     0      18.333 -20.479   2.653  0.00  0.00    -0.361 N 
HETATM   17  C   UNK     0      19.543 -19.916   2.686  0.00  0.00     0.022 A 
HETATM   18  C   UNK     0      20.496 -20.915   2.963  0.00  0.00    -0.027 A 
HETATM   19  C   UNK     0      19.801 -22.090   3.088  0.00  0.00    -0.031 A 
HETATM   20  C   UNK     0      20.448 -23.421   3.425  0.00  0.00     0.051 C 
HETATM   21  C   UNK     0      19.956 -18.487   2.419  0.00  0.00     0.115 C 
HETATM   22  C   UNK     0      19.175 -17.717   1.380  0.00  0.00     0.022 A 
HETATM   23  N   UNK     0      18.712 -18.150   0.200  0.00  0.00    -0.361 N 
HETATM   24  C   UNK     0      17.948 -17.178  -0.338  0.00  0.00     0.021 A 
HETATM   25  C   UNK     0      17.927 -16.089   0.512  0.00  0.00    -0.031 A 
HETATM   26  C   UNK     0      17.244 -14.749   0.327  0.00  0.00     0.051 C 
HETATM   27  C   UNK     0      18.706 -16.409   1.618  0.00  0.00    -0.027 A 
HETATM   28  C   UNK     0      17.136 -17.237  -1.620  0.00  0.00     0.115 C 
HETATM   29  H   UNK     0      17.248 -20.179  -1.514  0.00  0.00     0.165 HD
HETATM   30  H   UNK     0      15.680 -20.957   1.393  0.00  0.00     0.165 HD
HETATM   31  H   UNK     0      17.369 -19.925   2.510  0.00  0.00     0.165 HD
HETATM   32  H   UNK     0      18.956 -19.131  -0.284  0.00  0.00     0.165 HD
ENDROOT
BRANCH   6  33
HETATM   33  C   UNK     0      12.566 -19.387  -1.641  0.00  0.00     0.051 C 
BRANCH  33  34
HETATM   34  C   UNK     0      12.010 -19.449  -0.238  0.00  0.00     0.114 C 
BRANCH  34  35
HETATM   35  C   UNK     0      11.166 -20.675  -0.146  0.00  0.00     0.139 C 
HETATM   36  O   UNK     0      10.954 -21.381  -1.174  0.00  0.00    -0.650 OA
BRANCH  35  37
HETATM   37  O   UNK     0      10.584 -21.096   1.044  0.00  0.00    -0.776 OA
HETATM   38  H   UNK     0       9.596 -21.004   1.218  0.00  0.00     0.167 HD
ENDBRANCH  35  37
ENDBRANCH  34  35
ENDBRANCH  33  34
ENDBRANCH   6  33
BRANCH  27  39
HETATM   39  C   UNK     0      18.979 -15.450   2.722  0.00  0.00     0.051 C 
BRANCH  39  40
HETATM   40  C   UNK     0      20.012 -14.435   2.519  0.00  0.00     0.114 C 
BRANCH  40  41
HETATM   41  C   UNK     0      19.716 -13.020   2.536  0.00  0.00     0.139 C 
HETATM   42  O   UNK     0      19.228 -12.435   3.513  0.00  0.00    -0.650 OA
BRANCH  41  43
HETATM   43  O   UNK     0      19.993 -12.242   1.376  0.00  0.00    -0.776 OA
HETATM   44  H   UNK     0      20.974 -12.195   1.127  0.00  0.00     0.167 HD
ENDBRANCH  41  43
ENDBRANCH  40  41
ENDBRANCH  39  40
ENDBRANCH  27  39
BRANCH  11  45
HETATM   45  C   UNK     0      17.247 -25.415   0.979  0.00  0.00     0.051 C 
BRANCH  45  46
HETATM   46  C   UNK     0      18.714 -25.434   0.745  0.00  0.00     0.114 C 
BRANCH  46  47
HETATM   47  C   UNK     0      18.942 -26.100  -0.570  0.00  0.00     0.139 C 
HETATM   48  O   UNK     0      19.044 -25.393  -1.582  0.00  0.00    -0.650 OA
BRANCH  47  49
HETATM   49  O   UNK     0      19.036 -27.466  -0.659  0.00  0.00    -0.776 OA
HETATM   50  H   UNK     0      19.659 -28.010  -0.051  0.00  0.00     0.167 HD
ENDBRANCH  47  49
ENDBRANCH  46  47
ENDBRANCH  45  46
ENDBRANCH  11  45
BRANCH  18  51
HETATM   51  C   UNK     0      21.986 -20.756   3.122  0.00  0.00     0.051 C 
BRANCH  51  52
HETATM   52  C   UNK     0      22.269 -20.859   4.614  0.00  0.00     0.114 C 
BRANCH  52  53
HETATM   53  C   UNK     0      23.061 -19.714   5.103  0.00  0.00     0.139 C 
HETATM   54  O   UNK     0      23.616 -19.771   6.212  0.00  0.00    -0.650 OA
BRANCH  53  55
HETATM   55  O   UNK     0      23.177 -18.587   4.327  0.00  0.00    -0.776 OA
HETATM   56  H   UNK     0      22.801 -18.463   3.417  0.00  0.00     0.167 HD
ENDBRANCH  53  55
ENDBRANCH  52  53
ENDBRANCH  51  52
ENDBRANCH  18  51
TORSDOF 16
ENDMDL
MODEL 12
REMARK VINA RESULT:      -9.0      3.757      9.340
REMARK  16 active torsions:
REMARK  status: ('A' for Active; 'I' for Inactive)
REMARK    1  A    between atoms: C_6  and  C_7 
REMARK    2  A    between atoms: C_7  and  C_8 
REMARK    3  A    between atoms: C_8  and  C_9 
REMARK    4  A    between atoms: C_9  and  O_11 
REMARK    5  A    between atoms: C_16  and  C_17 
REMARK    6  A    between atoms: C_17  and  C_18 
REMARK    7  A    between atoms: C_18  and  C_19 
REMARK    8  A    between atoms: C_19  and  O_21 
REMARK    9  A    between atoms: C_28  and  C_29 
REMARK   10  A    between atoms: C_29  and  C_30 
REMARK   11  A    between atoms: C_30  and  C_31 
REMARK   12  A    between atoms: C_31  and  O_33 
REMARK   13  A    between atoms: C_42  and  C_43 
REMARK   14  A    between atoms: C_43  and  C_44 
REMARK   15  A    between atoms: C_44  and  C_45 
REMARK   16  A    between atoms: C_45  and  O_47 
ROOT
HETATM    1  C   UNK     0      -4.268  -5.737  29.821  0.00  0.00     0.051 C 
HETATM    2  C   UNK     0      -3.172  -4.691  29.808  0.00  0.00    -0.031 A 
HETATM    3  C   UNK     0      -1.990  -4.646  30.530  0.00  0.00     0.021 A 
HETATM    4  N   UNK     0      -1.327  -3.506  30.221  0.00  0.00    -0.361 N 
HETATM    5  C   UNK     0      -2.057  -2.828  29.311  0.00  0.00     0.022 A 
HETATM    6  C   UNK     0      -3.219  -3.540  29.032  0.00  0.00    -0.027 A 
HETATM    7  C   UNK     0      -1.729  -1.564  28.579  0.00  0.00     0.115 C 
HETATM    8  C   UNK     0      -0.311  -1.428  28.055  0.00  0.00     0.021 A 
HETATM    9  N   UNK     0       0.493  -2.382  27.559  0.00  0.00    -0.361 N 
HETATM   10  C   UNK     0       1.695  -1.826  27.303  0.00  0.00     0.022 A 
HETATM   11  C   UNK     0       1.663  -0.474  27.632  0.00  0.00    -0.027 A 
HETATM   12  C   UNK     0       0.402  -0.217  28.107  0.00  0.00    -0.031 A 
HETATM   13  C   UNK     0      -0.096   1.130  28.582  0.00  0.00     0.051 C 
HETATM   14  C   UNK     0       2.934  -2.554  26.788  0.00  0.00     0.115 C 
HETATM   15  C   UNK     0       3.431  -3.652  27.714  0.00  0.00     0.021 A 
HETATM   16  N   UNK     0       2.755  -4.735  28.141  0.00  0.00    -0.361 N 
HETATM   17  C   UNK     0       3.518  -5.418  28.998  0.00  0.00     0.022 A 
HETATM   18  C   UNK     0       4.754  -4.754  29.127  0.00  0.00    -0.027 A 
HETATM   19  C   UNK     0       4.688  -3.650  28.317  0.00  0.00    -0.031 A 
HETATM   20  C   UNK     0       5.831  -2.670  28.132  0.00  0.00     0.051 C 
HETATM   21  C   UNK     0       3.203  -6.657  29.805  0.00  0.00     0.115 C 
HETATM   22  C   UNK     0       1.784  -6.827  30.296  0.00  0.00     0.022 A 
HETATM   23  N   UNK     0       0.959  -5.894  30.790  0.00  0.00    -0.361 N 
HETATM   24  C   UNK     0      -0.255  -6.453  30.966  0.00  0.00     0.021 A 
HETATM   25  C   UNK     0      -0.209  -7.780  30.585  0.00  0.00    -0.031 A 
HETATM   26  C   UNK     0      -1.304  -8.825  30.636  0.00  0.00     0.051 C 
HETATM   27  C   UNK     0       1.086  -8.043  30.153  0.00  0.00    -0.027 A 
HETATM   28  C   UNK     0      -1.535  -5.771  31.416  0.00  0.00     0.115 C 
HETATM   29  H   UNK     0      -0.368  -3.169  30.678  0.00  0.00     0.165 HD
HETATM   30  H   UNK     0       0.199  -3.439  27.343  0.00  0.00     0.165 HD
HETATM   31  H   UNK     0       1.737  -5.050  27.796  0.00  0.00     0.165 HD
HETATM   32  H   UNK     0       1.239  -4.843  31.061  0.00  0.00     0.165 HD
ENDROOT
BRANCH   6  33
HETATM   33  C   UNK     0      -4.356  -3.212  28.098  0.00  0.00     0.051 C 
BRANCH  33  34
HETATM   34  C   UNK     0      -4.098  -3.778  26.722  0.00  0.00     0.114 C 
BRANCH  34  35
HETATM   35  C   UNK     0      -4.458  -2.723  25.731  0.00  0.00     0.139 C 
HETATM   36  O   UNK     0      -5.567  -2.771  25.123  0.00  0.00    -0.650 OA
BRANCH  35  37
HETATM   37  O   UNK     0      -3.618  -1.657  25.433  0.00  0.00    -0.776 OA
HETATM   38  H   UNK     0      -3.974  -0.747  25.190  0.00  0.00     0.167 HD
ENDBRANCH  35  37
ENDBRANCH  34  35
ENDBRANCH  33  34
ENDBRANCH   6  33
BRANCH  27  39
HETATM   39  C   UNK     0       1.540  -9.396  29.729  0.00  0.00     0.051 C 
BRANCH  39  40
HETATM   40  C   UNK     0       2.209  -9.529  28.435  0.00  0.00     0.114 C 
BRANCH  40  41
HETATM   41  C   UNK     0       3.571  -9.998  28.316  0.00  0.00     0.139 C 
HETATM   42  O   UNK     0       4.481  -9.331  27.804  0.00  0.00    -0.650 OA
BRANCH  41  43
HETATM   43  O   UNK     0       3.903 -11.292  28.808  0.00  0.00    -0.776 OA
HETATM   44  H   UNK     0       3.838 -12.031  28.119  0.00  0.00     0.167 HD
ENDBRANCH  41  43
ENDBRANCH  40  41
ENDBRANCH  39  40
ENDBRANCH  27  39
BRANCH  11  45
HETATM   45  C   UNK     0       2.758   0.551  27.512  0.00  0.00     0.051 C 
BRANCH  45  46
HETATM   46  C   UNK     0       3.496   0.801  28.777  0.00  0.00     0.114 C 
BRANCH  46  47
HETATM   47  C   UNK     0       4.920   1.053  28.415  0.00  0.00     0.139 C 
HETATM   48  O   UNK     0       5.807   0.642  29.176  0.00  0.00    -0.650 OA
BRANCH  47  49
HETATM   49  O   UNK     0       5.244   1.727  27.264  0.00  0.00    -0.776 OA
HETATM   50  H   UNK     0       4.595   2.387  26.819  0.00  0.00     0.167 HD
ENDBRANCH  47  49
ENDBRANCH  46  47
ENDBRANCH  45  46
ENDBRANCH  11  45
BRANCH  18  51
HETATM   51  C   UNK     0       5.941  -5.161  29.961  0.00  0.00     0.051 C 
BRANCH  51  52
HETATM   52  C   UNK     0       6.787  -6.072  29.082  0.00  0.00     0.114 C 
BRANCH  52  53
HETATM   53  C   UNK     0       7.160  -7.317  29.781  0.00  0.00     0.139 C 
HETATM   54  O   UNK     0       8.345  -7.527  30.086  0.00  0.00    -0.650 OA
BRANCH  53  55
HETATM   55  O   UNK     0       6.191  -8.241  30.087  0.00  0.00    -0.776 OA
HETATM   56  H   UNK     0       6.043  -8.658  30.976  0.00  0.00     0.167 HD
ENDBRANCH  53  55
ENDBRANCH  52  53
ENDBRANCH  51  52
ENDBRANCH  18  51
TORSDOF 16
ENDMDL
MODEL 13
REMARK VINA RESULT:      -8.9     31.389     34.165
REMARK  16 active torsions:
REMARK  status: ('A' for Active; 'I' for Inactive)
REMARK    1  A    between atoms: C_6  and  C_7 
REMARK    2  A    between atoms: C_7  and  C_8 
REMARK    3  A    between atoms: C_8  and  C_9 
REMARK    4  A    between atoms: C_9  and  O_11 
REMARK    5  A    between atoms: C_16  and  C_17 
REMARK    6  A    between atoms: C_17  and  C_18 
REMARK    7  A    between atoms: C_18  and  C_19 
REMARK    8  A    between atoms: C_19  and  O_21 
REMARK    9  A    between atoms: C_28  and  C_29 
REMARK   10  A    between atoms: C_29  and  C_30 
REMARK   11  A    between atoms: C_30  and  C_31 
REMARK   12  A    between atoms: C_31  and  O_33 
REMARK   13  A    between atoms: C_42  and  C_43 
REMARK   14  A    between atoms: C_43  and  C_44 
REMARK   15  A    between atoms: C_44  and  C_45 
REMARK   16  A    between atoms: C_45  and  O_47 
ROOT
HETATM    1  C   UNK     0      13.997 -17.113  -2.653  0.00  0.00     0.051 C 
HETATM    2  C   UNK     0      14.364 -15.679  -2.327  0.00  0.00    -0.031 A 
HETATM    3  C   UNK     0      13.925 -14.503  -2.914  0.00  0.00     0.021 A 
HETATM    4  N   UNK     0      14.543 -13.456  -2.320  0.00  0.00    -0.361 N 
HETATM    5  C   UNK     0      15.360 -13.938  -1.361  0.00  0.00     0.022 A 
HETATM    6  C   UNK     0      15.274 -15.326  -1.340  0.00  0.00    -0.027 A 
HETATM    7  C   UNK     0      16.192 -13.199  -0.359  0.00  0.00     0.115 C 
HETATM    8  C   UNK     0      15.547 -11.997   0.309  0.00  0.00     0.021 A 
HETATM    9  N   UNK     0      14.266 -11.829   0.669  0.00  0.00    -0.361 N 
HETATM   10  C   UNK     0      14.125 -10.572   1.143  0.00  0.00     0.022 A 
HETATM   11  C   UNK     0      15.352  -9.917   1.094  0.00  0.00    -0.027 A 
HETATM   12  C   UNK     0      16.252 -10.809   0.570  0.00  0.00    -0.031 A 
HETATM   13  C   UNK     0      17.721 -10.533   0.337  0.00  0.00     0.051 C 
HETATM   14  C   UNK     0      12.824  -9.925   1.608  0.00  0.00     0.115 C 
HETATM   15  C   UNK     0      11.760  -9.836   0.526  0.00  0.00     0.021 A 
HETATM   16  N   UNK     0      11.213 -10.848  -0.173  0.00  0.00    -0.361 N 
HETATM   17  C   UNK     0      10.367 -10.349  -1.078  0.00  0.00     0.022 A 
HETATM   18  C   UNK     0      10.356  -8.945  -0.956  0.00  0.00    -0.027 A 
HETATM   19  C   UNK     0      11.231  -8.637   0.053  0.00  0.00    -0.031 A 
HETATM   20  C   UNK     0      11.495  -7.223   0.538  0.00  0.00     0.051 C 
HETATM   21  C   UNK     0       9.562 -11.053  -2.147  0.00  0.00     0.115 C 
HETATM   22  C   UNK     0      10.173 -12.276  -2.789  0.00  0.00     0.022 A 
HETATM   23  N   UNK     0      11.446 -12.473  -3.155  0.00  0.00    -0.361 N 
HETATM   24  C   UNK     0      11.579 -13.755  -3.550  0.00  0.00     0.021 A 
HETATM   25  C   UNK     0      10.360 -14.396  -3.446  0.00  0.00    -0.031 A 
HETATM   26  C   UNK     0       9.999 -15.822  -3.808  0.00  0.00     0.051 C 
HETATM   27  C   UNK     0       9.444 -13.470  -2.961  0.00  0.00    -0.027 A 
HETATM   28  C   UNK     0      12.852 -14.472  -3.966  0.00  0.00     0.115 C 
HETATM   29  H   UNK     0      14.428 -12.385  -2.609  0.00  0.00     0.165 HD
HETATM   30  H   UNK     0      13.468 -12.611   0.638  0.00  0.00     0.165 HD
HETATM   31  H   UNK     0      11.390 -11.940   0.007  0.00  0.00     0.165 HD
HETATM   32  H   UNK     0      12.254 -11.696  -3.178  0.00  0.00     0.165 HD
ENDROOT
BRANCH   6  33
HETATM   33  C   UNK     0      15.985 -16.328  -0.466  0.00  0.00     0.051 C 
BRANCH  33  34
HETATM   34  C   UNK     0      15.101 -16.760   0.681  0.00  0.00     0.114 C 
BRANCH  34  35
HETATM   35  C   UNK     0      15.101 -15.657   1.684  0.00  0.00     0.139 C 
HETATM   36  O   UNK     0      16.157 -15.379   2.325  0.00  0.00    -0.650 OA
BRANCH  35  37
HETATM   37  O   UNK     0      13.973 -14.894   1.960  0.00  0.00    -0.776 OA
HETATM   38  H   UNK     0      13.974 -14.174   2.663  0.00  0.00     0.167 HD
ENDBRANCH  35  37
ENDBRANCH  34  35
ENDBRANCH  33  34
ENDBRANCH   6  33
BRANCH  27  39
HETATM   39  C   UNK     0       7.998 -13.776  -2.783  0.00  0.00     0.051 C 
BRANCH  39  40
HETATM   40  C   UNK     0       7.571 -14.407  -1.534  0.00  0.00     0.114 C 
BRANCH  40  41
HETATM   41  C   UNK     0       7.003 -15.736  -1.497  0.00  0.00     0.139 C 
HETATM   42  O   UNK     0       7.573 -16.708  -0.983  0.00  0.00    -0.650 OA
BRANCH  41  43
HETATM   43  O   UNK     0       5.722 -15.956  -2.078  0.00  0.00    -0.776 OA
HETATM   44  H   UNK     0       5.267 -16.810  -1.777  0.00  0.00     0.167 HD
ENDBRANCH  41  43
ENDBRANCH  40  41
ENDBRANCH  39  40
ENDBRANCH  27  39
BRANCH  11  45
HETATM   45  C   UNK     0      15.687  -8.512   1.520  0.00  0.00     0.051 C 
BRANCH  45  46
HETATM   46  C   UNK     0      14.849  -8.001   2.635  0.00  0.00     0.114 C 
BRANCH  46  47
HETATM   47  C   UNK     0      14.802  -6.516   2.507  0.00  0.00     0.139 C 
HETATM   48  O   UNK     0      15.247  -5.997   1.474  0.00  0.00    -0.650 OA
BRANCH  47  49
HETATM   49  O   UNK     0      14.279  -5.741   3.510  0.00  0.00    -0.776 OA
HETATM   50  H   UNK     0      13.981  -4.771   3.351  0.00  0.00     0.167 HD
ENDBRANCH  47  49
ENDBRANCH  46  47
ENDBRANCH  45  46
ENDBRANCH  11  45
BRANCH  18  51
HETATM   51  C   UNK     0       9.539  -7.954  -1.744  0.00  0.00     0.051 C 
BRANCH  51  52
HETATM   52  C   UNK     0      10.525  -7.182  -2.609  0.00  0.00     0.114 C 
BRANCH  52  53
HETATM   53  C   UNK     0      10.075  -7.095  -4.011  0.00  0.00     0.139 C 
HETATM   54  O   UNK     0       8.870  -7.212  -4.286  0.00  0.00    -0.650 OA
BRANCH  53  55
HETATM   55  O   UNK     0      10.996  -6.889  -5.009  0.00  0.00    -0.776 OA
HETATM   56  H   UNK     0      10.867  -7.087  -5.973  0.00  0.00     0.167 HD
ENDBRANCH  53  55
ENDBRANCH  52  53
ENDBRANCH  51  52
ENDBRANCH  18  51
TORSDOF 16
ENDMDL
MODEL 14
REMARK VINA RESULT:      -8.9      5.161     10.137
REMARK  16 active torsions:
REMARK  status: ('A' for Active; 'I' for Inactive)
REMARK    1  A    between atoms: C_6  and  C_7 
REMARK    2  A    between atoms: C_7  and  C_8 
REMARK    3  A    between atoms: C_8  and  C_9 
REMARK    4  A    between atoms: C_9  and  O_11 
REMARK    5  A    between atoms: C_16  and  C_17 
REMARK    6  A    between atoms: C_17  and  C_18 
REMARK    7  A    between atoms: C_18  and  C_19 
REMARK    8  A    between atoms: C_19  and  O_21 
REMARK    9  A    between atoms: C_28  and  C_29 
REMARK   10  A    between atoms: C_29  and  C_30 
REMARK   11  A    between atoms: C_30  and  C_31 
REMARK   12  A    between atoms: C_31  and  O_33 
REMARK   13  A    between atoms: C_42  and  C_43 
REMARK   14  A    between atoms: C_43  and  C_44 
REMARK   15  A    between atoms: C_44  and  C_45 
REMARK   16  A    between atoms: C_45  and  O_47 
ROOT
HETATM    1  C   UNK     0      -7.973  -9.664  25.969  0.00  0.00     0.051 C 
HETATM    2  C   UNK     0      -6.972  -9.279  27.039  0.00  0.00    -0.031 A 
HETATM    3  C   UNK     0      -6.030 -10.063  27.686  0.00  0.00     0.021 A 
HETATM    4  N   UNK     0      -5.373  -9.304  28.594  0.00  0.00    -0.361 N 
HETATM    5  C   UNK     0      -5.869  -8.051  28.534  0.00  0.00     0.022 A 
HETATM    6  C   UNK     0      -6.873  -8.001  27.573  0.00  0.00    -0.027 A 
HETATM    7  C   UNK     0      -5.428  -6.816  29.256  0.00  0.00     0.115 C 
HETATM    8  C   UNK     0      -3.930  -6.589  29.367  0.00  0.00     0.021 A 
HETATM    9  N   UNK     0      -2.973  -6.878  28.472  0.00  0.00    -0.361 N 
HETATM   10  C   UNK     0      -1.777  -6.590  29.029  0.00  0.00     0.022 A 
HETATM   11  C   UNK     0      -1.971  -6.094  30.315  0.00  0.00    -0.027 A 
HETATM   12  C   UNK     0      -3.325  -6.091  30.534  0.00  0.00    -0.031 A 
HETATM   13  C   UNK     0      -4.004  -5.626  31.803  0.00  0.00     0.051 C 
HETATM   14  C   UNK     0      -0.408  -6.820  28.396  0.00  0.00     0.115 C 
HETATM   15  C   UNK     0      -0.117  -8.277  28.072  0.00  0.00     0.021 A 
HETATM   16  N   UNK     0      -0.822  -9.097  27.271  0.00  0.00    -0.361 N 
HETATM   17  C   UNK     0      -0.279 -10.316  27.304  0.00  0.00     0.022 A 
HETATM   18  C   UNK     0       0.839 -10.287  28.161  0.00  0.00    -0.027 A 
HETATM   19  C   UNK     0       0.931  -9.003  28.634  0.00  0.00    -0.031 A 
HETATM   20  C   UNK     0       2.027  -8.525  29.569  0.00  0.00     0.051 C 
HETATM   21  C   UNK     0      -0.731 -11.600  26.645  0.00  0.00     0.115 C 
HETATM   22  C   UNK     0      -2.217 -11.819  26.489  0.00  0.00     0.022 A 
HETATM   23  N   UNK     0      -3.194 -11.537  27.361  0.00  0.00    -0.361 N 
HETATM   24  C   UNK     0      -4.378 -11.758  26.757  0.00  0.00     0.021 A 
HETATM   25  C   UNK     0      -4.159 -12.202  25.467  0.00  0.00    -0.031 A 
HETATM   26  C   UNK     0      -5.169 -12.617  24.417  0.00  0.00     0.051 C 
HETATM   27  C   UNK     0      -2.784 -12.249  25.272  0.00  0.00    -0.027 A 
HETATM   28  C   UNK     0      -5.768 -11.494  27.310  0.00  0.00     0.115 C 
HETATM   29  H   UNK     0      -4.590  -9.668  29.299  0.00  0.00     0.165 HD
HETATM   30  H   UNK     0      -3.140  -7.238  27.427  0.00  0.00     0.165 HD
HETATM   31  H   UNK     0      -1.693  -8.799  26.630  0.00  0.00     0.165 HD
HETATM   32  H   UNK     0      -3.055 -11.221  28.428  0.00  0.00     0.165 HD
ENDROOT
BRANCH   6  33
HETATM   33  C   UNK     0      -7.736  -6.846  27.131  0.00  0.00     0.051 C 
BRANCH  33  34
HETATM   34  C   UNK     0      -7.026  -6.015  26.089  0.00  0.00     0.114 C 
BRANCH  34  35
HETATM   35  C   UNK     0      -6.931  -4.623  26.617  0.00  0.00     0.139 C 
HETATM   36  O   UNK     0      -5.813  -4.152  26.976  0.00  0.00    -0.650 OA
BRANCH  35  37
HETATM   37  O   UNK     0      -8.037  -3.790  26.736  0.00  0.00    -0.776 OA
HETATM   38  H   UNK     0      -8.320  -3.400  27.620  0.00  0.00     0.167 HD
ENDBRANCH  35  37
ENDBRANCH  34  35
ENDBRANCH  33  34
ENDBRANCH   6  33
BRANCH  27  39
HETATM   39  C   UNK     0      -2.159 -12.751  24.018  0.00  0.00     0.051 C 
BRANCH  39  40
HETATM   40  C   UNK     0      -1.358 -11.822  23.221  0.00  0.00     0.114 C 
BRANCH  40  41
HETATM   41  C   UNK     0       0.064 -11.999  23.029  0.00  0.00     0.139 C 
HETATM   42  O   UNK     0       0.707 -12.939  23.516  0.00  0.00    -0.650 OA
BRANCH  41  43
HETATM   43  O   UNK     0       0.778 -11.053  22.241  0.00  0.00    -0.776 OA
HETATM   44  H   UNK     0       0.334 -10.145  22.172  0.00  0.00     0.167 HD
ENDBRANCH  41  43
ENDBRANCH  40  41
ENDBRANCH  39  40
ENDBRANCH  27  39
BRANCH  11  45
HETATM   45  C   UNK     0      -0.941  -5.634  31.312  0.00  0.00     0.051 C 
BRANCH  45  46
HETATM   46  C   UNK     0      -0.490  -4.233  31.115  0.00  0.00     0.114 C 
BRANCH  46  47
HETATM   47  C   UNK     0      -0.451  -3.588  32.459  0.00  0.00     0.139 C 
HETATM   48  O   UNK     0      -1.445  -3.686  33.192  0.00  0.00    -0.650 OA
BRANCH  47  49
HETATM   49  O   UNK     0       0.660  -2.900  32.876  0.00  0.00    -0.776 OA
HETATM   50  H   UNK     0       1.542  -2.919  32.351  0.00  0.00     0.167 HD
ENDBRANCH  47  49
ENDBRANCH  46  47
ENDBRANCH  45  46
ENDBRANCH  11  45
BRANCH  18  51
HETATM   51  C   UNK     0       1.781 -11.414  28.494  0.00  0.00     0.051 C 
BRANCH  51  52
HETATM   52  C   UNK     0       1.151 -12.167  29.657  0.00  0.00     0.114 C 
BRANCH  52  53
HETATM   53  C   UNK     0       0.920 -13.588  29.331  0.00  0.00     0.139 C 
HETATM   54  O   UNK     0      -0.235 -14.043  29.319  0.00  0.00    -0.650 OA
BRANCH  53  55
HETATM   55  O   UNK     0       1.989 -14.402  29.045  0.00  0.00    -0.776 OA
HETATM   56  H   UNK     0       2.111 -14.935  28.217  0.00  0.00     0.167 HD
ENDBRANCH  53  55
ENDBRANCH  52  53
ENDBRANCH  51  52
ENDBRANCH  18  51
TORSDOF 16
ENDMDL
MODEL 15
REMARK VINA RESULT:      -8.9      3.565      6.658
REMARK  16 active torsions:
REMARK  status: ('A' for Active; 'I' for Inactive)
REMARK    1  A    between atoms: C_6  and  C_7 
REMARK    2  A    between atoms: C_7  and  C_8 
REMARK    3  A    between atoms: C_8  and  C_9 
REMARK    4  A    between atoms: C_9  and  O_11 
REMARK    5  A    between atoms: C_16  and  C_17 
REMARK    6  A    between atoms: C_17  and  C_18 
REMARK    7  A    between atoms: C_18  and  C_19 
REMARK    8  A    between atoms: C_19  and  O_21 
REMARK    9  A    between atoms: C_28  and  C_29 
REMARK   10  A    between atoms: C_29  and  C_30 
REMARK   11  A    between atoms: C_30  and  C_31 
REMARK   12  A    between atoms: C_31  and  O_33 
REMARK   13  A    between atoms: C_42  and  C_43 
REMARK   14  A    between atoms: C_43  and  C_44 
REMARK   15  A    between atoms: C_44  and  C_45 
REMARK   16  A    between atoms: C_45  and  O_47 
ROOT
HETATM    1  C   UNK     0      -4.097  -6.801  29.303  0.00  0.00     0.051 C 
HETATM    2  C   UNK     0      -2.654  -6.978  28.875  0.00  0.00    -0.031 A 
HETATM    3  C   UNK     0      -1.935  -6.299  27.904  0.00  0.00     0.021 A 
HETATM    4  N   UNK     0      -0.684  -6.814  27.842  0.00  0.00    -0.361 N 
HETATM    5  C   UNK     0      -0.587  -7.800  28.757  0.00  0.00     0.022 A 
HETATM    6  C   UNK     0      -1.803  -7.931  29.420  0.00  0.00    -0.027 A 
HETATM    7  C   UNK     0       0.602  -8.618  29.154  0.00  0.00     0.115 C 
HETATM    8  C   UNK     0       1.919  -7.877  29.305  0.00  0.00     0.021 A 
HETATM    9  N   UNK     0       2.131  -6.635  29.766  0.00  0.00    -0.361 N 
HETATM   10  C   UNK     0       3.446  -6.359  29.635  0.00  0.00     0.022 A 
HETATM   11  C   UNK     0       4.100  -7.456  29.083  0.00  0.00    -0.027 A 
HETATM   12  C   UNK     0       3.143  -8.417  28.873  0.00  0.00    -0.031 A 
HETATM   13  C   UNK     0       3.396  -9.789  28.289  0.00  0.00     0.051 C 
HETATM   14  C   UNK     0       4.127  -5.035  29.973  0.00  0.00     0.115 C 
HETATM   15  C   UNK     0       3.608  -3.853  29.172  0.00  0.00     0.021 A 
HETATM   16  N   UNK     0       2.344  -3.391  29.114  0.00  0.00    -0.361 N 
HETATM   17  C   UNK     0       2.286  -2.381  28.244  0.00  0.00     0.022 A 
HETATM   18  C   UNK     0       3.575  -2.168  27.716  0.00  0.00    -0.027 A 
HETATM   19  C   UNK     0       4.394  -3.095  28.306  0.00  0.00    -0.031 A 
HETATM   20  C   UNK     0       5.886  -3.193  28.044  0.00  0.00     0.051 C 
HETATM   21  C   UNK     0       1.099  -1.575  27.768  0.00  0.00     0.115 C 
HETATM   22  C   UNK     0      -0.228  -2.289  27.655  0.00  0.00     0.022 A 
HETATM   23  N   UNK     0      -0.469  -3.527  27.203  0.00  0.00    -0.361 N 
HETATM   24  C   UNK     0      -1.770  -3.809  27.416  0.00  0.00     0.021 A 
HETATM   25  C   UNK     0      -2.384  -2.723  28.009  0.00  0.00    -0.031 A 
HETATM   26  C   UNK     0      -3.837  -2.546  28.401  0.00  0.00     0.051 C 
HETATM   27  C   UNK     0      -1.418  -1.737  28.172  0.00  0.00    -0.027 A 
HETATM   28  C   UNK     0      -2.491  -5.121  27.156  0.00  0.00     0.115 C 
HETATM   29  H   UNK     0       0.110  -6.503  27.124  0.00  0.00     0.165 HD
HETATM   30  H   UNK     0       1.364  -5.969  30.231  0.00  0.00     0.165 HD
HETATM   31  H   UNK     0       1.485  -3.754  29.736  0.00  0.00     0.165 HD
HETATM   32  H   UNK     0       0.268  -4.198  26.690  0.00  0.00     0.165 HD
ENDROOT
BRANCH   6  33
HETATM   33  C   UNK     0      -2.213  -8.883  30.515  0.00  0.00     0.051 C 
BRANCH  33  34
HETATM   34  C   UNK     0      -1.334  -8.710  31.731  0.00  0.00     0.114 C 
BRANCH  34  35
HETATM   35  C   UNK     0      -1.871  -7.559  32.511  0.00  0.00     0.139 C 
HETATM   36  O   UNK     0      -2.565  -7.761  33.549  0.00  0.00    -0.650 OA
BRANCH  35  37
HETATM   37  O   UNK     0      -1.641  -6.237  32.150  0.00  0.00    -0.776 OA
HETATM   38  H   UNK     0      -0.978  -5.986  31.434  0.00  0.00     0.167 HD
ENDBRANCH  35  37
ENDBRANCH  34  35
ENDBRANCH  33  34
ENDBRANCH   6  33
BRANCH  27  39
HETATM   39  C   UNK     0      -1.722  -0.386  28.717  0.00  0.00     0.051 C 
BRANCH  39  40
HETATM   40  C   UNK     0      -1.762   0.744  27.789  0.00  0.00     0.114 C 
BRANCH  40  41
HETATM   41  C   UNK     0      -1.097   1.996  28.071  0.00  0.00     0.139 C 
HETATM   42  O   UNK     0      -1.694   3.024  28.416  0.00  0.00    -0.650 OA
BRANCH  41  43
HETATM   43  O   UNK     0       0.320   2.069  27.949  0.00  0.00    -0.776 OA
HETATM   44  H   UNK     0       0.777   2.603  28.678  0.00  0.00     0.167 HD
ENDBRANCH  41  43
ENDBRANCH  40  41
ENDBRANCH  39  40
ENDBRANCH  27  39
BRANCH  11  45
HETATM   45  C   UNK     0       5.561  -7.618  28.761  0.00  0.00     0.051 C 
BRANCH  45  46
HETATM   46  C   UNK     0       6.458  -7.505  29.939  0.00  0.00     0.114 C 
BRANCH  46  47
HETATM   47  C   UNK     0       7.189  -8.798  30.065  0.00  0.00     0.139 C 
HETATM   48  O   UNK     0       6.618  -9.838  29.706  0.00  0.00    -0.650 OA
BRANCH  47  49
HETATM   49  O   UNK     0       8.464  -8.839  30.568  0.00  0.00    -0.776 OA
HETATM   50  H   UNK     0       9.008  -9.709  30.607  0.00  0.00     0.167 HD
ENDBRANCH  47  49
ENDBRANCH  46  47
ENDBRANCH  45  46
ENDBRANCH  11  45
BRANCH  18  51
HETATM   51  C   UNK     0       4.007  -1.124  26.719  0.00  0.00     0.051 C 
BRANCH  51  52
HETATM   52  C   UNK     0       4.034   0.198  27.472  0.00  0.00     0.114 C 
BRANCH  52  53
HETATM   53  C   UNK     0       5.400   0.750  27.564  0.00  0.00     0.139 C 
HETATM   54  O   UNK     0       6.189   0.315  28.418  0.00  0.00    -0.650 OA
BRANCH  53  55
HETATM   55  O   UNK     0       5.789   1.748  26.705  0.00  0.00    -0.776 OA
HETATM   56  H   UNK     0       5.390   2.655  26.644  0.00  0.00     0.167 HD
ENDBRANCH  53  55
ENDBRANCH  52  53
ENDBRANCH  51  52
ENDBRANCH  18  51
TORSDOF 16
ENDMDL
MODEL 16
REMARK VINA RESULT:      -8.8      3.199      8.331
REMARK  16 active torsions:
REMARK  status: ('A' for Active; 'I' for Inactive)
REMARK    1  A    between atoms: C_6  and  C_7 
REMARK    2  A    between atoms: C_7  and  C_8 
REMARK    3  A    between atoms: C_8  and  C_9 
REMARK    4  A    between atoms: C_9  and  O_11 
REMARK    5  A    between atoms: C_16  and  C_17 
REMARK    6  A    between atoms: C_17  and  C_18 
REMARK    7  A    between atoms: C_18  and  C_19 
REMARK    8  A    between atoms: C_19  and  O_21 
REMARK    9  A    between atoms: C_28  and  C_29 
REMARK   10  A    between atoms: C_29  and  C_30 
REMARK   11  A    between atoms: C_30  and  C_31 
REMARK   12  A    between atoms: C_31  and  O_33 
REMARK   13  A    between atoms: C_42  and  C_43 
REMARK   14  A    between atoms: C_43  and  C_44 
REMARK   15  A    between atoms: C_44  and  C_45 
REMARK   16  A    between atoms: C_45  and  O_47 
ROOT
HETATM    1  C   UNK     0      -0.359  -3.702  29.044  0.00  0.00     0.051 C 
HETATM    2  C   UNK     0      -1.313  -3.011  28.091  0.00  0.00    -0.031 A 
HETATM    3  C   UNK     0      -2.110  -3.554  27.096  0.00  0.00     0.021 A 
HETATM    4  N   UNK     0      -2.778  -2.555  26.472  0.00  0.00    -0.361 N 
HETATM    5  C   UNK     0      -2.430  -1.388  27.053  0.00  0.00     0.022 A 
HETATM    6  C   UNK     0      -1.513  -1.636  28.068  0.00  0.00    -0.027 A 
HETATM    7  C   UNK     0      -2.950  -0.007  26.802  0.00  0.00     0.115 C 
HETATM    8  C   UNK     0      -4.451   0.134  26.618  0.00  0.00     0.021 A 
HETATM    9  N   UNK     0      -5.435  -0.546  27.226  0.00  0.00    -0.361 N 
HETATM   10  C   UNK     0      -6.609  -0.156  26.687  0.00  0.00     0.022 A 
HETATM   11  C   UNK     0      -6.376   0.809  25.712  0.00  0.00    -0.027 A 
HETATM   12  C   UNK     0      -5.018   0.996  25.663  0.00  0.00    -0.031 A 
HETATM   13  C   UNK     0      -4.301   1.962  24.746  0.00  0.00     0.051 C 
HETATM   14  C   UNK     0      -7.988  -0.712  27.031  0.00  0.00     0.115 C 
HETATM   15  C   UNK     0      -8.140  -2.199  26.751  0.00  0.00     0.021 A 
HETATM   16  N   UNK     0      -7.410  -3.209  27.259  0.00  0.00    -0.361 N 
HETATM   17  C   UNK     0      -7.810  -4.358  26.710  0.00  0.00     0.022 A 
HETATM   18  C   UNK     0      -8.857  -4.085  25.808  0.00  0.00    -0.027 A 
HETATM   19  C   UNK     0      -9.055  -2.729  25.843  0.00  0.00    -0.031 A 
HETATM   20  C   UNK     0     -10.124  -2.010  25.040  0.00  0.00     0.051 C 
HETATM   21  C   UNK     0      -7.270  -5.759  26.886  0.00  0.00     0.115 C 
HETATM   22  C   UNK     0      -5.784  -5.911  27.114  0.00  0.00     0.022 A 
HETATM   23  N   UNK     0      -4.782  -5.245  26.526  0.00  0.00    -0.361 N 
HETATM   24  C   UNK     0      -3.629  -5.592  27.132  0.00  0.00     0.021 A 
HETATM   25  C   UNK     0      -3.894  -6.513  28.128  0.00  0.00    -0.031 A 
HETATM   26  C   UNK     0      -2.926  -7.223  29.051  0.00  0.00     0.051 C 
HETATM   27  C   UNK     0      -5.267  -6.733  28.135  0.00  0.00    -0.027 A 
HETATM   28  C   UNK     0      -2.240  -5.034  26.876  0.00  0.00     0.115 C 
HETATM   29  H   UNK     0      -3.461  -2.677  25.599  0.00  0.00     0.165 HD
HETATM   30  H   UNK     0      -5.308  -1.266  28.071  0.00  0.00     0.165 HD
HETATM   31  H   UNK     0      -6.628  -3.116  28.057  0.00  0.00     0.165 HD
HETATM   32  H   UNK     0      -4.875  -4.554  25.647  0.00  0.00     0.165 HD
ENDROOT
BRANCH   6  33
HETATM   33  C   UNK     0      -0.819  -0.679  29.005  0.00  0.00     0.051 C 
BRANCH  33  34
HETATM   34  C   UNK     0      -0.013   0.337  28.230  0.00  0.00     0.114 C 
BRANCH  34  35
HETATM   35  C   UNK     0      -0.317   1.679  28.805  0.00  0.00     0.139 C 
HETATM   36  O   UNK     0      -1.103   1.787  29.791  0.00  0.00    -0.650 OA
BRANCH  35  37
HETATM   37  O   UNK     0       0.234   2.851  28.303  0.00  0.00    -0.776 OA
HETATM   38  H   UNK     0       0.968   2.844  27.613  0.00  0.00     0.167 HD
ENDBRANCH  35  37
ENDBRANCH  34  35
ENDBRANCH  33  34
ENDBRANCH   6  33
BRANCH  27  39
HETATM   39  C   UNK     0      -5.924  -7.722  29.032  0.00  0.00     0.051 C 
BRANCH  39  40
HETATM   40  C   UNK     0      -5.835  -9.140  28.684  0.00  0.00     0.114 C 
BRANCH  40  41
HETATM   41  C   UNK     0      -6.795  -9.782  27.815  0.00  0.00     0.139 C 
HETATM   42  O   UNK     0      -7.104 -10.978  27.903  0.00  0.00    -0.650 OA
BRANCH  41  43
HETATM   43  O   UNK     0      -7.429  -9.013  26.798  0.00  0.00    -0.776 OA
HETATM   44  H   UNK     0      -7.676  -9.538  25.968  0.00  0.00     0.167 HD
ENDBRANCH  41  43
ENDBRANCH  40  41
ENDBRANCH  39  40
ENDBRANCH  27  39
BRANCH  11  45
HETATM   45  C   UNK     0      -7.372   1.539  24.852  0.00  0.00     0.051 C 
BRANCH  45  46
HETATM   46  C   UNK     0      -7.951   2.749  25.489  0.00  0.00     0.114 C 
BRANCH  46  47
HETATM   47  C   UNK     0      -7.390   3.934  24.779  0.00  0.00     0.139 C 
HETATM   48  O   UNK     0      -7.377   5.025  25.365  0.00  0.00    -0.650 OA
BRANCH  47  49
HETATM   49  O   UNK     0      -6.898   3.820  23.503  0.00  0.00    -0.776 OA
HETATM   50  H   UNK     0      -5.921   4.035  23.274  0.00  0.00     0.167 HD
ENDBRANCH  47  49
ENDBRANCH  46  47
ENDBRANCH  45  46
ENDBRANCH  11  45
BRANCH  18  51
HETATM   51  C   UNK     0      -9.641  -5.064  24.973  0.00  0.00     0.051 C 
BRANCH  51  52
HETATM   52  C   UNK     0     -10.817  -5.509  25.830  0.00  0.00     0.114 C 
BRANCH  52  53
HETATM   53  C   UNK     0     -10.992  -6.974  25.805  0.00  0.00     0.139 C 
HETATM   54  O   UNK     0     -12.127  -7.462  25.685  0.00  0.00    -0.650 OA
BRANCH  53  55
HETATM   55  O   UNK     0      -9.894  -7.791  25.918  0.00  0.00    -0.776 OA
HETATM   56  H   UNK     0      -8.985  -7.601  25.568  0.00  0.00     0.167 HD
ENDBRANCH  53  55
ENDBRANCH  52  53
ENDBRANCH  51  52
ENDBRANCH  18  51
TORSDOF 16
ENDMDL
MODEL 17
REMARK VINA RESULT:      -8.8     32.158     35.416
REMARK  16 active torsions:
REMARK  status: ('A' for Active; 'I' for Inactive)
REMARK    1  A    between atoms: C_6  and  C_7 
REMARK    2  A    between atoms: C_7  and  C_8 
REMARK    3  A    between atoms: C_8  and  C_9 
REMARK    4  A    between atoms: C_9  and  O_11 
REMARK    5  A    between atoms: C_16  and  C_17 
REMARK    6  A    between atoms: C_17  and  C_18 
REMARK    7  A    between atoms: C_18  and  C_19 
REMARK    8  A    between atoms: C_19  and  O_21 
REMARK    9  A    between atoms: C_28  and  C_29 
REMARK   10  A    between atoms: C_29  and  C_30 
REMARK   11  A    between atoms: C_30  and  C_31 
REMARK   12  A    between atoms: C_31  and  O_33 
REMARK   13  A    between atoms: C_42  and  C_43 
REMARK   14  A    between atoms: C_43  and  C_44 
REMARK   15  A    between atoms: C_44  and  C_45 
REMARK   16  A    between atoms: C_45  and  O_47 
ROOT
HETATM    1  C   UNK     0      15.733  -8.498   1.623  0.00  0.00     0.051 C 
HETATM    2  C   UNK     0      15.377  -9.919   1.238  0.00  0.00    -0.031 A 
HETATM    3  C   UNK     0      14.158 -10.574   1.323  0.00  0.00     0.021 A 
HETATM    4  N   UNK     0      14.312 -11.850   0.895  0.00  0.00    -0.361 N 
HETATM    5  C   UNK     0      15.600 -12.019   0.531  0.00  0.00     0.022 A 
HETATM    6  C   UNK     0      16.295 -10.832   0.735  0.00  0.00    -0.027 A 
HETATM    7  C   UNK     0      16.265 -13.206  -0.093  0.00  0.00     0.115 C 
HETATM    8  C   UNK     0      15.499 -13.915  -1.196  0.00  0.00     0.021 A 
HETATM    9  N   UNK     0      14.697 -13.383  -2.132  0.00  0.00    -0.361 N 
HETATM   10  C   UNK     0      14.156 -14.394  -2.844  0.00  0.00     0.022 A 
HETATM   11  C   UNK     0      14.629 -15.610  -2.360  0.00  0.00    -0.027 A 
HETATM   12  C   UNK     0      15.476 -15.315  -1.322  0.00  0.00    -0.031 A 
HETATM   13  C   UNK     0      16.231 -16.331  -0.495  0.00  0.00     0.051 C 
HETATM   14  C   UNK     0      13.134 -14.257  -3.969  0.00  0.00     0.115 C 
HETATM   15  C   UNK     0      11.826 -13.613  -3.539  0.00  0.00     0.021 A 
HETATM   16  N   UNK     0      11.652 -12.394  -2.994  0.00  0.00    -0.361 N 
HETATM   17  C   UNK     0      10.362 -12.229  -2.693  0.00  0.00     0.022 A 
HETATM   18  C   UNK     0       9.661 -13.392  -3.069  0.00  0.00    -0.027 A 
HETATM   19  C   UNK     0      10.589 -14.250  -3.599  0.00  0.00    -0.031 A 
HETATM   20  C   UNK     0      10.249 -15.617  -4.165  0.00  0.00     0.051 C 
HETATM   21  C   UNK     0       9.664 -11.078  -2.005  0.00  0.00     0.115 C 
HETATM   22  C   UNK     0      10.431 -10.336  -0.936  0.00  0.00     0.022 A 
HETATM   23  N   UNK     0      11.240 -10.839   0.006  0.00  0.00    -0.361 N 
HETATM   24  C   UNK     0      11.827  -9.812   0.652  0.00  0.00     0.021 A 
HETATM   25  C   UNK     0      11.378  -8.618   0.121  0.00  0.00    -0.031 A 
HETATM   26  C   UNK     0      11.717  -7.202   0.537  0.00  0.00     0.051 C 
HETATM   27  C   UNK     0      10.483  -8.928  -0.897  0.00  0.00    -0.027 A 
HETATM   28  C   UNK     0      12.890  -9.882   1.735  0.00  0.00     0.115 C 
HETATM   29  H   UNK     0      13.519 -12.633   0.891  0.00  0.00     0.165 HD
HETATM   30  H   UNK     0      14.549 -12.292  -2.324  0.00  0.00     0.165 HD
HETATM   31  H   UNK     0      12.447 -11.615  -2.862  0.00  0.00     0.165 HD
HETATM   32  H   UNK     0      11.370 -11.925   0.252  0.00  0.00     0.165 HD
ENDROOT
BRANCH   6  33
HETATM   33  C   UNK     0      17.747 -10.503   0.495  0.00  0.00     0.051 C 
BRANCH  33  34
HETATM   34  C   UNK     0      17.883  -9.381  -0.507  0.00  0.00     0.114 C 
BRANCH  34  35
HETATM   35  C   UNK     0      19.166  -9.587  -1.237  0.00  0.00     0.139 C 
HETATM   36  O   UNK     0      20.268  -9.319  -0.677  0.00  0.00    -0.650 OA
BRANCH  35  37
HETATM   37  O   UNK     0      19.218 -10.074  -2.538  0.00  0.00    -0.776 OA
HETATM   38  H   UNK     0      19.783 -10.870  -2.788  0.00  0.00     0.167 HD
ENDBRANCH  35  37
ENDBRANCH  34  35
ENDBRANCH  33  34
ENDBRANCH   6  33
BRANCH  27  39
HETATM   39  C   UNK     0       9.734  -7.893  -1.660  0.00  0.00     0.051 C 
BRANCH  39  40
HETATM   40  C   UNK     0      10.462  -7.096  -2.648  0.00  0.00     0.114 C 
BRANCH  40  41
HETATM   41  C   UNK     0      10.045  -7.013  -4.030  0.00  0.00     0.139 C 
HETATM   42  O   UNK     0       8.860  -7.024  -4.388  0.00  0.00    -0.650 OA
BRANCH  41  43
HETATM   43  O   UNK     0      11.038  -6.915  -5.046  0.00  0.00    -0.776 OA
HETATM   44  H   UNK     0      11.406  -5.981  -5.182  0.00  0.00     0.167 HD
ENDBRANCH  41  43
ENDBRANCH  40  41
ENDBRANCH  39  40
ENDBRANCH  27  39
BRANCH  11  45
HETATM   45  C   UNK     0      14.315 -17.001  -2.840  0.00  0.00     0.051 C 
BRANCH  45  46
HETATM   46  C   UNK     0      13.066 -17.570  -2.273  0.00  0.00     0.114 C 
BRANCH  46  47
HETATM   47  C   UNK     0      13.434 -18.835  -1.574  0.00  0.00     0.139 C 
HETATM   48  O   UNK     0      12.651 -19.297  -0.733  0.00  0.00    -0.650 OA
BRANCH  47  49
HETATM   49  O   UNK     0      14.616 -19.474  -1.855  0.00  0.00    -0.776 OA
HETATM   50  H   UNK     0      15.507 -18.968  -1.919  0.00  0.00     0.167 HD
ENDBRANCH  47  49
ENDBRANCH  46  47
ENDBRANCH  45  46
ENDBRANCH  11  45
BRANCH  18  51
HETATM   51  C   UNK     0       8.183 -13.662  -2.950  0.00  0.00     0.051 C 
BRANCH  51  52
HETATM   52  C   UNK     0       8.005 -14.515  -1.702  0.00  0.00     0.114 C 
BRANCH  52  53
HETATM   53  C   UNK     0       7.432 -15.838  -2.018  0.00  0.00     0.139 C 
HETATM   54  O   UNK     0       7.534 -16.770  -1.205  0.00  0.00    -0.650 OA
BRANCH  53  55
HETATM   55  O   UNK     0       6.790 -16.031  -3.217  0.00  0.00    -0.776 OA
HETATM   56  H   UNK     0       6.014 -16.630  -3.374  0.00  0.00     0.167 HD
ENDBRANCH  53  55
ENDBRANCH  52  53
ENDBRANCH  51  52
ENDBRANCH  18  51
TORSDOF 16
ENDMDL
MODEL 18
REMARK VINA RESULT:      -8.7     31.062     33.755
REMARK  16 active torsions:
REMARK  status: ('A' for Active; 'I' for Inactive)
REMARK    1  A    between atoms: C_6  and  C_7 
REMARK    2  A    between atoms: C_7  and  C_8 
REMARK    3  A    between atoms: C_8  and  C_9 
REMARK    4  A    between atoms: C_9  and  O_11 
REMARK    5  A    between atoms: C_16  and  C_17 
REMARK    6  A    between atoms: C_17  and  C_18 
REMARK    7  A    between atoms: C_18  and  C_19 
REMARK    8  A    between atoms: C_19  and  O_21 
REMARK    9  A    between atoms: C_28  and  C_29 
REMARK   10  A    between atoms: C_29  and  C_30 
REMARK   11  A    between atoms: C_30  and  C_31 
REMARK   12  A    between atoms: C_31  and  O_33 
REMARK   13  A    between atoms: C_42  and  C_43 
REMARK   14  A    between atoms: C_43  and  C_44 
REMARK   15  A    between atoms: C_44  and  C_45 
REMARK   16  A    between atoms: C_45  and  O_47 
ROOT
HETATM    1  C   UNK     0      13.666 -17.057  -2.104  0.00  0.00     0.051 C 
HETATM    2  C   UNK     0      14.092 -15.622  -1.870  0.00  0.00    -0.031 A 
HETATM    3  C   UNK     0      13.709 -14.471  -2.541  0.00  0.00     0.021 A 
HETATM    4  N   UNK     0      14.367 -13.412  -2.010  0.00  0.00    -0.361 N 
HETATM    5  C   UNK     0      15.154 -13.863  -1.011  0.00  0.00     0.022 A 
HETATM    6  C   UNK     0      15.008 -15.242  -0.898  0.00  0.00    -0.027 A 
HETATM    7  C   UNK     0      16.008 -13.095  -0.052  0.00  0.00     0.115 C 
HETATM    8  C   UNK     0      15.410 -11.824   0.527  0.00  0.00     0.021 A 
HETATM    9  N   UNK     0      14.133 -11.577   0.860  0.00  0.00    -0.361 N 
HETATM   10  C   UNK     0      14.043 -10.287   1.246  0.00  0.00     0.022 A 
HETATM   11  C   UNK     0      15.297  -9.689   1.169  0.00  0.00    -0.027 A 
HETATM   12  C   UNK     0      16.163 -10.652   0.716  0.00  0.00    -0.031 A 
HETATM   13  C   UNK     0      17.644 -10.456   0.483  0.00  0.00     0.051 C 
HETATM   14  C   UNK     0      12.767  -9.555   1.651  0.00  0.00     0.115 C 
HETATM   15  C   UNK     0      11.717  -9.494   0.553  0.00  0.00     0.021 A 
HETATM   16  N   UNK     0      11.133 -10.526  -0.083  0.00  0.00    -0.361 N 
HETATM   17  C   UNK     0      10.319 -10.054  -1.029  0.00  0.00     0.022 A 
HETATM   18  C   UNK     0      10.367  -8.646  -1.002  0.00  0.00    -0.027 A 
HETATM   19  C   UNK     0      11.245  -8.308  -0.006  0.00  0.00    -0.031 A 
HETATM   20  C   UNK     0      11.565  -6.877   0.387  0.00  0.00     0.051 C 
HETATM   21  C   UNK     0       9.493 -10.793  -2.058  0.00  0.00     0.115 C 
HETATM   22  C   UNK     0      10.056 -12.082  -2.610  0.00  0.00     0.022 A 
HETATM   23  N   UNK     0      11.323 -12.357  -2.946  0.00  0.00    -0.361 N 
HETATM   24  C   UNK     0      11.404 -13.667  -3.253  0.00  0.00     0.021 A 
HETATM   25  C   UNK     0      10.158 -14.248  -3.121  0.00  0.00    -0.031 A 
HETATM   26  C   UNK     0       9.738 -15.678  -3.392  0.00  0.00     0.051 C 
HETATM   27  C   UNK     0       9.278 -13.253  -2.710  0.00  0.00    -0.027 A 
HETATM   28  C   UNK     0      12.649 -14.464  -3.605  0.00  0.00     0.115 C 
HETATM   29  H   UNK     0      14.301 -12.360  -2.372  0.00  0.00     0.165 HD
HETATM   30  H   UNK     0      13.303 -12.325   0.871  0.00  0.00     0.165 HD
HETATM   31  H   UNK     0      11.262 -11.611   0.172  0.00  0.00     0.165 HD
HETATM   32  H   UNK     0      12.164 -11.619  -3.012  0.00  0.00     0.165 HD
ENDROOT
BRANCH   6  33
HETATM   33  C   UNK     0      15.666 -16.212   0.049  0.00  0.00     0.051 C 
BRANCH  33  34
HETATM   34  C   UNK     0      17.007 -16.656  -0.485  0.00  0.00     0.114 C 
BRANCH  34  35
HETATM   35  C   UNK     0      18.039 -16.265   0.518  0.00  0.00     0.139 C 
HETATM   36  O   UNK     0      18.201 -16.956   1.566  0.00  0.00    -0.650 OA
BRANCH  35  37
HETATM   37  O   UNK     0      18.857 -15.154   0.358  0.00  0.00    -0.776 OA
HETATM   38  H   UNK     0      19.808 -15.231   0.035  0.00  0.00     0.167 HD
ENDBRANCH  35  37
ENDBRANCH  34  35
ENDBRANCH  33  34
ENDBRANCH   6  33
BRANCH  27  39
HETATM   39  C   UNK     0       7.819 -13.485  -2.529  0.00  0.00     0.051 C 
BRANCH  39  40
HETATM   40  C   UNK     0       7.278 -13.472  -1.171  0.00  0.00     0.114 C 
BRANCH  40  41
HETATM   41  C   UNK     0       6.099 -12.713  -0.818  0.00  0.00     0.139 C 
HETATM   42  O   UNK     0       4.990 -13.226  -0.620  0.00  0.00    -0.650 OA
BRANCH  41  43
HETATM   43  O   UNK     0       6.202 -11.299  -0.686  0.00  0.00    -0.776 OA
HETATM   44  H   UNK     0       5.340 -10.798  -0.863  0.00  0.00     0.167 HD
ENDBRANCH  41  43
ENDBRANCH  40  41
ENDBRANCH  39  40
ENDBRANCH  27  39
BRANCH  11  45
HETATM   45  C   UNK     0      15.689  -8.275   1.504  0.00  0.00     0.051 C 
BRANCH  45  46
HETATM   46  C   UNK     0      15.038  -7.739   2.727  0.00  0.00     0.114 C 
BRANCH  46  47
HETATM   47  C   UNK     0      14.628  -6.337   2.431  0.00  0.00     0.139 C 
HETATM   48  O   UNK     0      13.972  -5.720   3.281  0.00  0.00    -0.650 OA
BRANCH  47  49
HETATM   49  O   UNK     0      14.967  -5.742   1.242  0.00  0.00    -0.776 OA
HETATM   50  H   UNK     0      15.777  -6.049   0.690  0.00  0.00     0.167 HD
ENDBRANCH  47  49
ENDBRANCH  46  47
ENDBRANCH  45  46
ENDBRANCH  11  45
BRANCH  18  51
HETATM   51  C   UNK     0       9.601  -7.676  -1.864  0.00  0.00     0.051 C 
BRANCH  51  52
HETATM   52  C   UNK     0       8.459  -7.153  -1.006  0.00  0.00     0.114 C 
BRANCH  52  53
HETATM   53  C   UNK     0       7.338  -8.111  -0.940  0.00  0.00     0.139 C 
HETATM   54  O   UNK     0       6.925  -8.510   0.160  0.00  0.00    -0.650 OA
BRANCH  53  55
HETATM   55  O   UNK     0       6.758  -8.559  -2.102  0.00  0.00    -0.776 OA
HETATM   56  H   UNK     0       7.041  -9.354  -2.627  0.00  0.00     0.167 HD
ENDBRANCH  53  55
ENDBRANCH  52  53
ENDBRANCH  51  52
ENDBRANCH  18  51
TORSDOF 16
ENDMDL
MODEL 19
REMARK VINA RESULT:      -8.7      4.127      8.665
REMARK  16 active torsions:
REMARK  status: ('A' for Active; 'I' for Inactive)
REMARK    1  A    between atoms: C_6  and  C_7 
REMARK    2  A    between atoms: C_7  and  C_8 
REMARK    3  A    between atoms: C_8  and  C_9 
REMARK    4  A    between atoms: C_9  and  O_11 
REMARK    5  A    between atoms: C_16  and  C_17 
REMARK    6  A    between atoms: C_17  and  C_18 
REMARK    7  A    between atoms: C_18  and  C_19 
REMARK    8  A    between atoms: C_19  and  O_21 
REMARK    9  A    between atoms: C_28  and  C_29 
REMARK   10  A    between atoms: C_29  and  C_30 
REMARK   11  A    between atoms: C_30  and  C_31 
REMARK   12  A    between atoms: C_31  and  O_33 
REMARK   13  A    between atoms: C_42  and  C_43 
REMARK   14  A    between atoms: C_43  and  C_44 
REMARK   15  A    between atoms: C_44  and  C_45 
REMARK   16  A    between atoms: C_45  and  O_47 
ROOT
HETATM    1  C   UNK     0      -4.416  -3.131  28.258  0.00  0.00     0.051 C 
HETATM    2  C   UNK     0      -3.434  -4.240  27.940  0.00  0.00    -0.031 A 
HETATM    3  C   UNK     0      -2.246  -4.186  27.229  0.00  0.00     0.021 A 
HETATM    4  N   UNK     0      -1.712  -5.429  27.166  0.00  0.00    -0.361 N 
HETATM    5  C   UNK     0      -2.530  -6.272  27.829  0.00  0.00     0.022 A 
HETATM    6  C   UNK     0      -3.619  -5.562  28.323  0.00  0.00    -0.027 A 
HETATM    7  C   UNK     0      -2.354  -7.727  28.132  0.00  0.00     0.115 C 
HETATM    8  C   UNK     0      -0.970  -8.168  28.578  0.00  0.00     0.021 A 
HETATM    9  N   UNK     0      -0.085  -7.503  29.337  0.00  0.00    -0.361 N 
HETATM   10  C   UNK     0       1.047  -8.236  29.400  0.00  0.00     0.022 A 
HETATM   11  C   UNK     0       0.883  -9.409  28.670  0.00  0.00    -0.027 A 
HETATM   12  C   UNK     0      -0.386  -9.373  28.149  0.00  0.00    -0.031 A 
HETATM   13  C   UNK     0      -1.007 -10.447  27.285  0.00  0.00     0.051 C 
HETATM   14  C   UNK     0       2.340  -7.836  30.104  0.00  0.00     0.115 C 
HETATM   15  C   UNK     0       2.972  -6.566  29.558  0.00  0.00     0.021 A 
HETATM   16  N   UNK     0       2.422  -5.339  29.491  0.00  0.00    -0.361 N 
HETATM   17  C   UNK     0       3.272  -4.510  28.882  0.00  0.00     0.022 A 
HETATM   18  C   UNK     0       4.436  -5.229  28.544  0.00  0.00    -0.027 A 
HETATM   19  C   UNK     0       4.236  -6.515  28.974  0.00  0.00    -0.031 A 
HETATM   20  C   UNK     0       5.267  -7.620  28.839  0.00  0.00     0.051 C 
HETATM   21  C   UNK     0       3.107  -3.057  28.498  0.00  0.00     0.115 C 
HETATM   22  C   UNK     0       1.726  -2.595  28.095  0.00  0.00     0.022 A 
HETATM   23  N   UNK     0       0.822  -3.237  27.344  0.00  0.00    -0.361 N 
HETATM   24  C   UNK     0      -0.323  -2.527  27.359  0.00  0.00     0.021 A 
HETATM   25  C   UNK     0      -0.150  -1.393  28.130  0.00  0.00    -0.031 A 
HETATM   26  C   UNK     0      -1.130  -0.274  28.413  0.00  0.00     0.051 C 
HETATM   27  C   UNK     0       1.154  -1.415  28.612  0.00  0.00    -0.027 A 
HETATM   28  C   UNK     0      -1.655  -2.897  26.730  0.00  0.00     0.115 C 
HETATM   29  H   UNK     0      -0.781  -5.708  26.620  0.00  0.00     0.165 HD
HETATM   30  H   UNK     0      -0.274  -6.539  29.871  0.00  0.00     0.165 HD
HETATM   31  H   UNK     0       1.433  -5.039  29.925  0.00  0.00     0.165 HD
HETATM   32  H   UNK     0       0.998  -4.178  26.760  0.00  0.00     0.165 HD
ENDROOT
BRANCH   6  33
HETATM   33  C   UNK     0      -4.808  -6.039  29.119  0.00  0.00     0.051 C 
BRANCH  33  34
HETATM   34  C   UNK     0      -4.376  -7.002  30.199  0.00  0.00     0.114 C 
BRANCH  34  35
HETATM   35  C   UNK     0      -3.622  -6.220  31.221  0.00  0.00     0.139 C 
HETATM   36  O   UNK     0      -2.419  -6.509  31.484  0.00  0.00    -0.650 OA
BRANCH  35  37
HETATM   37  O   UNK     0      -4.186  -5.157  31.916  0.00  0.00    -0.776 OA
HETATM   38  H   UNK     0      -3.640  -4.365  32.216  0.00  0.00     0.167 HD
ENDBRANCH  35  37
ENDBRANCH  34  35
ENDBRANCH  33  34
ENDBRANCH   6  33
BRANCH  27  39
HETATM   39  C   UNK     0       1.735  -0.315  29.429  0.00  0.00     0.051 C 
BRANCH  39  40
HETATM   40  C   UNK     0       1.750  -0.464  30.883  0.00  0.00     0.114 C 
BRANCH  40  41
HETATM   41  C   UNK     0       0.585  -0.199  31.697  0.00  0.00     0.139 C 
HETATM   42  O   UNK     0      -0.248   0.680  31.434  0.00  0.00    -0.650 OA
BRANCH  41  43
HETATM   43  O   UNK     0       0.367  -0.979  32.868  0.00  0.00    -0.776 OA
HETATM   44  H   UNK     0      -0.091  -1.867  32.701  0.00  0.00     0.167 HD
ENDBRANCH  41  43
ENDBRANCH  40  41
ENDBRANCH  39  40
ENDBRANCH  27  39
BRANCH  11  45
HETATM   45  C   UNK     0       1.863 -10.531  28.459  0.00  0.00     0.051 C 
BRANCH  45  46
HETATM   46  C   UNK     0       1.576 -11.746  29.263  0.00  0.00     0.114 C 
BRANCH  46  47
HETATM   47  C   UNK     0       2.226 -12.897  28.573  0.00  0.00     0.139 C 
HETATM   48  O   UNK     0       1.896 -13.151  27.406  0.00  0.00    -0.650 OA
BRANCH  47  49
HETATM   49  O   UNK     0       3.169 -13.660  29.215  0.00  0.00    -0.776 OA
HETATM   50  H   UNK     0       3.948 -14.100  28.712  0.00  0.00     0.167 HD
ENDBRANCH  47  49
ENDBRANCH  46  47
ENDBRANCH  45  46
ENDBRANCH  11  45
BRANCH  18  51
HETATM   51  C   UNK     0       5.680  -4.714  27.867  0.00  0.00     0.051 C 
BRANCH  51  52
HETATM   52  C   UNK     0       6.651  -4.351  28.980  0.00  0.00     0.114 C 
BRANCH  52  53
HETATM   53  C   UNK     0       7.734  -3.472  28.499  0.00  0.00     0.139 C 
HETATM   54  O   UNK     0       8.372  -2.774  29.304  0.00  0.00    -0.650 OA
BRANCH  53  55
HETATM   55  O   UNK     0       8.029  -3.428  27.158  0.00  0.00    -0.776 OA
HETATM   56  H   UNK     0       8.678  -4.011  26.683  0.00  0.00     0.167 HD
ENDBRANCH  53  55
ENDBRANCH  52  53
ENDBRANCH  51  52
ENDBRANCH  18  51
TORSDOF 16
ENDMDL
MODEL 20
REMARK VINA RESULT:      -8.6      2.955      9.280
REMARK  16 active torsions:
REMARK  status: ('A' for Active; 'I' for Inactive)
REMARK    1  A    between atoms: C_6  and  C_7 
REMARK    2  A    between atoms: C_7  and  C_8 
REMARK    3  A    between atoms: C_8  and  C_9 
REMARK    4  A    between atoms: C_9  and  O_11 
REMARK    5  A    between atoms: C_16  and  C_17 
REMARK    6  A    between atoms: C_17  and  C_18 
REMARK    7  A    between atoms: C_18  and  C_19 
REMARK    8  A    between atoms: C_19  and  O_21 
REMARK    9  A    between atoms: C_28  and  C_29 
REMARK   10  A    between atoms: C_29  and  C_30 
REMARK   11  A    between atoms: C_30  and  C_31 
REMARK   12  A    between atoms: C_31  and  O_33 
REMARK   13  A    between atoms: C_42  and  C_43 
REMARK   14  A    between atoms: C_43  and  C_44 
REMARK   15  A    between atoms: C_44  and  C_45 
REMARK   16  A    between atoms: C_45  and  O_47 
ROOT
HETATM    1  C   UNK     0      -0.258  -1.616  28.929  0.00  0.00     0.051 C 
HETATM    2  C   UNK     0      -1.420  -1.404  27.980  0.00  0.00    -0.031 A 
HETATM    3  C   UNK     0      -1.980  -2.282  27.064  0.00  0.00     0.021 A 
HETATM    4  N   UNK     0      -2.984  -1.654  26.408  0.00  0.00    -0.361 N 
HETATM    5  C   UNK     0      -3.082  -0.398  26.891  0.00  0.00     0.022 A 
HETATM    6  C   UNK     0      -2.117  -0.208  27.874  0.00  0.00    -0.027 A 
HETATM    7  C   UNK     0      -4.083   0.668  26.573  0.00  0.00     0.115 C 
HETATM    8  C   UNK     0      -5.532   0.230  26.454  0.00  0.00     0.021 A 
HETATM    9  N   UNK     0      -6.180  -0.714  27.155  0.00  0.00    -0.361 N 
HETATM   10  C   UNK     0      -7.427  -0.829  26.649  0.00  0.00     0.022 A 
HETATM   11  C   UNK     0      -7.589   0.071  25.600  0.00  0.00    -0.027 A 
HETATM   12  C   UNK     0      -6.399   0.742  25.472  0.00  0.00    -0.031 A 
HETATM   13  C   UNK     0      -6.112   1.826  24.458  0.00  0.00     0.051 C 
HETATM   14  C   UNK     0      -8.492  -1.826  27.097  0.00  0.00     0.115 C 
HETATM   15  C   UNK     0      -8.086  -3.280  26.925  0.00  0.00     0.021 A 
HETATM   16  N   UNK     0      -7.023  -3.906  27.464  0.00  0.00    -0.361 N 
HETATM   17  C   UNK     0      -6.978  -5.162  27.015  0.00  0.00     0.022 A 
HETATM   18  C   UNK     0      -8.071  -5.368  26.148  0.00  0.00    -0.027 A 
HETATM   19  C   UNK     0      -8.757  -4.182  26.102  0.00  0.00    -0.031 A 
HETATM   20  C   UNK     0     -10.033  -3.977  25.306  0.00  0.00     0.051 C 
HETATM   21  C   UNK     0      -5.953  -6.245  27.258  0.00  0.00     0.115 C 
HETATM   22  C   UNK     0      -4.513  -5.819  27.422  0.00  0.00     0.022 A 
HETATM   23  N   UNK     0      -3.843  -4.880  26.741  0.00  0.00    -0.361 N 
HETATM   24  C   UNK     0      -2.631  -4.727  27.312  0.00  0.00     0.021 A 
HETATM   25  C   UNK     0      -2.514  -5.597  28.380  0.00  0.00    -0.031 A 
HETATM   26  C   UNK     0      -1.332  -5.823  29.300  0.00  0.00     0.051 C 
HETATM   27  C   UNK     0      -3.706  -6.306  28.470  0.00  0.00    -0.027 A 
HETATM   28  C   UNK     0      -1.554  -3.719  26.951  0.00  0.00     0.115 C 
HETATM   29  H   UNK     0      -3.590  -2.090  25.580  0.00  0.00     0.165 HD
HETATM   30  H   UNK     0      -5.777  -1.265  28.039  0.00  0.00     0.165 HD
HETATM   31  H   UNK     0      -6.316  -3.467  28.215  0.00  0.00     0.165 HD
HETATM   32  H   UNK     0      -4.203  -4.346  25.824  0.00  0.00     0.165 HD
ENDROOT
BRANCH   6  33
HETATM   33  C   UNK     0      -1.810   1.010  28.708  0.00  0.00     0.051 C 
BRANCH  33  34
HETATM   34  C   UNK     0      -0.910   1.961  27.955  0.00  0.00     0.114 C 
BRANCH  34  35
HETATM   35  C   UNK     0      -0.469   3.014  28.915  0.00  0.00     0.139 C 
HETATM   36  O   UNK     0      -1.099   3.193  29.998  0.00  0.00    -0.650 OA
BRANCH  35  37
HETATM   37  O   UNK     0       0.630   3.830  28.678  0.00  0.00    -0.776 OA
HETATM   38  H   UNK     0       1.475   3.759  29.221  0.00  0.00     0.167 HD
ENDBRANCH  35  37
ENDBRANCH  34  35
ENDBRANCH  33  34
ENDBRANCH   6  33
BRANCH  27  39
HETATM   39  C   UNK     0      -3.929  -7.392  29.462  0.00  0.00     0.051 C 
BRANCH  39  40
HETATM   40  C   UNK     0      -3.698  -8.774  29.043  0.00  0.00     0.114 C 
BRANCH  40  41
HETATM   41  C   UNK     0      -2.374  -9.351  28.984  0.00  0.00     0.139 C 
HETATM   42  O   UNK     0      -1.691  -9.391  27.951  0.00  0.00    -0.650 OA
BRANCH  41  43
HETATM   43  O   UNK     0      -1.809  -9.906  30.167  0.00  0.00    -0.776 OA
HETATM   44  H   UNK     0      -0.858 -10.240  30.060  0.00  0.00     0.167 HD
ENDBRANCH  41  43
ENDBRANCH  40  41
ENDBRANCH  39  40
ENDBRANCH  27  39
BRANCH  11  45
HETATM   45  C   UNK     0      -8.803   0.310  24.743  0.00  0.00     0.051 C 
BRANCH  45  46
HETATM   46  C   UNK     0      -9.395  -0.927  24.173  0.00  0.00     0.114 C 
BRANCH  46  47
HETATM   47  C   UNK     0     -10.869  -0.720  24.102  0.00  0.00     0.139 C 
HETATM   48  O   UNK     0     -11.555  -1.002  25.095  0.00  0.00    -0.650 OA
BRANCH  47  49
HETATM   49  O   UNK     0     -11.456  -0.228  22.964  0.00  0.00    -0.776 OA
HETATM   50  H   UNK     0     -11.282   0.727  22.630  0.00  0.00     0.167 HD
ENDBRANCH  47  49
ENDBRANCH  46  47
ENDBRANCH  45  46
ENDBRANCH  11  45
BRANCH  18  51
HETATM   51  C   UNK     0      -8.451  -6.631  25.421  0.00  0.00     0.051 C 
BRANCH  51  52
HETATM   52  C   UNK     0      -9.255  -7.465  26.408  0.00  0.00     0.114 C 
BRANCH  52  53
HETATM   53  C   UNK     0     -10.689  -7.495  26.061  0.00  0.00     0.139 C 
HETATM   54  O   UNK     0     -11.518  -6.930  26.792  0.00  0.00    -0.650 OA
BRANCH  53  55
HETATM   55  O   UNK     0     -11.101  -8.154  24.928  0.00  0.00    -0.776 OA
HETATM   56  H   UNK     0     -11.796  -7.843  24.291  0.00  0.00     0.167 HD
ENDBRANCH  53  55
ENDBRANCH  52  53
ENDBRANCH  51  52
ENDBRANCH  18  51
TORSDOF 16
ENDMDL
