MODEL 1
REMARK VINA RESULT:      -9.4      0.000      0.000
REMARK  16 active torsions:
REMARK  status: ('A' for Active; 'I' for Inactive)
REMARK    1  A    between atoms: C_6  and  C_7 
REMARK    2  A    between atoms: C_7  and  C_8 
REMARK    3  A    between atoms: C_8  and  C_9 
REMARK    4  A    between atoms: C_9  and  O_11 
REMARK    5  A    between atoms: C_16  and  C_17 
REMARK    6  A    between atoms: C_17  and  C_18 
REMARK    7  A    between atoms: C_18  and  C_19 
REMARK    8  A    between atoms: C_19  and  O_21 
REMARK    9  A    between atoms: C_28  and  C_29 
REMARK   10  A    between atoms: C_29  and  C_30 
REMARK   11  A    between atoms: C_30  and  C_31 
REMARK   12  A    between atoms: C_31  and  O_33 
REMARK   13  A    between atoms: C_42  and  C_43 
REMARK   14  A    between atoms: C_43  and  C_44 
REMARK   15  A    between atoms: C_44  and  C_45 
REMARK   16  A    between atoms: C_45  and  O_47 
ROOT
HETATM    1  C   UNK     0     -35.674  11.388   3.493  0.00  0.00     0.051 C 
HETATM    2  C   UNK     0     -35.966  10.023   4.084  0.00  0.00    -0.031 A 
HETATM    3  C   UNK     0     -35.947   8.779   3.474  0.00  0.00     0.021 A 
HETATM    4  N   UNK     0     -36.306   7.838   4.380  0.00  0.00    -0.361 N 
HETATM    5  C   UNK     0     -36.545   8.455   5.556  0.00  0.00     0.022 A 
HETATM    6  C   UNK     0     -36.344   9.823   5.405  0.00  0.00    -0.027 A 
HETATM    7  C   UNK     0     -36.879   7.865   6.890  0.00  0.00     0.115 C 
HETATM    8  C   UNK     0     -36.101   6.627   7.302  0.00  0.00     0.021 A 
HETATM    9  N   UNK     0     -34.816   6.327   7.055  0.00  0.00    -0.361 N 
HETATM   10  C   UNK     0     -34.578   5.085   7.528  0.00  0.00     0.022 A 
HETATM   11  C   UNK     0     -35.738   4.576   8.104  0.00  0.00    -0.027 A 
HETATM   12  C   UNK     0     -36.701   5.542   7.965  0.00  0.00    -0.031 A 
HETATM   13  C   UNK     0     -38.129   5.430   8.451  0.00  0.00     0.051 C 
HETATM   14  C   UNK     0     -33.268   4.311   7.410  0.00  0.00     0.115 C 
HETATM   15  C   UNK     0     -32.834   4.050   5.976  0.00  0.00     0.021 A 
HETATM   16  N   UNK     0     -32.590   4.959   5.014  0.00  0.00    -0.361 N 
HETATM   17  C   UNK     0     -32.303   4.324   3.875  0.00  0.00     0.022 A 
HETATM   18  C   UNK     0     -32.353   2.936   4.109  0.00  0.00    -0.027 A 
HETATM   19  C   UNK     0     -32.686   2.777   5.429  0.00  0.00    -0.031 A 
HETATM   20  C   UNK     0     -32.812   1.427   6.112  0.00  0.00     0.051 C 
HETATM   21  C   UNK     0     -32.026   4.880   2.496  0.00  0.00     0.115 C 
HETATM   22  C   UNK     0     -32.761   6.136   2.090  0.00  0.00     0.022 A 
HETATM   23  N   UNK     0     -34.038   6.463   2.326  0.00  0.00    -0.361 N 
HETATM   24  C   UNK     0     -34.232   7.733   1.916  0.00  0.00     0.021 A 
HETATM   25  C   UNK     0     -33.053   8.232   1.394  0.00  0.00    -0.031 A 
HETATM   26  C   UNK     0     -32.783   9.587   0.775  0.00  0.00     0.051 C 
HETATM   27  C   UNK     0     -32.097   7.227   1.494  0.00  0.00    -0.027 A 
HETATM   28  C   UNK     0     -35.488   8.574   2.058  0.00  0.00     0.115 C 
HETATM   29  H   UNK     0     -36.427   6.750   4.172  0.00  0.00     0.165 HD
HETATM   30  H   UNK     0     -34.062   7.008   6.591  0.00  0.00     0.165 HD
HETATM   31  H   UNK     0     -32.573   6.071   5.151  0.00  0.00     0.165 HD
HETATM   32  H   UNK     0     -34.826   5.786   2.744  0.00  0.00     0.165 HD
ENDROOT
BRANCH   6  33
HETATM   33  C   UNK     0     -36.485  10.940   6.408  0.00  0.00     0.051 C 
BRANCH  33  34
HETATM   34  C   UNK     0     -37.854  11.572   6.317  0.00  0.00     0.114 C 
BRANCH  34  35
HETATM   35  C   UNK     0     -38.508  11.412   7.647  0.00  0.00     0.139 C 
HETATM   36  O   UNK     0     -39.588  12.021   7.903  0.00  0.00    -0.650 OA
BRANCH  35  37
HETATM   37  O   UNK     0     -37.983  10.605   8.649  0.00  0.00    -0.776 OA
HETATM   38  H   UNK     0     -37.871   9.611   8.531  0.00  0.00     0.167 HD
ENDBRANCH  35  37
ENDBRANCH  34  35
ENDBRANCH  33  34
ENDBRANCH   6  33
BRANCH  27  39
HETATM   39  C   UNK     0     -30.713   7.370   0.967  0.00  0.00     0.051 C 
BRANCH  39  40
HETATM   40  C   UNK     0     -30.430   6.881  -0.383  0.00  0.00     0.114 C 
BRANCH  40  41
HETATM   41  C   UNK     0     -30.956   5.627  -0.873  0.00  0.00     0.139 C 
HETATM   42  O   UNK     0     -32.102   5.494  -1.321  0.00  0.00    -0.650 OA
BRANCH  41  43
HETATM   43  O   UNK     0     -30.124   4.472  -0.846  0.00  0.00    -0.776 OA
HETATM   44  H   UNK     0     -29.703   4.279   0.055  0.00  0.00     0.167 HD
ENDBRANCH  41  43
ENDBRANCH  40  41
ENDBRANCH  39  40
ENDBRANCH  27  39
BRANCH  11  45
HETATM   45  C   UNK     0     -35.954   3.241   8.765  0.00  0.00     0.051 C 
BRANCH  45  46
HETATM   46  C   UNK     0     -35.122   3.023   9.977  0.00  0.00     0.114 C 
BRANCH  46  47
HETATM   47  C   UNK     0     -35.191   1.570  10.304  0.00  0.00     0.139 C 
HETATM   48  O   UNK     0     -34.154   0.994  10.663  0.00  0.00    -0.650 OA
BRANCH  47  49
HETATM   49  O   UNK     0     -36.375   0.884  10.209  0.00  0.00    -0.776 OA
HETATM   50  H   UNK     0     -36.893   0.810   9.325  0.00  0.00     0.167 HD
ENDBRANCH  47  49
ENDBRANCH  46  47
ENDBRANCH  45  46
ENDBRANCH  11  45
BRANCH  18  51
HETATM   51  C   UNK     0     -32.078   1.821   3.133  0.00  0.00     0.051 C 
BRANCH  51  52
HETATM   52  C   UNK     0     -30.886   1.055   3.687  0.00  0.00     0.114 C 
BRANCH  52  53
HETATM   53  C   UNK     0     -31.026  -0.400   3.486  0.00  0.00     0.139 C 
HETATM   54  O   UNK     0     -30.209  -1.012   2.779  0.00  0.00    -0.650 OA
BRANCH  53  55
HETATM   55  O   UNK     0     -32.067  -1.071   4.081  0.00  0.00    -0.776 OA
HETATM   56  H   UNK     0     -32.210  -2.054   4.071  0.00  0.00     0.167 HD
ENDBRANCH  53  55
ENDBRANCH  52  53
ENDBRANCH  51  52
ENDBRANCH  18  51
TORSDOF 16
ENDMDL
MODEL 2
REMARK VINA RESULT:      -8.9      9.792     13.844
REMARK  16 active torsions:
REMARK  status: ('A' for Active; 'I' for Inactive)
REMARK    1  A    between atoms: C_6  and  C_7 
REMARK    2  A    between atoms: C_7  and  C_8 
REMARK    3  A    between atoms: C_8  and  C_9 
REMARK    4  A    between atoms: C_9  and  O_11 
REMARK    5  A    between atoms: C_16  and  C_17 
REMARK    6  A    between atoms: C_17  and  C_18 
REMARK    7  A    between atoms: C_18  and  C_19 
REMARK    8  A    between atoms: C_19  and  O_21 
REMARK    9  A    between atoms: C_28  and  C_29 
REMARK   10  A    between atoms: C_29  and  C_30 
REMARK   11  A    between atoms: C_30  and  C_31 
REMARK   12  A    between atoms: C_31  and  O_33 
REMARK   13  A    between atoms: C_42  and  C_43 
REMARK   14  A    between atoms: C_43  and  C_44 
REMARK   15  A    between atoms: C_44  and  C_45 
REMARK   16  A    between atoms: C_45  and  O_47 
ROOT
HETATM    1  C   UNK     0     -41.872  20.629  -3.336  0.00  0.00     0.051 C 
HETATM    2  C   UNK     0     -41.585  19.533  -2.330  0.00  0.00    -0.031 A 
HETATM    3  C   UNK     0     -40.538  18.625  -2.293  0.00  0.00     0.021 A 
HETATM    4  N   UNK     0     -40.702  17.806  -1.228  0.00  0.00    -0.361 N 
HETATM    5  C   UNK     0     -41.825  18.178  -0.580  0.00  0.00     0.022 A 
HETATM    6  C   UNK     0     -42.404  19.254  -1.245  0.00  0.00    -0.027 A 
HETATM    7  C   UNK     0     -42.401  17.661   0.702  0.00  0.00     0.115 C 
HETATM    8  C   UNK     0     -41.421  17.400   1.832  0.00  0.00     0.021 A 
HETATM    9  N   UNK     0     -40.313  18.086   2.153  0.00  0.00    -0.361 N 
HETATM   10  C   UNK     0     -39.701  17.444   3.171  0.00  0.00     0.022 A 
HETATM   11  C   UNK     0     -40.441  16.318   3.521  0.00  0.00    -0.027 A 
HETATM   12  C   UNK     0     -41.526  16.285   2.682  0.00  0.00    -0.031 A 
HETATM   13  C   UNK     0     -42.613  15.234   2.700  0.00  0.00     0.051 C 
HETATM   14  C   UNK     0     -38.374  17.833   3.815  0.00  0.00     0.115 C 
HETATM   15  C   UNK     0     -37.196  17.822   2.854  0.00  0.00     0.021 A 
HETATM   16  N   UNK     0     -37.056  18.532   1.719  0.00  0.00    -0.361 N 
HETATM   17  C   UNK     0     -35.911  18.187   1.125  0.00  0.00     0.022 A 
HETATM   18  C   UNK     0     -35.271  17.212   1.916  0.00  0.00    -0.027 A 
HETATM   19  C   UNK     0     -36.085  16.994   2.997  0.00  0.00    -0.031 A 
HETATM   20  C   UNK     0     -35.750  16.036   4.125  0.00  0.00     0.051 C 
HETATM   21  C   UNK     0     -35.329  18.634  -0.197  0.00  0.00     0.115 C 
HETATM   22  C   UNK     0     -36.295  18.939  -1.317  0.00  0.00     0.022 A 
HETATM   23  N   UNK     0     -37.408  18.276  -1.657  0.00  0.00    -0.361 N 
HETATM   24  C   UNK     0     -38.041  18.976  -2.620  0.00  0.00     0.021 A 
HETATM   25  C   UNK     0     -37.312  20.113  -2.914  0.00  0.00    -0.031 A 
HETATM   26  C   UNK     0     -37.593  21.184  -3.947  0.00  0.00     0.051 C 
HETATM   27  C   UNK     0     -36.190  20.111  -2.094  0.00  0.00    -0.027 A 
HETATM   28  C   UNK     0     -39.386  18.674  -3.257  0.00  0.00     0.115 C 
HETATM   29  H   UNK     0     -40.044  16.946  -0.963  0.00  0.00     0.165 HD
HETATM   30  H   UNK     0     -39.985  19.052   1.696  0.00  0.00     0.165 HD
HETATM   31  H   UNK     0     -37.755  19.327   1.352  0.00  0.00     0.165 HD
HETATM   32  H   UNK     0     -37.735  17.284  -1.250  0.00  0.00     0.165 HD
ENDROOT
BRANCH   6  33
HETATM   33  C   UNK     0     -43.662  20.024  -0.932  0.00  0.00     0.051 C 
BRANCH  33  34
HETATM   34  C   UNK     0     -44.700  19.814  -2.008  0.00  0.00     0.114 C 
BRANCH  34  35
HETATM   35  C   UNK     0     -45.330  18.484  -1.767  0.00  0.00     0.139 C 
HETATM   36  O   UNK     0     -45.599  18.111  -0.589  0.00  0.00    -0.650 OA
BRANCH  35  37
HETATM   37  O   UNK     0     -45.648  17.608  -2.798  0.00  0.00    -0.776 OA
HETATM   38  H   UNK     0     -45.916  16.653  -2.624  0.00  0.00     0.167 HD
ENDBRANCH  35  37
ENDBRANCH  34  35
ENDBRANCH  33  34
ENDBRANCH   6  33
BRANCH  27  39
HETATM   39  C   UNK     0     -35.126  21.148  -2.173  0.00  0.00     0.051 C 
BRANCH  39  40
HETATM   40  C   UNK     0     -33.799  20.746  -2.640  0.00  0.00     0.114 C 
BRANCH  40  41
HETATM   41  C   UNK     0     -33.611  19.697  -3.616  0.00  0.00     0.139 C 
HETATM   42  O   UNK     0     -33.597  18.492  -3.330  0.00  0.00    -0.650 OA
BRANCH  41  43
HETATM   43  O   UNK     0     -33.429  20.049  -4.983  0.00  0.00    -0.776 OA
HETATM   44  H   UNK     0     -33.065  20.983  -5.131  0.00  0.00     0.167 HD
ENDBRANCH  41  43
ENDBRANCH  40  41
ENDBRANCH  39  40
ENDBRANCH  27  39
BRANCH  11  45
HETATM   45  C   UNK     0     -40.160  15.304   4.598  0.00  0.00     0.051 C 
BRANCH  45  46
HETATM   46  C   UNK     0     -39.318  14.165   4.152  0.00  0.00     0.114 C 
BRANCH  46  47
HETATM   47  C   UNK     0     -39.779  12.958   4.897  0.00  0.00     0.139 C 
HETATM   48  O   UNK     0     -39.831  11.876   4.296  0.00  0.00    -0.650 OA
BRANCH  47  49
HETATM   49  O   UNK     0     -40.139  13.042   6.218  0.00  0.00    -0.776 OA
HETATM   50  H   UNK     0     -40.617  12.273   6.703  0.00  0.00     0.167 HD
ENDBRANCH  47  49
ENDBRANCH  46  47
ENDBRANCH  45  46
ENDBRANCH  11  45
BRANCH  18  51
HETATM   51  C   UNK     0     -33.944  16.542   1.666  0.00  0.00     0.051 C 
BRANCH  51  52
HETATM   52  C   UNK     0     -34.246  15.286   0.863  0.00  0.00     0.114 C 
BRANCH  52  53
HETATM   53  C   UNK     0     -33.430  14.140   1.306  0.00  0.00     0.139 C 
HETATM   54  O   UNK     0     -33.911  12.996   1.305  0.00  0.00    -0.650 OA
BRANCH  53  55
HETATM   55  O   UNK     0     -32.137  14.348   1.724  0.00  0.00    -0.776 OA
HETATM   56  H   UNK     0     -31.656  15.216   1.724  0.00  0.00     0.167 HD
ENDBRANCH  53  55
ENDBRANCH  52  53
ENDBRANCH  51  52
ENDBRANCH  18  51
TORSDOF 16
ENDMDL
MODEL 3
REMARK VINA RESULT:      -8.5      9.422     13.687
REMARK  16 active torsions:
REMARK  status: ('A' for Active; 'I' for Inactive)
REMARK    1  A    between atoms: C_6  and  C_7 
REMARK    2  A    between atoms: C_7  and  C_8 
REMARK    3  A    between atoms: C_8  and  C_9 
REMARK    4  A    between atoms: C_9  and  O_11 
REMARK    5  A    between atoms: C_16  and  C_17 
REMARK    6  A    between atoms: C_17  and  C_18 
REMARK    7  A    between atoms: C_18  and  C_19 
REMARK    8  A    between atoms: C_19  and  O_21 
REMARK    9  A    between atoms: C_28  and  C_29 
REMARK   10  A    between atoms: C_29  and  C_30 
REMARK   11  A    between atoms: C_30  and  C_31 
REMARK   12  A    between atoms: C_31  and  O_33 
REMARK   13  A    between atoms: C_42  and  C_43 
REMARK   14  A    between atoms: C_43  and  C_44 
REMARK   15  A    between atoms: C_44  and  C_45 
REMARK   16  A    between atoms: C_45  and  O_47 
ROOT
HETATM    1  C   UNK     0     -40.294  21.038  -3.603  0.00  0.00     0.051 C 
HETATM    2  C   UNK     0     -40.252  19.910  -2.592  0.00  0.00    -0.031 A 
HETATM    3  C   UNK     0     -39.365  18.850  -2.494  0.00  0.00     0.021 A 
HETATM    4  N   UNK     0     -39.728  18.067  -1.450  0.00  0.00    -0.361 N 
HETATM    5  C   UNK     0     -40.821  18.610  -0.876  0.00  0.00     0.022 A 
HETATM    6  C   UNK     0     -41.177  19.763  -1.567  0.00  0.00    -0.027 A 
HETATM    7  C   UNK     0     -41.557  18.189   0.358  0.00  0.00     0.115 C 
HETATM    8  C   UNK     0     -40.710  17.779   1.550  0.00  0.00     0.021 A 
HETATM    9  N   UNK     0     -39.533  18.283   1.952  0.00  0.00    -0.361 N 
HETATM   10  C   UNK     0     -39.101  17.552   3.002  0.00  0.00     0.022 A 
HETATM   11  C   UNK     0     -40.030  16.556   3.289  0.00  0.00    -0.027 A 
HETATM   12  C   UNK     0     -41.046  16.694   2.378  0.00  0.00    -0.031 A 
HETATM   13  C   UNK     0     -42.283  15.826   2.311  0.00  0.00     0.051 C 
HETATM   14  C   UNK     0     -37.777  17.729   3.739  0.00  0.00     0.115 C 
HETATM   15  C   UNK     0     -36.552  17.533   2.860  0.00  0.00     0.021 A 
HETATM   16  N   UNK     0     -36.224  18.212   1.745  0.00  0.00    -0.361 N 
HETATM   17  C   UNK     0     -35.110  17.691   1.226  0.00  0.00     0.022 A 
HETATM   18  C   UNK     0     -34.685  16.629   2.049  0.00  0.00    -0.027 A 
HETATM   19  C   UNK     0     -35.596  16.541   3.069  0.00  0.00    -0.031 A 
HETATM   20  C   UNK     0     -35.494  15.542   4.207  0.00  0.00     0.051 C 
HETATM   21  C   UNK     0     -34.375  18.042  -0.048  0.00  0.00     0.115 C 
HETATM   22  C   UNK     0     -35.202  18.494  -1.228  0.00  0.00     0.022 A 
HETATM   23  N   UNK     0     -36.379  18.014  -1.650  0.00  0.00    -0.361 N 
HETATM   24  C   UNK     0     -36.827  18.805  -2.646  0.00  0.00     0.021 A 
HETATM   25  C   UNK     0     -35.911  19.813  -2.878  0.00  0.00    -0.031 A 
HETATM   26  C   UNK     0     -35.950  20.915  -3.916  0.00  0.00     0.051 C 
HETATM   27  C   UNK     0     -34.862  19.635  -1.983  0.00  0.00    -0.027 A 
HETATM   28  C   UNK     0     -38.156  18.717  -3.376  0.00  0.00     0.115 C 
HETATM   29  H   UNK     0     -39.232  17.114  -1.151  0.00  0.00     0.165 HD
HETATM   30  H   UNK     0     -39.028  19.185   1.529  0.00  0.00     0.165 HD
HETATM   31  H   UNK     0     -36.764  19.107   1.340  0.00  0.00     0.165 HD
HETATM   32  H   UNK     0     -36.885  17.085  -1.277  0.00  0.00     0.165 HD
ENDROOT
BRANCH   6  33
HETATM   33  C   UNK     0     -42.317  20.721  -1.332  0.00  0.00     0.051 C 
BRANCH  33  34
HETATM   34  C   UNK     0     -43.446  20.458  -2.301  0.00  0.00     0.114 C 
BRANCH  34  35
HETATM   35  C   UNK     0     -44.279  19.362  -1.728  0.00  0.00     0.139 C 
HETATM   36  O   UNK     0     -44.788  19.484  -0.576  0.00  0.00    -0.650 OA
BRANCH  35  37
HETATM   37  O   UNK     0     -44.537  18.181  -2.413  0.00  0.00    -0.776 OA
HETATM   38  H   UNK     0     -45.374  18.050  -2.957  0.00  0.00     0.167 HD
ENDBRANCH  35  37
ENDBRANCH  34  35
ENDBRANCH  33  34
ENDBRANCH   6  33
BRANCH  27  39
HETATM   39  C   UNK     0     -33.646  20.493  -1.979  0.00  0.00     0.051 C 
BRANCH  39  40
HETATM   40  C   UNK     0     -33.517  21.510  -0.936  0.00  0.00     0.114 C 
BRANCH  40  41
HETATM   41  C   UNK     0     -33.055  21.193   0.396  0.00  0.00     0.139 C 
HETATM   42  O   UNK     0     -33.699  21.450   1.422  0.00  0.00    -0.650 OA
BRANCH  41  43
HETATM   43  O   UNK     0     -31.794  20.552   0.556  0.00  0.00    -0.776 OA
HETATM   44  H   UNK     0     -31.671  19.722  -0.012  0.00  0.00     0.167 HD
ENDBRANCH  41  43
ENDBRANCH  40  41
ENDBRANCH  39  40
ENDBRANCH  27  39
BRANCH  11  45
HETATM   45  C   UNK     0     -39.986  15.511   4.372  0.00  0.00     0.051 C 
BRANCH  45  46
HETATM   46  C   UNK     0     -39.270  14.268   3.985  0.00  0.00     0.114 C 
BRANCH  46  47
HETATM   47  C   UNK     0     -39.887  13.148   4.751  0.00  0.00     0.139 C 
HETATM   48  O   UNK     0     -40.400  13.394   5.852  0.00  0.00    -0.650 OA
BRANCH  47  49
HETATM   49  O   UNK     0     -39.886  11.870   4.250  0.00  0.00    -0.776 OA
HETATM   50  H   UNK     0     -39.316  11.603   3.440  0.00  0.00     0.167 HD
ENDBRANCH  47  49
ENDBRANCH  46  47
ENDBRANCH  45  46
ENDBRANCH  11  45
BRANCH  18  51
HETATM   51  C   UNK     0     -33.466  15.759   1.882  0.00  0.00     0.051 C 
BRANCH  51  52
HETATM   52  C   UNK     0     -33.910  14.556   1.064  0.00  0.00     0.114 C 
BRANCH  52  53
HETATM   53  C   UNK     0     -33.351  13.296   1.592  0.00  0.00     0.139 C 
HETATM   54  O   UNK     0     -33.949  12.224   1.404  0.00  0.00    -0.650 OA
BRANCH  53  55
HETATM   55  O   UNK     0     -32.170  13.317   2.293  0.00  0.00    -0.776 OA
HETATM   56  H   UNK     0     -31.784  12.562   2.809  0.00  0.00     0.167 HD
ENDBRANCH  53  55
ENDBRANCH  52  53
ENDBRANCH  51  52
ENDBRANCH  18  51
TORSDOF 16
ENDMDL
MODEL 4
REMARK VINA RESULT:      -8.0     10.252     16.031
REMARK  16 active torsions:
REMARK  status: ('A' for Active; 'I' for Inactive)
REMARK    1  A    between atoms: C_6  and  C_7 
REMARK    2  A    between atoms: C_7  and  C_8 
REMARK    3  A    between atoms: C_8  and  C_9 
REMARK    4  A    between atoms: C_9  and  O_11 
REMARK    5  A    between atoms: C_16  and  C_17 
REMARK    6  A    between atoms: C_17  and  C_18 
REMARK    7  A    between atoms: C_18  and  C_19 
REMARK    8  A    between atoms: C_19  and  O_21 
REMARK    9  A    between atoms: C_28  and  C_29 
REMARK   10  A    between atoms: C_29  and  C_30 
REMARK   11  A    between atoms: C_30  and  C_31 
REMARK   12  A    between atoms: C_31  and  O_33 
REMARK   13  A    between atoms: C_42  and  C_43 
REMARK   14  A    between atoms: C_43  and  C_44 
REMARK   15  A    between atoms: C_44  and  C_45 
REMARK   16  A    between atoms: C_45  and  O_47 
ROOT
HETATM    1  C   UNK     0     -39.919  15.898   4.079  0.00  0.00     0.051 C 
HETATM    2  C   UNK     0     -39.932  16.977   3.015  0.00  0.00    -0.031 A 
HETATM    3  C   UNK     0     -39.008  17.980   2.769  0.00  0.00     0.021 A 
HETATM    4  N   UNK     0     -39.445  18.737   1.734  0.00  0.00    -0.361 N 
HETATM    5  C   UNK     0     -40.622  18.233   1.310  0.00  0.00     0.022 A 
HETATM    6  C   UNK     0     -40.957  17.132   2.092  0.00  0.00    -0.027 A 
HETATM    7  C   UNK     0     -41.468  18.640   0.145  0.00  0.00     0.115 C 
HETATM    8  C   UNK     0     -40.739  18.951  -1.151  0.00  0.00     0.021 A 
HETATM    9  N   UNK     0     -39.642  18.365  -1.654  0.00  0.00    -0.361 N 
HETATM   10  C   UNK     0     -39.293  19.024  -2.780  0.00  0.00     0.022 A 
HETATM   11  C   UNK     0     -40.196  20.058  -3.012  0.00  0.00    -0.027 A 
HETATM   12  C   UNK     0     -41.110  20.017  -1.990  0.00  0.00    -0.031 A 
HETATM   13  C   UNK     0     -42.285  20.955  -1.831  0.00  0.00     0.051 C 
HETATM   14  C   UNK     0     -38.070  18.741  -3.648  0.00  0.00     0.115 C 
HETATM   15  C   UNK     0     -36.747  18.905  -2.918  0.00  0.00     0.021 A 
HETATM   16  N   UNK     0     -36.332  18.257  -1.813  0.00  0.00    -0.361 N 
HETATM   17  C   UNK     0     -35.141  18.736  -1.446  0.00  0.00     0.022 A 
HETATM   18  C   UNK     0     -34.757  19.736  -2.360  0.00  0.00    -0.027 A 
HETATM   19  C   UNK     0     -35.771  19.832  -3.278  0.00  0.00    -0.031 A 
HETATM   20  C   UNK     0     -35.745  20.773  -4.469  0.00  0.00     0.051 C 
HETATM   21  C   UNK     0     -34.288  18.399  -0.244  0.00  0.00     0.115 C 
HETATM   22  C   UNK     0     -35.000  18.045   1.040  0.00  0.00     0.022 A 
HETATM   23  N   UNK     0     -36.096  18.609   1.564  0.00  0.00    -0.361 N 
HETATM   24  C   UNK     0     -36.470  17.888   2.640  0.00  0.00     0.021 A 
HETATM   25  C   UNK     0     -35.587  16.841   2.820  0.00  0.00    -0.031 A 
HETATM   26  C   UNK     0     -35.566  15.789   3.909  0.00  0.00     0.051 C 
HETATM   27  C   UNK     0     -34.637  16.921   1.809  0.00  0.00    -0.027 A 
HETATM   28  C   UNK     0     -37.703  18.082   3.506  0.00  0.00     0.115 C 
HETATM   29  H   UNK     0     -38.937  19.647   1.336  0.00  0.00     0.165 HD
HETATM   30  H   UNK     0     -39.140  17.454  -1.245  0.00  0.00     0.165 HD
HETATM   31  H   UNK     0     -36.868  17.412  -1.309  0.00  0.00     0.165 HD
HETATM   32  H   UNK     0     -36.592  19.548   1.204  0.00  0.00     0.165 HD
ENDROOT
BRANCH   6  33
HETATM   33  C   UNK     0     -42.164  16.230   2.030  0.00  0.00     0.051 C 
BRANCH  33  34
HETATM   34  C   UNK     0     -43.183  16.627   3.072  0.00  0.00     0.114 C 
BRANCH  34  35
HETATM   35  C   UNK     0     -43.879  17.848   2.574  0.00  0.00     0.139 C 
HETATM   36  O   UNK     0     -43.865  18.913   3.256  0.00  0.00    -0.650 OA
BRANCH  35  37
HETATM   37  O   UNK     0     -44.561  17.880   1.363  0.00  0.00    -0.776 OA
HETATM   38  H   UNK     0     -44.304  18.510   0.621  0.00  0.00     0.167 HD
ENDBRANCH  35  37
ENDBRANCH  34  35
ENDBRANCH  33  34
ENDBRANCH   6  33
BRANCH  27  39
HETATM   39  C   UNK     0     -33.475  15.996   1.714  0.00  0.00     0.051 C 
BRANCH  39  40
HETATM   40  C   UNK     0     -33.658  14.718   1.027  0.00  0.00     0.114 C 
BRANCH  40  41
HETATM   41  C   UNK     0     -33.346  13.454   1.655  0.00  0.00     0.139 C 
HETATM   42  O   UNK     0     -33.882  12.383   1.339  0.00  0.00    -0.650 OA
BRANCH  41  43
HETATM   43  O   UNK     0     -32.374  13.420   2.694  0.00  0.00    -0.776 OA
HETATM   44  H   UNK     0     -32.746  13.582   3.622  0.00  0.00     0.167 HD
ENDBRANCH  41  43
ENDBRANCH  40  41
ENDBRANCH  39  40
ENDBRANCH  27  39
BRANCH  11  45
HETATM   45  C   UNK     0     -40.219  21.051  -4.143  0.00  0.00     0.051 C 
BRANCH  45  46
HETATM   46  C   UNK     0     -41.114  20.671  -5.265  0.00  0.00     0.114 C 
BRANCH  46  47
HETATM   47  C   UNK     0     -40.246  20.367  -6.439  0.00  0.00     0.139 C 
HETATM   48  O   UNK     0     -39.036  20.621  -6.362  0.00  0.00    -0.650 OA
BRANCH  47  49
HETATM   49  O   UNK     0     -40.774  19.819  -7.580  0.00  0.00    -0.776 OA
HETATM   50  H   UNK     0     -41.418  19.019  -7.554  0.00  0.00     0.167 HD
ENDBRANCH  47  49
ENDBRANCH  46  47
ENDBRANCH  45  46
ENDBRANCH  11  45
BRANCH  18  51
HETATM   51  C   UNK     0     -33.484  20.542  -2.371  0.00  0.00     0.051 C 
BRANCH  51  52
HETATM   52  C   UNK     0     -33.791  21.834  -1.628  0.00  0.00     0.114 C 
BRANCH  52  53
HETATM   53  C   UNK     0     -33.380  21.765  -0.212  0.00  0.00     0.139 C 
HETATM   54  O   UNK     0     -32.239  21.375   0.085  0.00  0.00    -0.650 OA
BRANCH  53  55
HETATM   55  O   UNK     0     -34.266  22.130   0.772  0.00  0.00    -0.776 OA
HETATM   56  H   UNK     0     -35.101  21.650   1.013  0.00  0.00     0.167 HD
ENDBRANCH  53  55
ENDBRANCH  52  53
ENDBRANCH  51  52
ENDBRANCH  18  51
TORSDOF 16
ENDMDL
MODEL 5
REMARK VINA RESULT:      -8.0     11.305     15.554
REMARK  16 active torsions:
REMARK  status: ('A' for Active; 'I' for Inactive)
REMARK    1  A    between atoms: C_6  and  C_7 
REMARK    2  A    between atoms: C_7  and  C_8 
REMARK    3  A    between atoms: C_8  and  C_9 
REMARK    4  A    between atoms: C_9  and  O_11 
REMARK    5  A    between atoms: C_16  and  C_17 
REMARK    6  A    between atoms: C_17  and  C_18 
REMARK    7  A    between atoms: C_18  and  C_19 
REMARK    8  A    between atoms: C_19  and  O_21 
REMARK    9  A    between atoms: C_28  and  C_29 
REMARK   10  A    between atoms: C_29  and  C_30 
REMARK   11  A    between atoms: C_30  and  C_31 
REMARK   12  A    between atoms: C_31  and  O_33 
REMARK   13  A    between atoms: C_42  and  C_43 
REMARK   14  A    between atoms: C_43  and  C_44 
REMARK   15  A    between atoms: C_44  and  C_45 
REMARK   16  A    between atoms: C_45  and  O_47 
ROOT
HETATM    1  C   UNK     0     -44.524  19.670  -0.343  0.00  0.00     0.051 C 
HETATM    2  C   UNK     0     -43.295  18.912   0.117  0.00  0.00    -0.031 A 
HETATM    3  C   UNK     0     -42.350  18.230  -0.633  0.00  0.00     0.021 A 
HETATM    4  N   UNK     0     -41.440  17.675   0.202  0.00  0.00    -0.361 N 
HETATM    5  C   UNK     0     -41.780  17.995   1.468  0.00  0.00     0.022 A 
HETATM    6  C   UNK     0     -42.937  18.766   1.451  0.00  0.00    -0.027 A 
HETATM    7  C   UNK     0     -41.058  17.711   2.748  0.00  0.00     0.115 C 
HETATM    8  C   UNK     0     -39.552  17.899   2.738  0.00  0.00     0.021 A 
HETATM    9  N   UNK     0     -38.829  18.820   2.081  0.00  0.00    -0.361 N 
HETATM   10  C   UNK     0     -37.522  18.553   2.289  0.00  0.00     0.022 A 
HETATM   11  C   UNK     0     -37.400  17.435   3.110  0.00  0.00    -0.027 A 
HETATM   12  C   UNK     0     -38.675  17.019   3.397  0.00  0.00    -0.031 A 
HETATM   13  C   UNK     0     -39.033  15.835   4.266  0.00  0.00     0.051 C 
HETATM   14  C   UNK     0     -36.340  19.304   1.682  0.00  0.00     0.115 C 
HETATM   15  C   UNK     0     -36.299  19.263   0.163  0.00  0.00     0.021 A 
HETATM   16  N   UNK     0     -37.242  19.693  -0.697  0.00  0.00    -0.361 N 
HETATM   17  C   UNK     0     -36.858  19.414  -1.944  0.00  0.00     0.022 A 
HETATM   18  C   UNK     0     -35.600  18.781  -1.896  0.00  0.00    -0.027 A 
HETATM   19  C   UNK     0     -35.261  18.693  -0.571  0.00  0.00    -0.031 A 
HETATM   20  C   UNK     0     -33.954  18.105  -0.072  0.00  0.00     0.051 C 
HETATM   21  C   UNK     0     -37.583  19.624  -3.254  0.00  0.00     0.115 C 
HETATM   22  C   UNK     0     -39.087  19.483  -3.249  0.00  0.00     0.022 A 
HETATM   23  N   UNK     0     -39.834  18.579  -2.601  0.00  0.00    -0.361 N 
HETATM   24  C   UNK     0     -41.131  18.910  -2.759  0.00  0.00     0.021 A 
HETATM   25  C   UNK     0     -41.223  20.049  -3.535  0.00  0.00    -0.031 A 
HETATM   26  C   UNK     0     -42.460  20.778  -4.017  0.00  0.00     0.051 C 
HETATM   27  C   UNK     0     -39.927  20.434  -3.861  0.00  0.00    -0.027 A 
HETATM   28  C   UNK     0     -42.344  18.240  -2.136  0.00  0.00     0.115 C 
HETATM   29  H   UNK     0     -40.587  17.028  -0.106  0.00  0.00     0.165 HD
HETATM   30  H   UNK     0     -39.238  19.689   1.510  0.00  0.00     0.165 HD
HETATM   31  H   UNK     0     -38.177  20.247  -0.421  0.00  0.00     0.165 HD
HETATM   32  H   UNK     0     -39.453  17.672  -2.062  0.00  0.00     0.165 HD
ENDROOT
BRANCH   6  33
HETATM   33  C   UNK     0     -43.720  19.365   2.592  0.00  0.00     0.051 C 
BRANCH  33  34
HETATM   34  C   UNK     0     -44.648  18.340   3.201  0.00  0.00     0.114 C 
BRANCH  34  35
HETATM   35  C   UNK     0     -44.262  18.185   4.633  0.00  0.00     0.139 C 
HETATM   36  O   UNK     0     -43.399  18.953   5.148  0.00  0.00    -0.650 OA
BRANCH  35  37
HETATM   37  O   UNK     0     -44.819  17.214   5.458  0.00  0.00    -0.776 OA
HETATM   38  H   UNK     0     -44.401  16.305   5.570  0.00  0.00     0.167 HD
ENDBRANCH  35  37
ENDBRANCH  34  35
ENDBRANCH  33  34
ENDBRANCH   6  33
BRANCH  27  39
HETATM   39  C   UNK     0     -39.625  21.587  -4.753  0.00  0.00     0.051 C 
BRANCH  39  40
HETATM   40  C   UNK     0     -39.297  21.315  -6.152  0.00  0.00     0.114 C 
BRANCH  40  41
HETATM   41  C   UNK     0     -40.171  20.553  -7.015  0.00  0.00     0.139 C 
HETATM   42  O   UNK     0     -41.307  20.926  -7.338  0.00  0.00    -0.650 OA
BRANCH  41  43
HETATM   43  O   UNK     0     -39.720  19.304  -7.528  0.00  0.00    -0.776 OA
HETATM   44  H   UNK     0     -39.236  18.724  -6.853  0.00  0.00     0.167 HD
ENDBRANCH  41  43
ENDBRANCH  40  41
ENDBRANCH  39  40
ENDBRANCH  27  39
BRANCH  11  45
HETATM   45  C   UNK     0     -36.148  16.772   3.618  0.00  0.00     0.051 C 
BRANCH  45  46
HETATM   46  C   UNK     0     -35.358  16.082   2.566  0.00  0.00     0.114 C 
BRANCH  46  47
HETATM   47  C   UNK     0     -34.126  15.551   3.217  0.00  0.00     0.139 C 
HETATM   48  O   UNK     0     -34.093  14.354   3.535  0.00  0.00    -0.650 OA
BRANCH  47  49
HETATM   49  O   UNK     0     -33.051  16.369   3.460  0.00  0.00    -0.776 OA
HETATM   50  H   UNK     0     -33.005  16.978   4.286  0.00  0.00     0.167 HD
ENDBRANCH  47  49
ENDBRANCH  46  47
ENDBRANCH  45  46
ENDBRANCH  11  45
BRANCH  18  51
HETATM   51  C   UNK     0     -34.758  18.305  -3.051  0.00  0.00     0.051 C 
BRANCH  51  52
HETATM   52  C   UNK     0     -33.651  19.334  -3.224  0.00  0.00     0.114 C 
BRANCH  52  53
HETATM   53  C   UNK     0     -34.095  20.490  -4.026  0.00  0.00     0.139 C 
HETATM   54  O   UNK     0     -33.841  21.645  -3.647  0.00  0.00    -0.650 OA
BRANCH  53  55
HETATM   55  O   UNK     0     -34.794  20.281  -5.190  0.00  0.00    -0.776 OA
HETATM   56  H   UNK     0     -35.603  19.714  -5.292  0.00  0.00     0.167 HD
ENDBRANCH  53  55
ENDBRANCH  52  53
ENDBRANCH  51  52
ENDBRANCH  18  51
TORSDOF 16
ENDMDL
MODEL 6
REMARK VINA RESULT:      -7.9     16.501     20.394
REMARK  16 active torsions:
REMARK  status: ('A' for Active; 'I' for Inactive)
REMARK    1  A    between atoms: C_6  and  C_7 
REMARK    2  A    between atoms: C_7  and  C_8 
REMARK    3  A    between atoms: C_8  and  C_9 
REMARK    4  A    between atoms: C_9  and  O_11 
REMARK    5  A    between atoms: C_16  and  C_17 
REMARK    6  A    between atoms: C_17  and  C_18 
REMARK    7  A    between atoms: C_18  and  C_19 
REMARK    8  A    between atoms: C_19  and  O_21 
REMARK    9  A    between atoms: C_28  and  C_29 
REMARK   10  A    between atoms: C_29  and  C_30 
REMARK   11  A    between atoms: C_30  and  C_31 
REMARK   12  A    between atoms: C_31  and  O_33 
REMARK   13  A    between atoms: C_42  and  C_43 
REMARK   14  A    between atoms: C_43  and  C_44 
REMARK   15  A    between atoms: C_44  and  C_45 
REMARK   16  A    between atoms: C_45  and  O_47 
ROOT
HETATM    1  C   UNK     0     -48.699  19.757   9.450  0.00  0.00     0.051 C 
HETATM    2  C   UNK     0     -49.794  19.312   8.502  0.00  0.00    -0.031 A 
HETATM    3  C   UNK     0     -50.092  19.766   7.227  0.00  0.00     0.021 A 
HETATM    4  N   UNK     0     -51.178  19.102   6.764  0.00  0.00    -0.361 N 
HETATM    5  C   UNK     0     -51.572  18.227   7.713  0.00  0.00     0.022 A 
HETATM    6  C   UNK     0     -50.730  18.334   8.815  0.00  0.00    -0.027 A 
HETATM    7  C   UNK     0     -52.656  17.196   7.666  0.00  0.00     0.115 C 
HETATM    8  C   UNK     0     -52.775  16.391   6.384  0.00  0.00     0.021 A 
HETATM    9  N   UNK     0     -51.796  15.963   5.571  0.00  0.00    -0.361 N 
HETATM   10  C   UNK     0     -52.368  15.367   4.504  0.00  0.00     0.022 A 
HETATM   11  C   UNK     0     -53.753  15.404   4.637  0.00  0.00    -0.027 A 
HETATM   12  C   UNK     0     -54.016  16.047   5.819  0.00  0.00    -0.031 A 
HETATM   13  C   UNK     0     -55.394  16.315   6.381  0.00  0.00     0.051 C 
HETATM   14  C   UNK     0     -51.637  14.789   3.295  0.00  0.00     0.115 C 
HETATM   15  C   UNK     0     -50.821  15.812   2.522  0.00  0.00     0.021 A 
HETATM   16  N   UNK     0     -49.817  16.580   2.984  0.00  0.00    -0.361 N 
HETATM   17  C   UNK     0     -49.407  17.398   2.011  0.00  0.00     0.022 A 
HETATM   18  C   UNK     0     -50.175  17.143   0.857  0.00  0.00    -0.027 A 
HETATM   19  C   UNK     0     -51.056  16.147   1.190  0.00  0.00    -0.031 A 
HETATM   20  C   UNK     0     -52.051  15.541   0.217  0.00  0.00     0.051 C 
HETATM   21  C   UNK     0     -48.366  18.494   2.037  0.00  0.00     0.115 C 
HETATM   22  C   UNK     0     -48.207  19.274   3.321  0.00  0.00     0.022 A 
HETATM   23  N   UNK     0     -49.163  19.710   4.152  0.00  0.00    -0.361 N 
HETATM   24  C   UNK     0     -48.569  20.230   5.245  0.00  0.00     0.021 A 
HETATM   25  C   UNK     0     -47.197  20.137   5.110  0.00  0.00    -0.031 A 
HETATM   26  C   UNK     0     -46.112  20.617   6.051  0.00  0.00     0.051 C 
HETATM   27  C   UNK     0     -46.941  19.528   3.886  0.00  0.00    -0.027 A 
HETATM   28  C   UNK     0     -49.237  20.765   6.499  0.00  0.00     0.115 C 
HETATM   29  H   UNK     0     -51.682  19.283   5.787  0.00  0.00     0.165 HD
HETATM   30  H   UNK     0     -50.699  16.035   5.773  0.00  0.00     0.165 HD
HETATM   31  H   UNK     0     -49.355  16.512   4.003  0.00  0.00     0.165 HD
HETATM   32  H   UNK     0     -50.266  19.693   3.955  0.00  0.00     0.165 HD
ENDROOT
BRANCH   6  33
HETATM   33  C   UNK     0     -50.748  17.590  10.126  0.00  0.00     0.051 C 
BRANCH  33  34
HETATM   34  C   UNK     0     -50.493  16.117   9.908  0.00  0.00     0.114 C 
BRANCH  34  35
HETATM   35  C   UNK     0     -51.474  15.366  10.744  0.00  0.00     0.139 C 
HETATM   36  O   UNK     0     -52.475  15.961  11.240  0.00  0.00    -0.650 OA
BRANCH  35  37
HETATM   37  O   UNK     0     -51.345  14.009  11.013  0.00  0.00    -0.776 OA
HETATM   38  H   UNK     0     -51.515  13.307  10.312  0.00  0.00     0.167 HD
ENDBRANCH  35  37
ENDBRANCH  34  35
ENDBRANCH  33  34
ENDBRANCH   6  33
BRANCH  27  39
HETATM   39  C   UNK     0     -45.566  19.320   3.357  0.00  0.00     0.051 C 
BRANCH  39  40
HETATM   40  C   UNK     0     -44.947  18.006   3.532  0.00  0.00     0.114 C 
BRANCH  40  41
HETATM   41  C   UNK     0     -43.968  17.747   4.564  0.00  0.00     0.139 C 
HETATM   42  O   UNK     0     -42.748  17.704   4.354  0.00  0.00    -0.650 OA
BRANCH  41  43
HETATM   43  O   UNK     0     -44.413  17.525   5.898  0.00  0.00    -0.776 OA
HETATM   44  H   UNK     0     -44.629  16.559   6.113  0.00  0.00     0.167 HD
ENDBRANCH  41  43
ENDBRANCH  40  41
ENDBRANCH  39  40
ENDBRANCH  27  39
BRANCH  11  45
HETATM   45  C   UNK     0     -54.803  14.861   3.705  0.00  0.00     0.051 C 
BRANCH  45  46
HETATM   46  C   UNK     0     -55.483  13.638   4.204  0.00  0.00     0.114 C 
BRANCH  46  47
HETATM   47  C   UNK     0     -54.513  12.512   4.080  0.00  0.00     0.139 C 
HETATM   48  O   UNK     0     -54.162  11.916   5.108  0.00  0.00    -0.650 OA
BRANCH  47  49
HETATM   49  O   UNK     0     -54.017  12.144   2.855  0.00  0.00    -0.776 OA
HETATM   50  H   UNK     0     -54.551  11.555   2.206  0.00  0.00     0.167 HD
ENDBRANCH  47  49
ENDBRANCH  46  47
ENDBRANCH  45  46
ENDBRANCH  11  45
BRANCH  18  51
HETATM   51  C   UNK     0     -50.061  17.799  -0.494  0.00  0.00     0.051 C 
BRANCH  51  52
HETATM   52  C   UNK     0     -48.960  17.055  -1.237  0.00  0.00     0.114 C 
BRANCH  52  53
HETATM   53  C   UNK     0     -49.437  16.506  -2.521  0.00  0.00     0.139 C 
HETATM   54  O   UNK     0     -50.616  16.676  -2.870  0.00  0.00    -0.650 OA
BRANCH  53  55
HETATM   55  O   UNK     0     -48.570  15.805  -3.324  0.00  0.00    -0.776 OA
HETATM   56  H   UNK     0     -48.815  15.288  -4.135  0.00  0.00     0.167 HD
ENDBRANCH  53  55
ENDBRANCH  52  53
ENDBRANCH  51  52
ENDBRANCH  18  51
TORSDOF 16
ENDMDL
MODEL 7
REMARK VINA RESULT:      -7.7     11.229     15.896
REMARK  16 active torsions:
REMARK  status: ('A' for Active; 'I' for Inactive)
REMARK    1  A    between atoms: C_6  and  C_7 
REMARK    2  A    between atoms: C_7  and  C_8 
REMARK    3  A    between atoms: C_8  and  C_9 
REMARK    4  A    between atoms: C_9  and  O_11 
REMARK    5  A    between atoms: C_16  and  C_17 
REMARK    6  A    between atoms: C_17  and  C_18 
REMARK    7  A    between atoms: C_18  and  C_19 
REMARK    8  A    between atoms: C_19  and  O_21 
REMARK    9  A    between atoms: C_28  and  C_29 
REMARK   10  A    between atoms: C_29  and  C_30 
REMARK   11  A    between atoms: C_30  and  C_31 
REMARK   12  A    between atoms: C_31  and  O_33 
REMARK   13  A    between atoms: C_42  and  C_43 
REMARK   14  A    between atoms: C_43  and  C_44 
REMARK   15  A    between atoms: C_44  and  C_45 
REMARK   16  A    between atoms: C_45  and  O_47 
ROOT
HETATM    1  C   UNK     0     -36.822  22.531  -5.702  0.00  0.00     0.051 C 
HETATM    2  C   UNK     0     -37.432  21.424  -4.866  0.00  0.00    -0.031 A 
HETATM    3  C   UNK     0     -36.824  20.321  -4.288  0.00  0.00     0.021 A 
HETATM    4  N   UNK     0     -37.764  19.580  -3.656  0.00  0.00    -0.361 N 
HETATM    5  C   UNK     0     -38.957  20.191  -3.811  0.00  0.00     0.022 A 
HETATM    6  C   UNK     0     -38.786  21.346  -4.566  0.00  0.00    -0.027 A 
HETATM    7  C   UNK     0     -40.291  19.835  -3.233  0.00  0.00     0.115 C 
HETATM    8  C   UNK     0     -40.311  19.406  -1.776  0.00  0.00     0.021 A 
HETATM    9  N   UNK     0     -39.556  19.856  -0.762  0.00  0.00    -0.361 N 
HETATM   10  C   UNK     0     -39.849  19.126   0.335  0.00  0.00     0.022 A 
HETATM   11  C   UNK     0     -40.827  18.186   0.021  0.00  0.00    -0.027 A 
HETATM   12  C   UNK     0     -41.122  18.357  -1.307  0.00  0.00    -0.031 A 
HETATM   13  C   UNK     0     -42.138  17.554  -2.087  0.00  0.00     0.051 C 
HETATM   14  C   UNK     0     -39.185  19.249   1.704  0.00  0.00     0.115 C 
HETATM   15  C   UNK     0     -37.691  18.972   1.690  0.00  0.00     0.021 A 
HETATM   16  N   UNK     0     -36.744  19.609   0.977  0.00  0.00    -0.361 N 
HETATM   17  C   UNK     0     -35.564  19.021   1.190  0.00  0.00     0.022 A 
HETATM   18  C   UNK     0     -35.750  17.955   2.092  0.00  0.00    -0.027 A 
HETATM   19  C   UNK     0     -37.086  17.936   2.399  0.00  0.00    -0.031 A 
HETATM   20  C   UNK     0     -37.714  16.957   3.375  0.00  0.00     0.051 C 
HETATM   21  C   UNK     0     -34.212  19.306   0.578  0.00  0.00     0.115 C 
HETATM   22  C   UNK     0     -34.180  19.776  -0.857  0.00  0.00     0.022 A 
HETATM   23  N   UNK     0     -34.923  19.349  -1.887  0.00  0.00    -0.361 N 
HETATM   24  C   UNK     0     -34.670  20.141  -2.949  0.00  0.00     0.021 A 
HETATM   25  C   UNK     0     -33.735  21.095  -2.597  0.00  0.00    -0.031 A 
HETATM   26  C   UNK     0     -33.107  22.176  -3.453  0.00  0.00     0.051 C 
HETATM   27  C   UNK     0     -33.406  20.882  -1.263  0.00  0.00    -0.027 A 
HETATM   28  C   UNK     0     -35.337  20.107  -4.313  0.00  0.00     0.115 C 
HETATM   29  H   UNK     0     -37.585  18.609  -3.138  0.00  0.00     0.165 HD
HETATM   30  H   UNK     0     -38.851  20.722  -0.804  0.00  0.00     0.165 HD
HETATM   31  H   UNK     0     -36.901  20.523   0.347  0.00  0.00     0.165 HD
HETATM   32  H   UNK     0     -35.600  18.456  -1.886  0.00  0.00     0.165 HD
ENDROOT
BRANCH   6  33
HETATM   33  C   UNK     0     -39.799  22.367  -5.019  0.00  0.00     0.051 C 
BRANCH  33  34
HETATM   34  C   UNK     0     -40.113  22.194  -6.486  0.00  0.00     0.114 C 
BRANCH  34  35
HETATM   35  C   UNK     0     -41.124  21.103  -6.600  0.00  0.00     0.139 C 
HETATM   36  O   UNK     0     -42.305  21.284  -6.183  0.00  0.00    -0.650 OA
BRANCH  35  37
HETATM   37  O   UNK     0     -40.830  19.865  -7.157  0.00  0.00    -0.776 OA
HETATM   38  H   UNK     0     -40.107  19.747  -7.848  0.00  0.00     0.167 HD
ENDBRANCH  35  37
ENDBRANCH  34  35
ENDBRANCH  33  34
ENDBRANCH   6  33
BRANCH  27  39
HETATM   39  C   UNK     0     -32.370  21.675  -0.547  0.00  0.00     0.051 C 
BRANCH  39  40
HETATM   40  C   UNK     0     -31.484  20.978   0.385  0.00  0.00     0.114 C 
BRANCH  40  41
HETATM   41  C   UNK     0     -30.412  21.654   1.081  0.00  0.00     0.139 C 
HETATM   42  O   UNK     0     -30.598  22.553   1.912  0.00  0.00    -0.650 OA
BRANCH  41  43
HETATM   43  O   UNK     0     -29.066  21.280   0.808  0.00  0.00    -0.776 OA
HETATM   44  H   UNK     0     -28.379  21.987   1.040  0.00  0.00     0.167 HD
ENDBRANCH  41  43
ENDBRANCH  40  41
ENDBRANCH  39  40
ENDBRANCH  27  39
BRANCH  11  45
HETATM   45  C   UNK     0     -41.472  17.163   0.917  0.00  0.00     0.051 C 
BRANCH  45  46
HETATM   46  C   UNK     0     -42.470  17.727   1.860  0.00  0.00     0.114 C 
BRANCH  46  47
HETATM   47  C   UNK     0     -42.961  16.603   2.709  0.00  0.00     0.139 C 
HETATM   48  O   UNK     0     -42.688  15.443   2.370  0.00  0.00    -0.650 OA
BRANCH  47  49
HETATM   49  O   UNK     0     -43.699  16.846   3.839  0.00  0.00    -0.776 OA
HETATM   50  H   UNK     0     -43.473  16.412   4.742  0.00  0.00     0.167 HD
ENDBRANCH  47  49
ENDBRANCH  46  47
ENDBRANCH  45  46
ENDBRANCH  11  45
BRANCH  18  51
HETATM   51  C   UNK     0     -34.708  17.020   2.649  0.00  0.00     0.051 C 
BRANCH  51  52
HETATM   52  C   UNK     0     -34.592  15.872   1.656  0.00  0.00     0.114 C 
BRANCH  52  53
HETATM   53  C   UNK     0     -33.519  14.931   2.028  0.00  0.00     0.139 C 
HETATM   54  O   UNK     0     -33.600  13.736   1.703  0.00  0.00    -0.650 OA
BRANCH  53  55
HETATM   55  O   UNK     0     -32.434  15.383   2.738  0.00  0.00    -0.776 OA
HETATM   56  H   UNK     0     -31.558  14.923   2.824  0.00  0.00     0.167 HD
ENDBRANCH  53  55
ENDBRANCH  52  53
ENDBRANCH  51  52
ENDBRANCH  18  51
TORSDOF 16
ENDMDL
MODEL 8
REMARK VINA RESULT:      -7.6     11.645     17.031
REMARK  16 active torsions:
REMARK  status: ('A' for Active; 'I' for Inactive)
REMARK    1  A    between atoms: C_6  and  C_7 
REMARK    2  A    between atoms: C_7  and  C_8 
REMARK    3  A    between atoms: C_8  and  C_9 
REMARK    4  A    between atoms: C_9  and  O_11 
REMARK    5  A    between atoms: C_16  and  C_17 
REMARK    6  A    between atoms: C_17  and  C_18 
REMARK    7  A    between atoms: C_18  and  C_19 
REMARK    8  A    between atoms: C_19  and  O_21 
REMARK    9  A    between atoms: C_28  and  C_29 
REMARK   10  A    between atoms: C_29  and  C_30 
REMARK   11  A    between atoms: C_30  and  C_31 
REMARK   12  A    between atoms: C_31  and  O_33 
REMARK   13  A    between atoms: C_42  and  C_43 
REMARK   14  A    between atoms: C_43  and  C_44 
REMARK   15  A    between atoms: C_44  and  C_45 
REMARK   16  A    between atoms: C_45  and  O_47 
ROOT
HETATM    1  C   UNK     0     -34.187  18.260  -1.060  0.00  0.00     0.051 C 
HETATM    2  C   UNK     0     -35.434  18.599  -0.270  0.00  0.00    -0.031 A 
HETATM    3  C   UNK     0     -36.312  19.660  -0.424  0.00  0.00     0.021 A 
HETATM    4  N   UNK     0     -37.272  19.582   0.528  0.00  0.00    -0.361 N 
HETATM    5  C   UNK     0     -37.029  18.488   1.280  0.00  0.00     0.022 A 
HETATM    6  C   UNK     0     -35.886  17.852   0.810  0.00  0.00    -0.027 A 
HETATM    7  C   UNK     0     -37.838  17.902   2.396  0.00  0.00     0.115 C 
HETATM    8  C   UNK     0     -39.343  17.857   2.196  0.00  0.00     0.021 A 
HETATM    9  N   UNK     0     -40.030  17.641   1.064  0.00  0.00    -0.361 N 
HETATM   10  C   UNK     0     -41.344  17.782   1.338  0.00  0.00     0.022 A 
HETATM   11  C   UNK     0     -41.508  18.088   2.685  0.00  0.00    -0.027 A 
HETATM   12  C   UNK     0     -40.251  18.136   3.232  0.00  0.00    -0.031 A 
HETATM   13  C   UNK     0     -39.940  18.432   4.682  0.00  0.00     0.051 C 
HETATM   14  C   UNK     0     -42.489  17.687   0.334  0.00  0.00     0.115 C 
HETATM   15  C   UNK     0     -42.419  18.720  -0.779  0.00  0.00     0.021 A 
HETATM   16  N   UNK     0     -41.423  18.907  -1.665  0.00  0.00    -0.361 N 
HETATM   17  C   UNK     0     -41.712  19.960  -2.434  0.00  0.00     0.022 A 
HETATM   18  C   UNK     0     -42.960  20.478  -2.036  0.00  0.00    -0.027 A 
HETATM   19  C   UNK     0     -43.393  19.692  -1.000  0.00  0.00    -0.031 A 
HETATM   20  C   UNK     0     -44.724  19.883  -0.295  0.00  0.00     0.051 C 
HETATM   21  C   UNK     0     -40.896  20.622  -3.522  0.00  0.00     0.115 C 
HETATM   22  C   UNK     0     -39.395  20.635  -3.357  0.00  0.00     0.022 A 
HETATM   23  N   UNK     0     -38.683  20.843  -2.242  0.00  0.00    -0.361 N 
HETATM   24  C   UNK     0     -37.383  20.621  -2.521  0.00  0.00     0.021 A 
HETATM   25  C   UNK     0     -37.253  20.271  -3.851  0.00  0.00    -0.031 A 
HETATM   26  C   UNK     0     -35.995  19.968  -4.638  0.00  0.00     0.051 C 
HETATM   27  C   UNK     0     -38.527  20.274  -4.408  0.00  0.00    -0.027 A 
HETATM   28  C   UNK     0     -36.209  20.642  -1.557  0.00  0.00     0.115 C 
HETATM   29  H   UNK     0     -38.091  20.321   0.687  0.00  0.00     0.165 HD
HETATM   30  H   UNK     0     -39.593  17.340   0.080  0.00  0.00     0.165 HD
HETATM   31  H   UNK     0     -40.520  18.254  -1.783  0.00  0.00     0.165 HD
HETATM   32  H   UNK     0     -39.088  21.191  -1.256  0.00  0.00     0.165 HD
ENDROOT
BRANCH   6  33
HETATM   33  C   UNK     0     -35.197  16.605   1.305  0.00  0.00     0.051 C 
BRANCH  33  34
HETATM   34  C   UNK     0     -34.279  16.924   2.461  0.00  0.00     0.114 C 
BRANCH  34  35
HETATM   35  C   UNK     0     -34.645  16.016   3.586  0.00  0.00     0.139 C 
HETATM   36  O   UNK     0     -35.005  16.495   4.700  0.00  0.00    -0.650 OA
BRANCH  35  37
HETATM   37  O   UNK     0     -34.613  14.631   3.471  0.00  0.00    -0.776 OA
HETATM   38  H   UNK     0     -34.552  14.029   4.277  0.00  0.00     0.167 HD
ENDBRANCH  35  37
ENDBRANCH  34  35
ENDBRANCH  33  34
ENDBRANCH   6  33
BRANCH  27  39
HETATM   39  C   UNK     0     -38.781  20.013  -5.851  0.00  0.00     0.051 C 
BRANCH  39  40
HETATM   40  C   UNK     0     -39.638  20.945  -6.584  0.00  0.00     0.114 C 
BRANCH  40  41
HETATM   41  C   UNK     0     -40.592  20.498  -7.574  0.00  0.00     0.139 C 
HETATM   42  O   UNK     0     -40.287  19.798  -8.549  0.00  0.00    -0.650 OA
BRANCH  41  43
HETATM   43  O   UNK     0     -41.958  20.876  -7.437  0.00  0.00    -0.776 OA
HETATM   44  H   UNK     0     -42.109  21.872  -7.337  0.00  0.00     0.167 HD
ENDBRANCH  41  43
ENDBRANCH  40  41
ENDBRANCH  39  40
ENDBRANCH  27  39
BRANCH  11  45
HETATM   45  C   UNK     0     -42.784  18.326   3.448  0.00  0.00     0.051 C 
BRANCH  45  46
HETATM   46  C   UNK     0     -43.755  17.205   3.369  0.00  0.00     0.114 C 
BRANCH  46  47
HETATM   47  C   UNK     0     -44.853  17.503   4.334  0.00  0.00     0.139 C 
HETATM   48  O   UNK     0     -45.983  17.744   3.889  0.00  0.00    -0.650 OA
BRANCH  47  49
HETATM   49  O   UNK     0     -44.617  17.512   5.685  0.00  0.00    -0.776 OA
HETATM   50  H   UNK     0     -44.259  16.687   6.182  0.00  0.00     0.167 HD
ENDBRANCH  47  49
ENDBRANCH  46  47
ENDBRANCH  45  46
ENDBRANCH  11  45
BRANCH  18  51
HETATM   51  C   UNK     0     -43.709  21.646  -2.625  0.00  0.00     0.051 C 
BRANCH  51  52
HETATM   52  C   UNK     0     -44.587  21.075  -3.728  0.00  0.00     0.114 C 
BRANCH  52  53
HETATM   53  C   UNK     0     -44.165  21.541  -5.063  0.00  0.00     0.139 C 
HETATM   54  O   UNK     0     -43.335  22.459  -5.167  0.00  0.00    -0.650 OA
BRANCH  53  55
HETATM   55  O   UNK     0     -44.696  20.957  -6.187  0.00  0.00    -0.776 OA
HETATM   56  H   UNK     0     -45.545  20.444  -6.233  0.00  0.00     0.167 HD
ENDBRANCH  53  55
ENDBRANCH  52  53
ENDBRANCH  51  52
ENDBRANCH  18  51
TORSDOF 16
ENDMDL
MODEL 9
REMARK VINA RESULT:      -7.6     11.061     15.862
REMARK  16 active torsions:
REMARK  status: ('A' for Active; 'I' for Inactive)
REMARK    1  A    between atoms: C_6  and  C_7 
REMARK    2  A    between atoms: C_7  and  C_8 
REMARK    3  A    between atoms: C_8  and  C_9 
REMARK    4  A    between atoms: C_9  and  O_11 
REMARK    5  A    between atoms: C_16  and  C_17 
REMARK    6  A    between atoms: C_17  and  C_18 
REMARK    7  A    between atoms: C_18  and  C_19 
REMARK    8  A    between atoms: C_19  and  O_21 
REMARK    9  A    between atoms: C_28  and  C_29 
REMARK   10  A    between atoms: C_29  and  C_30 
REMARK   11  A    between atoms: C_30  and  C_31 
REMARK   12  A    between atoms: C_31  and  O_33 
REMARK   13  A    between atoms: C_42  and  C_43 
REMARK   14  A    between atoms: C_43  and  C_44 
REMARK   15  A    between atoms: C_44  and  C_45 
REMARK   16  A    between atoms: C_45  and  O_47 
ROOT
HETATM    1  C   UNK     0     -43.600  18.032   3.430  0.00  0.00     0.051 C 
HETATM    2  C   UNK     0     -42.197  17.592   3.064  0.00  0.00    -0.031 A 
HETATM    3  C   UNK     0     -41.699  17.165   1.843  0.00  0.00     0.021 A 
HETATM    4  N   UNK     0     -40.392  16.842   1.988  0.00  0.00    -0.361 N 
HETATM    5  C   UNK     0     -40.044  17.062   3.272  0.00  0.00     0.022 A 
HETATM    6  C   UNK     0     -41.150  17.530   3.974  0.00  0.00    -0.027 A 
HETATM    7  C   UNK     0     -38.702  16.954   3.927  0.00  0.00     0.115 C 
HETATM    8  C   UNK     0     -37.518  17.502   3.149  0.00  0.00     0.021 A 
HETATM    9  N   UNK     0     -37.471  18.574   2.344  0.00  0.00    -0.361 N 
HETATM   10  C   UNK     0     -36.240  18.631   1.793  0.00  0.00     0.022 A 
HETATM   11  C   UNK     0     -35.470  17.571   2.264  0.00  0.00    -0.027 A 
HETATM   12  C   UNK     0     -36.269  16.856   3.119  0.00  0.00    -0.031 A 
HETATM   13  C   UNK     0     -35.850  15.615   3.875  0.00  0.00     0.051 C 
HETATM   14  C   UNK     0     -35.759  19.650   0.764  0.00  0.00     0.115 C 
HETATM   15  C   UNK     0     -36.544  19.629  -0.538  0.00  0.00     0.021 A 
HETATM   16  N   UNK     0     -37.866  19.822  -0.703  0.00  0.00    -0.361 N 
HETATM   17  C   UNK     0     -38.177  19.653  -1.990  0.00  0.00     0.022 A 
HETATM   18  C   UNK     0     -36.999  19.343  -2.699  0.00  0.00    -0.027 A 
HETATM   19  C   UNK     0     -35.984  19.332  -1.779  0.00  0.00    -0.031 A 
HETATM   20  C   UNK     0     -34.530  19.075  -2.129  0.00  0.00     0.051 C 
HETATM   21  C   UNK     0     -39.523  19.688  -2.677  0.00  0.00     0.115 C 
HETATM   22  C   UNK     0     -40.717  19.186  -1.899  0.00  0.00     0.022 A 
HETATM   23  N   UNK     0     -40.791  18.125  -1.086  0.00  0.00    -0.361 N 
HETATM   24  C   UNK     0     -42.000  18.133  -0.489  0.00  0.00     0.021 A 
HETATM   25  C   UNK     0     -42.725  19.220  -0.936  0.00  0.00    -0.031 A 
HETATM   26  C   UNK     0     -44.141  19.630  -0.588  0.00  0.00     0.051 C 
HETATM   27  C   UNK     0     -41.925  19.910  -1.840  0.00  0.00    -0.027 A 
HETATM   28  C   UNK     0     -42.514  17.185   0.581  0.00  0.00     0.115 C 
HETATM   29  H   UNK     0     -39.735  16.422   1.191  0.00  0.00     0.165 HD
HETATM   30  H   UNK     0     -38.289  19.321   2.200  0.00  0.00     0.165 HD
HETATM   31  H   UNK     0     -38.588  20.132   0.097  0.00  0.00     0.165 HD
HETATM   32  H   UNK     0     -40.006  17.334  -0.959  0.00  0.00     0.165 HD
ENDROOT
BRANCH   6  33
HETATM   33  C   UNK     0     -41.286  17.914   5.426  0.00  0.00     0.051 C 
BRANCH  33  34
HETATM   34  C   UNK     0     -41.369  19.415   5.576  0.00  0.00     0.114 C 
BRANCH  34  35
HETATM   35  C   UNK     0     -42.507  19.708   6.495  0.00  0.00     0.139 C 
HETATM   36  O   UNK     0     -43.231  18.768   6.933  0.00  0.00    -0.650 OA
BRANCH  35  37
HETATM   37  O   UNK     0     -42.822  20.997   6.909  0.00  0.00    -0.776 OA
HETATM   38  H   UNK     0     -42.784  21.271   7.877  0.00  0.00     0.167 HD
ENDBRANCH  35  37
ENDBRANCH  34  35
ENDBRANCH  33  34
ENDBRANCH   6  33
BRANCH  27  39
HETATM   39  C   UNK     0     -42.395  21.107  -2.589  0.00  0.00     0.051 C 
BRANCH  39  40
HETATM   40  C   UNK     0     -42.677  20.965  -4.017  0.00  0.00     0.114 C 
BRANCH  40  41
HETATM   41  C   UNK     0     -41.733  21.371  -5.034  0.00  0.00     0.139 C 
HETATM   42  O   UNK     0     -41.029  22.386  -4.946  0.00  0.00    -0.650 OA
BRANCH  41  43
HETATM   43  O   UNK     0     -41.593  20.573  -6.205  0.00  0.00    -0.776 OA
HETATM   44  H   UNK     0     -40.869  20.887  -6.841  0.00  0.00     0.167 HD
ENDBRANCH  41  43
ENDBRANCH  40  41
ENDBRANCH  39  40
ENDBRANCH  27  39
BRANCH  11  45
HETATM   45  C   UNK     0     -34.041  17.228   1.939  0.00  0.00     0.051 C 
BRANCH  45  46
HETATM   46  C   UNK     0     -33.870  16.487   0.664  0.00  0.00     0.114 C 
BRANCH  46  47
HETATM   47  C   UNK     0     -33.284  15.158   1.000  0.00  0.00     0.139 C 
HETATM   48  O   UNK     0     -34.052  14.217   1.244  0.00  0.00    -0.650 OA
BRANCH  47  49
HETATM   49  O   UNK     0     -31.924  14.980   1.041  0.00  0.00    -0.776 OA
HETATM   50  H   UNK     0     -31.312  15.585   1.601  0.00  0.00     0.167 HD
ENDBRANCH  47  49
ENDBRANCH  46  47
ENDBRANCH  45  46
ENDBRANCH  11  45
BRANCH  18  51
HETATM   51  C   UNK     0     -36.847  19.093  -4.177  0.00  0.00     0.051 C 
BRANCH  51  52
HETATM   52  C   UNK     0     -36.416  20.416  -4.792  0.00  0.00     0.114 C 
BRANCH  52  53
HETATM   53  C   UNK     0     -37.573  21.271  -5.122  0.00  0.00     0.139 C 
HETATM   54  O   UNK     0     -37.647  22.421  -4.660  0.00  0.00    -0.650 OA
BRANCH  53  55
HETATM   55  O   UNK     0     -38.565  20.786  -5.938  0.00  0.00    -0.776 OA
HETATM   56  H   UNK     0     -39.534  20.748  -5.722  0.00  0.00     0.167 HD
ENDBRANCH  53  55
ENDBRANCH  52  53
ENDBRANCH  51  52
ENDBRANCH  18  51
TORSDOF 16
ENDMDL
MODEL 10
REMARK VINA RESULT:      -7.6     12.195     17.753
REMARK  16 active torsions:
REMARK  status: ('A' for Active; 'I' for Inactive)
REMARK    1  A    between atoms: C_6  and  C_7 
REMARK    2  A    between atoms: C_7  and  C_8 
REMARK    3  A    between atoms: C_8  and  C_9 
REMARK    4  A    between atoms: C_9  and  O_11 
REMARK    5  A    between atoms: C_16  and  C_17 
REMARK    6  A    between atoms: C_17  and  C_18 
REMARK    7  A    between atoms: C_18  and  C_19 
REMARK    8  A    between atoms: C_19  and  O_21 
REMARK    9  A    between atoms: C_28  and  C_29 
REMARK   10  A    between atoms: C_29  and  C_30 
REMARK   11  A    between atoms: C_30  and  C_31 
REMARK   12  A    between atoms: C_31  and  O_33 
REMARK   13  A    between atoms: C_42  and  C_43 
REMARK   14  A    between atoms: C_43  and  C_44 
REMARK   15  A    between atoms: C_44  and  C_45 
REMARK   16  A    between atoms: C_45  and  O_47 
ROOT
HETATM    1  C   UNK     0     -43.168  20.972  -4.442  0.00  0.00     0.051 C 
HETATM    2  C   UNK     0     -41.715  21.274  -4.135  0.00  0.00    -0.031 A 
HETATM    3  C   UNK     0     -41.094  21.449  -2.908  0.00  0.00     0.021 A 
HETATM    4  N   UNK     0     -39.786  21.734  -3.114  0.00  0.00    -0.361 N 
HETATM    5  C   UNK     0     -39.559  21.737  -4.443  0.00  0.00     0.022 A 
HETATM    6  C   UNK     0     -40.745  21.455  -5.112  0.00  0.00    -0.027 A 
HETATM    7  C   UNK     0     -38.272  21.903  -5.189  0.00  0.00     0.115 C 
HETATM    8  C   UNK     0     -37.063  21.169  -4.634  0.00  0.00     0.021 A 
HETATM    9  N   UNK     0     -37.015  19.967  -4.040  0.00  0.00    -0.361 N 
HETATM   10  C   UNK     0     -35.748  19.756  -3.624  0.00  0.00     0.022 A 
HETATM   11  C   UNK     0     -34.957  20.848  -3.968  0.00  0.00    -0.027 A 
HETATM   12  C   UNK     0     -35.779  21.742  -4.605  0.00  0.00    -0.031 A 
HETATM   13  C   UNK     0     -35.349  23.080  -5.163  0.00  0.00     0.051 C 
HETATM   14  C   UNK     0     -35.247  18.545  -2.842  0.00  0.00     0.115 C 
HETATM   15  C   UNK     0     -35.919  18.363  -1.490  0.00  0.00     0.021 A 
HETATM   16  N   UNK     0     -37.232  18.202  -1.241  0.00  0.00    -0.361 N 
HETATM   17  C   UNK     0     -37.424  18.148   0.078  0.00  0.00     0.022 A 
HETATM   18  C   UNK     0     -36.176  18.269   0.720  0.00  0.00    -0.027 A 
HETATM   19  C   UNK     0     -35.241  18.403  -0.274  0.00  0.00    -0.031 A 
HETATM   20  C   UNK     0     -33.750  18.526  -0.019  0.00  0.00     0.051 C 
HETATM   21  C   UNK     0     -38.709  18.048   0.870  0.00  0.00     0.115 C 
HETATM   22  C   UNK     0     -39.930  18.736   0.307  0.00  0.00     0.022 A 
HETATM   23  N   UNK     0     -40.007  19.931  -0.293  0.00  0.00    -0.361 N 
HETATM   24  C   UNK     0     -41.259  20.086  -0.768  0.00  0.00     0.021 A 
HETATM   25  C   UNK     0     -42.010  18.969  -0.457  0.00  0.00    -0.031 A 
HETATM   26  C   UNK     0     -43.472  18.693  -0.740  0.00  0.00     0.051 C 
HETATM   27  C   UNK     0     -41.181  18.090   0.232  0.00  0.00    -0.027 A 
HETATM   28  C   UNK     0     -41.802  21.235  -1.601  0.00  0.00     0.115 C 
HETATM   29  H   UNK     0     -39.041  21.971  -2.319  0.00  0.00     0.165 HD
HETATM   30  H   UNK     0     -37.862  19.243  -3.957  0.00  0.00     0.165 HD
HETATM   31  H   UNK     0     -38.035  18.077  -2.013  0.00  0.00     0.165 HD
HETATM   32  H   UNK     0     -39.189  20.695  -0.350  0.00  0.00     0.165 HD
ENDROOT
BRANCH   6  33
HETATM   33  C   UNK     0     -41.024  21.349  -6.590  0.00  0.00     0.051 C 
BRANCH  33  34
HETATM   34  C   UNK     0     -40.372  20.117  -7.171  0.00  0.00     0.114 C 
BRANCH  34  35
HETATM   35  C   UNK     0     -40.600  20.143  -8.644  0.00  0.00     0.139 C 
HETATM   36  O   UNK     0     -39.655  20.446  -9.429  0.00  0.00    -0.650 OA
BRANCH  35  37
HETATM   37  O   UNK     0     -41.829  19.841  -9.218  0.00  0.00    -0.776 OA
HETATM   38  H   UNK     0     -42.494  20.556  -9.463  0.00  0.00     0.167 HD
ENDBRANCH  35  37
ENDBRANCH  34  35
ENDBRANCH  33  34
ENDBRANCH   6  33
BRANCH  27  39
HETATM   39  C   UNK     0     -41.659  16.799   0.796  0.00  0.00     0.051 C 
BRANCH  39  40
HETATM   40  C   UNK     0     -42.103  16.773   2.190  0.00  0.00     0.114 C 
BRANCH  40  41
HETATM   41  C   UNK     0     -41.236  16.348   3.266  0.00  0.00     0.139 C 
HETATM   42  O   UNK     0     -40.364  17.072   3.767  0.00  0.00    -0.650 OA
BRANCH  41  43
HETATM   43  O   UNK     0     -41.379  15.032   3.791  0.00  0.00    -0.776 OA
HETATM   44  H   UNK     0     -41.120  14.939   4.766  0.00  0.00     0.167 HD
ENDBRANCH  41  43
ENDBRANCH  40  41
ENDBRANCH  39  40
ENDBRANCH  27  39
BRANCH  11  45
HETATM   45  C   UNK     0     -33.488  21.061  -3.721  0.00  0.00     0.051 C 
BRANCH  45  46
HETATM   46  C   UNK     0     -33.174  21.625  -2.383  0.00  0.00     0.114 C 
BRANCH  46  47
HETATM   47  C   UNK     0     -32.355  22.851  -2.602  0.00  0.00     0.139 C 
HETATM   48  O   UNK     0     -32.030  23.148  -3.760  0.00  0.00    -0.650 OA
BRANCH  47  49
HETATM   49  O   UNK     0     -31.966  23.635  -1.544  0.00  0.00    -0.776 OA
HETATM   50  H   UNK     0     -31.245  24.359  -1.639  0.00  0.00     0.167 HD
ENDBRANCH  47  49
ENDBRANCH  46  47
ENDBRANCH  45  46
ENDBRANCH  11  45
BRANCH  18  51
HETATM   51  C   UNK     0     -35.887  18.239   2.198  0.00  0.00     0.051 C 
BRANCH  51  52
HETATM   52  C   UNK     0     -35.722  16.773   2.570  0.00  0.00     0.114 C 
BRANCH  52  53
HETATM   53  C   UNK     0     -34.508  16.543   3.376  0.00  0.00     0.139 C 
HETATM   54  O   UNK     0     -34.586  16.477   4.613  0.00  0.00    -0.650 OA
BRANCH  53  55
HETATM   55  O   UNK     0     -33.292  16.407   2.750  0.00  0.00    -0.776 OA
HETATM   56  H   UNK     0     -33.100  15.826   1.969  0.00  0.00     0.167 HD
ENDBRANCH  53  55
ENDBRANCH  52  53
ENDBRANCH  51  52
ENDBRANCH  18  51
TORSDOF 16
ENDMDL
MODEL 11
REMARK VINA RESULT:      -7.5     11.760     17.656
REMARK  16 active torsions:
REMARK  status: ('A' for Active; 'I' for Inactive)
REMARK    1  A    between atoms: C_6  and  C_7 
REMARK    2  A    between atoms: C_7  and  C_8 
REMARK    3  A    between atoms: C_8  and  C_9 
REMARK    4  A    between atoms: C_9  and  O_11 
REMARK    5  A    between atoms: C_16  and  C_17 
REMARK    6  A    between atoms: C_17  and  C_18 
REMARK    7  A    between atoms: C_18  and  C_19 
REMARK    8  A    between atoms: C_19  and  O_21 
REMARK    9  A    between atoms: C_28  and  C_29 
REMARK   10  A    between atoms: C_29  and  C_30 
REMARK   11  A    between atoms: C_30  and  C_31 
REMARK   12  A    between atoms: C_31  and  O_33 
REMARK   13  A    between atoms: C_42  and  C_43 
REMARK   14  A    between atoms: C_43  and  C_44 
REMARK   15  A    between atoms: C_44  and  C_45 
REMARK   16  A    between atoms: C_45  and  O_47 
ROOT
HETATM    1  C   UNK     0     -47.020  18.771   2.152  0.00  0.00     0.051 C 
HETATM    2  C   UNK     0     -46.036  19.447   1.219  0.00  0.00    -0.031 A 
HETATM    3  C   UNK     0     -44.833  20.071   1.510  0.00  0.00     0.021 A 
HETATM    4  N   UNK     0     -44.303  20.563   0.365  0.00  0.00    -0.361 N 
HETATM    5  C   UNK     0     -45.138  20.260  -0.650  0.00  0.00     0.022 A 
HETATM    6  C   UNK     0     -46.234  19.564  -0.151  0.00  0.00    -0.027 A 
HETATM    7  C   UNK     0     -44.973  20.493  -2.120  0.00  0.00     0.115 C 
HETATM    8  C   UNK     0     -43.601  20.209  -2.705  0.00  0.00     0.021 A 
HETATM    9  N   UNK     0     -42.729  19.247  -2.364  0.00  0.00    -0.361 N 
HETATM   10  C   UNK     0     -41.602  19.430  -3.084  0.00  0.00     0.022 A 
HETATM   11  C   UNK     0     -41.755  20.534  -3.917  0.00  0.00    -0.027 A 
HETATM   12  C   UNK     0     -43.012  21.029  -3.684  0.00  0.00    -0.031 A 
HETATM   13  C   UNK     0     -43.620  22.230  -4.373  0.00  0.00     0.051 C 
HETATM   14  C   UNK     0     -40.321  18.607  -2.976  0.00  0.00     0.115 C 
HETATM   15  C   UNK     0     -39.674  18.652  -1.601  0.00  0.00     0.021 A 
HETATM   16  N   UNK     0     -40.217  18.286  -0.425  0.00  0.00    -0.361 N 
HETATM   17  C   UNK     0     -39.351  18.545   0.557  0.00  0.00     0.022 A 
HETATM   18  C   UNK     0     -38.184  19.097  -0.006  0.00  0.00    -0.027 A 
HETATM   19  C   UNK     0     -38.398  19.157  -1.359  0.00  0.00    -0.031 A 
HETATM   20  C   UNK     0     -37.369  19.659  -2.355  0.00  0.00     0.051 C 
HETATM   21  C   UNK     0     -39.504  18.387   2.053  0.00  0.00     0.115 C 
HETATM   22  C   UNK     0     -40.874  18.624   2.644  0.00  0.00     0.022 A 
HETATM   23  N   UNK     0     -41.765  19.571   2.321  0.00  0.00    -0.361 N 
HETATM   24  C   UNK     0     -42.907  19.323   2.993  0.00  0.00     0.021 A 
HETATM   25  C   UNK     0     -42.745  18.195   3.774  0.00  0.00    -0.031 A 
HETATM   26  C   UNK     0     -43.726  17.549   4.730  0.00  0.00     0.051 C 
HETATM   27  C   UNK     0     -41.452  17.730   3.568  0.00  0.00    -0.027 A 
HETATM   28  C   UNK     0     -44.228  20.066   2.885  0.00  0.00     0.115 C 
HETATM   29  H   UNK     0     -43.363  21.156   0.289  0.00  0.00     0.165 HD
HETATM   30  H   UNK     0     -42.925  18.408  -1.653  0.00  0.00     0.165 HD
HETATM   31  H   UNK     0     -41.214  17.792  -0.289  0.00  0.00     0.165 HD
HETATM   32  H   UNK     0     -41.580  20.449   1.649  0.00  0.00     0.165 HD
ENDROOT
BRANCH   6  33
HETATM   33  C   UNK     0     -47.440  19.012  -0.867  0.00  0.00     0.051 C 
BRANCH  33  34
HETATM   34  C   UNK     0     -47.360  17.507  -0.968  0.00  0.00     0.114 C 
BRANCH  34  35
HETATM   35  C   UNK     0     -47.346  17.157  -2.418  0.00  0.00     0.139 C 
HETATM   36  O   UNK     0     -48.264  16.438  -2.908  0.00  0.00    -0.650 OA
BRANCH  35  37
HETATM   37  O   UNK     0     -46.350  17.592  -3.284  0.00  0.00    -0.776 OA
HETATM   38  H   UNK     0     -45.879  16.965  -3.915  0.00  0.00     0.167 HD
ENDBRANCH  35  37
ENDBRANCH  34  35
ENDBRANCH  33  34
ENDBRANCH   6  33
BRANCH  27  39
HETATM   39  C   UNK     0     -40.884  16.564   4.298  0.00  0.00     0.051 C 
BRANCH  39  40
HETATM   40  C   UNK     0     -40.714  15.306   3.572  0.00  0.00     0.114 C 
BRANCH  40  41
HETATM   41  C   UNK     0     -40.149  14.128   4.192  0.00  0.00     0.139 C 
HETATM   42  O   UNK     0     -38.932  13.907   4.255  0.00  0.00    -0.650 OA
BRANCH  41  43
HETATM   43  O   UNK     0     -41.023  13.161   4.764  0.00  0.00    -0.776 OA
HETATM   44  H   UNK     0     -41.579  12.648   4.090  0.00  0.00     0.167 HD
ENDBRANCH  41  43
ENDBRANCH  40  41
ENDBRANCH  39  40
ENDBRANCH  27  39
BRANCH  11  45
HETATM   45  C   UNK     0     -40.775  21.114  -4.901  0.00  0.00     0.051 C 
BRANCH  45  46
HETATM   46  C   UNK     0     -41.025  20.718  -6.311  0.00  0.00     0.114 C 
BRANCH  46  47
HETATM   47  C   UNK     0     -39.829  19.957  -6.774  0.00  0.00     0.139 C 
HETATM   48  O   UNK     0     -39.834  19.487  -7.921  0.00  0.00    -0.650 OA
BRANCH  47  49
HETATM   49  O   UNK     0     -38.747  19.779  -5.950  0.00  0.00    -0.776 OA
HETATM   50  H   UNK     0     -37.924  19.237  -6.240  0.00  0.00     0.167 HD
ENDBRANCH  47  49
ENDBRANCH  46  47
ENDBRANCH  45  46
ENDBRANCH  11  45
BRANCH  18  51
HETATM   51  C   UNK     0     -36.925  19.523   0.703  0.00  0.00     0.051 C 
BRANCH  51  52
HETATM   52  C   UNK     0     -36.028  18.295   0.754  0.00  0.00     0.114 C 
BRANCH  52  53
HETATM   53  C   UNK     0     -35.413  18.118   2.084  0.00  0.00     0.139 C 
HETATM   54  O   UNK     0     -34.254  18.512   2.289  0.00  0.00    -0.650 OA
BRANCH  53  55
HETATM   55  O   UNK     0     -36.128  17.514   3.089  0.00  0.00    -0.776 OA
HETATM   56  H   UNK     0     -36.542  16.612   3.050  0.00  0.00     0.167 HD
ENDBRANCH  53  55
ENDBRANCH  52  53
ENDBRANCH  51  52
ENDBRANCH  18  51
TORSDOF 16
ENDMDL
MODEL 12
REMARK VINA RESULT:      -7.5     12.996     18.001
REMARK  16 active torsions:
REMARK  status: ('A' for Active; 'I' for Inactive)
REMARK    1  A    between atoms: C_6  and  C_7 
REMARK    2  A    between atoms: C_7  and  C_8 
REMARK    3  A    between atoms: C_8  and  C_9 
REMARK    4  A    between atoms: C_9  and  O_11 
REMARK    5  A    between atoms: C_16  and  C_17 
REMARK    6  A    between atoms: C_17  and  C_18 
REMARK    7  A    between atoms: C_18  and  C_19 
REMARK    8  A    between atoms: C_19  and  O_21 
REMARK    9  A    between atoms: C_28  and  C_29 
REMARK   10  A    between atoms: C_29  and  C_30 
REMARK   11  A    between atoms: C_30  and  C_31 
REMARK   12  A    between atoms: C_31  and  O_33 
REMARK   13  A    between atoms: C_42  and  C_43 
REMARK   14  A    between atoms: C_43  and  C_44 
REMARK   15  A    between atoms: C_44  and  C_45 
REMARK   16  A    between atoms: C_45  and  O_47 
ROOT
HETATM    1  C   UNK     0     -34.144  21.590  -2.842  0.00  0.00     0.051 C 
HETATM    2  C   UNK     0     -35.318  21.248  -1.946  0.00  0.00    -0.031 A 
HETATM    3  C   UNK     0     -36.523  21.913  -1.782  0.00  0.00     0.021 A 
HETATM    4  N   UNK     0     -37.262  21.264  -0.852  0.00  0.00    -0.361 N 
HETATM    5  C   UNK     0     -36.559  20.195  -0.426  0.00  0.00     0.022 A 
HETATM    6  C   UNK     0     -35.336  20.156  -1.088  0.00  0.00    -0.027 A 
HETATM    7  C   UNK     0     -36.960  19.107   0.521  0.00  0.00     0.115 C 
HETATM    8  C   UNK     0     -38.367  18.556   0.369  0.00  0.00     0.021 A 
HETATM    9  N   UNK     0     -39.076  18.373  -0.755  0.00  0.00    -0.361 N 
HETATM   10  C   UNK     0     -40.310  17.949  -0.407  0.00  0.00     0.022 A 
HETATM   11  C   UNK     0     -40.394  17.847   0.978  0.00  0.00    -0.027 A 
HETATM   12  C   UNK     0     -39.173  18.228   1.474  0.00  0.00    -0.031 A 
HETATM   13  C   UNK     0     -38.799  18.270   2.938  0.00  0.00     0.051 C 
HETATM   14  C   UNK     0     -41.470  17.674  -1.360  0.00  0.00     0.115 C 
HETATM   15  C   UNK     0     -41.910  18.890  -2.160  0.00  0.00     0.021 A 
HETATM   16  N   UNK     0     -41.166  19.634  -2.999  0.00  0.00    -0.361 N 
HETATM   17  C   UNK     0     -41.900  20.653  -3.450  0.00  0.00     0.022 A 
HETATM   18  C   UNK     0     -43.188  20.564  -2.885  0.00  0.00    -0.027 A 
HETATM   19  C   UNK     0     -43.182  19.454  -2.081  0.00  0.00    -0.031 A 
HETATM   20  C   UNK     0     -44.392  18.968  -1.304  0.00  0.00     0.051 C 
HETATM   21  C   UNK     0     -41.515  21.805  -4.351  0.00  0.00     0.115 C 
HETATM   22  C   UNK     0     -40.105  22.335  -4.242  0.00  0.00     0.022 A 
HETATM   23  N   UNK     0     -39.372  22.524  -3.137  0.00  0.00    -0.361 N 
HETATM   24  C   UNK     0     -38.124  22.871  -3.510  0.00  0.00     0.021 A 
HETATM   25  C   UNK     0     -38.054  22.917  -4.889  0.00  0.00    -0.031 A 
HETATM   26  C   UNK     0     -36.882  23.294  -5.772  0.00  0.00     0.051 C 
HETATM   27  C   UNK     0     -39.309  22.577  -5.380  0.00  0.00    -0.027 A 
HETATM   28  C   UNK     0     -36.916  23.099  -2.617  0.00  0.00     0.115 C 
HETATM   29  H   UNK     0     -38.260  21.588  -0.475  0.00  0.00     0.165 HD
HETATM   30  H   UNK     0     -38.694  18.494  -1.798  0.00  0.00     0.165 HD
HETATM   31  H   UNK     0     -40.115  19.409  -3.318  0.00  0.00     0.165 HD
HETATM   32  H   UNK     0     -39.742  22.456  -2.080  0.00  0.00     0.165 HD
ENDROOT
BRANCH   6  33
HETATM   33  C   UNK     0     -34.198  19.175  -0.967  0.00  0.00     0.051 C 
BRANCH  33  34
HETATM   34  C   UNK     0     -34.553  17.860  -1.620  0.00  0.00     0.114 C 
BRANCH  34  35
HETATM   35  C   UNK     0     -34.466  18.057  -3.095  0.00  0.00     0.139 C 
HETATM   36  O   UNK     0     -33.349  18.285  -3.643  0.00  0.00    -0.650 OA
BRANCH  35  37
HETATM   37  O   UNK     0     -35.579  17.998  -3.926  0.00  0.00    -0.776 OA
HETATM   38  H   UNK     0     -35.856  18.775  -4.504  0.00  0.00     0.167 HD
ENDBRANCH  35  37
ENDBRANCH  34  35
ENDBRANCH  33  34
ENDBRANCH   6  33
BRANCH  27  39
HETATM   39  C   UNK     0     -39.642  22.587  -6.831  0.00  0.00     0.051 C 
BRANCH  39  40
HETATM   40  C   UNK     0     -39.347  21.390  -7.618  0.00  0.00     0.114 C 
BRANCH  40  41
HETATM   41  C   UNK     0     -40.308  20.324  -7.790  0.00  0.00     0.139 C 
HETATM   42  O   UNK     0     -40.002  19.180  -8.153  0.00  0.00    -0.650 OA
BRANCH  41  43
HETATM   43  O   UNK     0     -41.684  20.586  -7.532  0.00  0.00    -0.776 OA
HETATM   44  H   UNK     0     -42.010  20.260  -6.631  0.00  0.00     0.167 HD
ENDBRANCH  41  43
ENDBRANCH  40  41
ENDBRANCH  39  40
ENDBRANCH  27  39
BRANCH  11  45
HETATM   45  C   UNK     0     -41.562  17.410   1.821  0.00  0.00     0.051 C 
BRANCH  45  46
HETATM   46  C   UNK     0     -41.687  15.937   1.965  0.00  0.00     0.114 C 
BRANCH  46  47
HETATM   47  C   UNK     0     -41.257  15.590   3.350  0.00  0.00     0.139 C 
HETATM   48  O   UNK     0     -40.685  14.508   3.539  0.00  0.00    -0.650 OA
BRANCH  47  49
HETATM   49  O   UNK     0     -41.491  16.449   4.394  0.00  0.00    -0.776 OA
HETATM   50  H   UNK     0     -42.027  16.167   5.223  0.00  0.00     0.167 HD
ENDBRANCH  47  49
ENDBRANCH  46  47
ENDBRANCH  45  46
ENDBRANCH  11  45
BRANCH  18  51
HETATM   51  C   UNK     0     -44.366  21.473  -3.117  0.00  0.00     0.051 C 
BRANCH  51  52
HETATM   52  C   UNK     0     -45.131  20.889  -4.295  0.00  0.00     0.114 C 
BRANCH  52  53
HETATM   53  C   UNK     0     -44.858  21.624  -5.546  0.00  0.00     0.139 C 
HETATM   54  O   UNK     0     -44.989  22.858  -5.583  0.00  0.00    -0.650 OA
BRANCH  53  55
HETATM   55  O   UNK     0     -44.462  20.935  -6.666  0.00  0.00    -0.776 OA
HETATM   56  H   UNK     0     -44.829  21.048  -7.582  0.00  0.00     0.167 HD
ENDBRANCH  53  55
ENDBRANCH  52  53
ENDBRANCH  51  52
ENDBRANCH  18  51
TORSDOF 16
ENDMDL
MODEL 13
REMARK VINA RESULT:      -7.4     16.105     20.111
REMARK  16 active torsions:
REMARK  status: ('A' for Active; 'I' for Inactive)
REMARK    1  A    between atoms: C_6  and  C_7 
REMARK    2  A    between atoms: C_7  and  C_8 
REMARK    3  A    between atoms: C_8  and  C_9 
REMARK    4  A    between atoms: C_9  and  O_11 
REMARK    5  A    between atoms: C_16  and  C_17 
REMARK    6  A    between atoms: C_17  and  C_18 
REMARK    7  A    between atoms: C_18  and  C_19 
REMARK    8  A    between atoms: C_19  and  O_21 
REMARK    9  A    between atoms: C_28  and  C_29 
REMARK   10  A    between atoms: C_29  and  C_30 
REMARK   11  A    between atoms: C_30  and  C_31 
REMARK   12  A    between atoms: C_31  and  O_33 
REMARK   13  A    between atoms: C_42  and  C_43 
REMARK   14  A    between atoms: C_43  and  C_44 
REMARK   15  A    between atoms: C_44  and  C_45 
REMARK   16  A    between atoms: C_45  and  O_47 
ROOT
HETATM    1  C   UNK     0     -22.473  14.432  12.346  0.00  0.00     0.051 C 
HETATM    2  C   UNK     0     -22.871  15.732  11.677  0.00  0.00    -0.031 A 
HETATM    3  C   UNK     0     -24.104  16.126  11.181  0.00  0.00     0.021 A 
HETATM    4  N   UNK     0     -23.988  17.361  10.639  0.00  0.00    -0.361 N 
HETATM    5  C   UNK     0     -22.710  17.767  10.787  0.00  0.00     0.022 A 
HETATM    6  C   UNK     0     -21.983  16.771  11.429  0.00  0.00    -0.027 A 
HETATM    7  C   UNK     0     -22.084  19.084  10.446  0.00  0.00     0.115 C 
HETATM    8  C   UNK     0     -22.883  20.328  10.791  0.00  0.00     0.021 A 
HETATM    9  N   UNK     0     -23.685  20.541  11.847  0.00  0.00    -0.361 N 
HETATM   10  C   UNK     0     -24.261  21.753  11.698  0.00  0.00     0.022 A 
HETATM   11  C   UNK     0     -23.811  22.340  10.519  0.00  0.00    -0.027 A 
HETATM   12  C   UNK     0     -22.943  21.448   9.943  0.00  0.00    -0.031 A 
HETATM   13  C   UNK     0     -22.202  21.665   8.642  0.00  0.00     0.051 C 
HETATM   14  C   UNK     0     -25.294  22.380  12.629  0.00  0.00     0.115 C 
HETATM   15  C   UNK     0     -26.579  21.576  12.753  0.00  0.00     0.021 A 
HETATM   16  N   UNK     0     -26.716  20.304  13.170  0.00  0.00    -0.361 N 
HETATM   17  C   UNK     0     -27.997  19.943  13.067  0.00  0.00     0.022 A 
HETATM   18  C   UNK     0     -28.732  21.037  12.568  0.00  0.00    -0.027 A 
HETATM   19  C   UNK     0     -27.833  22.054  12.376  0.00  0.00    -0.031 A 
HETATM   20  C   UNK     0     -28.216  23.436  11.879  0.00  0.00     0.051 C 
HETATM   21  C   UNK     0     -28.656  18.610  13.336  0.00  0.00     0.115 C 
HETATM   22  C   UNK     0     -27.855  17.363  13.039  0.00  0.00     0.022 A 
HETATM   23  N   UNK     0     -27.046  17.125  11.998  0.00  0.00    -0.361 N 
HETATM   24  C   UNK     0     -26.424  15.948  12.206  0.00  0.00     0.021 A 
HETATM   25  C   UNK     0     -26.850  15.409  13.405  0.00  0.00    -0.031 A 
HETATM   26  C   UNK     0     -26.470  14.091  14.047  0.00  0.00     0.051 C 
HETATM   27  C   UNK     0     -27.767  16.297  13.956  0.00  0.00    -0.027 A 
HETATM   28  C   UNK     0     -25.348  15.301  11.351  0.00  0.00     0.115 C 
HETATM   29  H   UNK     0     -24.800  17.921  10.121  0.00  0.00     0.165 HD
HETATM   30  H   UNK     0     -23.807  19.859  12.724  0.00  0.00     0.165 HD
HETATM   31  H   UNK     0     -25.899  19.661  13.591  0.00  0.00     0.165 HD
HETATM   32  H   UNK     0     -26.940  17.767  11.085  0.00  0.00     0.165 HD
ENDROOT
BRANCH   6  33
HETATM   33  C   UNK     0     -20.527  16.731  11.819  0.00  0.00     0.051 C 
BRANCH  33  34
HETATM   34  C   UNK     0     -20.321  17.341  13.185  0.00  0.00     0.114 C 
BRANCH  34  35
HETATM   35  C   UNK     0     -19.400  18.502  13.022  0.00  0.00     0.139 C 
HETATM   36  O   UNK     0     -19.227  19.316  13.975  0.00  0.00    -0.650 OA
BRANCH  35  37
HETATM   37  O   UNK     0     -18.701  18.744  11.846  0.00  0.00    -0.776 OA
HETATM   38  H   UNK     0     -18.178  18.022  11.377  0.00  0.00     0.167 HD
ENDBRANCH  35  37
ENDBRANCH  34  35
ENDBRANCH  33  34
ENDBRANCH   6  33
BRANCH  27  39
HETATM   39  C   UNK     0     -28.500  16.023  15.222  0.00  0.00     0.051 C 
BRANCH  39  40
HETATM   40  C   UNK     0     -28.101  16.751  16.427  0.00  0.00     0.114 C 
BRANCH  40  41
HETATM   41  C   UNK     0     -26.748  17.217  16.633  0.00  0.00     0.139 C 
HETATM   42  O   UNK     0     -25.896  16.580  17.267  0.00  0.00    -0.650 OA
BRANCH  41  43
HETATM   43  O   UNK     0     -26.359  18.472  16.085  0.00  0.00    -0.776 OA
HETATM   44  H   UNK     0     -25.364  18.656  16.126  0.00  0.00     0.167 HD
ENDBRANCH  41  43
ENDBRANCH  40  41
ENDBRANCH  39  40
ENDBRANCH  27  39
BRANCH  11  45
HETATM   45  C   UNK     0     -24.168  23.683   9.941  0.00  0.00     0.051 C 
BRANCH  45  46
HETATM   46  C   UNK     0     -23.153  24.739  10.191  0.00  0.00     0.114 C 
BRANCH  46  47
HETATM   47  C   UNK     0     -22.612  25.154   8.865  0.00  0.00     0.139 C 
HETATM   48  O   UNK     0     -21.536  25.768   8.830  0.00  0.00    -0.650 OA
BRANCH  47  49
HETATM   49  O   UNK     0     -23.290  24.865   7.707  0.00  0.00    -0.776 OA
HETATM   50  H   UNK     0     -24.185  25.310   7.474  0.00  0.00     0.167 HD
ENDBRANCH  47  49
ENDBRANCH  46  47
ENDBRANCH  45  46
ENDBRANCH  11  45
BRANCH  18  51
HETATM   51  C   UNK     0     -30.214  21.115  12.308  0.00  0.00     0.051 C 
BRANCH  51  52
HETATM   52  C   UNK     0     -30.434  20.531  10.920  0.00  0.00     0.114 C 
BRANCH  52  53
HETATM   53  C   UNK     0     -31.511  19.522  10.912  0.00  0.00     0.139 C 
HETATM   54  O   UNK     0     -32.699  19.881  10.897  0.00  0.00    -0.650 OA
BRANCH  53  55
HETATM   55  O   UNK     0     -31.190  18.186  10.926  0.00  0.00    -0.776 OA
HETATM   56  H   UNK     0     -30.284  17.805  11.063  0.00  0.00     0.167 HD
ENDBRANCH  53  55
ENDBRANCH  52  53
ENDBRANCH  51  52
ENDBRANCH  18  51
TORSDOF 16
ENDMDL
MODEL 14
REMARK VINA RESULT:      -7.4     11.329     16.950
REMARK  16 active torsions:
REMARK  status: ('A' for Active; 'I' for Inactive)
REMARK    1  A    between atoms: C_6  and  C_7 
REMARK    2  A    between atoms: C_7  and  C_8 
REMARK    3  A    between atoms: C_8  and  C_9 
REMARK    4  A    between atoms: C_9  and  O_11 
REMARK    5  A    between atoms: C_16  and  C_17 
REMARK    6  A    between atoms: C_17  and  C_18 
REMARK    7  A    between atoms: C_18  and  C_19 
REMARK    8  A    between atoms: C_19  and  O_21 
REMARK    9  A    between atoms: C_28  and  C_29 
REMARK   10  A    between atoms: C_29  and  C_30 
REMARK   11  A    between atoms: C_30  and  C_31 
REMARK   12  A    between atoms: C_31  and  O_33 
REMARK   13  A    between atoms: C_42  and  C_43 
REMARK   14  A    between atoms: C_43  and  C_44 
REMARK   15  A    between atoms: C_44  and  C_45 
REMARK   16  A    between atoms: C_45  and  O_47 
ROOT
HETATM    1  C   UNK     0     -45.662  19.271   1.300  0.00  0.00     0.051 C 
HETATM    2  C   UNK     0     -44.476  19.822   0.534  0.00  0.00    -0.031 A 
HETATM    3  C   UNK     0     -43.281  20.335   1.013  0.00  0.00     0.021 A 
HETATM    4  N   UNK     0     -42.524  20.741  -0.035  0.00  0.00    -0.361 N 
HETATM    5  C   UNK     0     -43.207  20.489  -1.170  0.00  0.00     0.022 A 
HETATM    6  C   UNK     0     -44.434  19.917  -0.851  0.00  0.00    -0.027 A 
HETATM    7  C   UNK     0     -42.782  20.662  -2.595  0.00  0.00     0.115 C 
HETATM    8  C   UNK     0     -41.367  20.230  -2.941  0.00  0.00     0.021 A 
HETATM    9  N   UNK     0     -40.663  19.200  -2.447  0.00  0.00    -0.361 N 
HETATM   10  C   UNK     0     -39.420  19.252  -2.972  0.00  0.00     0.022 A 
HETATM   11  C   UNK     0     -39.324  20.341  -3.834  0.00  0.00    -0.027 A 
HETATM   12  C   UNK     0     -40.547  20.961  -3.819  0.00  0.00    -0.031 A 
HETATM   13  C   UNK     0     -40.912  22.194  -4.615  0.00  0.00     0.051 C 
HETATM   14  C   UNK     0     -38.263  18.314  -2.642  0.00  0.00     0.115 C 
HETATM   15  C   UNK     0     -37.848  18.338  -1.180  0.00  0.00     0.021 A 
HETATM   16  N   UNK     0     -38.611  18.061  -0.105  0.00  0.00    -0.361 N 
HETATM   17  C   UNK     0     -37.896  18.264   1.004  0.00  0.00     0.022 A 
HETATM   18  C   UNK     0     -36.603  18.684   0.634  0.00  0.00    -0.027 A 
HETATM   19  C   UNK     0     -36.586  18.725  -0.736  0.00  0.00    -0.031 A 
HETATM   20  C   UNK     0     -35.362  19.097  -1.554  0.00  0.00     0.051 C 
HETATM   21  C   UNK     0     -38.307  18.166   2.455  0.00  0.00     0.115 C 
HETATM   22  C   UNK     0     -39.725  18.550   2.807  0.00  0.00     0.022 A 
HETATM   23  N   UNK     0     -40.452  19.568   2.329  0.00  0.00    -0.361 N 
HETATM   24  C   UNK     0     -41.708  19.451   2.804  0.00  0.00     0.021 A 
HETATM   25  C   UNK     0     -41.789  18.336   3.617  0.00  0.00    -0.031 A 
HETATM   26  C   UNK     0     -42.973  17.815   4.405  0.00  0.00     0.051 C 
HETATM   27  C   UNK     0     -40.532  17.743   3.634  0.00  0.00    -0.027 A 
HETATM   28  C   UNK     0     -42.913  20.314   2.469  0.00  0.00     0.115 C 
HETATM   29  H   UNK     0     -41.530  21.239   0.038  0.00  0.00     0.165 HD
HETATM   30  H   UNK     0     -41.055  18.405  -1.767  0.00  0.00     0.165 HD
HETATM   31  H   UNK     0     -39.661  17.668  -0.130  0.00  0.00     0.165 HD
HETATM   32  H   UNK     0     -40.074  20.404   1.685  0.00  0.00     0.165 HD
ENDROOT
BRANCH   6  33
HETATM   33  C   UNK     0     -45.555  19.462  -1.750  0.00  0.00     0.051 C 
BRANCH  33  34
HETATM   34  C   UNK     0     -45.356  18.024  -2.168  0.00  0.00     0.114 C 
BRANCH  34  35
HETATM   35  C   UNK     0     -46.690  17.483  -2.559  0.00  0.00     0.139 C 
HETATM   36  O   UNK     0     -47.535  17.172  -1.670  0.00  0.00    -0.650 OA
BRANCH  35  37
HETATM   37  O   UNK     0     -47.066  17.300  -3.884  0.00  0.00    -0.776 OA
HETATM   38  H   UNK     0     -47.202  18.075  -4.513  0.00  0.00     0.167 HD
ENDBRANCH  35  37
ENDBRANCH  34  35
ENDBRANCH  33  34
ENDBRANCH   6  33
BRANCH  27  39
HETATM   39  C   UNK     0     -40.210  16.551   4.464  0.00  0.00     0.051 C 
BRANCH  39  40
HETATM   40  C   UNK     0     -40.352  15.226   3.860  0.00  0.00     0.114 C 
BRANCH  40  41
HETATM   41  C   UNK     0     -39.871  14.027   4.509  0.00  0.00     0.139 C 
HETATM   42  O   UNK     0     -38.729  13.574   4.348  0.00  0.00    -0.650 OA
BRANCH  41  43
HETATM   43  O   UNK     0     -40.742  13.317   5.383  0.00  0.00    -0.776 OA
HETATM   44  H   UNK     0     -41.373  12.677   4.916  0.00  0.00     0.167 HD
ENDBRANCH  41  43
ENDBRANCH  40  41
ENDBRANCH  39  40
ENDBRANCH  27  39
BRANCH  11  45
HETATM   45  C   UNK     0     -38.144  20.795  -4.649  0.00  0.00     0.051 C 
BRANCH  45  46
HETATM   46  C   UNK     0     -37.149  21.590  -3.885  0.00  0.00     0.114 C 
BRANCH  46  47
HETATM   47  C   UNK     0     -35.812  21.322  -4.487  0.00  0.00     0.139 C 
HETATM   48  O   UNK     0     -34.983  22.242  -4.524  0.00  0.00    -0.650 OA
BRANCH  47  49
HETATM   49  O   UNK     0     -35.504  20.083  -4.992  0.00  0.00    -0.776 OA
HETATM   50  H   UNK     0     -34.546  19.715  -4.987  0.00  0.00     0.167 HD
ENDBRANCH  47  49
ENDBRANCH  46  47
ENDBRANCH  45  46
ENDBRANCH  11  45
BRANCH  18  51
HETATM   51  C   UNK     0     -35.441  19.009   1.537  0.00  0.00     0.051 C 
BRANCH  51  52
HETATM   52  C   UNK     0     -34.513  17.805   1.485  0.00  0.00     0.114 C 
BRANCH  52  53
HETATM   53  C   UNK     0     -34.674  16.935   2.667  0.00  0.00     0.139 C 
HETATM   54  O   UNK     0     -35.481  15.993   2.639  0.00  0.00    -0.650 OA
BRANCH  53  55
HETATM   55  O   UNK     0     -33.928  17.177   3.795  0.00  0.00    -0.776 OA
HETATM   56  H   UNK     0     -33.839  18.050   4.260  0.00  0.00     0.167 HD
ENDBRANCH  53  55
ENDBRANCH  52  53
ENDBRANCH  51  52
ENDBRANCH  18  51
TORSDOF 16
ENDMDL
MODEL 15
REMARK VINA RESULT:      -7.4      5.029     10.248
REMARK  16 active torsions:
REMARK  status: ('A' for Active; 'I' for Inactive)
REMARK    1  A    between atoms: C_6  and  C_7 
REMARK    2  A    between atoms: C_7  and  C_8 
REMARK    3  A    between atoms: C_8  and  C_9 
REMARK    4  A    between atoms: C_9  and  O_11 
REMARK    5  A    between atoms: C_16  and  C_17 
REMARK    6  A    between atoms: C_17  and  C_18 
REMARK    7  A    between atoms: C_18  and  C_19 
REMARK    8  A    between atoms: C_19  and  O_21 
REMARK    9  A    between atoms: C_28  and  C_29 
REMARK   10  A    between atoms: C_29  and  C_30 
REMARK   11  A    between atoms: C_30  and  C_31 
REMARK   12  A    between atoms: C_31  and  O_33 
REMARK   13  A    between atoms: C_42  and  C_43 
REMARK   14  A    between atoms: C_43  and  C_44 
REMARK   15  A    between atoms: C_44  and  C_45 
REMARK   16  A    between atoms: C_45  and  O_47 
ROOT
HETATM    1  C   UNK     0     -35.622  17.963   1.771  0.00  0.00     0.051 C 
HETATM    2  C   UNK     0     -34.981  16.625   2.080  0.00  0.00    -0.031 A 
HETATM    3  C   UNK     0     -35.148  15.804   3.184  0.00  0.00     0.021 A 
HETATM    4  N   UNK     0     -34.349  14.718   3.051  0.00  0.00    -0.361 N 
HETATM    5  C   UNK     0     -33.683  14.826   1.883  0.00  0.00     0.022 A 
HETATM    6  C   UNK     0     -34.052  16.009   1.251  0.00  0.00    -0.027 A 
HETATM    7  C   UNK     0     -32.753  13.856   1.224  0.00  0.00     0.115 C 
HETATM    8  C   UNK     0     -33.161  12.393   1.255  0.00  0.00     0.021 A 
HETATM    9  N   UNK     0     -34.392  11.867   1.173  0.00  0.00    -0.361 N 
HETATM   10  C   UNK     0     -34.289  10.531   1.337  0.00  0.00     0.022 A 
HETATM   11  C   UNK     0     -32.953  10.186   1.519  0.00  0.00    -0.027 A 
HETATM   12  C   UNK     0     -32.237  11.355   1.468  0.00  0.00    -0.031 A 
HETATM   13  C   UNK     0     -30.736  11.467   1.613  0.00  0.00     0.051 C 
HETATM   14  C   UNK     0     -35.445   9.536   1.380  0.00  0.00     0.115 C 
HETATM   15  C   UNK     0     -36.430   9.786   2.511  0.00  0.00     0.021 A 
HETATM   16  N   UNK     0     -37.148  10.901   2.744  0.00  0.00    -0.361 N 
HETATM   17  C   UNK     0     -37.840  10.748   3.875  0.00  0.00     0.022 A 
HETATM   18  C   UNK     0     -37.568   9.469   4.399  0.00  0.00    -0.027 A 
HETATM   19  C   UNK     0     -36.684   8.876   3.535  0.00  0.00    -0.031 A 
HETATM   20  C   UNK     0     -36.154   7.465   3.708  0.00  0.00     0.051 C 
HETATM   21  C   UNK     0     -38.735  11.724   4.606  0.00  0.00     0.115 C 
HETATM   22  C   UNK     0     -38.366  13.187   4.547  0.00  0.00     0.022 A 
HETATM   23  N   UNK     0     -37.148  13.740   4.621  0.00  0.00    -0.361 N 
HETATM   24  C   UNK     0     -37.266  15.061   4.378  0.00  0.00     0.021 A 
HETATM   25  C   UNK     0     -38.594  15.368   4.152  0.00  0.00    -0.031 A 
HETATM   26  C   UNK     0     -39.227  16.716   3.878  0.00  0.00     0.051 C 
HETATM   27  C   UNK     0     -39.317  14.185   4.255  0.00  0.00    -0.027 A 
HETATM   28  C   UNK     0     -36.153  16.088   4.264  0.00  0.00     0.115 C 
HETATM   29  H   UNK     0     -34.232  13.903   3.802  0.00  0.00     0.165 HD
HETATM   30  H   UNK     0     -35.332  12.430   0.950  0.00  0.00     0.165 HD
HETATM   31  H   UNK     0     -37.205  11.796   2.072  0.00  0.00     0.165 HD
HETATM   32  H   UNK     0     -36.197  13.209   4.890  0.00  0.00     0.165 HD
ENDROOT
BRANCH   6  33
HETATM   33  C   UNK     0     -33.594  16.592  -0.062  0.00  0.00     0.051 C 
BRANCH  33  34
HETATM   34  C   UNK     0     -34.751  16.720  -1.023  0.00  0.00     0.114 C 
BRANCH  34  35
HETATM   35  C   UNK     0     -34.429  17.830  -1.965  0.00  0.00     0.139 C 
HETATM   36  O   UNK     0     -33.892  18.893  -1.537  0.00  0.00    -0.650 OA
BRANCH  35  37
HETATM   37  O   UNK     0     -34.692  17.757  -3.328  0.00  0.00    -0.776 OA
HETATM   38  H   UNK     0     -34.178  18.303  -4.001  0.00  0.00     0.167 HD
ENDBRANCH  35  37
ENDBRANCH  34  35
ENDBRANCH  33  34
ENDBRANCH   6  33
BRANCH  27  39
HETATM   39  C   UNK     0     -40.800  14.130   4.142  0.00  0.00     0.051 C 
BRANCH  39  40
HETATM   40  C   UNK     0     -41.413  14.498   2.866  0.00  0.00     0.114 C 
BRANCH  40  41
HETATM   41  C   UNK     0     -42.197  15.703   2.707  0.00  0.00     0.139 C 
HETATM   42  O   UNK     0     -42.496  16.183   1.606  0.00  0.00    -0.650 OA
BRANCH  41  43
HETATM   43  O   UNK     0     -42.657  16.386   3.869  0.00  0.00    -0.776 OA
HETATM   44  H   UNK     0     -42.035  17.112   4.202  0.00  0.00     0.167 HD
ENDBRANCH  41  43
ENDBRANCH  40  41
ENDBRANCH  39  40
ENDBRANCH  27  39
BRANCH  11  45
HETATM   45  C   UNK     0     -32.352   8.823   1.731  0.00  0.00     0.051 C 
BRANCH  45  46
HETATM   46  C   UNK     0     -32.069   8.083   0.474  0.00  0.00     0.114 C 
BRANCH  46  47
HETATM   47  C   UNK     0     -32.939   6.872   0.469  0.00  0.00     0.139 C 
HETATM   48  O   UNK     0     -33.006   6.195  -0.566  0.00  0.00    -0.650 OA
BRANCH  47  49
HETATM   49  O   UNK     0     -33.652   6.514   1.586  0.00  0.00    -0.776 OA
HETATM   50  H   UNK     0     -33.458   5.647   2.101  0.00  0.00     0.167 HD
ENDBRANCH  47  49
ENDBRANCH  46  47
ENDBRANCH  45  46
ENDBRANCH  11  45
BRANCH  18  51
HETATM   51  C   UNK     0     -38.136   8.838   5.644  0.00  0.00     0.051 C 
BRANCH  51  52
HETATM   52  C   UNK     0     -36.966   8.656   6.601  0.00  0.00     0.114 C 
BRANCH  52  53
HETATM   53  C   UNK     0     -37.002   7.341   7.269  0.00  0.00     0.139 C 
HETATM   54  O   UNK     0     -35.945   6.736   7.508  0.00  0.00    -0.650 OA
BRANCH  53  55
HETATM   55  O   UNK     0     -38.211   6.791   7.621  0.00  0.00    -0.776 OA
HETATM   56  H   UNK     0     -39.069   6.906   7.135  0.00  0.00     0.167 HD
ENDBRANCH  53  55
ENDBRANCH  52  53
ENDBRANCH  51  52
ENDBRANCH  18  51
TORSDOF 16
ENDMDL
MODEL 16
REMARK VINA RESULT:      -7.4     13.454     18.633
REMARK  16 active torsions:
REMARK  status: ('A' for Active; 'I' for Inactive)
REMARK    1  A    between atoms: C_6  and  C_7 
REMARK    2  A    between atoms: C_7  and  C_8 
REMARK    3  A    between atoms: C_8  and  C_9 
REMARK    4  A    between atoms: C_9  and  O_11 
REMARK    5  A    between atoms: C_16  and  C_17 
REMARK    6  A    between atoms: C_17  and  C_18 
REMARK    7  A    between atoms: C_18  and  C_19 
REMARK    8  A    between atoms: C_19  and  O_21 
REMARK    9  A    between atoms: C_28  and  C_29 
REMARK   10  A    between atoms: C_29  and  C_30 
REMARK   11  A    between atoms: C_30  and  C_31 
REMARK   12  A    between atoms: C_31  and  O_33 
REMARK   13  A    between atoms: C_42  and  C_43 
REMARK   14  A    between atoms: C_43  and  C_44 
REMARK   15  A    between atoms: C_44  and  C_45 
REMARK   16  A    between atoms: C_45  and  O_47 
ROOT
HETATM    1  C   UNK     0     -42.815  21.521  -7.374  0.00  0.00     0.051 C 
HETATM    2  C   UNK     0     -41.666  21.496  -6.387  0.00  0.00    -0.031 A 
HETATM    3  C   UNK     0     -41.626  21.932  -5.072  0.00  0.00     0.021 A 
HETATM    4  N   UNK     0     -40.378  21.742  -4.581  0.00  0.00    -0.361 N 
HETATM    5  C   UNK     0     -39.625  21.185  -5.552  0.00  0.00     0.022 A 
HETATM    6  C   UNK     0     -40.398  21.020  -6.696  0.00  0.00    -0.027 A 
HETATM    7  C   UNK     0     -38.212  20.693  -5.496  0.00  0.00     0.115 C 
HETATM    8  C   UNK     0     -37.811  19.912  -4.257  0.00  0.00     0.021 A 
HETATM    9  N   UNK     0     -38.548  19.056  -3.533  0.00  0.00    -0.361 N 
HETATM   10  C   UNK     0     -37.815  18.668  -2.468  0.00  0.00     0.022 A 
HETATM   11  C   UNK     0     -36.568  19.285  -2.512  0.00  0.00    -0.027 A 
HETATM   12  C   UNK     0     -36.558  20.069  -3.637  0.00  0.00    -0.031 A 
HETATM   13  C   UNK     0     -35.399  20.925  -4.096  0.00  0.00     0.051 C 
HETATM   14  C   UNK     0     -38.278  17.748  -1.342  0.00  0.00     0.115 C 
HETATM   15  C   UNK     0     -39.472  18.279  -0.564  0.00  0.00     0.021 A 
HETATM   16  N   UNK     0     -40.689  18.597  -1.043  0.00  0.00    -0.361 N 
HETATM   17  C   UNK     0     -41.433  19.094  -0.053  0.00  0.00     0.022 A 
HETATM   18  C   UNK     0     -40.668  19.090   1.130  0.00  0.00    -0.027 A 
HETATM   19  C   UNK     0     -39.442  18.576   0.797  0.00  0.00    -0.031 A 
HETATM   20  C   UNK     0     -38.317  18.362   1.793  0.00  0.00     0.051 C 
HETATM   21  C   UNK     0     -42.835  19.661  -0.081  0.00  0.00     0.115 C 
HETATM   22  C   UNK     0     -43.262  20.402  -1.325  0.00  0.00     0.022 A 
HETATM   23  N   UNK     0     -42.548  21.257  -2.069  0.00  0.00    -0.361 N 
HETATM   24  C   UNK     0     -43.268  21.569  -3.165  0.00  0.00     0.021 A 
HETATM   25  C   UNK     0     -44.480  20.907  -3.121  0.00  0.00    -0.031 A 
HETATM   26  C   UNK     0     -45.635  20.968  -4.099  0.00  0.00     0.051 C 
HETATM   27  C   UNK     0     -44.500  20.154  -1.953  0.00  0.00    -0.027 A 
HETATM   28  C   UNK     0     -42.843  22.428  -4.343  0.00  0.00     0.115 C 
HETATM   29  H   UNK     0     -40.028  22.038  -3.566  0.00  0.00     0.165 HD
HETATM   30  H   UNK     0     -39.568  18.684  -3.798  0.00  0.00     0.165 HD
HETATM   31  H   UNK     0     -41.047  18.424  -2.091  0.00  0.00     0.165 HD
HETATM   32  H   UNK     0     -41.545  21.683  -1.805  0.00  0.00     0.165 HD
ENDROOT
BRANCH   6  33
HETATM   33  C   UNK     0     -40.028  20.454  -8.044  0.00  0.00     0.051 C 
BRANCH  33  34
HETATM   34  C   UNK     0     -39.562  21.548  -8.974  0.00  0.00     0.114 C 
BRANCH  34  35
HETATM   35  C   UNK     0     -39.994  21.177 -10.352  0.00  0.00     0.139 C 
HETATM   36  O   UNK     0     -41.175  21.419 -10.737  0.00  0.00    -0.650 OA
BRANCH  35  37
HETATM   37  O   UNK     0     -39.144  20.564 -11.264  0.00  0.00    -0.776 OA
HETATM   38  H   UNK     0     -39.428  19.764 -11.806  0.00  0.00     0.167 HD
ENDBRANCH  35  37
ENDBRANCH  34  35
ENDBRANCH  33  34
ENDBRANCH   6  33
BRANCH  27  39
HETATM   39  C   UNK     0     -45.680  19.356  -1.523  0.00  0.00     0.051 C 
BRANCH  39  40
HETATM   40  C   UNK     0     -45.757  17.954  -1.935  0.00  0.00     0.114 C 
BRANCH  40  41
HETATM   41  C   UNK     0     -46.873  17.434  -2.692  0.00  0.00     0.139 C 
HETATM   42  O   UNK     0     -47.791  16.772  -2.188  0.00  0.00    -0.650 OA
BRANCH  41  43
HETATM   43  O   UNK     0     -46.937  17.686  -4.092  0.00  0.00    -0.776 OA
HETATM   44  H   UNK     0     -47.852  17.963  -4.426  0.00  0.00     0.167 HD
ENDBRANCH  41  43
ENDBRANCH  40  41
ENDBRANCH  39  40
ENDBRANCH  27  39
BRANCH  11  45
HETATM   45  C   UNK     0     -35.418  19.153  -1.550  0.00  0.00     0.051 C 
BRANCH  45  46
HETATM   46  C   UNK     0     -34.570  17.956  -1.778  0.00  0.00     0.114 C 
BRANCH  46  47
HETATM   47  C   UNK     0     -34.523  17.196  -0.496  0.00  0.00     0.139 C 
HETATM   48  O   UNK     0     -35.264  16.212  -0.364  0.00  0.00    -0.650 OA
BRANCH  47  49
HETATM   49  O   UNK     0     -33.680  17.578   0.516  0.00  0.00    -0.776 OA
HETATM   50  H   UNK     0     -32.849  18.156   0.345  0.00  0.00     0.167 HD
ENDBRANCH  47  49
ENDBRANCH  46  47
ENDBRANCH  45  46
ENDBRANCH  11  45
BRANCH  18  51
HETATM   51  C   UNK     0     -41.089  19.533   2.508  0.00  0.00     0.051 C 
BRANCH  51  52
HETATM   52  C   UNK     0     -41.772  18.334   3.150  0.00  0.00     0.114 C 
BRANCH  52  53
HETATM   53  C   UNK     0     -41.255  18.070   4.507  0.00  0.00     0.139 C 
HETATM   54  O   UNK     0     -40.109  18.432   4.817  0.00  0.00    -0.650 OA
BRANCH  53  55
HETATM   55  O   UNK     0     -42.048  17.419   5.421  0.00  0.00    -0.776 OA
HETATM   56  H   UNK     0     -41.802  16.604   5.932  0.00  0.00     0.167 HD
ENDBRANCH  53  55
ENDBRANCH  52  53
ENDBRANCH  51  52
ENDBRANCH  18  51
TORSDOF 16
ENDMDL
MODEL 17
REMARK VINA RESULT:      -7.3     11.870     16.932
REMARK  16 active torsions:
REMARK  status: ('A' for Active; 'I' for Inactive)
REMARK    1  A    between atoms: C_6  and  C_7 
REMARK    2  A    between atoms: C_7  and  C_8 
REMARK    3  A    between atoms: C_8  and  C_9 
REMARK    4  A    between atoms: C_9  and  O_11 
REMARK    5  A    between atoms: C_16  and  C_17 
REMARK    6  A    between atoms: C_17  and  C_18 
REMARK    7  A    between atoms: C_18  and  C_19 
REMARK    8  A    between atoms: C_19  and  O_21 
REMARK    9  A    between atoms: C_28  and  C_29 
REMARK   10  A    between atoms: C_29  and  C_30 
REMARK   11  A    between atoms: C_30  and  C_31 
REMARK   12  A    between atoms: C_31  and  O_33 
REMARK   13  A    between atoms: C_42  and  C_43 
REMARK   14  A    between atoms: C_43  and  C_44 
REMARK   15  A    between atoms: C_44  and  C_45 
REMARK   16  A    between atoms: C_45  and  O_47 
ROOT
HETATM    1  C   UNK     0     -42.500  17.469   1.750  0.00  0.00     0.051 C 
HETATM    2  C   UNK     0     -41.727  18.399   0.837  0.00  0.00    -0.031 A 
HETATM    3  C   UNK     0     -40.613  19.176   1.112  0.00  0.00     0.021 A 
HETATM    4  N   UNK     0     -40.278  19.875   0.001  0.00  0.00    -0.361 N 
HETATM    5  C   UNK     0     -41.150  19.554  -0.977  0.00  0.00     0.022 A 
HETATM    6  C   UNK     0     -42.072  18.635  -0.488  0.00  0.00    -0.027 A 
HETATM    7  C   UNK     0     -41.165  19.974  -2.414  0.00  0.00     0.115 C 
HETATM    8  C   UNK     0     -39.828  19.989  -3.134  0.00  0.00     0.021 A 
HETATM    9  N   UNK     0     -38.789  19.153  -2.985  0.00  0.00    -0.361 N 
HETATM   10  C   UNK     0     -37.778  19.599  -3.760  0.00  0.00     0.022 A 
HETATM   11  C   UNK     0     -38.179  20.749  -4.434  0.00  0.00    -0.027 A 
HETATM   12  C   UNK     0     -39.470  21.000  -4.044  0.00  0.00    -0.031 A 
HETATM   13  C   UNK     0     -40.320  22.154  -4.527  0.00  0.00     0.051 C 
HETATM   14  C   UNK     0     -36.380  18.993  -3.856  0.00  0.00     0.115 C 
HETATM   15  C   UNK     0     -35.619  18.989  -2.540  0.00  0.00     0.021 A 
HETATM   16  N   UNK     0     -35.984  18.409  -1.382  0.00  0.00    -0.361 N 
HETATM   17  C   UNK     0     -35.078  18.695  -0.444  0.00  0.00     0.022 A 
HETATM   18  C   UNK     0     -34.070  19.492  -1.021  0.00  0.00    -0.027 A 
HETATM   19  C   UNK     0     -34.420  19.668  -2.335  0.00  0.00    -0.031 A 
HETATM   20  C   UNK     0     -33.581  20.443  -3.335  0.00  0.00     0.051 C 
HETATM   21  C   UNK     0     -35.060  18.348   1.028  0.00  0.00     0.115 C 
HETATM   22  C   UNK     0     -36.387  18.286   1.747  0.00  0.00     0.022 A 
HETATM   23  N   UNK     0     -37.440  19.103   1.616  0.00  0.00    -0.361 N 
HETATM   24  C   UNK     0     -38.461  18.596   2.336  0.00  0.00     0.021 A 
HETATM   25  C   UNK     0     -38.052  17.430   2.954  0.00  0.00    -0.031 A 
HETATM   26  C   UNK     0     -38.824  16.527   3.893  0.00  0.00     0.051 C 
HETATM   27  C   UNK     0     -36.728  17.211   2.592  0.00  0.00    -0.027 A 
HETATM   28  C   UNK     0     -39.885  19.117   2.425  0.00  0.00     0.115 C 
HETATM   29  H   UNK     0     -39.453  20.620  -0.072  0.00  0.00     0.165 HD
HETATM   30  H   UNK     0     -38.783  18.218  -2.373  0.00  0.00     0.165 HD
HETATM   31  H   UNK     0     -36.874  17.744  -1.233  0.00  0.00     0.165 HD
HETATM   32  H   UNK     0     -37.460  20.069   1.048  0.00  0.00     0.165 HD
ENDROOT
BRANCH   6  33
HETATM   33  C   UNK     0     -43.241  17.974  -1.173  0.00  0.00     0.051 C 
BRANCH  33  34
HETATM   34  C   UNK     0     -44.530  18.683  -0.834  0.00  0.00     0.114 C 
BRANCH  34  35
HETATM   35  C   UNK     0     -45.332  18.777  -2.088  0.00  0.00     0.139 C 
HETATM   36  O   UNK     0     -46.275  17.963  -2.304  0.00  0.00    -0.650 OA
BRANCH  35  37
HETATM   37  O   UNK     0     -45.092  19.742  -3.059  0.00  0.00    -0.776 OA
HETATM   38  H   UNK     0     -44.401  20.465  -2.936  0.00  0.00     0.167 HD
ENDBRANCH  35  37
ENDBRANCH  34  35
ENDBRANCH  33  34
ENDBRANCH   6  33
BRANCH  27  39
HETATM   39  C   UNK     0     -35.918  16.081   3.123  0.00  0.00     0.051 C 
BRANCH  39  40
HETATM   40  C   UNK     0     -34.914  16.367   4.148  0.00  0.00     0.114 C 
BRANCH  40  41
HETATM   41  C   UNK     0     -33.501  16.418   3.848  0.00  0.00     0.139 C 
HETATM   42  O   UNK     0     -32.832  15.423   3.536  0.00  0.00    -0.650 OA
BRANCH  41  43
HETATM   43  O   UNK     0     -32.826  17.670   3.911  0.00  0.00    -0.776 OA
HETATM   44  H   UNK     0     -32.313  17.827   4.771  0.00  0.00     0.167 HD
ENDBRANCH  41  43
ENDBRANCH  40  41
ENDBRANCH  39  40
ENDBRANCH  27  39
BRANCH  11  45
HETATM   45  C   UNK     0     -37.400  21.590  -5.409  0.00  0.00     0.051 C 
BRANCH  45  46
HETATM   46  C   UNK     0     -36.158  22.177  -4.845  0.00  0.00     0.114 C 
BRANCH  46  47
HETATM   47  C   UNK     0     -36.563  23.087  -3.736  0.00  0.00     0.139 C 
HETATM   48  O   UNK     0     -36.141  22.853  -2.594  0.00  0.00    -0.650 OA
BRANCH  47  49
HETATM   49  O   UNK     0     -37.386  24.159  -3.972  0.00  0.00    -0.776 OA
HETATM   50  H   UNK     0     -37.250  24.784  -4.775  0.00  0.00     0.167 HD
ENDBRANCH  47  49
ENDBRANCH  46  47
ENDBRANCH  45  46
ENDBRANCH  11  45
BRANCH  18  51
HETATM   51  C   UNK     0     -32.830  20.039  -0.362  0.00  0.00     0.051 C 
BRANCH  51  52
HETATM   52  C   UNK     0     -33.245  21.333   0.321  0.00  0.00     0.114 C 
BRANCH  52  53
HETATM   53  C   UNK     0     -32.824  21.368   1.735  0.00  0.00     0.139 C 
HETATM   54  O   UNK     0     -32.802  22.446   2.350  0.00  0.00    -0.650 OA
BRANCH  53  55
HETATM   55  O   UNK     0     -32.455  20.203   2.363  0.00  0.00    -0.776 OA
HETATM   56  H   UNK     0     -31.551  19.988   2.710  0.00  0.00     0.167 HD
ENDBRANCH  53  55
ENDBRANCH  52  53
ENDBRANCH  51  52
ENDBRANCH  18  51
TORSDOF 16
ENDMDL
MODEL 18
REMARK VINA RESULT:      -7.1     11.541     17.372
REMARK  16 active torsions:
REMARK  status: ('A' for Active; 'I' for Inactive)
REMARK    1  A    between atoms: C_6  and  C_7 
REMARK    2  A    between atoms: C_7  and  C_8 
REMARK    3  A    between atoms: C_8  and  C_9 
REMARK    4  A    between atoms: C_9  and  O_11 
REMARK    5  A    between atoms: C_16  and  C_17 
REMARK    6  A    between atoms: C_17  and  C_18 
REMARK    7  A    between atoms: C_18  and  C_19 
REMARK    8  A    between atoms: C_19  and  O_21 
REMARK    9  A    between atoms: C_28  and  C_29 
REMARK   10  A    between atoms: C_29  and  C_30 
REMARK   11  A    between atoms: C_30  and  C_31 
REMARK   12  A    between atoms: C_31  and  O_33 
REMARK   13  A    between atoms: C_42  and  C_43 
REMARK   14  A    between atoms: C_43  and  C_44 
REMARK   15  A    between atoms: C_44  and  C_45 
REMARK   16  A    between atoms: C_45  and  O_47 
ROOT
HETATM    1  C   UNK     0     -34.098  17.936  -2.188  0.00  0.00     0.051 C 
HETATM    2  C   UNK     0     -35.085  18.379  -1.127  0.00  0.00    -0.031 A 
HETATM    3  C   UNK     0     -35.722  19.600  -0.972  0.00  0.00     0.021 A 
HETATM    4  N   UNK     0     -36.496  19.556   0.138  0.00  0.00    -0.361 N 
HETATM    5  C   UNK     0     -36.374  18.331   0.689  0.00  0.00     0.022 A 
HETATM    6  C   UNK     0     -35.496  17.570  -0.075  0.00  0.00    -0.027 A 
HETATM    7  C   UNK     0     -37.086  17.741   1.866  0.00  0.00     0.115 C 
HETATM    8  C   UNK     0     -38.575  18.019   1.971  0.00  0.00     0.021 A 
HETATM    9  N   UNK     0     -39.478  18.123   0.983  0.00  0.00    -0.361 N 
HETATM   10  C   UNK     0     -40.662  18.469   1.532  0.00  0.00     0.022 A 
HETATM   11  C   UNK     0     -40.520  18.582   2.912  0.00  0.00    -0.027 A 
HETATM   12  C   UNK     0     -39.208  18.300   3.195  0.00  0.00    -0.031 A 
HETATM   13  C   UNK     0     -38.593  18.295   4.577  0.00  0.00     0.051 C 
HETATM   14  C   UNK     0     -41.955  18.758   0.776  0.00  0.00     0.115 C 
HETATM   15  C   UNK     0     -41.854  19.922  -0.196  0.00  0.00     0.021 A 
HETATM   16  N   UNK     0     -41.009  20.053  -1.236  0.00  0.00    -0.361 N 
HETATM   17  C   UNK     0     -41.188  21.250  -1.799  0.00  0.00     0.022 A 
HETATM   18  C   UNK     0     -42.204  21.929  -1.098  0.00  0.00    -0.027 A 
HETATM   19  C   UNK     0     -42.614  21.086  -0.097  0.00  0.00    -0.031 A 
HETATM   20  C   UNK     0     -43.728  21.414   0.880  0.00  0.00     0.051 C 
HETATM   21  C   UNK     0     -40.447  21.907  -2.942  0.00  0.00     0.115 C 
HETATM   22  C   UNK     0     -38.974  21.605  -3.084  0.00  0.00     0.022 A 
HETATM   23  N   UNK     0     -38.053  21.491  -2.118  0.00  0.00    -0.361 N 
HETATM   24  C   UNK     0     -36.901  21.070  -2.679  0.00  0.00     0.021 A 
HETATM   25  C   UNK     0     -37.082  20.919  -4.040  0.00  0.00    -0.031 A 
HETATM   26  C   UNK     0     -36.077  20.508  -5.095  0.00  0.00     0.051 C 
HETATM   27  C   UNK     0     -38.401  21.255  -4.323  0.00  0.00    -0.027 A 
HETATM   28  C   UNK     0     -35.603  20.711  -1.977  0.00  0.00     0.115 C 
HETATM   29  H   UNK     0     -37.093  20.405   0.546  0.00  0.00     0.165 HD
HETATM   30  H   UNK     0     -39.294  17.904  -0.097  0.00  0.00     0.165 HD
HETATM   31  H   UNK     0     -40.305  19.265  -1.612  0.00  0.00     0.165 HD
HETATM   32  H   UNK     0     -38.195  21.749  -1.036  0.00  0.00     0.165 HD
ENDROOT
BRANCH   6  33
HETATM   33  C   UNK     0     -35.022  16.151   0.117  0.00  0.00     0.051 C 
BRANCH  33  34
HETATM   34  C   UNK     0     -33.614  16.126   0.661  0.00  0.00     0.114 C 
BRANCH  34  35
HETATM   35  C   UNK     0     -33.655  15.416   1.972  0.00  0.00     0.139 C 
HETATM   36  O   UNK     0     -32.592  14.951   2.478  0.00  0.00    -0.650 OA
BRANCH  35  37
HETATM   37  O   UNK     0     -34.831  15.233   2.689  0.00  0.00    -0.776 OA
HETATM   38  H   UNK     0     -35.030  15.751   3.530  0.00  0.00     0.167 HD
ENDBRANCH  35  37
ENDBRANCH  34  35
ENDBRANCH  33  34
ENDBRANCH   6  33
BRANCH  27  39
HETATM   39  C   UNK     0     -38.952  21.282  -5.706  0.00  0.00     0.051 C 
BRANCH  39  40
HETATM   40  C   UNK     0     -39.618  20.082  -6.210  0.00  0.00     0.114 C 
BRANCH  40  41
HETATM   41  C   UNK     0     -40.301  20.058  -7.485  0.00  0.00     0.139 C 
HETATM   42  O   UNK     0     -39.824  19.544  -8.506  0.00  0.00    -0.650 OA
BRANCH  41  43
HETATM   43  O   UNK     0     -41.590  20.652  -7.590  0.00  0.00    -0.776 OA
HETATM   44  H   UNK     0     -42.111  20.680  -6.721  0.00  0.00     0.167 HD
ENDBRANCH  41  43
ENDBRANCH  40  41
ENDBRANCH  39  40
ENDBRANCH  27  39
BRANCH  11  45
HETATM   45  C   UNK     0     -41.561  18.936   3.939  0.00  0.00     0.051 C 
BRANCH  45  46
HETATM   46  C   UNK     0     -42.336  17.773   4.443  0.00  0.00     0.114 C 
BRANCH  46  47
HETATM   47  C   UNK     0     -43.640  18.295   4.943  0.00  0.00     0.139 C 
HETATM   48  O   UNK     0     -43.938  19.473   4.702  0.00  0.00    -0.650 OA
BRANCH  47  49
HETATM   49  O   UNK     0     -44.492  17.490   5.656  0.00  0.00    -0.776 OA
HETATM   50  H   UNK     0     -44.148  16.766   6.298  0.00  0.00     0.167 HD
ENDBRANCH  47  49
ENDBRANCH  46  47
ENDBRANCH  45  46
ENDBRANCH  11  45
BRANCH  18  51
HETATM   51  C   UNK     0     -42.769  23.297  -1.379  0.00  0.00     0.051 C 
BRANCH  51  52
HETATM   52  C   UNK     0     -41.847  24.289  -0.685  0.00  0.00     0.114 C 
BRANCH  52  53
HETATM   53  C   UNK     0     -42.427  24.788   0.577  0.00  0.00     0.139 C 
HETATM   54  O   UNK     0     -43.622  25.122   0.623  0.00  0.00    -0.650 OA
BRANCH  53  55
HETATM   55  O   UNK     0     -41.638  24.884   1.697  0.00  0.00    -0.776 OA
HETATM   56  H   UNK     0     -41.814  25.457   2.488  0.00  0.00     0.167 HD
ENDBRANCH  53  55
ENDBRANCH  52  53
ENDBRANCH  51  52
ENDBRANCH  18  51
TORSDOF 16
ENDMDL
MODEL 19
REMARK VINA RESULT:      -7.0     11.349     16.670
REMARK  16 active torsions:
REMARK  status: ('A' for Active; 'I' for Inactive)
REMARK    1  A    between atoms: C_6  and  C_7 
REMARK    2  A    between atoms: C_7  and  C_8 
REMARK    3  A    between atoms: C_8  and  C_9 
REMARK    4  A    between atoms: C_9  and  O_11 
REMARK    5  A    between atoms: C_16  and  C_17 
REMARK    6  A    between atoms: C_17  and  C_18 
REMARK    7  A    between atoms: C_18  and  C_19 
REMARK    8  A    between atoms: C_19  and  O_21 
REMARK    9  A    between atoms: C_28  and  C_29 
REMARK   10  A    between atoms: C_29  and  C_30 
REMARK   11  A    between atoms: C_30  and  C_31 
REMARK   12  A    between atoms: C_31  and  O_33 
REMARK   13  A    between atoms: C_42  and  C_43 
REMARK   14  A    between atoms: C_43  and  C_44 
REMARK   15  A    between atoms: C_44  and  C_45 
REMARK   16  A    between atoms: C_45  and  O_47 
ROOT
HETATM    1  C   UNK     0     -34.048  19.223  -1.455  0.00  0.00     0.051 C 
HETATM    2  C   UNK     0     -35.217  19.330  -0.497  0.00  0.00    -0.031 A 
HETATM    3  C   UNK     0     -36.314  20.175  -0.539  0.00  0.00     0.021 A 
HETATM    4  N   UNK     0     -37.093  19.942   0.544  0.00  0.00    -0.361 N 
HETATM    5  C   UNK     0     -36.520  18.961   1.271  0.00  0.00     0.022 A 
HETATM    6  C   UNK     0     -35.343  18.557   0.650  0.00  0.00    -0.027 A 
HETATM    7  C   UNK     0     -37.021  18.271   2.502  0.00  0.00     0.115 C 
HETATM    8  C   UNK     0     -38.494  17.902   2.525  0.00  0.00     0.021 A 
HETATM    9  N   UNK     0     -39.269  17.493   1.508  0.00  0.00    -0.361 N 
HETATM   10  C   UNK     0     -40.532  17.368   1.969  0.00  0.00     0.022 A 
HETATM   11  C   UNK     0     -40.569  17.697   3.321  0.00  0.00    -0.027 A 
HETATM   12  C   UNK     0     -39.288  18.033   3.677  0.00  0.00    -0.031 A 
HETATM   13  C   UNK     0     -38.849  18.456   5.061  0.00  0.00     0.051 C 
HETATM   14  C   UNK     0     -41.758  16.988   1.144  0.00  0.00     0.115 C 
HETATM   15  C   UNK     0     -42.067  17.959   0.016  0.00  0.00     0.021 A 
HETATM   16  N   UNK     0     -41.267  18.308  -1.009  0.00  0.00    -0.361 N 
HETATM   17  C   UNK     0     -41.878  19.240  -1.745  0.00  0.00     0.022 A 
HETATM   18  C   UNK     0     -43.141  19.503  -1.177  0.00  0.00    -0.027 A 
HETATM   19  C   UNK     0     -43.247  18.693  -0.076  0.00  0.00    -0.031 A 
HETATM   20  C   UNK     0     -44.477  18.634   0.812  0.00  0.00     0.051 C 
HETATM   21  C   UNK     0     -41.383  20.005  -2.951  0.00  0.00     0.115 C 
HETATM   22  C   UNK     0     -39.911  20.341  -3.008  0.00  0.00     0.022 A 
HETATM   23  N   UNK     0     -39.113  20.746  -2.011  0.00  0.00    -0.361 N 
HETATM   24  C   UNK     0     -37.847  20.789  -2.473  0.00  0.00     0.021 A 
HETATM   25  C   UNK     0     -37.831  20.412  -3.802  0.00  0.00    -0.031 A 
HETATM   26  C   UNK     0     -36.659  20.342  -4.759  0.00  0.00     0.051 C 
HETATM   27  C   UNK     0     -39.140  20.121  -4.167  0.00  0.00    -0.027 A 
HETATM   28  C   UNK     0     -36.583  21.101  -1.692  0.00  0.00     0.115 C 
HETATM   29  H   UNK     0     -38.021  20.500   0.808  0.00  0.00     0.165 HD
HETATM   30  H   UNK     0     -38.919  17.244   0.477  0.00  0.00     0.165 HD
HETATM   31  H   UNK     0     -40.270  17.855  -1.247  0.00  0.00     0.165 HD
HETATM   32  H   UNK     0     -39.443  21.048  -0.983  0.00  0.00     0.165 HD
ENDROOT
BRANCH   6  33
HETATM   33  C   UNK     0     -34.341  17.507   1.059  0.00  0.00     0.051 C 
BRANCH  33  34
HETATM   34  C   UNK     0     -34.734  16.152   0.519  0.00  0.00     0.114 C 
BRANCH  34  35
HETATM   35  C   UNK     0     -33.919  15.131   1.239  0.00  0.00     0.139 C 
HETATM   36  O   UNK     0     -33.158  15.478   2.188  0.00  0.00    -0.650 OA
BRANCH  35  37
HETATM   37  O   UNK     0     -33.955  13.781   0.915  0.00  0.00    -0.776 OA
HETATM   38  H   UNK     0     -33.268  13.357   0.311  0.00  0.00     0.167 HD
ENDBRANCH  35  37
ENDBRANCH  34  35
ENDBRANCH  33  34
ENDBRANCH   6  33
BRANCH  27  39
HETATM   39  C   UNK     0     -39.531  19.744  -5.553  0.00  0.00     0.051 C 
BRANCH  39  40
HETATM   40  C   UNK     0     -39.920  20.809  -6.478  0.00  0.00     0.114 C 
BRANCH  40  41
HETATM   41  C   UNK     0     -41.071  20.693  -7.345  0.00  0.00     0.139 C 
HETATM   42  O   UNK     0     -42.084  21.396  -7.234  0.00  0.00    -0.650 OA
BRANCH  41  43
HETATM   43  O   UNK     0     -41.055  19.725  -8.389  0.00  0.00    -0.776 OA
HETATM   44  H   UNK     0     -40.165  19.637  -8.865  0.00  0.00     0.167 HD
ENDBRANCH  41  43
ENDBRANCH  40  41
ENDBRANCH  39  40
ENDBRANCH  27  39
BRANCH  11  45
HETATM   45  C   UNK     0     -41.747  17.697   4.258  0.00  0.00     0.051 C 
BRANCH  45  46
HETATM   46  C   UNK     0     -42.345  19.039   4.478  0.00  0.00     0.114 C 
BRANCH  46  47
HETATM   47  C   UNK     0     -42.596  19.175   5.942  0.00  0.00     0.139 C 
HETATM   48  O   UNK     0     -43.162  18.246   6.535  0.00  0.00    -0.650 OA
BRANCH  47  49
HETATM   49  O   UNK     0     -42.209  20.304   6.619  0.00  0.00    -0.776 OA
HETATM   50  H   UNK     0     -42.258  21.238   6.194  0.00  0.00     0.167 HD
ENDBRANCH  47  49
ENDBRANCH  46  47
ENDBRANCH  45  46
ENDBRANCH  11  45
BRANCH  18  51
HETATM   51  C   UNK     0     -44.197  20.458  -1.670  0.00  0.00     0.051 C 
BRANCH  51  52
HETATM   52  C   UNK     0     -44.868  19.777  -2.854  0.00  0.00     0.114 C 
BRANCH  52  53
HETATM   53  C   UNK     0     -45.976  18.900  -2.428  0.00  0.00     0.139 C 
HETATM   54  O   UNK     0     -46.919  19.366  -1.769  0.00  0.00    -0.650 OA
BRANCH  53  55
HETATM   55  O   UNK     0     -45.955  17.568  -2.761  0.00  0.00    -0.776 OA
HETATM   56  H   UNK     0     -45.589  16.832  -2.205  0.00  0.00     0.167 HD
ENDBRANCH  53  55
ENDBRANCH  52  53
ENDBRANCH  51  52
ENDBRANCH  18  51
TORSDOF 16
ENDMDL
MODEL 20
REMARK VINA RESULT:      -7.0     12.458     17.639
REMARK  16 active torsions:
REMARK  status: ('A' for Active; 'I' for Inactive)
REMARK    1  A    between atoms: C_6  and  C_7 
REMARK    2  A    between atoms: C_7  and  C_8 
REMARK    3  A    between atoms: C_8  and  C_9 
REMARK    4  A    between atoms: C_9  and  O_11 
REMARK    5  A    between atoms: C_16  and  C_17 
REMARK    6  A    between atoms: C_17  and  C_18 
REMARK    7  A    between atoms: C_18  and  C_19 
REMARK    8  A    between atoms: C_19  and  O_21 
REMARK    9  A    between atoms: C_28  and  C_29 
REMARK   10  A    between atoms: C_29  and  C_30 
REMARK   11  A    between atoms: C_30  and  C_31 
REMARK   12  A    between atoms: C_31  and  O_33 
REMARK   13  A    between atoms: C_42  and  C_43 
REMARK   14  A    between atoms: C_43  and  C_44 
REMARK   15  A    between atoms: C_44  and  C_45 
REMARK   16  A    between atoms: C_45  and  O_47 
ROOT
HETATM    1  C   UNK     0     -41.852  20.967  -4.978  0.00  0.00     0.051 C 
HETATM    2  C   UNK     0     -41.263  20.857  -3.587  0.00  0.00    -0.031 A 
HETATM    3  C   UNK     0     -41.782  21.284  -2.375  0.00  0.00     0.021 A 
HETATM    4  N   UNK     0     -40.894  21.005  -1.391  0.00  0.00    -0.361 N 
HETATM    5  C   UNK     0     -39.824  20.401  -1.949  0.00  0.00     0.022 A 
HETATM    6  C   UNK     0     -40.020  20.295  -3.322  0.00  0.00    -0.027 A 
HETATM    7  C   UNK     0     -38.615  19.812  -1.293  0.00  0.00     0.115 C 
HETATM    8  C   UNK     0     -38.851  18.999  -0.032  0.00  0.00     0.021 A 
HETATM    9  N   UNK     0     -39.883  18.194   0.263  0.00  0.00    -0.361 N 
HETATM   10  C   UNK     0     -39.722  17.752   1.528  0.00  0.00     0.022 A 
HETATM   11  C   UNK     0     -38.549  18.279   2.060  0.00  0.00    -0.027 A 
HETATM   12  C   UNK     0     -37.995  19.066   1.082  0.00  0.00    -0.031 A 
HETATM   13  C   UNK     0     -36.703  19.841   1.212  0.00  0.00     0.051 C 
HETATM   14  C   UNK     0     -40.690  16.861   2.301  0.00  0.00     0.115 C 
HETATM   15  C   UNK     0     -42.070  17.470   2.491  0.00  0.00     0.021 A 
HETATM   16  N   UNK     0     -42.928  17.874   1.536  0.00  0.00    -0.361 N 
HETATM   17  C   UNK     0     -44.002  18.418   2.113  0.00  0.00     0.022 A 
HETATM   18  C   UNK     0     -43.841  18.355   3.511  0.00  0.00    -0.027 A 
HETATM   19  C   UNK     0     -42.627  17.759   3.735  0.00  0.00    -0.031 A 
HETATM   20  C   UNK     0     -42.075  17.462   5.118  0.00  0.00     0.051 C 
HETATM   21  C   UNK     0     -45.209  19.080   1.489  0.00  0.00     0.115 C 
HETATM   22  C   UNK     0     -44.996  19.856   0.210  0.00  0.00     0.022 A 
HETATM   23  N   UNK     0     -43.977  20.662  -0.112  0.00  0.00    -0.361 N 
HETATM   24  C   UNK     0     -44.117  21.028  -1.402  0.00  0.00     0.021 A 
HETATM   25  C   UNK     0     -45.261  20.452  -1.920  0.00  0.00    -0.031 A 
HETATM   26  C   UNK     0     -45.858  20.597  -3.304  0.00  0.00     0.051 C 
HETATM   27  C   UNK     0     -45.841  19.697  -0.907  0.00  0.00    -0.027 A 
HETATM   28  C   UNK     0     -43.163  21.861  -2.241  0.00  0.00     0.115 C 
HETATM   29  H   UNK     0     -41.012  21.272  -0.315  0.00  0.00     0.165 HD
HETATM   30  H   UNK     0     -40.701  17.895  -0.438  0.00  0.00     0.165 HD
HETATM   31  H   UNK     0     -42.795  17.731   0.432  0.00  0.00     0.165 HD
HETATM   32  H   UNK     0     -43.170  21.016   0.582  0.00  0.00     0.165 HD
ENDROOT
BRANCH   6  33
HETATM   33  C   UNK     0     -39.127  19.711  -4.387  0.00  0.00     0.051 C 
BRANCH  33  34
HETATM   34  C   UNK     0     -37.967  20.633  -4.678  0.00  0.00     0.114 C 
BRANCH  34  35
HETATM   35  C   UNK     0     -36.728  19.804  -4.684  0.00  0.00     0.139 C 
HETATM   36  O   UNK     0     -35.591  20.358  -4.680  0.00  0.00    -0.650 OA
BRANCH  35  37
HETATM   37  O   UNK     0     -36.756  18.415  -4.691  0.00  0.00    -0.776 OA
HETATM   38  H   UNK     0     -37.335  17.888  -4.055  0.00  0.00     0.167 HD
ENDBRANCH  35  37
ENDBRANCH  34  35
ENDBRANCH  33  34
ENDBRANCH   6  33
BRANCH  27  39
HETATM   39  C   UNK     0     -47.135  18.981  -1.070  0.00  0.00     0.051 C 
BRANCH  39  40
HETATM   40  C   UNK     0     -47.105  17.541  -1.327  0.00  0.00     0.114 C 
BRANCH  40  41
HETATM   41  C   UNK     0     -47.472  16.979  -2.607  0.00  0.00     0.139 C 
HETATM   42  O   UNK     0     -48.531  16.369  -2.807  0.00  0.00    -0.650 OA
BRANCH  41  43
HETATM   43  O   UNK     0     -46.580  17.125  -3.707  0.00  0.00    -0.776 OA
HETATM   44  H   UNK     0     -45.675  17.510  -3.465  0.00  0.00     0.167 HD
ENDBRANCH  41  43
ENDBRANCH  40  41
ENDBRANCH  39  40
ENDBRANCH  27  39
BRANCH  11  45
HETATM   45  C   UNK     0     -37.954  18.064   3.425  0.00  0.00     0.051 C 
BRANCH  45  46
HETATM   46  C   UNK     0     -37.510  16.670   3.680  0.00  0.00     0.114 C 
BRANCH  46  47
HETATM   47  C   UNK     0     -36.054  16.606   3.367  0.00  0.00     0.139 C 
HETATM   48  O   UNK     0     -35.245  16.604   4.306  0.00  0.00    -0.650 OA
BRANCH  47  49
HETATM   49  O   UNK     0     -35.616  16.552   2.068  0.00  0.00    -0.776 OA
HETATM   50  H   UNK     0     -34.849  17.143   1.726  0.00  0.00     0.167 HD
ENDBRANCH  47  49
ENDBRANCH  46  47
ENDBRANCH  45  46
ENDBRANCH  11  45
BRANCH  18  51
HETATM   51  C   UNK     0     -44.800  18.820   4.576  0.00  0.00     0.051 C 
BRANCH  51  52
HETATM   52  C   UNK     0     -44.313  20.192   5.019  0.00  0.00     0.114 C 
BRANCH  52  53
HETATM   53  C   UNK     0     -43.932  20.205   6.445  0.00  0.00     0.139 C 
HETATM   54  O   UNK     0     -44.283  19.277   7.191  0.00  0.00    -0.650 OA
BRANCH  53  55
HETATM   55  O   UNK     0     -43.192  21.251   6.941  0.00  0.00    -0.776 OA
HETATM   56  H   UNK     0     -43.039  22.123   6.491  0.00  0.00     0.167 HD
ENDBRANCH  53  55
ENDBRANCH  52  53
ENDBRANCH  51  52
ENDBRANCH  18  51
TORSDOF 16
ENDMDL
