MODEL 1
REMARK VINA RESULT:      -8.9      0.000      0.000
REMARK  16 active torsions:
REMARK  status: ('A' for Active; 'I' for Inactive)
REMARK    1  A    between atoms: C_6  and  C_7 
REMARK    2  A    between atoms: C_7  and  C_8 
REMARK    3  A    between atoms: C_8  and  C_9 
REMARK    4  A    between atoms: C_9  and  O_11 
REMARK    5  A    between atoms: C_16  and  C_17 
REMARK    6  A    between atoms: C_17  and  C_18 
REMARK    7  A    between atoms: C_18  and  C_19 
REMARK    8  A    between atoms: C_19  and  O_21 
REMARK    9  A    between atoms: C_28  and  C_29 
REMARK   10  A    between atoms: C_29  and  C_30 
REMARK   11  A    between atoms: C_30  and  C_31 
REMARK   12  A    between atoms: C_31  and  O_33 
REMARK   13  A    between atoms: C_42  and  C_43 
REMARK   14  A    between atoms: C_43  and  C_44 
REMARK   15  A    between atoms: C_44  and  C_45 
REMARK   16  A    between atoms: C_45  and  O_47 
ROOT
HETATM    1  C   UNK     0     -30.875   4.823   5.302  0.00  0.00     0.051 C 
HETATM    2  C   UNK     0     -31.718   6.071   5.471  0.00  0.00    -0.031 A 
HETATM    3  C   UNK     0     -31.330   7.352   5.831  0.00  0.00     0.021 A 
HETATM    4  N   UNK     0     -32.427   8.145   5.889  0.00  0.00    -0.361 N 
HETATM    5  C   UNK     0     -33.503   7.399   5.565  0.00  0.00     0.022 A 
HETATM    6  C   UNK     0     -33.096   6.096   5.301  0.00  0.00    -0.027 A 
HETATM    7  C   UNK     0     -34.931   7.814   5.391  0.00  0.00     0.115 C 
HETATM    8  C   UNK     0     -35.177   9.115   4.647  0.00  0.00     0.021 A 
HETATM    9  N   UNK     0     -34.494   9.627   3.611  0.00  0.00    -0.361 N 
HETATM   10  C   UNK     0     -35.007  10.845   3.333  0.00  0.00     0.022 A 
HETATM   11  C   UNK     0     -36.054  11.120   4.207  0.00  0.00    -0.027 A 
HETATM   12  C   UNK     0     -36.167  10.034   5.038  0.00  0.00    -0.031 A 
HETATM   13  C   UNK     0     -37.180   9.885   6.150  0.00  0.00     0.051 C 
HETATM   14  C   UNK     0     -34.498  11.816   2.271  0.00  0.00     0.115 C 
HETATM   15  C   UNK     0     -33.061  12.263   2.484  0.00  0.00     0.021 A 
HETATM   16  N   UNK     0     -31.962  11.489   2.557  0.00  0.00    -0.361 N 
HETATM   17  C   UNK     0     -30.902  12.257   2.822  0.00  0.00     0.022 A 
HETATM   18  C   UNK     0     -31.330  13.596   2.918  0.00  0.00    -0.027 A 
HETATM   19  C   UNK     0     -32.684  13.587   2.703  0.00  0.00    -0.031 A 
HETATM   20  C   UNK     0     -33.543  14.837   2.683  0.00  0.00     0.051 C 
HETATM   21  C   UNK     0     -29.461  11.872   3.071  0.00  0.00     0.115 C 
HETATM   22  C   UNK     0     -29.201  10.559   3.771  0.00  0.00     0.022 A 
HETATM   23  N   UNK     0     -29.866  10.021   4.802  0.00  0.00    -0.361 N 
HETATM   24  C   UNK     0     -29.390   8.778   5.011  0.00  0.00     0.021 A 
HETATM   25  C   UNK     0     -28.387   8.511   4.100  0.00  0.00    -0.031 A 
HETATM   26  C   UNK     0     -27.528   7.271   3.963  0.00  0.00     0.051 C 
HETATM   27  C   UNK     0     -28.247   9.636   3.295  0.00  0.00    -0.027 A 
HETATM   28  C   UNK     0     -29.891   7.746   6.008  0.00  0.00     0.115 C 
HETATM   29  H   UNK     0     -32.437   9.216   6.196  0.00  0.00     0.165 HD
HETATM   30  H   UNK     0     -33.683   9.111   3.042  0.00  0.00     0.165 HD
HETATM   31  H   UNK     0     -31.924  10.385   2.369  0.00  0.00     0.165 HD
HETATM   32  H   UNK     0     -30.650  10.532   5.420  0.00  0.00     0.165 HD
ENDROOT
BRANCH   6  33
HETATM   33  C   UNK     0     -33.907   4.887   4.907  0.00  0.00     0.051 C 
BRANCH  33  34
HETATM   34  C   UNK     0     -34.764   4.419   6.059  0.00  0.00     0.114 C 
BRANCH  34  35
HETATM   35  C   UNK     0     -33.942   3.477   6.872  0.00  0.00     0.139 C 
HETATM   36  O   UNK     0     -33.392   3.872   7.941  0.00  0.00    -0.650 OA
BRANCH  35  37
HETATM   37  O   UNK     0     -33.744   2.150   6.510  0.00  0.00    -0.776 OA
HETATM   38  H   UNK     0     -33.051   1.879   5.832  0.00  0.00     0.167 HD
ENDBRANCH  35  37
ENDBRANCH  34  35
ENDBRANCH  33  34
ENDBRANCH   6  33
BRANCH  27  39
HETATM   39  C   UNK     0     -27.208   9.751   2.236  0.00  0.00     0.051 C 
BRANCH  39  40
HETATM   40  C   UNK     0     -27.600   9.499   0.849  0.00  0.00     0.114 C 
BRANCH  40  41
HETATM   41  C   UNK     0     -28.216   8.258   0.436  0.00  0.00     0.139 C 
HETATM   42  O   UNK     0     -27.603   7.349  -0.140  0.00  0.00    -0.650 OA
BRANCH  41  43
HETATM   43  O   UNK     0     -29.600   8.053   0.698  0.00  0.00    -0.776 OA
HETATM   44  H   UNK     0     -30.124   7.681  -0.086  0.00  0.00     0.167 HD
ENDBRANCH  41  43
ENDBRANCH  40  41
ENDBRANCH  39  40
ENDBRANCH  27  39
BRANCH  11  45
HETATM   45  C   UNK     0     -36.927  12.344   4.275  0.00  0.00     0.051 C 
BRANCH  45  46
HETATM   46  C   UNK     0     -37.973  12.401   3.222  0.00  0.00     0.114 C 
BRANCH  46  47
HETATM   47  C   UNK     0     -39.235  12.850   3.877  0.00  0.00     0.139 C 
HETATM   48  O   UNK     0     -39.345  12.718   5.105  0.00  0.00    -0.650 OA
BRANCH  47  49
HETATM   49  O   UNK     0     -40.255  13.395   3.139  0.00  0.00    -0.776 OA
HETATM   50  H   UNK     0     -41.215  13.034   3.186  0.00  0.00     0.167 HD
ENDBRANCH  47  49
ENDBRANCH  46  47
ENDBRANCH  45  46
ENDBRANCH  11  45
BRANCH  18  51
HETATM   51  C   UNK     0     -30.491  14.820   3.179  0.00  0.00     0.051 C 
BRANCH  51  52
HETATM   52  C   UNK     0     -29.925  15.244   1.832  0.00  0.00     0.114 C 
BRANCH  52  53
HETATM   53  C   UNK     0     -30.548  16.488   1.341  0.00  0.00     0.139 C 
HETATM   54  O   UNK     0     -31.258  16.468   0.323  0.00  0.00    -0.650 OA
BRANCH  53  55
HETATM   55  O   UNK     0     -30.336  17.666   2.015  0.00  0.00    -0.776 OA
HETATM   56  H   UNK     0     -31.035  18.239   2.425  0.00  0.00     0.167 HD
ENDBRANCH  53  55
ENDBRANCH  52  53
ENDBRANCH  51  52
ENDBRANCH  18  51
TORSDOF 16
ENDMDL
MODEL 2
REMARK VINA RESULT:      -8.4     22.617     26.595
REMARK  16 active torsions:
REMARK  status: ('A' for Active; 'I' for Inactive)
REMARK    1  A    between atoms: C_6  and  C_7 
REMARK    2  A    between atoms: C_7  and  C_8 
REMARK    3  A    between atoms: C_8  and  C_9 
REMARK    4  A    between atoms: C_9  and  O_11 
REMARK    5  A    between atoms: C_16  and  C_17 
REMARK    6  A    between atoms: C_17  and  C_18 
REMARK    7  A    between atoms: C_18  and  C_19 
REMARK    8  A    between atoms: C_19  and  O_21 
REMARK    9  A    between atoms: C_28  and  C_29 
REMARK   10  A    between atoms: C_29  and  C_30 
REMARK   11  A    between atoms: C_30  and  C_31 
REMARK   12  A    between atoms: C_31  and  O_33 
REMARK   13  A    between atoms: C_42  and  C_43 
REMARK   14  A    between atoms: C_43  and  C_44 
REMARK   15  A    between atoms: C_44  and  C_45 
REMARK   16  A    between atoms: C_45  and  O_47 
ROOT
HETATM    1  C   UNK     0     -23.343  23.863  15.499  0.00  0.00     0.051 C 
HETATM    2  C   UNK     0     -22.483  24.904  16.186  0.00  0.00    -0.031 A 
HETATM    3  C   UNK     0     -22.168  26.192  15.782  0.00  0.00     0.021 A 
HETATM    4  N   UNK     0     -21.340  26.751  16.696  0.00  0.00    -0.361 N 
HETATM    5  C   UNK     0     -21.127  25.851  17.678  0.00  0.00     0.022 A 
HETATM    6  C   UNK     0     -21.825  24.683  17.389  0.00  0.00    -0.027 A 
HETATM    7  C   UNK     0     -20.369  26.002  18.960  0.00  0.00     0.115 C 
HETATM    8  C   UNK     0     -20.568  27.301  19.721  0.00  0.00     0.021 A 
HETATM    9  N   UNK     0     -21.684  28.037  19.841  0.00  0.00    -0.361 N 
HETATM   10  C   UNK     0     -21.375  29.157  20.529  0.00  0.00     0.022 A 
HETATM   11  C   UNK     0     -20.025  29.137  20.869  0.00  0.00    -0.027 A 
HETATM   12  C   UNK     0     -19.511  27.970  20.363  0.00  0.00    -0.031 A 
HETATM   13  C   UNK     0     -18.074  27.518  20.496  0.00  0.00     0.051 C 
HETATM   14  C   UNK     0     -22.322  30.310  20.846  0.00  0.00     0.115 C 
HETATM   15  C   UNK     0     -22.887  30.999  19.614  0.00  0.00     0.021 A 
HETATM   16  N   UNK     0     -23.609  30.445  18.622  0.00  0.00    -0.361 N 
HETATM   17  C   UNK     0     -23.854  31.369  17.689  0.00  0.00     0.022 A 
HETATM   18  C   UNK     0     -23.272  32.585  18.098  0.00  0.00    -0.027 A 
HETATM   19  C   UNK     0     -22.671  32.341  19.306  0.00  0.00    -0.031 A 
HETATM   20  C   UNK     0     -21.951  33.400  20.120  0.00  0.00     0.051 C 
HETATM   21  C   UNK     0     -24.555  31.242  16.356  0.00  0.00     0.115 C 
HETATM   22  C   UNK     0     -24.402  29.938  15.609  0.00  0.00     0.022 A 
HETATM   23  N   UNK     0     -23.305  29.182  15.476  0.00  0.00    -0.361 N 
HETATM   24  C   UNK     0     -23.653  28.036  14.855  0.00  0.00     0.021 A 
HETATM   25  C   UNK     0     -25.005  28.060  14.573  0.00  0.00    -0.031 A 
HETATM   26  C   UNK     0     -25.847  27.027  13.853  0.00  0.00     0.051 C 
HETATM   27  C   UNK     0     -25.507  29.268  15.045  0.00  0.00    -0.027 A 
HETATM   28  C   UNK     0     -22.774  26.832  14.565  0.00  0.00     0.115 C 
HETATM   29  H   UNK     0     -20.881  27.764  16.621  0.00  0.00     0.165 HD
HETATM   30  H   UNK     0     -22.702  27.746  19.484  0.00  0.00     0.165 HD
HETATM   31  H   UNK     0     -23.995  29.393  18.600  0.00  0.00     0.165 HD
HETATM   32  H   UNK     0     -22.265  29.468  15.780  0.00  0.00     0.165 HD
ENDROOT
BRANCH   6  33
HETATM   33  C   UNK     0     -21.911  23.389  18.159  0.00  0.00     0.051 C 
BRANCH  33  34
HETATM   34  C   UNK     0     -20.559  22.720  18.233  0.00  0.00     0.114 C 
BRANCH  34  35
HETATM   35  C   UNK     0     -20.102  22.480  16.834  0.00  0.00     0.139 C 
HETATM   36  O   UNK     0     -18.958  22.873  16.461  0.00  0.00    -0.650 OA
BRANCH  35  37
HETATM   37  O   UNK     0     -20.886  21.826  15.892  0.00  0.00    -0.776 OA
HETATM   38  H   UNK     0     -20.495  21.172  15.233  0.00  0.00     0.167 HD
ENDBRANCH  35  37
ENDBRANCH  34  35
ENDBRANCH  33  34
ENDBRANCH   6  33
BRANCH  27  39
HETATM   39  C   UNK     0     -26.922  29.686  14.858  0.00  0.00     0.051 C 
BRANCH  39  40
HETATM   40  C   UNK     0     -27.892  29.340  15.897  0.00  0.00     0.114 C 
BRANCH  40  41
HETATM   41  C   UNK     0     -27.884  29.971  17.198  0.00  0.00     0.139 C 
HETATM   42  O   UNK     0     -27.316  29.490  18.188  0.00  0.00    -0.650 OA
BRANCH  41  43
HETATM   43  O   UNK     0     -28.562  31.212  17.368  0.00  0.00    -0.776 OA
HETATM   44  H   UNK     0     -29.523  31.212  17.049  0.00  0.00     0.167 HD
ENDBRANCH  41  43
ENDBRANCH  40  41
ENDBRANCH  39  40
ENDBRANCH  27  39
BRANCH  11  45
HETATM   45  C   UNK     0     -19.233  30.159  21.640  0.00  0.00     0.051 C 
BRANCH  45  46
HETATM   46  C   UNK     0     -19.611  30.265  23.072  0.00  0.00     0.114 C 
BRANCH  46  47
HETATM   47  C   UNK     0     -19.339  31.667  23.498  0.00  0.00     0.139 C 
HETATM   48  O   UNK     0     -18.198  32.123  23.341  0.00  0.00    -0.650 OA
BRANCH  47  49
HETATM   49  O   UNK     0     -20.330  32.438  24.053  0.00  0.00    -0.776 OA
HETATM   50  H   UNK     0     -20.398  32.591  25.066  0.00  0.00     0.167 HD
ENDBRANCH  47  49
ENDBRANCH  46  47
ENDBRANCH  45  46
ENDBRANCH  11  45
BRANCH  18  51
HETATM   51  C   UNK     0     -23.305  33.913  17.388  0.00  0.00     0.051 C 
BRANCH  51  52
HETATM   52  C   UNK     0     -22.110  33.923  16.446  0.00  0.00     0.114 C 
BRANCH  52  53
HETATM   53  C   UNK     0     -21.267  35.118  16.640  0.00  0.00     0.139 C 
HETATM   54  O   UNK     0     -21.509  36.159  16.008  0.00  0.00    -0.650 OA
BRANCH  53  55
HETATM   55  O   UNK     0     -20.213  35.070  17.520  0.00  0.00    -0.776 OA
HETATM   56  H   UNK     0     -19.808  34.248  17.902  0.00  0.00     0.167 HD
ENDBRANCH  53  55
ENDBRANCH  52  53
ENDBRANCH  51  52
ENDBRANCH  18  51
TORSDOF 16
ENDMDL
MODEL 3
REMARK VINA RESULT:      -8.1     21.465     25.398
REMARK  16 active torsions:
REMARK  status: ('A' for Active; 'I' for Inactive)
REMARK    1  A    between atoms: C_6  and  C_7 
REMARK    2  A    between atoms: C_7  and  C_8 
REMARK    3  A    between atoms: C_8  and  C_9 
REMARK    4  A    between atoms: C_9  and  O_11 
REMARK    5  A    between atoms: C_16  and  C_17 
REMARK    6  A    between atoms: C_17  and  C_18 
REMARK    7  A    between atoms: C_18  and  C_19 
REMARK    8  A    between atoms: C_19  and  O_21 
REMARK    9  A    between atoms: C_28  and  C_29 
REMARK   10  A    between atoms: C_29  and  C_30 
REMARK   11  A    between atoms: C_30  and  C_31 
REMARK   12  A    between atoms: C_31  and  O_33 
REMARK   13  A    between atoms: C_42  and  C_43 
REMARK   14  A    between atoms: C_43  and  C_44 
REMARK   15  A    between atoms: C_44  and  C_45 
REMARK   16  A    between atoms: C_45  and  O_47 
ROOT
HETATM    1  C   UNK     0     -19.068  26.220  21.513  0.00  0.00     0.051 C 
HETATM    2  C   UNK     0     -19.673  27.273  20.606  0.00  0.00    -0.031 A 
HETATM    3  C   UNK     0     -19.818  27.268  19.228  0.00  0.00     0.021 A 
HETATM    4  N   UNK     0     -20.386  28.435  18.840  0.00  0.00    -0.361 N 
HETATM    5  C   UNK     0     -20.613  29.179  19.942  0.00  0.00     0.022 A 
HETATM    6  C   UNK     0     -20.177  28.483  21.064  0.00  0.00    -0.027 A 
HETATM    7  C   UNK     0     -21.302  30.502  20.072  0.00  0.00     0.115 C 
HETATM    8  C   UNK     0     -22.571  30.692  19.259  0.00  0.00     0.021 A 
HETATM    9  N   UNK     0     -23.518  29.788  18.964  0.00  0.00    -0.361 N 
HETATM   10  C   UNK     0     -24.414  30.374  18.141  0.00  0.00     0.022 A 
HETATM   11  C   UNK     0     -24.039  31.694  17.908  0.00  0.00    -0.027 A 
HETATM   12  C   UNK     0     -22.879  31.901  18.610  0.00  0.00    -0.031 A 
HETATM   13  C   UNK     0     -22.106  33.200  18.657  0.00  0.00     0.051 C 
HETATM   14  C   UNK     0     -25.626  29.701  17.503  0.00  0.00     0.115 C 
HETATM   15  C   UNK     0     -25.274  28.534  16.593  0.00  0.00     0.021 A 
HETATM   16  N   UNK     0     -24.600  27.415  16.917  0.00  0.00    -0.361 N 
HETATM   17  C   UNK     0     -24.436  26.669  15.822  0.00  0.00     0.022 A 
HETATM   18  C   UNK     0     -25.039  27.331  14.734  0.00  0.00    -0.027 A 
HETATM   19  C   UNK     0     -25.561  28.497  15.231  0.00  0.00    -0.031 A 
HETATM   20  C   UNK     0     -26.335  29.499  14.394  0.00  0.00     0.051 C 
HETATM   21  C   UNK     0     -23.692  25.366  15.636  0.00  0.00     0.115 C 
HETATM   22  C   UNK     0     -22.453  25.145  16.471  0.00  0.00     0.022 A 
HETATM   23  N   UNK     0     -21.495  26.027  16.784  0.00  0.00    -0.361 N 
HETATM   24  C   UNK     0     -20.656  25.446  17.666  0.00  0.00     0.021 A 
HETATM   25  C   UNK     0     -21.079  24.155  17.918  0.00  0.00    -0.031 A 
HETATM   26  C   UNK     0     -20.445  23.100  18.801  0.00  0.00     0.051 C 
HETATM   27  C   UNK     0     -22.227  23.939  17.164  0.00  0.00    -0.027 A 
HETATM   28  C   UNK     0     -19.473  26.078  18.378  0.00  0.00     0.115 C 
HETATM   29  H   UNK     0     -20.585  28.741  17.787  0.00  0.00     0.165 HD
HETATM   30  H   UNK     0     -23.584  28.751  19.374  0.00  0.00     0.165 HD
HETATM   31  H   UNK     0     -24.276  27.120  17.949  0.00  0.00     0.165 HD
HETATM   32  H   UNK     0     -21.377  27.055  16.353  0.00  0.00     0.165 HD
ENDROOT
BRANCH   6  33
HETATM   33  C   UNK     0     -20.199  28.877  22.520  0.00  0.00     0.051 C 
BRANCH  33  34
HETATM   34  C   UNK     0     -18.953  29.648  22.885  0.00  0.00     0.114 C 
BRANCH  34  35
HETATM   35  C   UNK     0     -19.356  31.066  23.109  0.00  0.00     0.139 C 
HETATM   36  O   UNK     0     -20.549  31.348  23.422  0.00  0.00    -0.650 OA
BRANCH  35  37
HETATM   37  O   UNK     0     -18.464  32.126  22.993  0.00  0.00    -0.776 OA
HETATM   38  H   UNK     0     -18.148  32.649  23.794  0.00  0.00     0.167 HD
ENDBRANCH  35  37
ENDBRANCH  34  35
ENDBRANCH  33  34
ENDBRANCH   6  33
BRANCH  27  39
HETATM   39  C   UNK     0     -22.933  22.629  17.120  0.00  0.00     0.051 C 
BRANCH  39  40
HETATM   40  C   UNK     0     -22.682  21.744  15.983  0.00  0.00     0.114 C 
BRANCH  40  41
HETATM   41  C   UNK     0     -23.264  21.978  14.681  0.00  0.00     0.139 C 
HETATM   42  O   UNK     0     -24.466  21.818  14.430  0.00  0.00    -0.650 OA
BRANCH  41  43
HETATM   43  O   UNK     0     -22.424  22.416  13.617  0.00  0.00    -0.776 OA
HETATM   44  H   UNK     0     -21.638  21.807  13.426  0.00  0.00     0.167 HD
ENDBRANCH  41  43
ENDBRANCH  40  41
ENDBRANCH  39  40
ENDBRANCH  27  39
BRANCH  11  45
HETATM   45  C   UNK     0     -24.728  32.735  17.068  0.00  0.00     0.051 C 
BRANCH  45  46
HETATM   46  C   UNK     0     -24.549  32.549  15.605  0.00  0.00     0.114 C 
BRANCH  46  47
HETATM   47  C   UNK     0     -24.014  33.830  15.060  0.00  0.00     0.139 C 
HETATM   48  O   UNK     0     -24.665  34.419  14.186  0.00  0.00    -0.650 OA
BRANCH  47  49
HETATM   49  O   UNK     0     -22.826  34.345  15.514  0.00  0.00    -0.776 OA
HETATM   50  H   UNK     0     -22.010  34.455  14.901  0.00  0.00     0.167 HD
ENDBRANCH  47  49
ENDBRANCH  46  47
ENDBRANCH  45  46
ENDBRANCH  11  45
BRANCH  18  51
HETATM   51  C   UNK     0     -25.132  26.867  13.304  0.00  0.00     0.051 C 
BRANCH  51  52
HETATM   52  C   UNK     0     -26.369  25.985  13.221  0.00  0.00     0.114 C 
BRANCH  52  53
HETATM   53  C   UNK     0     -26.027  24.588  12.893  0.00  0.00     0.139 C 
HETATM   54  O   UNK     0     -26.905  23.711  12.920  0.00  0.00    -0.650 OA
BRANCH  53  55
HETATM   55  O   UNK     0     -24.734  24.264  12.562  0.00  0.00    -0.776 OA
HETATM   56  H   UNK     0     -24.396  24.068  11.649  0.00  0.00     0.167 HD
ENDBRANCH  53  55
ENDBRANCH  52  53
ENDBRANCH  51  52
ENDBRANCH  18  51
TORSDOF 16
ENDMDL
MODEL 4
REMARK VINA RESULT:      -8.0      2.408      8.036
REMARK  16 active torsions:
REMARK  status: ('A' for Active; 'I' for Inactive)
REMARK    1  A    between atoms: C_6  and  C_7 
REMARK    2  A    between atoms: C_7  and  C_8 
REMARK    3  A    between atoms: C_8  and  C_9 
REMARK    4  A    between atoms: C_9  and  O_11 
REMARK    5  A    between atoms: C_16  and  C_17 
REMARK    6  A    between atoms: C_17  and  C_18 
REMARK    7  A    between atoms: C_18  and  C_19 
REMARK    8  A    between atoms: C_19  and  O_21 
REMARK    9  A    between atoms: C_28  and  C_29 
REMARK   10  A    between atoms: C_29  and  C_30 
REMARK   11  A    between atoms: C_30  and  C_31 
REMARK   12  A    between atoms: C_31  and  O_33 
REMARK   13  A    between atoms: C_42  and  C_43 
REMARK   14  A    between atoms: C_43  and  C_44 
REMARK   15  A    between atoms: C_44  and  C_45 
REMARK   16  A    between atoms: C_45  and  O_47 
ROOT
HETATM    1  C   UNK     0     -26.548  10.559   2.483  0.00  0.00     0.051 C 
HETATM    2  C   UNK     0     -28.052  10.399   2.392  0.00  0.00    -0.031 A 
HETATM    3  C   UNK     0     -28.798   9.286   2.037  0.00  0.00     0.021 A 
HETATM    4  N   UNK     0     -30.113   9.611   2.063  0.00  0.00    -0.361 N 
HETATM    5  C   UNK     0     -30.221  10.903   2.435  0.00  0.00     0.022 A 
HETATM    6  C   UNK     0     -28.950  11.428   2.646  0.00  0.00    -0.027 A 
HETATM    7  C   UNK     0     -31.447  11.717   2.705  0.00  0.00     0.115 C 
HETATM    8  C   UNK     0     -32.556  11.039   3.490  0.00  0.00     0.021 A 
HETATM    9  N   UNK     0     -32.449  10.154   4.494  0.00  0.00    -0.361 N 
HETATM   10  C   UNK     0     -33.692   9.748   4.829  0.00  0.00     0.022 A 
HETATM   11  C   UNK     0     -34.626  10.397   4.026  0.00  0.00    -0.027 A 
HETATM   12  C   UNK     0     -33.917  11.211   3.180  0.00  0.00    -0.031 A 
HETATM   13  C   UNK     0     -34.519  12.116   2.129  0.00  0.00     0.051 C 
HETATM   14  C   UNK     0     -34.045   8.698   5.879  0.00  0.00     0.115 C 
HETATM   15  C   UNK     0     -33.471   7.321   5.589  0.00  0.00     0.021 A 
HETATM   16  N   UNK     0     -32.177   6.986   5.433  0.00  0.00    -0.361 N 
HETATM   17  C   UNK     0     -32.093   5.691   5.120  0.00  0.00     0.022 A 
HETATM   18  C   UNK     0     -33.395   5.154   5.080  0.00  0.00    -0.027 A 
HETATM   19  C   UNK     0     -34.249   6.184   5.376  0.00  0.00    -0.031 A 
HETATM   20  C   UNK     0     -35.756   6.030   5.475  0.00  0.00     0.051 C 
HETATM   21  C   UNK     0     -30.884   4.850   4.777  0.00  0.00     0.115 C 
HETATM   22  C   UNK     0     -29.755   5.524   4.033  0.00  0.00     0.022 A 
HETATM   23  N   UNK     0     -29.832   6.411   3.033  0.00  0.00    -0.361 N 
HETATM   24  C   UNK     0     -28.588   6.860   2.769  0.00  0.00     0.021 A 
HETATM   25  C   UNK     0     -27.687   6.239   3.612  0.00  0.00    -0.031 A 
HETATM   26  C   UNK     0     -26.181   6.382   3.669  0.00  0.00     0.051 C 
HETATM   27  C   UNK     0     -28.410   5.378   4.430  0.00  0.00    -0.027 A 
HETATM   28  C   UNK     0     -28.181   7.941   1.782  0.00  0.00     0.115 C 
HETATM   29  H   UNK     0     -30.954   8.936   1.780  0.00  0.00     0.165 HD
HETATM   30  H   UNK     0     -31.501   9.852   5.001  0.00  0.00     0.165 HD
HETATM   31  H   UNK     0     -31.300   7.666   5.594  0.00  0.00     0.165 HD
HETATM   32  H   UNK     0     -30.761   6.698   2.475  0.00  0.00     0.165 HD
ENDROOT
BRANCH   6  33
HETATM   33  C   UNK     0     -28.529  12.814   3.062  0.00  0.00     0.051 C 
BRANCH  33  34
HETATM   34  C   UNK     0     -28.730  13.796   1.932  0.00  0.00     0.114 C 
BRANCH  34  35
HETATM   35  C   UNK     0     -29.615  14.885   2.438  0.00  0.00     0.139 C 
HETATM   36  O   UNK     0     -30.108  14.816   3.601  0.00  0.00    -0.650 OA
BRANCH  35  37
HETATM   37  O   UNK     0     -29.934  16.004   1.679  0.00  0.00    -0.776 OA
HETATM   38  H   UNK     0     -30.484  15.941   0.838  0.00  0.00     0.167 HD
ENDBRANCH  35  37
ENDBRANCH  34  35
ENDBRANCH  33  34
ENDBRANCH   6  33
BRANCH  27  39
HETATM   39  C   UNK     0     -27.769   4.478   5.427  0.00  0.00     0.051 C 
BRANCH  39  40
HETATM   40  C   UNK     0     -27.332   3.154   4.986  0.00  0.00     0.114 C 
BRANCH  40  41
HETATM   41  C   UNK     0     -27.108   2.068   5.914  0.00  0.00     0.139 C 
HETATM   42  O   UNK     0     -27.754   1.011   5.899  0.00  0.00    -0.650 OA
BRANCH  41  43
HETATM   43  O   UNK     0     -26.095   2.204   6.905  0.00  0.00    -0.776 OA
HETATM   44  H   UNK     0     -26.323   2.848   7.652  0.00  0.00     0.167 HD
ENDBRANCH  41  43
ENDBRANCH  40  41
ENDBRANCH  39  40
ENDBRANCH  27  39
BRANCH  11  45
HETATM   45  C   UNK     0     -36.126  10.272   4.038  0.00  0.00     0.051 C 
BRANCH  45  46
HETATM   46  C   UNK     0     -36.810  11.271   4.898  0.00  0.00     0.114 C 
BRANCH  46  47
HETATM   47  C   UNK     0     -37.399  10.530   6.051  0.00  0.00     0.139 C 
HETATM   48  O   UNK     0     -38.602  10.236   6.013  0.00  0.00    -0.650 OA
BRANCH  47  49
HETATM   49  O   UNK     0     -36.628  10.183   7.131  0.00  0.00    -0.776 OA
HETATM   50  H   UNK     0     -35.891  10.798   7.495  0.00  0.00     0.167 HD
ENDBRANCH  47  49
ENDBRANCH  46  47
ENDBRANCH  45  46
ENDBRANCH  11  45
BRANCH  18  51
HETATM   51  C   UNK     0     -33.802   3.731   4.795  0.00  0.00     0.051 C 
BRANCH  51  52
HETATM   52  C   UNK     0     -34.631   3.278   5.987  0.00  0.00     0.114 C 
BRANCH  52  53
HETATM   53  C   UNK     0     -33.782   2.820   7.104  0.00  0.00     0.139 C 
HETATM   54  O   UNK     0     -33.459   1.624   7.189  0.00  0.00    -0.650 OA
BRANCH  53  55
HETATM   55  O   UNK     0     -33.357   3.721   8.049  0.00  0.00    -0.776 OA
HETATM   56  H   UNK     0     -33.230   3.537   9.017  0.00  0.00     0.167 HD
ENDBRANCH  53  55
ENDBRANCH  52  53
ENDBRANCH  51  52
ENDBRANCH  18  51
TORSDOF 16
ENDMDL
MODEL 5
REMARK VINA RESULT:      -8.0     21.936     25.640
REMARK  16 active torsions:
REMARK  status: ('A' for Active; 'I' for Inactive)
REMARK    1  A    between atoms: C_6  and  C_7 
REMARK    2  A    between atoms: C_7  and  C_8 
REMARK    3  A    between atoms: C_8  and  C_9 
REMARK    4  A    between atoms: C_9  and  O_11 
REMARK    5  A    between atoms: C_16  and  C_17 
REMARK    6  A    between atoms: C_17  and  C_18 
REMARK    7  A    between atoms: C_18  and  C_19 
REMARK    8  A    between atoms: C_19  and  O_21 
REMARK    9  A    between atoms: C_28  and  C_29 
REMARK   10  A    between atoms: C_29  and  C_30 
REMARK   11  A    between atoms: C_30  and  C_31 
REMARK   12  A    between atoms: C_31  and  O_33 
REMARK   13  A    between atoms: C_42  and  C_43 
REMARK   14  A    between atoms: C_43  and  C_44 
REMARK   15  A    between atoms: C_44  and  C_45 
REMARK   16  A    between atoms: C_45  and  O_47 
ROOT
HETATM    1  C   UNK     0     -21.737  22.498  16.005  0.00  0.00     0.051 C 
HETATM    2  C   UNK     0     -21.157  23.755  16.622  0.00  0.00    -0.031 A 
HETATM    3  C   UNK     0     -21.111  25.044  16.114  0.00  0.00     0.021 A 
HETATM    4  N   UNK     0     -20.469  25.844  16.997  0.00  0.00    -0.361 N 
HETATM    5  C   UNK     0     -20.113  25.095  18.061  0.00  0.00     0.022 A 
HETATM    6  C   UNK     0     -20.525  23.783  17.858  0.00  0.00    -0.027 A 
HETATM    7  C   UNK     0     -19.467  25.513  19.346  0.00  0.00     0.115 C 
HETATM    8  C   UNK     0     -19.979  26.793  19.981  0.00  0.00     0.021 A 
HETATM    9  N   UNK     0     -21.233  27.272  20.004  0.00  0.00    -0.361 N 
HETATM   10  C   UNK     0     -21.208  28.484  20.598  0.00  0.00     0.022 A 
HETATM   11  C   UNK     0     -19.904  28.790  20.977  0.00  0.00    -0.027 A 
HETATM   12  C   UNK     0     -19.125  27.729  20.592  0.00  0.00    -0.031 A 
HETATM   13  C   UNK     0     -17.632  27.618  20.805  0.00  0.00     0.051 C 
HETATM   14  C   UNK     0     -22.398  29.421  20.783  0.00  0.00     0.115 C 
HETATM   15  C   UNK     0     -23.040  29.867  19.479  0.00  0.00     0.021 A 
HETATM   16  N   UNK     0     -23.576  29.089  18.520  0.00  0.00    -0.361 N 
HETATM   17  C   UNK     0     -23.972  29.858  17.503  0.00  0.00     0.022 A 
HETATM   18  C   UNK     0     -23.688  31.201  17.818  0.00  0.00    -0.027 A 
HETATM   19  C   UNK     0     -23.106  31.194  19.059  0.00  0.00    -0.031 A 
HETATM   20  C   UNK     0     -22.673  32.448  19.797  0.00  0.00     0.051 C 
HETATM   21  C   UNK     0     -24.564  29.472  16.167  0.00  0.00     0.115 C 
HETATM   22  C   UNK     0     -24.096  28.178  15.543  0.00  0.00     0.022 A 
HETATM   23  N   UNK     0     -22.855  27.674  15.510  0.00  0.00    -0.361 N 
HETATM   24  C   UNK     0     -22.916  26.434  14.984  0.00  0.00     0.021 A 
HETATM   25  C   UNK     0     -24.226  26.136  14.662  0.00  0.00    -0.031 A 
HETATM   26  C   UNK     0     -24.788  24.888  14.014  0.00  0.00     0.051 C 
HETATM   27  C   UNK     0     -25.000  27.237  15.011  0.00  0.00    -0.027 A 
HETATM   28  C   UNK     0     -21.783  25.434  14.828  0.00  0.00     0.115 C 
HETATM   29  H   UNK     0     -20.238  26.924  16.846  0.00  0.00     0.165 HD
HETATM   30  H   UNK     0     -22.145  26.735  19.646  0.00  0.00     0.165 HD
HETATM   31  H   UNK     0     -23.723  27.979  18.582  0.00  0.00     0.165 HD
HETATM   32  H   UNK     0     -21.918  28.207  15.817  0.00  0.00     0.165 HD
ENDROOT
BRANCH   6  33
HETATM   33  C   UNK     0     -20.364  22.568  18.737  0.00  0.00     0.051 C 
BRANCH  33  34
HETATM   34  C   UNK     0     -19.093  21.826  18.396  0.00  0.00     0.114 C 
BRANCH  34  35
HETATM   35  C   UNK     0     -18.854  20.829  19.479  0.00  0.00     0.139 C 
HETATM   36  O   UNK     0     -19.704  19.919  19.706  0.00  0.00    -0.650 OA
BRANCH  35  37
HETATM   37  O   UNK     0     -17.714  20.845  20.273  0.00  0.00    -0.776 OA
HETATM   38  H   UNK     0     -17.086  20.059  20.322  0.00  0.00     0.167 HD
ENDBRANCH  35  37
ENDBRANCH  34  35
ENDBRANCH  33  34
ENDBRANCH   6  33
BRANCH  27  39
HETATM   39  C   UNK     0     -26.463  27.316  14.746  0.00  0.00     0.051 C 
BRANCH  39  40
HETATM   40  C   UNK     0     -26.908  27.857  13.462  0.00  0.00     0.114 C 
BRANCH  40  41
HETATM   41  C   UNK     0     -27.089  27.023  12.296  0.00  0.00     0.139 C 
HETATM   42  O   UNK     0     -27.779  25.994  12.292  0.00  0.00    -0.650 OA
BRANCH  41  43
HETATM   43  O   UNK     0     -26.447  27.388  11.079  0.00  0.00    -0.776 OA
HETATM   44  H   UNK     0     -27.041  27.883  10.424  0.00  0.00     0.167 HD
ENDBRANCH  41  43
ENDBRANCH  40  41
ENDBRANCH  39  40
ENDBRANCH  27  39
BRANCH  11  45
HETATM   45  C   UNK     0     -19.391  30.020  21.676  0.00  0.00     0.051 C 
BRANCH  45  46
HETATM   46  C   UNK     0     -19.314  29.891  23.153  0.00  0.00     0.114 C 
BRANCH  46  47
HETATM   47  C   UNK     0     -20.354  30.790  23.730  0.00  0.00     0.139 C 
HETATM   48  O   UNK     0     -21.331  30.280  24.295  0.00  0.00    -0.650 OA
BRANCH  47  49
HETATM   49  O   UNK     0     -20.233  32.154  23.636  0.00  0.00    -0.776 OA
HETATM   50  H   UNK     0     -20.005  32.738  24.449  0.00  0.00     0.167 HD
ENDBRANCH  47  49
ENDBRANCH  46  47
ENDBRANCH  45  46
ENDBRANCH  11  45
BRANCH  18  51
HETATM   51  C   UNK     0     -23.976  32.428  16.991  0.00  0.00     0.051 C 
BRANCH  51  52
HETATM   52  C   UNK     0     -22.866  33.421  17.302  0.00  0.00     0.114 C 
BRANCH  52  53
HETATM   53  C   UNK     0     -22.416  34.138  16.093  0.00  0.00     0.139 C 
HETATM   54  O   UNK     0     -23.227  34.411  15.194  0.00  0.00    -0.650 OA
BRANCH  53  55
HETATM   55  O   UNK     0     -21.096  34.498  15.968  0.00  0.00    -0.776 OA
HETATM   56  H   UNK     0     -20.741  35.225  15.393  0.00  0.00     0.167 HD
ENDBRANCH  53  55
ENDBRANCH  52  53
ENDBRANCH  51  52
ENDBRANCH  18  51
TORSDOF 16
ENDMDL
MODEL 6
REMARK VINA RESULT:      -8.0     17.525     20.147
REMARK  16 active torsions:
REMARK  status: ('A' for Active; 'I' for Inactive)
REMARK    1  A    between atoms: C_6  and  C_7 
REMARK    2  A    between atoms: C_7  and  C_8 
REMARK    3  A    between atoms: C_8  and  C_9 
REMARK    4  A    between atoms: C_9  and  O_11 
REMARK    5  A    between atoms: C_16  and  C_17 
REMARK    6  A    between atoms: C_17  and  C_18 
REMARK    7  A    between atoms: C_18  and  C_19 
REMARK    8  A    between atoms: C_19  and  O_21 
REMARK    9  A    between atoms: C_28  and  C_29 
REMARK   10  A    between atoms: C_29  and  C_30 
REMARK   11  A    between atoms: C_30  and  C_31 
REMARK   12  A    between atoms: C_31  and  O_33 
REMARK   13  A    between atoms: C_42  and  C_43 
REMARK   14  A    between atoms: C_43  and  C_44 
REMARK   15  A    between atoms: C_44  and  C_45 
REMARK   16  A    between atoms: C_45  and  O_47 
ROOT
HETATM    1  C   UNK     0     -18.806  20.432  21.288  0.00  0.00     0.051 C 
HETATM    2  C   UNK     0     -20.089  19.664  21.046  0.00  0.00    -0.031 A 
HETATM    3  C   UNK     0     -21.331  20.131  20.645  0.00  0.00     0.021 A 
HETATM    4  N   UNK     0     -22.196  19.090  20.588  0.00  0.00    -0.361 N 
HETATM    5  C   UNK     0     -21.531  17.970  20.936  0.00  0.00     0.022 A 
HETATM    6  C   UNK     0     -20.211  18.293  21.232  0.00  0.00    -0.027 A 
HETATM    7  C   UNK     0     -21.999  16.548  20.944  0.00  0.00     0.115 C 
HETATM    8  C   UNK     0     -22.834  16.099  19.758  0.00  0.00     0.021 A 
HETATM    9  N   UNK     0     -22.723  16.463  18.471  0.00  0.00    -0.361 N 
HETATM   10  C   UNK     0     -23.732  15.888  17.784  0.00  0.00     0.022 A 
HETATM   11  C   UNK     0     -24.510  15.124  18.650  0.00  0.00    -0.027 A 
HETATM   12  C   UNK     0     -23.949  15.253  19.895  0.00  0.00    -0.031 A 
HETATM   13  C   UNK     0     -24.458  14.590  21.155  0.00  0.00     0.051 C 
HETATM   14  C   UNK     0     -24.035  16.076  16.300  0.00  0.00     0.115 C 
HETATM   15  C   UNK     0     -24.341  17.514  15.912  0.00  0.00     0.021 A 
HETATM   16  N   UNK     0     -23.552  18.593  16.069  0.00  0.00    -0.361 N 
HETATM   17  C   UNK     0     -24.212  19.681  15.667  0.00  0.00     0.022 A 
HETATM   18  C   UNK     0     -25.489  19.291  15.216  0.00  0.00    -0.027 A 
HETATM   19  C   UNK     0     -25.557  17.931  15.374  0.00  0.00    -0.031 A 
HETATM   20  C   UNK     0     -26.758  17.094  14.975  0.00  0.00     0.051 C 
HETATM   21  C   UNK     0     -23.802  21.136  15.703  0.00  0.00     0.115 C 
HETATM   22  C   UNK     0     -22.934  21.587  16.855  0.00  0.00     0.022 A 
HETATM   23  N   UNK     0     -23.020  21.237  18.145  0.00  0.00    -0.361 N 
HETATM   24  C   UNK     0     -21.960  21.759  18.795  0.00  0.00     0.021 A 
HETATM   25  C   UNK     0     -21.179  22.470  17.905  0.00  0.00    -0.031 A 
HETATM   26  C   UNK     0     -19.915  23.262  18.167  0.00  0.00     0.051 C 
HETATM   27  C   UNK     0     -21.782  22.374  16.656  0.00  0.00    -0.027 A 
HETATM   28  C   UNK     0     -21.573  21.560  20.251  0.00  0.00     0.115 C 
HETATM   29  H   UNK     0     -23.281  19.161  20.340  0.00  0.00     0.165 HD
HETATM   30  H   UNK     0     -21.904  17.086  18.035  0.00  0.00     0.165 HD
HETATM   31  H   UNK     0     -22.490  18.582  16.427  0.00  0.00     0.165 HD
HETATM   32  H   UNK     0     -23.853  20.655  18.617  0.00  0.00     0.165 HD
ENDROOT
BRANCH   6  33
HETATM   33  C   UNK     0     -19.071  17.410  21.674  0.00  0.00     0.051 C 
BRANCH  33  34
HETATM   34  C   UNK     0     -19.100  17.209  23.171  0.00  0.00     0.114 C 
BRANCH  34  35
HETATM   35  C   UNK     0     -18.045  18.084  23.759  0.00  0.00     0.139 C 
HETATM   36  O   UNK     0     -18.165  18.519  24.941  0.00  0.00    -0.650 OA
BRANCH  35  37
HETATM   37  O   UNK     0     -16.904  18.455  23.059  0.00  0.00    -0.776 OA
HETATM   38  H   UNK     0     -16.077  18.793  23.525  0.00  0.00     0.167 HD
ENDBRANCH  35  37
ENDBRANCH  34  35
ENDBRANCH  33  34
ENDBRANCH   6  33
BRANCH  27  39
HETATM   39  C   UNK     0     -21.265  23.076  15.450  0.00  0.00     0.051 C 
BRANCH  39  40
HETATM   40  C   UNK     0     -22.074  24.148  14.870  0.00  0.00     0.114 C 
BRANCH  40  41
HETATM   41  C   UNK     0     -22.944  23.930  13.737  0.00  0.00     0.139 C 
HETATM   42  O   UNK     0     -23.938  24.628  13.494  0.00  0.00    -0.650 OA
BRANCH  41  43
HETATM   43  O   UNK     0     -22.658  22.860  12.842  0.00  0.00    -0.776 OA
HETATM   44  H   UNK     0     -22.279  23.150  11.949  0.00  0.00     0.167 HD
ENDBRANCH  41  43
ENDBRANCH  40  41
ENDBRANCH  39  40
ENDBRANCH  27  39
BRANCH  11  45
HETATM   45  C   UNK     0     -25.730  14.299  18.341  0.00  0.00     0.051 C 
BRANCH  45  46
HETATM   46  C   UNK     0     -26.986  15.086  18.248  0.00  0.00     0.114 C 
BRANCH  46  47
HETATM   47  C   UNK     0     -28.113  14.112  18.178  0.00  0.00     0.139 C 
HETATM   48  O   UNK     0     -29.114  14.411  17.512  0.00  0.00    -0.650 OA
BRANCH  47  49
HETATM   49  O   UNK     0     -28.046  12.911  18.838  0.00  0.00    -0.776 OA
HETATM   50  H   UNK     0     -27.231  12.291  18.760  0.00  0.00     0.167 HD
ENDBRANCH  47  49
ENDBRANCH  46  47
ENDBRANCH  45  46
ENDBRANCH  11  45
BRANCH  18  51
HETATM   51  C   UNK     0     -26.577  20.164  14.647  0.00  0.00     0.051 C 
BRANCH  51  52
HETATM   52  C   UNK     0     -26.124  20.552  13.247  0.00  0.00     0.114 C 
BRANCH  52  53
HETATM   53  C   UNK     0     -26.258  22.002  13.008  0.00  0.00     0.139 C 
HETATM   54  O   UNK     0     -27.101  22.660  13.639  0.00  0.00    -0.650 OA
BRANCH  53  55
HETATM   55  O   UNK     0     -25.450  22.615  12.083  0.00  0.00    -0.776 OA
HETATM   56  H   UNK     0     -25.737  23.288  11.411  0.00  0.00     0.167 HD
ENDBRANCH  53  55
ENDBRANCH  52  53
ENDBRANCH  51  52
ENDBRANCH  18  51
TORSDOF 16
ENDMDL
MODEL 7
REMARK VINA RESULT:      -8.0     15.225     20.221
REMARK  16 active torsions:
REMARK  status: ('A' for Active; 'I' for Inactive)
REMARK    1  A    between atoms: C_6  and  C_7 
REMARK    2  A    between atoms: C_7  and  C_8 
REMARK    3  A    between atoms: C_8  and  C_9 
REMARK    4  A    between atoms: C_9  and  O_11 
REMARK    5  A    between atoms: C_16  and  C_17 
REMARK    6  A    between atoms: C_17  and  C_18 
REMARK    7  A    between atoms: C_18  and  C_19 
REMARK    8  A    between atoms: C_19  and  O_21 
REMARK    9  A    between atoms: C_28  and  C_29 
REMARK   10  A    between atoms: C_29  and  C_30 
REMARK   11  A    between atoms: C_30  and  C_31 
REMARK   12  A    between atoms: C_31  and  O_33 
REMARK   13  A    between atoms: C_42  and  C_43 
REMARK   14  A    between atoms: C_43  and  C_44 
REMARK   15  A    between atoms: C_44  and  C_45 
REMARK   16  A    between atoms: C_45  and  O_47 
ROOT
HETATM    1  C   UNK     0     -26.299  23.909  -4.501  0.00  0.00     0.051 C 
HETATM    2  C   UNK     0     -25.795  24.023  -3.077  0.00  0.00    -0.031 A 
HETATM    3  C   UNK     0     -24.509  24.250  -2.614  0.00  0.00     0.021 A 
HETATM    4  N   UNK     0     -24.519  24.242  -1.260  0.00  0.00    -0.361 N 
HETATM    5  C   UNK     0     -25.785  24.023  -0.850  0.00  0.00     0.022 A 
HETATM    6  C   UNK     0     -26.609  23.879  -1.960  0.00  0.00    -0.027 A 
HETATM    7  C   UNK     0     -26.348  24.014   0.537  0.00  0.00     0.115 C 
HETATM    8  C   UNK     0     -25.865  25.106   1.476  0.00  0.00     0.021 A 
HETATM    9  N   UNK     0     -25.561  26.382   1.189  0.00  0.00    -0.361 N 
HETATM   10  C   UNK     0     -25.087  26.962   2.311  0.00  0.00     0.022 A 
HETATM   11  C   UNK     0     -25.095  26.039   3.352  0.00  0.00    -0.027 A 
HETATM   12  C   UNK     0     -25.584  24.867   2.833  0.00  0.00    -0.031 A 
HETATM   13  C   UNK     0     -25.777  23.582   3.605  0.00  0.00     0.051 C 
HETATM   14  C   UNK     0     -24.560  28.389   2.435  0.00  0.00     0.115 C 
HETATM   15  C   UNK     0     -23.356  28.679   1.553  0.00  0.00     0.021 A 
HETATM   16  N   UNK     0     -23.276  28.577   0.213  0.00  0.00    -0.361 N 
HETATM   17  C   UNK     0     -22.028  28.852  -0.174  0.00  0.00     0.022 A 
HETATM   18  C   UNK     0     -21.261  29.158   0.968  0.00  0.00    -0.027 A 
HETATM   19  C   UNK     0     -22.105  29.047   2.043  0.00  0.00    -0.031 A 
HETATM   20  C   UNK     0     -21.689  29.330   3.475  0.00  0.00     0.051 C 
HETATM   21  C   UNK     0     -21.406  28.808  -1.551  0.00  0.00     0.115 C 
HETATM   22  C   UNK     0     -21.908  27.755  -2.510  0.00  0.00     0.022 A 
HETATM   23  N   UNK     0     -22.222  26.479  -2.251  0.00  0.00    -0.361 N 
HETATM   24  C   UNK     0     -22.765  25.942  -3.363  0.00  0.00     0.021 A 
HETATM   25  C   UNK     0     -22.790  26.893  -4.365  0.00  0.00    -0.031 A 
HETATM   26  C   UNK     0     -23.266  26.756  -5.797  0.00  0.00     0.051 C 
HETATM   27  C   UNK     0     -22.247  28.061  -3.843  0.00  0.00    -0.027 A 
HETATM   28  C   UNK     0     -23.358  24.554  -3.531  0.00  0.00     0.115 C 
HETATM   29  H   UNK     0     -23.624  24.352  -0.604  0.00  0.00     0.165 HD
HETATM   30  H   UNK     0     -25.727  26.889   0.207  0.00  0.00     0.165 HD
HETATM   31  H   UNK     0     -24.128  28.353  -0.480  0.00  0.00     0.165 HD
HETATM   32  H   UNK     0     -22.024  25.931  -1.293  0.00  0.00     0.165 HD
ENDROOT
BRANCH   6  33
HETATM   33  C   UNK     0     -28.092  23.615  -2.041  0.00  0.00     0.051 C 
BRANCH  33  34
HETATM   34  C   UNK     0     -28.376  22.133  -1.968  0.00  0.00     0.114 C 
BRANCH  34  35
HETATM   35  C   UNK     0     -28.871  21.707  -3.308  0.00  0.00     0.139 C 
HETATM   36  O   UNK     0     -30.002  22.096  -3.723  0.00  0.00    -0.650 OA
BRANCH  35  37
HETATM   37  O   UNK     0     -28.135  20.884  -4.152  0.00  0.00    -0.776 OA
HETATM   38  H   UNK     0     -27.378  21.237  -4.716  0.00  0.00     0.167 HD
ENDBRANCH  35  37
ENDBRANCH  34  35
ENDBRANCH  33  34
ENDBRANCH   6  33
BRANCH  27  39
HETATM   39  C   UNK     0     -22.042  29.292  -4.654  0.00  0.00     0.051 C 
BRANCH  39  40
HETATM   40  C   UNK     0     -22.888  30.453  -4.378  0.00  0.00     0.114 C 
BRANCH  40  41
HETATM   41  C   UNK     0     -22.536  31.785  -4.818  0.00  0.00     0.139 C 
HETATM   42  O   UNK     0     -21.970  32.022  -5.894  0.00  0.00    -0.650 OA
BRANCH  41  43
HETATM   43  O   UNK     0     -22.849  32.894  -3.982  0.00  0.00    -0.776 OA
HETATM   44  H   UNK     0     -22.204  33.034  -3.213  0.00  0.00     0.167 HD
ENDBRANCH  41  43
ENDBRANCH  40  41
ENDBRANCH  39  40
ENDBRANCH  27  39
BRANCH  11  45
HETATM   45  C   UNK     0     -24.668  26.228   4.783  0.00  0.00     0.051 C 
BRANCH  45  46
HETATM   46  C   UNK     0     -23.196  26.231   4.981  0.00  0.00     0.114 C 
BRANCH  46  47
HETATM   47  C   UNK     0     -22.872  25.101   5.898  0.00  0.00     0.139 C 
HETATM   48  O   UNK     0     -23.745  24.252   6.124  0.00  0.00    -0.650 OA
BRANCH  47  49
HETATM   49  O   UNK     0     -21.634  25.002   6.481  0.00  0.00    -0.776 OA
HETATM   50  H   UNK     0     -20.863  24.486   6.041  0.00  0.00     0.167 HD
ENDBRANCH  47  49
ENDBRANCH  46  47
ENDBRANCH  45  46
ENDBRANCH  11  45
BRANCH  18  51
HETATM   51  C   UNK     0     -19.809  29.554   1.029  0.00  0.00     0.051 C 
BRANCH  51  52
HETATM   52  C   UNK     0     -19.069  28.370   1.633  0.00  0.00     0.114 C 
BRANCH  52  53
HETATM   53  C   UNK     0     -17.643  28.671   1.861  0.00  0.00     0.139 C 
HETATM   54  O   UNK     0     -16.982  27.986   2.658  0.00  0.00    -0.650 OA
BRANCH  53  55
HETATM   55  O   UNK     0     -17.053  29.714   1.189  0.00  0.00    -0.776 OA
HETATM   56  H   UNK     0     -17.187  29.943   0.232  0.00  0.00     0.167 HD
ENDBRANCH  53  55
ENDBRANCH  52  53
ENDBRANCH  51  52
ENDBRANCH  18  51
TORSDOF 16
ENDMDL
MODEL 8
REMARK VINA RESULT:      -7.9     19.472     22.489
REMARK  16 active torsions:
REMARK  status: ('A' for Active; 'I' for Inactive)
REMARK    1  A    between atoms: C_6  and  C_7 
REMARK    2  A    between atoms: C_7  and  C_8 
REMARK    3  A    between atoms: C_8  and  C_9 
REMARK    4  A    between atoms: C_9  and  O_11 
REMARK    5  A    between atoms: C_16  and  C_17 
REMARK    6  A    between atoms: C_17  and  C_18 
REMARK    7  A    between atoms: C_18  and  C_19 
REMARK    8  A    between atoms: C_19  and  O_21 
REMARK    9  A    between atoms: C_28  and  C_29 
REMARK   10  A    between atoms: C_29  and  C_30 
REMARK   11  A    between atoms: C_30  and  C_31 
REMARK   12  A    between atoms: C_31  and  O_33 
REMARK   13  A    between atoms: C_42  and  C_43 
REMARK   14  A    between atoms: C_43  and  C_44 
REMARK   15  A    between atoms: C_44  and  C_45 
REMARK   16  A    between atoms: C_45  and  O_47 
ROOT
HETATM    1  C   UNK     0     -18.916  20.724  23.812  0.00  0.00     0.051 C 
HETATM    2  C   UNK     0     -19.234  21.262  22.432  0.00  0.00    -0.031 A 
HETATM    3  C   UNK     0     -19.270  20.598  21.216  0.00  0.00     0.021 A 
HETATM    4  N   UNK     0     -19.570  21.486  20.238  0.00  0.00    -0.361 N 
HETATM    5  C   UNK     0     -19.734  22.698  20.805  0.00  0.00     0.022 A 
HETATM    6  C   UNK     0     -19.528  22.595  22.177  0.00  0.00    -0.027 A 
HETATM    7  C   UNK     0     -20.163  23.990  20.183  0.00  0.00     0.115 C 
HETATM    8  C   UNK     0     -21.304  23.920  19.183  0.00  0.00     0.021 A 
HETATM    9  N   UNK     0     -22.382  23.120  19.200  0.00  0.00    -0.361 N 
HETATM   10  C   UNK     0     -23.082  23.337  18.066  0.00  0.00     0.022 A 
HETATM   11  C   UNK     0     -22.442  24.308  17.302  0.00  0.00    -0.027 A 
HETATM   12  C   UNK     0     -21.322  24.680  18.000  0.00  0.00    -0.031 A 
HETATM   13  C   UNK     0     -20.319  25.720  17.554  0.00  0.00     0.051 C 
HETATM   14  C   UNK     0     -24.347  22.601  17.634  0.00  0.00     0.115 C 
HETATM   15  C   UNK     0     -24.158  21.104  17.453  0.00  0.00     0.021 A 
HETATM   16  N   UNK     0     -23.740  20.212  18.370  0.00  0.00    -0.361 N 
HETATM   17  C   UNK     0     -23.638  19.010  17.799  0.00  0.00     0.022 A 
HETATM   18  C   UNK     0     -24.016  19.122  16.446  0.00  0.00    -0.027 A 
HETATM   19  C   UNK     0     -24.341  20.438  16.242  0.00  0.00    -0.031 A 
HETATM   20  C   UNK     0     -24.840  20.989  14.919  0.00  0.00     0.051 C 
HETATM   21  C   UNK     0     -23.148  17.699  18.372  0.00  0.00     0.115 C 
HETATM   22  C   UNK     0     -22.043  17.758  19.401  0.00  0.00     0.022 A 
HETATM   23  N   UNK     0     -20.960  18.546  19.412  0.00  0.00    -0.361 N 
HETATM   24  C   UNK     0     -20.320  18.370  20.585  0.00  0.00     0.021 A 
HETATM   25  C   UNK     0     -21.002  17.439  21.344  0.00  0.00    -0.031 A 
HETATM   26  C   UNK     0     -20.655  16.883  22.710  0.00  0.00     0.051 C 
HETATM   27  C   UNK     0     -22.108  17.032  20.607  0.00  0.00    -0.027 A 
HETATM   28  C   UNK     0     -19.097  19.111  21.096  0.00  0.00     0.115 C 
HETATM   29  H   UNK     0     -19.624  21.256  19.148  0.00  0.00     0.165 HD
HETATM   30  H   UNK     0     -22.679  22.439  20.034  0.00  0.00     0.165 HD
HETATM   31  H   UNK     0     -23.559  20.424  19.456  0.00  0.00     0.165 HD
HETATM   32  H   UNK     0     -20.614  19.203  18.572  0.00  0.00     0.165 HD
ENDROOT
BRANCH   6  33
HETATM   33  C   UNK     0     -19.588  23.653  23.249  0.00  0.00     0.051 C 
BRANCH  33  34
HETATM   34  C   UNK     0     -18.319  24.472  23.263  0.00  0.00     0.114 C 
BRANCH  34  35
HETATM   35  C   UNK     0     -17.711  24.332  24.617  0.00  0.00     0.139 C 
HETATM   36  O   UNK     0     -17.985  25.166  25.528  0.00  0.00    -0.650 OA
BRANCH  35  37
HETATM   37  O   UNK     0     -16.837  23.302  24.943  0.00  0.00    -0.776 OA
HETATM   38  H   UNK     0     -15.860  23.333  24.700  0.00  0.00     0.167 HD
ENDBRANCH  35  37
ENDBRANCH  34  35
ENDBRANCH  33  34
ENDBRANCH   6  33
BRANCH  27  39
HETATM   39  C   UNK     0     -23.048  15.976  21.072  0.00  0.00     0.051 C 
BRANCH  39  40
HETATM   40  C   UNK     0     -22.732  14.581  20.766  0.00  0.00     0.114 C 
BRANCH  40  41
HETATM   41  C   UNK     0     -23.224  13.922  19.577  0.00  0.00     0.139 C 
HETATM   42  O   UNK     0     -22.733  14.085  18.452  0.00  0.00    -0.650 OA
BRANCH  41  43
HETATM   43  O   UNK     0     -24.332  13.035  19.688  0.00  0.00    -0.776 OA
HETATM   44  H   UNK     0     -24.438  12.397  18.908  0.00  0.00     0.167 HD
ENDBRANCH  41  43
ENDBRANCH  40  41
ENDBRANCH  39  40
ENDBRANCH  27  39
BRANCH  11  45
HETATM   45  C   UNK     0     -22.851  24.880  15.971  0.00  0.00     0.051 C 
BRANCH  45  46
HETATM   46  C   UNK     0     -22.016  24.421  14.832  0.00  0.00     0.114 C 
BRANCH  46  47
HETATM   47  C   UNK     0     -22.942  23.890  13.791  0.00  0.00     0.139 C 
HETATM   48  O   UNK     0     -24.066  24.401  13.682  0.00  0.00    -0.650 OA
BRANCH  47  49
HETATM   49  O   UNK     0     -22.561  22.858  12.972  0.00  0.00    -0.776 OA
HETATM   50  H   UNK     0     -22.259  23.014  12.003  0.00  0.00     0.167 HD
ENDBRANCH  47  49
ENDBRANCH  46  47
ENDBRANCH  45  46
ENDBRANCH  11  45
BRANCH  18  51
HETATM   51  C   UNK     0     -24.086  18.030  15.410  0.00  0.00     0.051 C 
BRANCH  51  52
HETATM   52  C   UNK     0     -25.477  17.425  15.520  0.00  0.00     0.114 C 
BRANCH  52  53
HETATM   53  C   UNK     0     -25.590  16.165  14.762  0.00  0.00     0.139 C 
HETATM   54  O   UNK     0     -24.842  15.210  15.027  0.00  0.00    -0.650 OA
BRANCH  53  55
HETATM   55  O   UNK     0     -26.524  16.056  13.760  0.00  0.00    -0.776 OA
HETATM   56  H   UNK     0     -26.382  16.274  12.802  0.00  0.00     0.167 HD
ENDBRANCH  53  55
ENDBRANCH  52  53
ENDBRANCH  51  52
ENDBRANCH  18  51
TORSDOF 16
ENDMDL
MODEL 9
REMARK VINA RESULT:      -7.8     21.343     24.996
REMARK  16 active torsions:
REMARK  status: ('A' for Active; 'I' for Inactive)
REMARK    1  A    between atoms: C_6  and  C_7 
REMARK    2  A    between atoms: C_7  and  C_8 
REMARK    3  A    between atoms: C_8  and  C_9 
REMARK    4  A    between atoms: C_9  and  O_11 
REMARK    5  A    between atoms: C_16  and  C_17 
REMARK    6  A    between atoms: C_17  and  C_18 
REMARK    7  A    between atoms: C_18  and  C_19 
REMARK    8  A    between atoms: C_19  and  O_21 
REMARK    9  A    between atoms: C_28  and  C_29 
REMARK   10  A    between atoms: C_29  and  C_30 
REMARK   11  A    between atoms: C_30  and  C_31 
REMARK   12  A    between atoms: C_31  and  O_33 
REMARK   13  A    between atoms: C_42  and  C_43 
REMARK   14  A    between atoms: C_43  and  C_44 
REMARK   15  A    between atoms: C_44  and  C_45 
REMARK   16  A    between atoms: C_45  and  O_47 
ROOT
HETATM    1  C   UNK     0     -19.849  23.701  20.884  0.00  0.00     0.051 C 
HETATM    2  C   UNK     0     -20.073  25.099  20.347  0.00  0.00    -0.031 A 
HETATM    3  C   UNK     0     -20.173  25.532  19.034  0.00  0.00     0.021 A 
HETATM    4  N   UNK     0     -20.342  26.875  19.023  0.00  0.00    -0.361 N 
HETATM    5  C   UNK     0     -20.360  27.308  20.301  0.00  0.00     0.022 A 
HETATM    6  C   UNK     0     -20.192  26.223  21.155  0.00  0.00    -0.027 A 
HETATM    7  C   UNK     0     -20.611  28.682  20.837  0.00  0.00     0.115 C 
HETATM    8  C   UNK     0     -21.736  29.472  20.190  0.00  0.00     0.021 A 
HETATM    9  N   UNK     0     -22.906  29.022  19.713  0.00  0.00    -0.361 N 
HETATM   10  C   UNK     0     -23.554  30.060  19.144  0.00  0.00     0.022 A 
HETATM   11  C   UNK     0     -22.784  31.213  19.266  0.00  0.00    -0.027 A 
HETATM   12  C   UNK     0     -21.637  30.849  19.924  0.00  0.00    -0.031 A 
HETATM   13  C   UNK     0     -20.502  31.782  20.284  0.00  0.00     0.051 C 
HETATM   14  C   UNK     0     -24.896  29.998  18.419  0.00  0.00     0.115 C 
HETATM   15  C   UNK     0     -24.895  29.089  17.200  0.00  0.00     0.021 A 
HETATM   16  N   UNK     0     -24.609  27.774  17.156  0.00  0.00    -0.361 N 
HETATM   17  C   UNK     0     -24.652  27.358  15.888  0.00  0.00     0.022 A 
HETATM   18  C   UNK     0     -24.990  28.452  15.068  0.00  0.00    -0.027 A 
HETATM   19  C   UNK     0     -25.141  29.530  15.902  0.00  0.00    -0.031 A 
HETATM   20  C   UNK     0     -25.544  30.914  15.427  0.00  0.00     0.051 C 
HETATM   21  C   UNK     0     -24.341  26.000  15.300  0.00  0.00     0.115 C 
HETATM   22  C   UNK     0     -23.255  25.185  15.962  0.00  0.00     0.022 A 
HETATM   23  N   UNK     0     -22.081  25.607  16.449  0.00  0.00    -0.361 N 
HETATM   24  C   UNK     0     -21.488  24.573  17.080  0.00  0.00     0.021 A 
HETATM   25  C   UNK     0     -22.295  23.456  16.987  0.00  0.00    -0.031 A 
HETATM   26  C   UNK     0     -22.044  22.053  17.500  0.00  0.00     0.051 C 
HETATM   27  C   UNK     0     -23.432  23.822  16.275  0.00  0.00    -0.027 A 
HETATM   28  C   UNK     0     -20.189  24.586  17.866  0.00  0.00     0.115 C 
HETATM   29  H   UNK     0     -20.407  27.514  18.112  0.00  0.00     0.165 HD
HETATM   30  H   UNK     0     -23.301  27.982  19.821  0.00  0.00     0.165 HD
HETATM   31  H   UNK     0     -24.421  27.114  18.043  0.00  0.00     0.165 HD
HETATM   32  H   UNK     0     -21.640  26.629  16.315  0.00  0.00     0.165 HD
ENDROOT
BRANCH   6  33
HETATM   33  C   UNK     0     -20.133  26.174  22.661  0.00  0.00     0.051 C 
BRANCH  33  34
HETATM   34  C   UNK     0     -18.704  26.238  23.143  0.00  0.00     0.114 C 
BRANCH  34  35
HETATM   35  C   UNK     0     -18.445  25.003  23.938  0.00  0.00     0.139 C 
HETATM   36  O   UNK     0     -19.406  24.376  24.471  0.00  0.00    -0.650 OA
BRANCH  35  37
HETATM   37  O   UNK     0     -17.169  24.488  24.128  0.00  0.00    -0.776 OA
HETATM   38  H   UNK     0     -16.343  25.056  24.032  0.00  0.00     0.167 HD
ENDBRANCH  35  37
ENDBRANCH  34  35
ENDBRANCH  33  34
ENDBRANCH   6  33
BRANCH  27  39
HETATM   39  C   UNK     0     -24.506  22.859  15.911  0.00  0.00     0.051 C 
BRANCH  39  40
HETATM   40  C   UNK     0     -24.315  22.022  14.727  0.00  0.00     0.114 C 
BRANCH  40  41
HETATM   41  C   UNK     0     -24.067  22.583  13.418  0.00  0.00     0.139 C 
HETATM   42  O   UNK     0     -24.964  22.992  12.668  0.00  0.00    -0.650 OA
BRANCH  41  43
HETATM   43  O   UNK     0     -22.725  22.679  12.951  0.00  0.00    -0.776 OA
HETATM   44  H   UNK     0     -22.640  22.878  11.961  0.00  0.00     0.167 HD
ENDBRANCH  41  43
ENDBRANCH  40  41
ENDBRANCH  39  40
ENDBRANCH  27  39
BRANCH  11  45
HETATM   45  C   UNK     0     -23.094  32.608  18.793  0.00  0.00     0.051 C 
BRANCH  45  46
HETATM   46  C   UNK     0     -22.786  32.845  17.360  0.00  0.00     0.114 C 
BRANCH  46  47
HETATM   47  C   UNK     0     -21.980  34.097  17.283  0.00  0.00     0.139 C 
HETATM   48  O   UNK     0     -22.478  35.149  17.707  0.00  0.00    -0.650 OA
BRANCH  47  49
HETATM   49  O   UNK     0     -20.714  34.087  16.754  0.00  0.00    -0.776 OA
HETATM   50  H   UNK     0     -20.048  33.330  16.948  0.00  0.00     0.167 HD
ENDBRANCH  47  49
ENDBRANCH  46  47
ENDBRANCH  45  46
ENDBRANCH  11  45
BRANCH  18  51
HETATM   51  C   UNK     0     -25.180  28.465  13.573  0.00  0.00     0.051 C 
BRANCH  51  52
HETATM   52  C   UNK     0     -26.578  27.923  13.317  0.00  0.00     0.114 C 
BRANCH  52  53
HETATM   53  C   UNK     0     -26.589  26.919  12.235  0.00  0.00     0.139 C 
HETATM   54  O   UNK     0     -26.566  27.284  11.049  0.00  0.00    -0.650 OA
BRANCH  53  55
HETATM   55  O   UNK     0     -26.627  25.582  12.548  0.00  0.00    -0.776 OA
HETATM   56  H   UNK     0     -27.357  24.950  12.321  0.00  0.00     0.167 HD
ENDBRANCH  53  55
ENDBRANCH  52  53
ENDBRANCH  51  52
ENDBRANCH  18  51
TORSDOF 16
ENDMDL
MODEL 10
REMARK VINA RESULT:      -7.7     17.731     20.401
REMARK  16 active torsions:
REMARK  status: ('A' for Active; 'I' for Inactive)
REMARK    1  A    between atoms: C_6  and  C_7 
REMARK    2  A    between atoms: C_7  and  C_8 
REMARK    3  A    between atoms: C_8  and  C_9 
REMARK    4  A    between atoms: C_9  and  O_11 
REMARK    5  A    between atoms: C_16  and  C_17 
REMARK    6  A    between atoms: C_17  and  C_18 
REMARK    7  A    between atoms: C_18  and  C_19 
REMARK    8  A    between atoms: C_19  and  O_21 
REMARK    9  A    between atoms: C_28  and  C_29 
REMARK   10  A    between atoms: C_29  and  C_30 
REMARK   11  A    between atoms: C_30  and  C_31 
REMARK   12  A    between atoms: C_31  and  O_33 
REMARK   13  A    between atoms: C_42  and  C_43 
REMARK   14  A    between atoms: C_43  and  C_44 
REMARK   15  A    between atoms: C_44  and  C_45 
REMARK   16  A    between atoms: C_45  and  O_47 
ROOT
HETATM    1  C   UNK     0     -27.526  15.775  16.364  0.00  0.00     0.051 C 
HETATM    2  C   UNK     0     -26.225  15.963  17.118  0.00  0.00    -0.031 A 
HETATM    3  C   UNK     0     -25.024  16.498  16.680  0.00  0.00     0.021 A 
HETATM    4  N   UNK     0     -24.121  16.439  17.687  0.00  0.00    -0.361 N 
HETATM    5  C   UNK     0     -24.724  15.887  18.761  0.00  0.00     0.022 A 
HETATM    6  C   UNK     0     -26.040  15.575  18.438  0.00  0.00    -0.027 A 
HETATM    7  C   UNK     0     -24.198  15.683  20.148  0.00  0.00     0.115 C 
HETATM    8  C   UNK     0     -23.403  16.828  20.750  0.00  0.00     0.021 A 
HETATM    9  N   UNK     0     -23.590  18.148  20.595  0.00  0.00    -0.361 N 
HETATM   10  C   UNK     0     -22.592  18.791  21.238  0.00  0.00     0.022 A 
HETATM   11  C   UNK     0     -21.744  17.860  21.831  0.00  0.00    -0.027 A 
HETATM   12  C   UNK     0     -22.249  16.621  21.527  0.00  0.00    -0.031 A 
HETATM   13  C   UNK     0     -21.655  15.302  21.968  0.00  0.00     0.051 C 
HETATM   14  C   UNK     0     -22.368  20.300  21.275  0.00  0.00     0.115 C 
HETATM   15  C   UNK     0     -22.139  20.922  19.907  0.00  0.00     0.021 A 
HETATM   16  N   UNK     0     -22.962  20.892  18.842  0.00  0.00    -0.361 N 
HETATM   17  C   UNK     0     -22.367  21.493  17.810  0.00  0.00     0.022 A 
HETATM   18  C   UNK     0     -21.098  21.944  18.224  0.00  0.00    -0.027 A 
HETATM   19  C   UNK     0     -20.968  21.582  19.539  0.00  0.00    -0.031 A 
HETATM   20  C   UNK     0     -19.754  21.910  20.389  0.00  0.00     0.051 C 
HETATM   21  C   UNK     0     -22.833  21.660  16.381  0.00  0.00     0.115 C 
HETATM   22  C   UNK     0     -23.663  20.548  15.784  0.00  0.00     0.022 A 
HETATM   23  N   UNK     0     -23.502  19.225  15.924  0.00  0.00    -0.361 N 
HETATM   24  C   UNK     0     -24.550  18.608  15.342  0.00  0.00     0.021 A 
HETATM   25  C   UNK     0     -25.401  19.555  14.805  0.00  0.00    -0.031 A 
HETATM   26  C   UNK     0     -26.682  19.352  14.023  0.00  0.00     0.051 C 
HETATM   27  C   UNK     0     -24.854  20.804  15.075  0.00  0.00    -0.027 A 
HETATM   28  C   UNK     0     -24.858  17.121  15.322  0.00  0.00     0.115 C 
HETATM   29  H   UNK     0     -23.053  16.752  17.621  0.00  0.00     0.165 HD
HETATM   30  H   UNK     0     -24.453  18.631  20.075  0.00  0.00     0.165 HD
HETATM   31  H   UNK     0     -24.005  20.480  18.832  0.00  0.00     0.165 HD
HETATM   32  H   UNK     0     -22.625  18.713  16.398  0.00  0.00     0.165 HD
ENDROOT
BRANCH   6  33
HETATM   33  C   UNK     0     -27.120  14.941  19.278  0.00  0.00     0.051 C 
BRANCH  33  34
HETATM   34  C   UNK     0     -27.263  13.474  18.948  0.00  0.00     0.114 C 
BRANCH  34  35
HETATM   35  C   UNK     0     -26.417  12.715  19.913  0.00  0.00     0.139 C 
HETATM   36  O   UNK     0     -26.857  12.439  21.067  0.00  0.00    -0.650 OA
BRANCH  35  37
HETATM   37  O   UNK     0     -25.134  12.279  19.603  0.00  0.00    -0.776 OA
HETATM   38  H   UNK     0     -24.404  12.232  20.296  0.00  0.00     0.167 HD
ENDBRANCH  35  37
ENDBRANCH  34  35
ENDBRANCH  33  34
ENDBRANCH   6  33
BRANCH  27  39
HETATM   39  C   UNK     0     -25.456  22.075  14.588  0.00  0.00     0.051 C 
BRANCH  39  40
HETATM   40  C   UNK     0     -24.880  22.706  13.400  0.00  0.00     0.114 C 
BRANCH  40  41
HETATM   41  C   UNK     0     -23.650  23.464  13.450  0.00  0.00     0.139 C 
HETATM   42  O   UNK     0     -23.586  24.635  13.848  0.00  0.00    -0.650 OA
BRANCH  41  43
HETATM   43  O   UNK     0     -22.440  22.848  13.023  0.00  0.00    -0.776 OA
HETATM   44  H   UNK     0     -22.023  22.226  13.706  0.00  0.00     0.167 HD
ENDBRANCH  41  43
ENDBRANCH  40  41
ENDBRANCH  39  40
ENDBRANCH  27  39
BRANCH  11  45
HETATM   45  C   UNK     0     -20.508  18.102  22.654  0.00  0.00     0.051 C 
BRANCH  45  46
HETATM   46  C   UNK     0     -19.264  18.237  21.854  0.00  0.00     0.114 C 
BRANCH  46  47
HETATM   47  C   UNK     0     -18.285  18.996  22.684  0.00  0.00     0.139 C 
HETATM   48  O   UNK     0     -18.675  20.009  23.282  0.00  0.00    -0.650 OA
BRANCH  47  49
HETATM   49  O   UNK     0     -16.980  18.585  22.784  0.00  0.00    -0.776 OA
HETATM   50  H   UNK     0     -16.230  19.218  23.087  0.00  0.00     0.167 HD
ENDBRANCH  47  49
ENDBRANCH  46  47
ENDBRANCH  45  46
ENDBRANCH  11  45
BRANCH  18  51
HETATM   51  C   UNK     0     -20.074  22.699  17.416  0.00  0.00     0.051 C 
BRANCH  51  52
HETATM   52  C   UNK     0     -20.502  24.159  17.443  0.00  0.00     0.114 C 
BRANCH  52  53
HETATM   53  C   UNK     0     -20.839  24.657  16.096  0.00  0.00     0.139 C 
HETATM   54  O   UNK     0     -20.531  23.994  15.092  0.00  0.00    -0.650 OA
BRANCH  53  55
HETATM   55  O   UNK     0     -21.492  25.859  15.959  0.00  0.00    -0.776 OA
HETATM   56  H   UNK     0     -21.574  26.387  15.123  0.00  0.00     0.167 HD
ENDBRANCH  53  55
ENDBRANCH  52  53
ENDBRANCH  51  52
ENDBRANCH  18  51
TORSDOF 16
ENDMDL
MODEL 11
REMARK VINA RESULT:      -7.7     21.269     24.420
REMARK  16 active torsions:
REMARK  status: ('A' for Active; 'I' for Inactive)
REMARK    1  A    between atoms: C_6  and  C_7 
REMARK    2  A    between atoms: C_7  and  C_8 
REMARK    3  A    between atoms: C_8  and  C_9 
REMARK    4  A    between atoms: C_9  and  O_11 
REMARK    5  A    between atoms: C_16  and  C_17 
REMARK    6  A    between atoms: C_17  and  C_18 
REMARK    7  A    between atoms: C_18  and  C_19 
REMARK    8  A    between atoms: C_19  and  O_21 
REMARK    9  A    between atoms: C_28  and  C_29 
REMARK   10  A    between atoms: C_29  and  C_30 
REMARK   11  A    between atoms: C_30  and  C_31 
REMARK   12  A    between atoms: C_31  and  O_33 
REMARK   13  A    between atoms: C_42  and  C_43 
REMARK   14  A    between atoms: C_43  and  C_44 
REMARK   15  A    between atoms: C_44  and  C_45 
REMARK   16  A    between atoms: C_45  and  O_47 
ROOT
HETATM    1  C   UNK     0     -18.333  22.884  22.969  0.00  0.00     0.051 C 
HETATM    2  C   UNK     0     -19.544  22.749  22.068  0.00  0.00    -0.031 A 
HETATM    3  C   UNK     0     -20.652  23.574  21.955  0.00  0.00     0.021 A 
HETATM    4  N   UNK     0     -21.503  23.047  21.043  0.00  0.00    -0.361 N 
HETATM    5  C   UNK     0     -20.957  21.910  20.566  0.00  0.00     0.022 A 
HETATM    6  C   UNK     0     -19.732  21.692  21.188  0.00  0.00    -0.027 A 
HETATM    7  C   UNK     0     -21.444  21.003  19.479  0.00  0.00     0.115 C 
HETATM    8  C   UNK     0     -21.997  21.670  18.232  0.00  0.00     0.021 A 
HETATM    9  N   UNK     0     -21.589  22.802  17.638  0.00  0.00    -0.361 N 
HETATM   10  C   UNK     0     -22.428  23.064  16.613  0.00  0.00     0.022 A 
HETATM   11  C   UNK     0     -23.397  22.068  16.539  0.00  0.00    -0.027 A 
HETATM   12  C   UNK     0     -23.131  21.186  17.555  0.00  0.00    -0.031 A 
HETATM   13  C   UNK     0     -23.927  19.936  17.859  0.00  0.00     0.051 C 
HETATM   14  C   UNK     0     -22.382  24.286  15.700  0.00  0.00     0.115 C 
HETATM   15  C   UNK     0     -22.562  25.607  16.430  0.00  0.00     0.021 A 
HETATM   16  N   UNK     0     -21.808  26.104  17.428  0.00  0.00    -0.361 N 
HETATM   17  C   UNK     0     -22.336  27.256  17.846  0.00  0.00     0.022 A 
HETATM   18  C   UNK     0     -23.486  27.528  17.077  0.00  0.00    -0.027 A 
HETATM   19  C   UNK     0     -23.615  26.488  16.193  0.00  0.00    -0.031 A 
HETATM   20  C   UNK     0     -24.712  26.401  15.147  0.00  0.00     0.051 C 
HETATM   21  C   UNK     0     -21.915  28.165  18.978  0.00  0.00     0.115 C 
HETATM   22  C   UNK     0     -21.322  27.518  20.208  0.00  0.00     0.022 A 
HETATM   23  N   UNK     0     -21.705  26.389  20.818  0.00  0.00    -0.361 N 
HETATM   24  C   UNK     0     -20.811  26.106  21.787  0.00  0.00     0.021 A 
HETATM   25  C   UNK     0     -19.833  27.083  21.807  0.00  0.00    -0.031 A 
HETATM   26  C   UNK     0     -18.646  27.223  22.737  0.00  0.00     0.051 C 
HETATM   27  C   UNK     0     -20.139  27.997  20.806  0.00  0.00    -0.027 A 
HETATM   28  C   UNK     0     -20.769  24.882  22.685  0.00  0.00     0.115 C 
HETATM   29  H   UNK     0     -22.501  23.462  20.771  0.00  0.00     0.165 HD
HETATM   30  H   UNK     0     -20.680  23.393  17.909  0.00  0.00     0.165 HD
HETATM   31  H   UNK     0     -20.855  25.657  17.814  0.00  0.00     0.165 HD
HETATM   32  H   UNK     0     -22.636  25.803  20.600  0.00  0.00     0.165 HD
ENDROOT
BRANCH   6  33
HETATM   33  C   UNK     0     -18.741  20.569  21.013  0.00  0.00     0.051 C 
BRANCH  33  34
HETATM   34  C   UNK     0     -19.190  19.338  21.765  0.00  0.00     0.114 C 
BRANCH  34  35
HETATM   35  C   UNK     0     -18.221  19.115  22.876  0.00  0.00     0.139 C 
HETATM   36  O   UNK     0     -18.549  19.378  24.069  0.00  0.00    -0.650 OA
BRANCH  35  37
HETATM   37  O   UNK     0     -16.941  18.616  22.665  0.00  0.00    -0.776 OA
HETATM   38  H   UNK     0     -16.679  17.683  22.939  0.00  0.00     0.167 HD
ENDBRANCH  35  37
ENDBRANCH  34  35
ENDBRANCH  33  34
ENDBRANCH   6  33
BRANCH  27  39
HETATM   39  C   UNK     0     -19.347  29.235  20.569  0.00  0.00     0.051 C 
BRANCH  39  40
HETATM   40  C   UNK     0     -19.715  30.445  21.303  0.00  0.00     0.114 C 
BRANCH  40  41
HETATM   41  C   UNK     0     -20.670  31.399  20.787  0.00  0.00     0.139 C 
HETATM   42  O   UNK     0     -21.879  31.370  21.055  0.00  0.00    -0.650 OA
BRANCH  41  43
HETATM   43  O   UNK     0     -20.215  32.435  19.923  0.00  0.00    -0.776 OA
HETATM   44  H   UNK     0     -19.932  33.284  20.398  0.00  0.00     0.167 HD
ENDBRANCH  41  43
ENDBRANCH  40  41
ENDBRANCH  39  40
ENDBRANCH  27  39
BRANCH  11  45
HETATM   45  C   UNK     0     -24.532  21.929  15.560  0.00  0.00     0.051 C 
BRANCH  45  46
HETATM   46  C   UNK     0     -24.194  21.142  14.347  0.00  0.00     0.114 C 
BRANCH  46  47
HETATM   47  C   UNK     0     -24.054  22.106  13.219  0.00  0.00     0.139 C 
HETATM   48  O   UNK     0     -25.073  22.448  12.603  0.00  0.00    -0.650 OA
BRANCH  47  49
HETATM   49  O   UNK     0     -22.825  22.604  12.868  0.00  0.00    -0.776 OA
HETATM   50  H   UNK     0     -21.993  22.006  12.801  0.00  0.00     0.167 HD
ENDBRANCH  47  49
ENDBRANCH  46  47
ENDBRANCH  45  46
ENDBRANCH  11  45
BRANCH  18  51
HETATM   51  C   UNK     0     -24.398  28.724  17.165  0.00  0.00     0.051 C 
BRANCH  51  52
HETATM   52  C   UNK     0     -23.699  29.849  16.418  0.00  0.00     0.114 C 
BRANCH  52  53
HETATM   53  C   UNK     0     -24.063  29.868  14.988  0.00  0.00     0.139 C 
HETATM   54  O   UNK     0     -23.215  29.586  14.126  0.00  0.00    -0.650 OA
BRANCH  53  55
HETATM   55  O   UNK     0     -25.343  30.203  14.617  0.00  0.00    -0.776 OA
HETATM   56  H   UNK     0     -25.599  30.740  13.822  0.00  0.00     0.167 HD
ENDBRANCH  53  55
ENDBRANCH  52  53
ENDBRANCH  51  52
ENDBRANCH  18  51
TORSDOF 16
ENDMDL
MODEL 12
REMARK VINA RESULT:      -7.7     18.330     21.998
REMARK  16 active torsions:
REMARK  status: ('A' for Active; 'I' for Inactive)
REMARK    1  A    between atoms: C_6  and  C_7 
REMARK    2  A    between atoms: C_7  and  C_8 
REMARK    3  A    between atoms: C_8  and  C_9 
REMARK    4  A    between atoms: C_9  and  O_11 
REMARK    5  A    between atoms: C_16  and  C_17 
REMARK    6  A    between atoms: C_17  and  C_18 
REMARK    7  A    between atoms: C_18  and  C_19 
REMARK    8  A    between atoms: C_19  and  O_21 
REMARK    9  A    between atoms: C_28  and  C_29 
REMARK   10  A    between atoms: C_29  and  C_30 
REMARK   11  A    between atoms: C_30  and  C_31 
REMARK   12  A    between atoms: C_31  and  O_33 
REMARK   13  A    between atoms: C_42  and  C_43 
REMARK   14  A    between atoms: C_43  and  C_44 
REMARK   15  A    between atoms: C_44  and  C_45 
REMARK   16  A    between atoms: C_45  and  O_47 
ROOT
HETATM    1  C   UNK     0     -24.788  23.583  14.586  0.00  0.00     0.051 C 
HETATM    2  C   UNK     0     -24.298  23.258  15.982  0.00  0.00    -0.031 A 
HETATM    3  C   UNK     0     -24.825  22.383  16.919  0.00  0.00     0.021 A 
HETATM    4  N   UNK     0     -24.074  22.438  18.045  0.00  0.00    -0.361 N 
HETATM    5  C   UNK     0     -23.075  23.321  17.843  0.00  0.00     0.022 A 
HETATM    6  C   UNK     0     -23.187  23.856  16.563  0.00  0.00    -0.027 A 
HETATM    7  C   UNK     0     -21.925  23.678  18.732  0.00  0.00     0.115 C 
HETATM    8  C   UNK     0     -21.231  22.528  19.441  0.00  0.00     0.021 A 
HETATM    9  N   UNK     0     -21.004  21.284  18.993  0.00  0.00    -0.361 N 
HETATM   10  C   UNK     0     -20.440  20.574  19.993  0.00  0.00     0.022 A 
HETATM   11  C   UNK     0     -20.292  21.386  21.114  0.00  0.00    -0.027 A 
HETATM   12  C   UNK     0     -20.787  22.619  20.773  0.00  0.00    -0.031 A 
HETATM   13  C   UNK     0     -20.829  23.827  21.682  0.00  0.00     0.051 C 
HETATM   14  C   UNK     0     -20.069  19.094  19.951  0.00  0.00     0.115 C 
HETATM   15  C   UNK     0     -21.252  18.170  19.711  0.00  0.00     0.021 A 
HETATM   16  N   UNK     0     -22.095  18.171  18.661  0.00  0.00    -0.361 N 
HETATM   17  C   UNK     0     -23.042  17.251  18.859  0.00  0.00     0.022 A 
HETATM   18  C   UNK     0     -22.799  16.614  20.092  0.00  0.00    -0.027 A 
HETATM   19  C   UNK     0     -21.675  17.198  20.615  0.00  0.00    -0.031 A 
HETATM   20  C   UNK     0     -21.040  16.780  21.928  0.00  0.00     0.051 C 
HETATM   21  C   UNK     0     -24.253  16.907  18.021  0.00  0.00     0.115 C 
HETATM   22  C   UNK     0     -24.927  18.034  17.274  0.00  0.00     0.022 A 
HETATM   23  N   UNK     0     -25.163  19.283  17.695  0.00  0.00    -0.361 N 
HETATM   24  C   UNK     0     -25.653  19.993  16.658  0.00  0.00     0.021 A 
HETATM   25  C   UNK     0     -25.744  19.178  15.546  0.00  0.00    -0.031 A 
HETATM   26  C   UNK     0     -26.269  19.506  14.164  0.00  0.00     0.051 C 
HETATM   27  C   UNK     0     -25.286  17.919  15.916  0.00  0.00    -0.027 A 
HETATM   28  C   UNK     0     -25.984  21.475  16.620  0.00  0.00     0.115 C 
HETATM   29  H   UNK     0     -24.279  21.881  18.988  0.00  0.00     0.165 HD
HETATM   30  H   UNK     0     -21.194  20.917  17.955  0.00  0.00     0.165 HD
HETATM   31  H   UNK     0     -21.993  18.800  17.739  0.00  0.00     0.165 HD
HETATM   32  H   UNK     0     -25.027  19.665  18.740  0.00  0.00     0.165 HD
ENDROOT
BRANCH   6  33
HETATM   33  C   UNK     0     -22.330  24.879  15.861  0.00  0.00     0.051 C 
BRANCH  33  34
HETATM   34  C   UNK     0     -21.312  24.205  14.973  0.00  0.00     0.114 C 
BRANCH  34  35
HETATM   35  C   UNK     0     -20.217  23.701  15.850  0.00  0.00     0.139 C 
HETATM   36  O   UNK     0     -19.396  24.509  16.373  0.00  0.00    -0.650 OA
BRANCH  35  37
HETATM   37  O   UNK     0     -20.048  22.351  16.136  0.00  0.00    -0.776 OA
HETATM   38  H   UNK     0     -19.346  22.025  16.781  0.00  0.00     0.167 HD
ENDBRANCH  35  37
ENDBRANCH  34  35
ENDBRANCH  33  34
ENDBRANCH   6  33
BRANCH  27  39
HETATM   39  C   UNK     0     -25.299  16.749  14.996  0.00  0.00     0.051 C 
BRANCH  39  40
HETATM   40  C   UNK     0     -26.491  15.901  14.969  0.00  0.00     0.114 C 
BRANCH  40  41
HETATM   41  C   UNK     0     -27.266  15.623  16.158  0.00  0.00     0.139 C 
HETATM   42  O   UNK     0     -28.326  16.201  16.434  0.00  0.00    -0.650 OA
BRANCH  41  43
HETATM   43  O   UNK     0     -26.800  14.634  17.070  0.00  0.00    -0.776 OA
HETATM   44  H   UNK     0     -27.327  13.769  17.056  0.00  0.00     0.167 HD
ENDBRANCH  41  43
ENDBRANCH  40  41
ENDBRANCH  39  40
ENDBRANCH  27  39
BRANCH  11  45
HETATM   45  C   UNK     0     -19.708  21.040  22.457  0.00  0.00     0.051 C 
BRANCH  45  46
HETATM   46  C   UNK     0     -18.250  20.757  22.431  0.00  0.00     0.114 C 
BRANCH  46  47
HETATM   47  C   UNK     0     -18.056  19.388  22.988  0.00  0.00     0.139 C 
HETATM   48  O   UNK     0     -18.904  18.942  23.774  0.00  0.00    -0.650 OA
BRANCH  47  49
HETATM   49  O   UNK     0     -16.961  18.637  22.642  0.00  0.00    -0.776 OA
HETATM   50  H   UNK     0     -16.031  19.054  22.516  0.00  0.00     0.167 HD
ENDBRANCH  47  49
ENDBRANCH  46  47
ENDBRANCH  45  46
ENDBRANCH  11  45
BRANCH  18  51
HETATM   51  C   UNK     0     -23.583  15.495  20.727  0.00  0.00     0.051 C 
BRANCH  51  52
HETATM   52  C   UNK     0     -23.081  14.208  20.090  0.00  0.00     0.114 C 
BRANCH  52  53
HETATM   53  C   UNK     0     -24.171  13.453  19.442  0.00  0.00     0.139 C 
HETATM   54  O   UNK     0     -24.305  13.490  18.209  0.00  0.00    -0.650 OA
BRANCH  53  55
HETATM   55  O   UNK     0     -25.037  12.714  20.212  0.00  0.00    -0.776 OA
HETATM   56  H   UNK     0     -24.922  12.496  21.174  0.00  0.00     0.167 HD
ENDBRANCH  53  55
ENDBRANCH  52  53
ENDBRANCH  51  52
ENDBRANCH  18  51
TORSDOF 16
ENDMDL
MODEL 13
REMARK VINA RESULT:      -7.6     21.223     24.719
REMARK  16 active torsions:
REMARK  status: ('A' for Active; 'I' for Inactive)
REMARK    1  A    between atoms: C_6  and  C_7 
REMARK    2  A    between atoms: C_7  and  C_8 
REMARK    3  A    between atoms: C_8  and  C_9 
REMARK    4  A    between atoms: C_9  and  O_11 
REMARK    5  A    between atoms: C_16  and  C_17 
REMARK    6  A    between atoms: C_17  and  C_18 
REMARK    7  A    between atoms: C_18  and  C_19 
REMARK    8  A    between atoms: C_19  and  O_21 
REMARK    9  A    between atoms: C_28  and  C_29 
REMARK   10  A    between atoms: C_29  and  C_30 
REMARK   11  A    between atoms: C_30  and  C_31 
REMARK   12  A    between atoms: C_31  and  O_33 
REMARK   13  A    between atoms: C_42  and  C_43 
REMARK   14  A    between atoms: C_43  and  C_44 
REMARK   15  A    between atoms: C_44  and  C_45 
REMARK   16  A    between atoms: C_45  and  O_47 
ROOT
HETATM    1  C   UNK     0     -20.362  21.420  18.782  0.00  0.00     0.051 C 
HETATM    2  C   UNK     0     -20.241  22.920  18.955  0.00  0.00    -0.031 A 
HETATM    3  C   UNK     0     -20.172  23.914  17.992  0.00  0.00     0.021 A 
HETATM    4  N   UNK     0     -20.039  25.114  18.604  0.00  0.00    -0.361 N 
HETATM    5  C   UNK     0     -20.030  24.907  19.938  0.00  0.00     0.022 A 
HETATM    6  C   UNK     0     -20.152  23.545  20.192  0.00  0.00    -0.027 A 
HETATM    7  C   UNK     0     -19.998  25.903  21.055  0.00  0.00     0.115 C 
HETATM    8  C   UNK     0     -20.883  27.127  20.902  0.00  0.00     0.021 A 
HETATM    9  N   UNK     0     -22.097  27.216  20.338  0.00  0.00    -0.361 N 
HETATM   10  C   UNK     0     -22.467  28.514  20.342  0.00  0.00     0.022 A 
HETATM   11  C   UNK     0     -21.468  29.281  20.934  0.00  0.00    -0.027 A 
HETATM   12  C   UNK     0     -20.467  28.414  21.289  0.00  0.00    -0.031 A 
HETATM   13  C   UNK     0     -19.175  28.802  21.973  0.00  0.00     0.051 C 
HETATM   14  C   UNK     0     -23.748  29.088  19.743  0.00  0.00     0.115 C 
HETATM   15  C   UNK     0     -23.883  28.861  18.245  0.00  0.00     0.021 A 
HETATM   16  N   UNK     0     -23.894  27.685  17.591  0.00  0.00    -0.361 N 
HETATM   17  C   UNK     0     -23.959  27.915  16.277  0.00  0.00     0.022 A 
HETATM   18  C   UNK     0     -24.003  29.307  16.067  0.00  0.00    -0.027 A 
HETATM   19  C   UNK     0     -23.956  29.889  17.307  0.00  0.00    -0.031 A 
HETATM   20  C   UNK     0     -24.016  31.387  17.539  0.00  0.00     0.051 C 
HETATM   21  C   UNK     0     -23.927  26.945  15.118  0.00  0.00     0.115 C 
HETATM   22  C   UNK     0     -23.085  25.700  15.274  0.00  0.00     0.022 A 
HETATM   23  N   UNK     0     -21.875  25.581  15.836  0.00  0.00    -0.361 N 
HETATM   24  C   UNK     0     -21.560  24.271  15.891  0.00  0.00     0.021 A 
HETATM   25  C   UNK     0     -22.589  23.529  15.343  0.00  0.00    -0.031 A 
HETATM   26  C   UNK     0     -22.682  22.030  15.144  0.00  0.00     0.051 C 
HETATM   27  C   UNK     0     -23.576  24.421  14.940  0.00  0.00    -0.027 A 
HETATM   28  C   UNK     0     -20.334  23.636  16.524  0.00  0.00     0.115 C 
HETATM   29  H   UNK     0     -19.912  26.095  18.090  0.00  0.00     0.165 HD
HETATM   30  H   UNK     0     -22.718  26.358  19.980  0.00  0.00     0.165 HD
HETATM   31  H   UNK     0     -23.904  26.670  18.067  0.00  0.00     0.165 HD
HETATM   32  H   UNK     0     -21.211  26.425  16.159  0.00  0.00     0.165 HD
ENDROOT
BRANCH   6  33
HETATM   33  C   UNK     0     -20.187  22.803  21.503  0.00  0.00     0.051 C 
BRANCH  33  34
HETATM   34  C   UNK     0     -18.795  22.389  21.922  0.00  0.00     0.114 C 
BRANCH  34  35
HETATM   35  C   UNK     0     -18.846  20.940  22.271  0.00  0.00     0.139 C 
HETATM   36  O   UNK     0     -19.874  20.454  22.825  0.00  0.00    -0.650 OA
BRANCH  35  37
HETATM   37  O   UNK     0     -17.795  20.070  22.010  0.00  0.00    -0.776 OA
HETATM   38  H   UNK     0     -17.684  19.618  21.117  0.00  0.00     0.167 HD
ENDBRANCH  35  37
ENDBRANCH  34  35
ENDBRANCH  33  34
ENDBRANCH   6  33
BRANCH  27  39
HETATM   39  C   UNK     0     -24.816  23.995  14.236  0.00  0.00     0.051 C 
BRANCH  39  40
HETATM   40  C   UNK     0     -25.177  24.676  12.993  0.00  0.00     0.114 C 
BRANCH  40  41
HETATM   41  C   UNK     0     -26.280  25.608  12.918  0.00  0.00     0.139 C 
HETATM   42  O   UNK     0     -26.516  26.309  11.925  0.00  0.00    -0.650 OA
BRANCH  41  43
HETATM   43  O   UNK     0     -27.152  25.738  14.036  0.00  0.00    -0.776 OA
HETATM   44  H   UNK     0     -27.079  24.989  14.714  0.00  0.00     0.167 HD
ENDBRANCH  41  43
ENDBRANCH  40  41
ENDBRANCH  39  40
ENDBRANCH  27  39
BRANCH  11  45
HETATM   45  C   UNK     0     -21.436  30.768  21.168  0.00  0.00     0.051 C 
BRANCH  45  46
HETATM   46  C   UNK     0     -20.942  31.554  20.009  0.00  0.00     0.114 C 
BRANCH  46  47
HETATM   47  C   UNK     0     -21.666  32.857  20.017  0.00  0.00     0.139 C 
HETATM   48  O   UNK     0     -22.764  32.920  20.588  0.00  0.00    -0.650 OA
BRANCH  47  49
HETATM   49  O   UNK     0     -21.131  33.962  19.405  0.00  0.00    -0.776 OA
HETATM   50  H   UNK     0     -20.705  34.728  19.939  0.00  0.00     0.167 HD
ENDBRANCH  47  49
ENDBRANCH  46  47
ENDBRANCH  45  46
ENDBRANCH  11  45
BRANCH  18  51
HETATM   51  C   UNK     0     -24.105  30.043  14.756  0.00  0.00     0.051 C 
BRANCH  51  52
HETATM   52  C   UNK     0     -25.485  30.682  14.732  0.00  0.00     0.114 C 
BRANCH  52  53
HETATM   53  C   UNK     0     -26.559  29.672  14.794  0.00  0.00     0.139 C 
HETATM   54  O   UNK     0     -27.311  29.624  15.781  0.00  0.00    -0.650 OA
BRANCH  53  55
HETATM   55  O   UNK     0     -26.719  28.785  13.757  0.00  0.00    -0.776 OA
HETATM   56  H   UNK     0     -26.555  27.806  13.796  0.00  0.00     0.167 HD
ENDBRANCH  53  55
ENDBRANCH  52  53
ENDBRANCH  51  52
ENDBRANCH  18  51
TORSDOF 16
ENDMDL
MODEL 14
REMARK VINA RESULT:      -7.6     19.005     22.395
REMARK  16 active torsions:
REMARK  status: ('A' for Active; 'I' for Inactive)
REMARK    1  A    between atoms: C_6  and  C_7 
REMARK    2  A    between atoms: C_7  and  C_8 
REMARK    3  A    between atoms: C_8  and  C_9 
REMARK    4  A    between atoms: C_9  and  O_11 
REMARK    5  A    between atoms: C_16  and  C_17 
REMARK    6  A    between atoms: C_17  and  C_18 
REMARK    7  A    between atoms: C_18  and  C_19 
REMARK    8  A    between atoms: C_19  and  O_21 
REMARK    9  A    between atoms: C_28  and  C_29 
REMARK   10  A    between atoms: C_29  and  C_30 
REMARK   11  A    between atoms: C_30  and  C_31 
REMARK   12  A    between atoms: C_31  and  O_33 
REMARK   13  A    between atoms: C_42  and  C_43 
REMARK   14  A    between atoms: C_43  and  C_44 
REMARK   15  A    between atoms: C_44  and  C_45 
REMARK   16  A    between atoms: C_45  and  O_47 
ROOT
HETATM    1  C   UNK     0     -26.159  20.739  13.397  0.00  0.00     0.051 C 
HETATM    2  C   UNK     0     -25.042  20.661  14.417  0.00  0.00    -0.031 A 
HETATM    3  C   UNK     0     -23.856  21.376  14.479  0.00  0.00     0.021 A 
HETATM    4  N   UNK     0     -23.141  20.954  15.549  0.00  0.00    -0.361 N 
HETATM    5  C   UNK     0     -23.850  19.992  16.176  0.00  0.00     0.022 A 
HETATM    6  C   UNK     0     -25.043  19.781  15.492  0.00  0.00    -0.027 A 
HETATM    7  C   UNK     0     -23.553  19.269  17.452  0.00  0.00     0.115 C 
HETATM    8  C   UNK     0     -23.018  20.106  18.601  0.00  0.00     0.021 A 
HETATM    9  N   UNK     0     -23.333  21.368  18.933  0.00  0.00    -0.361 N 
HETATM   10  C   UNK     0     -22.547  21.738  19.966  0.00  0.00     0.022 A 
HETATM   11  C   UNK     0     -21.709  20.682  20.315  0.00  0.00    -0.027 A 
HETATM   12  C   UNK     0     -22.001  19.651  19.458  0.00  0.00    -0.031 A 
HETATM   13  C   UNK     0     -21.337  18.293  19.468  0.00  0.00     0.051 C 
HETATM   14  C   UNK     0     -22.516  23.112  20.629  0.00  0.00     0.115 C 
HETATM   15  C   UNK     0     -22.129  24.241  19.687  0.00  0.00     0.021 A 
HETATM   16  N   UNK     0     -22.746  24.608  18.548  0.00  0.00    -0.361 N 
HETATM   17  C   UNK     0     -22.057  25.598  17.975  0.00  0.00     0.022 A 
HETATM   18  C   UNK     0     -20.943  25.896  18.785  0.00  0.00    -0.027 A 
HETATM   19  C   UNK     0     -21.001  25.041  19.855  0.00  0.00    -0.031 A 
HETATM   20  C   UNK     0     -20.001  25.049  20.997  0.00  0.00     0.051 C 
HETATM   21  C   UNK     0     -22.285  26.306  16.660  0.00  0.00     0.115 C 
HETATM   22  C   UNK     0     -22.858  25.496  15.521  0.00  0.00     0.022 A 
HETATM   23  N   UNK     0     -22.566  24.237  15.169  0.00  0.00    -0.361 N 
HETATM   24  C   UNK     0     -23.415  23.863  14.190  0.00  0.00     0.021 A 
HETATM   25  C   UNK     0     -24.267  24.911  13.897  0.00  0.00    -0.031 A 
HETATM   26  C   UNK     0     -25.359  24.987  12.850  0.00  0.00     0.051 C 
HETATM   27  C   UNK     0     -23.930  25.967  14.736  0.00  0.00    -0.027 A 
HETATM   28  C   UNK     0     -23.534  22.499  13.534  0.00  0.00     0.115 C 
HETATM   29  H   UNK     0     -22.124  21.310  15.832  0.00  0.00     0.165 HD
HETATM   30  H   UNK     0     -24.145  21.983  18.473  0.00  0.00     0.165 HD
HETATM   31  H   UNK     0     -23.714  24.193  18.163  0.00  0.00     0.165 HD
HETATM   32  H   UNK     0     -21.729  23.614  15.579  0.00  0.00     0.165 HD
ENDROOT
BRANCH   6  33
HETATM   33  C   UNK     0     -26.168  18.819  15.778  0.00  0.00     0.051 C 
BRANCH  33  34
HETATM   34  C   UNK     0     -26.137  17.658  14.813  0.00  0.00     0.114 C 
BRANCH  34  35
HETATM   35  C   UNK     0     -25.332  16.574  15.446  0.00  0.00     0.139 C 
HETATM   36  O   UNK     0     -25.387  16.386  16.696  0.00  0.00    -0.650 OA
BRANCH  35  37
HETATM   37  O   UNK     0     -24.501  15.733  14.714  0.00  0.00    -0.776 OA
HETATM   38  H   UNK     0     -24.399  14.756  14.937  0.00  0.00     0.167 HD
ENDBRANCH  35  37
ENDBRANCH  34  35
ENDBRANCH  33  34
ENDBRANCH   6  33
BRANCH  27  39
HETATM   39  C   UNK     0     -24.587  27.300  14.664  0.00  0.00     0.051 C 
BRANCH  39  40
HETATM   40  C   UNK     0     -23.741  28.484  14.512  0.00  0.00     0.114 C 
BRANCH  40  41
HETATM   41  C   UNK     0     -23.887  29.649  15.355  0.00  0.00     0.139 C 
HETATM   42  O   UNK     0     -24.066  29.589  16.579  0.00  0.00    -0.650 OA
BRANCH  41  43
HETATM   43  O   UNK     0     -23.824  30.942  14.762  0.00  0.00    -0.776 OA
HETATM   44  H   UNK     0     -24.131  30.977  13.798  0.00  0.00     0.167 HD
ENDBRANCH  41  43
ENDBRANCH  40  41
ENDBRANCH  39  40
ENDBRANCH  27  39
BRANCH  11  45
HETATM   45  C   UNK     0     -20.672  20.623  21.404  0.00  0.00     0.051 C 
BRANCH  45  46
HETATM   46  C   UNK     0     -19.464  21.445  21.137  0.00  0.00     0.114 C 
BRANCH  46  47
HETATM   47  C   UNK     0     -18.539  20.615  20.314  0.00  0.00     0.139 C 
HETATM   48  O   UNK     0     -18.310  20.963  19.147  0.00  0.00    -0.650 OA
BRANCH  47  49
HETATM   49  O   UNK     0     -17.953  19.489  20.835  0.00  0.00    -0.776 OA
HETATM   50  H   UNK     0     -17.101  19.533  21.407  0.00  0.00     0.167 HD
ENDBRANCH  47  49
ENDBRANCH  46  47
ENDBRANCH  45  46
ENDBRANCH  11  45
BRANCH  18  51
HETATM   51  C   UNK     0     -19.893  26.954  18.563  0.00  0.00     0.051 C 
BRANCH  51  52
HETATM   52  C   UNK     0     -20.448  28.237  19.163  0.00  0.00     0.114 C 
BRANCH  52  53
HETATM   53  C   UNK     0     -19.420  28.979  19.919  0.00  0.00     0.139 C 
HETATM   54  O   UNK     0     -18.507  28.366  20.494  0.00  0.00    -0.650 OA
BRANCH  53  55
HETATM   55  O   UNK     0     -19.483  30.350  19.985  0.00  0.00    -0.776 OA
HETATM   56  H   UNK     0     -19.421  30.899  20.810  0.00  0.00     0.167 HD
ENDBRANCH  53  55
ENDBRANCH  52  53
ENDBRANCH  51  52
ENDBRANCH  18  51
TORSDOF 16
ENDMDL
MODEL 15
REMARK VINA RESULT:      -7.6     21.330     24.487
REMARK  16 active torsions:
REMARK  status: ('A' for Active; 'I' for Inactive)
REMARK    1  A    between atoms: C_6  and  C_7 
REMARK    2  A    between atoms: C_7  and  C_8 
REMARK    3  A    between atoms: C_8  and  C_9 
REMARK    4  A    between atoms: C_9  and  O_11 
REMARK    5  A    between atoms: C_16  and  C_17 
REMARK    6  A    between atoms: C_17  and  C_18 
REMARK    7  A    between atoms: C_18  and  C_19 
REMARK    8  A    between atoms: C_19  and  O_21 
REMARK    9  A    between atoms: C_28  and  C_29 
REMARK   10  A    between atoms: C_29  and  C_30 
REMARK   11  A    between atoms: C_30  and  C_31 
REMARK   12  A    between atoms: C_31  and  O_33 
REMARK   13  A    between atoms: C_42  and  C_43 
REMARK   14  A    between atoms: C_43  and  C_44 
REMARK   15  A    between atoms: C_44  and  C_45 
REMARK   16  A    between atoms: C_45  and  O_47 
ROOT
HETATM    1  C   UNK     0     -18.808  22.179  22.341  0.00  0.00     0.051 C 
HETATM    2  C   UNK     0     -19.790  22.365  21.202  0.00  0.00    -0.031 A 
HETATM    3  C   UNK     0     -20.980  23.075  21.174  0.00  0.00     0.021 A 
HETATM    4  N   UNK     0     -21.545  22.939  19.951  0.00  0.00    -0.361 N 
HETATM    5  C   UNK     0     -20.737  22.166  19.197  0.00  0.00     0.022 A 
HETATM    6  C   UNK     0     -19.631  21.787  19.950  0.00  0.00    -0.027 A 
HETATM    7  C   UNK     0     -20.854  21.791  17.752  0.00  0.00     0.115 C 
HETATM    8  C   UNK     0     -21.269  22.893  16.794  0.00  0.00     0.021 A 
HETATM    9  N   UNK     0     -20.954  24.197  16.832  0.00  0.00    -0.361 N 
HETATM   10  C   UNK     0     -21.619  24.819  15.835  0.00  0.00     0.022 A 
HETATM   11  C   UNK     0     -22.376  23.888  15.129  0.00  0.00    -0.027 A 
HETATM   12  C   UNK     0     -22.160  22.673  15.728  0.00  0.00    -0.031 A 
HETATM   13  C   UNK     0     -22.777  21.363  15.293  0.00  0.00     0.051 C 
HETATM   14  C   UNK     0     -21.609  26.316  15.541  0.00  0.00     0.115 C 
HETATM   15  C   UNK     0     -22.141  27.170  16.681  0.00  0.00     0.021 A 
HETATM   16  N   UNK     0     -21.680  27.235  17.944  0.00  0.00    -0.361 N 
HETATM   17  C   UNK     0     -22.463  28.049  18.655  0.00  0.00     0.022 A 
HETATM   18  C   UNK     0     -23.478  28.546  17.813  0.00  0.00    -0.027 A 
HETATM   19  C   UNK     0     -23.264  27.989  16.579  0.00  0.00    -0.031 A 
HETATM   20  C   UNK     0     -24.116  28.289  15.359  0.00  0.00     0.051 C 
HETATM   21  C   UNK     0     -22.418  28.401  20.125  0.00  0.00     0.115 C 
HETATM   22  C   UNK     0     -21.965  27.327  21.086  0.00  0.00     0.022 A 
HETATM   23  N   UNK     0     -22.260  26.020  21.070  0.00  0.00    -0.361 N 
HETATM   24  C   UNK     0     -21.527  25.409  22.022  0.00  0.00     0.021 A 
HETATM   25  C   UNK     0     -20.748  26.346  22.673  0.00  0.00    -0.031 A 
HETATM   26  C   UNK     0     -19.795  26.152  23.835  0.00  0.00     0.051 C 
HETATM   27  C   UNK     0     -21.011  27.581  22.092  0.00  0.00    -0.027 A 
HETATM   28  C   UNK     0     -21.449  23.922  22.323  0.00  0.00     0.115 C 
HETATM   29  H   UNK     0     -22.531  23.358  19.641  0.00  0.00     0.165 HD
HETATM   30  H   UNK     0     -20.223  24.674  17.530  0.00  0.00     0.165 HD
HETATM   31  H   UNK     0     -20.754  26.734  18.330  0.00  0.00     0.165 HD
HETATM   32  H   UNK     0     -23.022  25.524  20.414  0.00  0.00     0.165 HD
ENDROOT
BRANCH   6  33
HETATM   33  C   UNK     0     -18.451  20.926  19.575  0.00  0.00     0.051 C 
BRANCH  33  34
HETATM   34  C   UNK     0     -18.852  19.472  19.500  0.00  0.00     0.114 C 
BRANCH  34  35
HETATM   35  C   UNK     0     -18.395  18.817  20.759  0.00  0.00     0.139 C 
HETATM   36  O   UNK     0     -19.186  18.702  21.740  0.00  0.00    -0.650 OA
BRANCH  35  37
HETATM   37  O   UNK     0     -17.111  18.310  20.917  0.00  0.00    -0.776 OA
HETATM   38  H   UNK     0     -16.306  18.759  20.512  0.00  0.00     0.167 HD
ENDBRANCH  35  37
ENDBRANCH  34  35
ENDBRANCH  33  34
ENDBRANCH   6  33
BRANCH  27  39
HETATM   39  C   UNK     0     -20.408  28.851  22.579  0.00  0.00     0.051 C 
BRANCH  39  40
HETATM   40  C   UNK     0     -19.118  29.263  22.027  0.00  0.00     0.114 C 
BRANCH  40  41
HETATM   41  C   UNK     0     -18.603  28.726  20.787  0.00  0.00     0.139 C 
HETATM   42  O   UNK     0     -19.036  29.046  19.672  0.00  0.00    -0.650 OA
BRANCH  41  43
HETATM   43  O   UNK     0     -17.543  27.777  20.833  0.00  0.00    -0.776 OA
HETATM   44  H   UNK     0     -17.712  26.989  21.445  0.00  0.00     0.167 HD
ENDBRANCH  41  43
ENDBRANCH  40  41
ENDBRANCH  39  40
ENDBRANCH  27  39
BRANCH  11  45
HETATM   45  C   UNK     0     -23.269  24.109  13.938  0.00  0.00     0.051 C 
BRANCH  45  46
HETATM   46  C   UNK     0     -24.635  24.579  14.284  0.00  0.00     0.114 C 
BRANCH  46  47
HETATM   47  C   UNK     0     -25.455  24.507  13.040  0.00  0.00     0.139 C 
HETATM   48  O   UNK     0     -26.095  25.510  12.694  0.00  0.00    -0.650 OA
BRANCH  47  49
HETATM   49  O   UNK     0     -25.501  23.356  12.295  0.00  0.00    -0.776 OA
HETATM   50  H   UNK     0     -24.656  22.930  11.896  0.00  0.00     0.167 HD
ENDBRANCH  47  49
ENDBRANCH  46  47
ENDBRANCH  45  46
ENDBRANCH  11  45
BRANCH  18  51
HETATM   51  C   UNK     0     -24.578  29.515  18.161  0.00  0.00     0.051 C 
BRANCH  51  52
HETATM   52  C   UNK     0     -23.980  30.907  18.018  0.00  0.00     0.114 C 
BRANCH  52  53
HETATM   53  C   UNK     0     -24.564  31.641  16.878  0.00  0.00     0.139 C 
HETATM   54  O   UNK     0     -23.831  32.056  15.966  0.00  0.00    -0.650 OA
BRANCH  53  55
HETATM   55  O   UNK     0     -25.919  31.863  16.834  0.00  0.00    -0.776 OA
HETATM   56  H   UNK     0     -26.624  31.232  17.136  0.00  0.00     0.167 HD
ENDBRANCH  53  55
ENDBRANCH  52  53
ENDBRANCH  51  52
ENDBRANCH  18  51
TORSDOF 16
ENDMDL
MODEL 16
REMARK VINA RESULT:      -7.6     17.353     20.083
REMARK  16 active torsions:
REMARK  status: ('A' for Active; 'I' for Inactive)
REMARK    1  A    between atoms: C_6  and  C_7 
REMARK    2  A    between atoms: C_7  and  C_8 
REMARK    3  A    between atoms: C_8  and  C_9 
REMARK    4  A    between atoms: C_9  and  O_11 
REMARK    5  A    between atoms: C_16  and  C_17 
REMARK    6  A    between atoms: C_17  and  C_18 
REMARK    7  A    between atoms: C_18  and  C_19 
REMARK    8  A    between atoms: C_19  and  O_21 
REMARK    9  A    between atoms: C_28  and  C_29 
REMARK   10  A    between atoms: C_29  and  C_30 
REMARK   11  A    between atoms: C_30  and  C_31 
REMARK   12  A    between atoms: C_31  and  O_33 
REMARK   13  A    between atoms: C_42  and  C_43 
REMARK   14  A    between atoms: C_43  and  C_44 
REMARK   15  A    between atoms: C_44  and  C_45 
REMARK   16  A    between atoms: C_45  and  O_47 
ROOT
HETATM    1  C   UNK     0     -18.765  20.775  20.636  0.00  0.00     0.051 C 
HETATM    2  C   UNK     0     -20.038  19.966  20.497  0.00  0.00    -0.031 A 
HETATM    3  C   UNK     0     -21.312  20.383  20.144  0.00  0.00     0.021 A 
HETATM    4  N   UNK     0     -22.150  19.319  20.178  0.00  0.00    -0.361 N 
HETATM    5  C   UNK     0     -21.436  18.232  20.537  0.00  0.00     0.022 A 
HETATM    6  C   UNK     0     -20.112  18.601  20.747  0.00  0.00    -0.027 A 
HETATM    7  C   UNK     0     -21.864  16.801  20.631  0.00  0.00     0.115 C 
HETATM    8  C   UNK     0     -22.748  16.279  19.513  0.00  0.00     0.021 A 
HETATM    9  N   UNK     0     -22.716  16.589  18.207  0.00  0.00    -0.361 N 
HETATM   10  C   UNK     0     -23.744  15.959  17.601  0.00  0.00     0.022 A 
HETATM   11  C   UNK     0     -24.453  15.215  18.540  0.00  0.00    -0.027 A 
HETATM   12  C   UNK     0     -23.831  15.412  19.746  0.00  0.00    -0.031 A 
HETATM   13  C   UNK     0     -24.254  14.793  21.059  0.00  0.00     0.051 C 
HETATM   14  C   UNK     0     -24.130  16.074  16.129  0.00  0.00     0.115 C 
HETATM   15  C   UNK     0     -24.496  17.484  15.697  0.00  0.00     0.021 A 
HETATM   16  N   UNK     0     -23.729  18.589  15.765  0.00  0.00    -0.361 N 
HETATM   17  C   UNK     0     -24.440  19.642  15.353  0.00  0.00     0.022 A 
HETATM   18  C   UNK     0     -25.727  19.200  14.989  0.00  0.00    -0.027 A 
HETATM   19  C   UNK     0     -25.749  17.847  15.208  0.00  0.00    -0.031 A 
HETATM   20  C   UNK     0     -26.947  16.963  14.911  0.00  0.00     0.051 C 
HETATM   21  C   UNK     0     -24.068  21.106  15.305  0.00  0.00     0.115 C 
HETATM   22  C   UNK     0     -23.153  21.630  16.387  0.00  0.00     0.022 A 
HETATM   23  N   UNK     0     -23.160  21.335  17.694  0.00  0.00    -0.361 N 
HETATM   24  C   UNK     0     -22.082  21.911  18.263  0.00  0.00     0.021 A 
HETATM   25  C   UNK     0     -21.370  22.602  17.302  0.00  0.00    -0.031 A 
HETATM   26  C   UNK     0     -20.116  23.436  17.461  0.00  0.00     0.051 C 
HETATM   27  C   UNK     0     -22.036  22.436  16.093  0.00  0.00    -0.027 A 
HETATM   28  C   UNK     0     -21.614  21.787  19.703  0.00  0.00     0.115 C 
HETATM   29  H   UNK     0     -23.247  19.352  19.987  0.00  0.00     0.165 HD
HETATM   30  H   UNK     0     -21.938  17.212  17.702  0.00  0.00     0.165 HD
HETATM   31  H   UNK     0     -22.650  18.621  16.065  0.00  0.00     0.165 HD
HETATM   32  H   UNK     0     -23.951  20.754  18.235  0.00  0.00     0.165 HD
ENDROOT
BRANCH   6  33
HETATM   33  C   UNK     0     -18.927  17.768  21.164  0.00  0.00     0.051 C 
BRANCH  33  34
HETATM   34  C   UNK     0     -19.062  17.328  22.603  0.00  0.00     0.114 C 
BRANCH  34  35
HETATM   35  C   UNK     0     -18.107  18.142  23.410  0.00  0.00     0.139 C 
HETATM   36  O   UNK     0     -18.394  18.465  24.599  0.00  0.00    -0.650 OA
BRANCH  35  37
HETATM   37  O   UNK     0     -16.884  18.573  22.912  0.00  0.00    -0.776 OA
HETATM   38  H   UNK     0     -16.010  18.187  23.232  0.00  0.00     0.167 HD
ENDBRANCH  35  37
ENDBRANCH  34  35
ENDBRANCH  33  34
ENDBRANCH   6  33
BRANCH  27  39
HETATM   39  C   UNK     0     -21.602  23.097  14.832  0.00  0.00     0.051 C 
BRANCH  39  40
HETATM   40  C   UNK     0     -22.466  24.128  14.256  0.00  0.00     0.114 C 
BRANCH  40  41
HETATM   41  C   UNK     0     -22.596  25.442  14.845  0.00  0.00     0.139 C 
HETATM   42  O   UNK     0     -23.613  26.141  14.740  0.00  0.00    -0.650 OA
BRANCH  41  43
HETATM   43  O   UNK     0     -21.505  25.977  15.588  0.00  0.00    -0.776 OA
HETATM   44  H   UNK     0     -20.888  25.280  15.987  0.00  0.00     0.167 HD
ENDBRANCH  41  43
ENDBRANCH  40  41
ENDBRANCH  39  40
ENDBRANCH  27  39
BRANCH  11  45
HETATM   45  C   UNK     0     -25.664  14.346  18.333  0.00  0.00     0.051 C 
BRANCH  45  46
HETATM   46  C   UNK     0     -26.936  15.102  18.198  0.00  0.00     0.114 C 
BRANCH  46  47
HETATM   47  C   UNK     0     -28.046  14.107  18.232  0.00  0.00     0.139 C 
HETATM   48  O   UNK     0     -27.870  13.044  18.844  0.00  0.00    -0.650 OA
BRANCH  47  49
HETATM   49  O   UNK     0     -29.237  14.362  17.600  0.00  0.00    -0.776 OA
HETATM   50  H   UNK     0     -29.507  15.308  17.307  0.00  0.00     0.167 HD
ENDBRANCH  47  49
ENDBRANCH  46  47
ENDBRANCH  45  46
ENDBRANCH  11  45
BRANCH  18  51
HETATM   51  C   UNK     0     -26.868  20.019  14.443  0.00  0.00     0.051 C 
BRANCH  51  52
HETATM   52  C   UNK     0     -26.971  19.673  12.965  0.00  0.00     0.114 C 
BRANCH  52  53
HETATM   53  C   UNK     0     -28.367  19.717  12.487  0.00  0.00     0.139 C 
HETATM   54  O   UNK     0     -28.936  20.809  12.329  0.00  0.00    -0.650 OA
BRANCH  53  55
HETATM   55  O   UNK     0     -29.031  18.544  12.222  0.00  0.00    -0.776 OA
HETATM   56  H   UNK     0     -29.491  18.312  11.373  0.00  0.00     0.167 HD
ENDBRANCH  53  55
ENDBRANCH  52  53
ENDBRANCH  51  52
ENDBRANCH  18  51
TORSDOF 16
ENDMDL
MODEL 17
REMARK VINA RESULT:      -7.6     21.472     25.081
REMARK  16 active torsions:
REMARK  status: ('A' for Active; 'I' for Inactive)
REMARK    1  A    between atoms: C_6  and  C_7 
REMARK    2  A    between atoms: C_7  and  C_8 
REMARK    3  A    between atoms: C_8  and  C_9 
REMARK    4  A    between atoms: C_9  and  O_11 
REMARK    5  A    between atoms: C_16  and  C_17 
REMARK    6  A    between atoms: C_17  and  C_18 
REMARK    7  A    between atoms: C_18  and  C_19 
REMARK    8  A    between atoms: C_19  and  O_21 
REMARK    9  A    between atoms: C_28  and  C_29 
REMARK   10  A    between atoms: C_29  and  C_30 
REMARK   11  A    between atoms: C_30  and  C_31 
REMARK   12  A    between atoms: C_31  and  O_33 
REMARK   13  A    between atoms: C_42  and  C_43 
REMARK   14  A    between atoms: C_43  and  C_44 
REMARK   15  A    between atoms: C_44  and  C_45 
REMARK   16  A    between atoms: C_45  and  O_47 
ROOT
HETATM    1  C   UNK     0     -24.769  23.773  14.646  0.00  0.00     0.051 C 
HETATM    2  C   UNK     0     -23.529  23.559  15.491  0.00  0.00    -0.031 A 
HETATM    3  C   UNK     0     -22.475  24.423  15.741  0.00  0.00     0.021 A 
HETATM    4  N   UNK     0     -21.569  23.797  16.528  0.00  0.00    -0.361 N 
HETATM    5  C   UNK     0     -22.026  22.556  16.792  0.00  0.00     0.022 A 
HETATM    6  C   UNK     0     -23.249  22.372  16.156  0.00  0.00    -0.027 A 
HETATM    7  C   UNK     0     -21.452  21.500  17.684  0.00  0.00     0.115 C 
HETATM    8  C   UNK     0     -20.912  21.961  19.027  0.00  0.00     0.021 A 
HETATM    9  N   UNK     0     -21.379  22.933  19.826  0.00  0.00    -0.361 N 
HETATM   10  C   UNK     0     -20.533  23.058  20.871  0.00  0.00     0.022 A 
HETATM   11  C   UNK     0     -19.499  22.135  20.746  0.00  0.00    -0.027 A 
HETATM   12  C   UNK     0     -19.732  21.440  19.586  0.00  0.00    -0.031 A 
HETATM   13  C   UNK     0     -18.864  20.327  19.045  0.00  0.00     0.051 C 
HETATM   14  C   UNK     0     -20.636  24.083  21.996  0.00  0.00     0.115 C 
HETATM   15  C   UNK     0     -20.562  25.526  21.523  0.00  0.00     0.021 A 
HETATM   16  N   UNK     0     -21.373  26.145  20.645  0.00  0.00    -0.361 N 
HETATM   17  C   UNK     0     -20.932  27.389  20.443  0.00  0.00     0.022 A 
HETATM   18  C   UNK     0     -19.784  27.593  21.234  0.00  0.00    -0.027 A 
HETATM   19  C   UNK     0     -19.563  26.419  21.907  0.00  0.00    -0.031 A 
HETATM   20  C   UNK     0     -18.437  26.217  22.904  0.00  0.00     0.051 C 
HETATM   21  C   UNK     0     -21.441  28.460  19.505  0.00  0.00     0.115 C 
HETATM   22  C   UNK     0     -22.022  28.012  18.184  0.00  0.00     0.022 A 
HETATM   23  N   UNK     0     -21.581  27.045  17.369  0.00  0.00    -0.361 N 
HETATM   24  C   UNK     0     -22.480  26.885  16.377  0.00  0.00     0.021 A 
HETATM   25  C   UNK     0     -23.519  27.778  16.552  0.00  0.00    -0.031 A 
HETATM   26  C   UNK     0     -24.737  28.006  15.680  0.00  0.00     0.051 C 
HETATM   27  C   UNK     0     -23.249  28.511  17.702  0.00  0.00    -0.027 A 
HETATM   28  C   UNK     0     -22.464  25.849  15.267  0.00  0.00     0.115 C 
HETATM   29  H   UNK     0     -20.593  24.223  16.859  0.00  0.00     0.165 HD
HETATM   30  H   UNK     0     -22.332  23.498  19.682  0.00  0.00     0.165 HD
HETATM   31  H   UNK     0     -22.304  25.713  20.195  0.00  0.00     0.165 HD
HETATM   32  H   UNK     0     -20.608  26.495  17.463  0.00  0.00     0.165 HD
ENDROOT
BRANCH   6  33
HETATM   33  C   UNK     0     -24.159  21.170  16.131  0.00  0.00     0.051 C 
BRANCH  33  34
HETATM   34  C   UNK     0     -23.731  20.198  15.057  0.00  0.00     0.114 C 
BRANCH  34  35
HETATM   35  C   UNK     0     -24.095  18.829  15.524  0.00  0.00     0.139 C 
HETATM   36  O   UNK     0     -25.254  18.370  15.309  0.00  0.00    -0.650 OA
BRANCH  35  37
HETATM   37  O   UNK     0     -23.201  18.006  16.199  0.00  0.00    -0.776 OA
HETATM   38  H   UNK     0     -23.506  17.342  16.892  0.00  0.00     0.167 HD
ENDBRANCH  35  37
ENDBRANCH  34  35
ENDBRANCH  33  34
ENDBRANCH   6  33
BRANCH  27  39
HETATM   39  C   UNK     0     -24.114  29.625  18.176  0.00  0.00     0.051 C 
BRANCH  39  40
HETATM   40  C   UNK     0     -23.828  30.977  17.698  0.00  0.00     0.114 C 
BRANCH  40  41
HETATM   41  C   UNK     0     -24.787  31.744  16.935  0.00  0.00     0.139 C 
HETATM   42  O   UNK     0     -24.472  32.669  16.174  0.00  0.00    -0.650 OA
BRANCH  41  43
HETATM   43  O   UNK     0     -26.171  31.433  17.052  0.00  0.00    -0.776 OA
HETATM   44  H   UNK     0     -26.709  32.107  17.584  0.00  0.00     0.167 HD
ENDBRANCH  41  43
ENDBRANCH  40  41
ENDBRANCH  39  40
ENDBRANCH  27  39
BRANCH  11  45
HETATM   45  C   UNK     0     -18.332  21.897  21.667  0.00  0.00     0.051 C 
BRANCH  45  46
HETATM   46  C   UNK     0     -18.686  21.185  22.921  0.00  0.00     0.114 C 
BRANCH  46  47
HETATM   47  C   UNK     0     -18.483  19.728  22.675  0.00  0.00     0.139 C 
HETATM   48  O   UNK     0     -19.466  19.035  22.379  0.00  0.00    -0.650 OA
BRANCH  47  49
HETATM   49  O   UNK     0     -17.235  19.166  22.775  0.00  0.00    -0.776 OA
HETATM   50  H   UNK     0     -17.072  18.167  22.602  0.00  0.00     0.167 HD
ENDBRANCH  47  49
ENDBRANCH  46  47
ENDBRANCH  45  46
ENDBRANCH  11  45
BRANCH  18  51
HETATM   51  C   UNK     0     -18.955  28.845  21.358  0.00  0.00     0.051 C 
BRANCH  51  52
HETATM   52  C   UNK     0     -19.598  29.674  22.460  0.00  0.00     0.114 C 
BRANCH  52  53
HETATM   53  C   UNK     0     -20.244  30.889  21.926  0.00  0.00     0.139 C 
HETATM   54  O   UNK     0     -21.481  30.992  21.937  0.00  0.00    -0.650 OA
BRANCH  53  55
HETATM   55  O   UNK     0     -19.469  31.902  21.416  0.00  0.00    -0.776 OA
HETATM   56  H   UNK     0     -19.478  32.850  21.712  0.00  0.00     0.167 HD
ENDBRANCH  53  55
ENDBRANCH  52  53
ENDBRANCH  51  52
ENDBRANCH  18  51
TORSDOF 16
ENDMDL
MODEL 18
REMARK VINA RESULT:      -7.6     17.919     20.563
REMARK  16 active torsions:
REMARK  status: ('A' for Active; 'I' for Inactive)
REMARK    1  A    between atoms: C_6  and  C_7 
REMARK    2  A    between atoms: C_7  and  C_8 
REMARK    3  A    between atoms: C_8  and  C_9 
REMARK    4  A    between atoms: C_9  and  O_11 
REMARK    5  A    between atoms: C_16  and  C_17 
REMARK    6  A    between atoms: C_17  and  C_18 
REMARK    7  A    between atoms: C_18  and  C_19 
REMARK    8  A    between atoms: C_19  and  O_21 
REMARK    9  A    between atoms: C_28  and  C_29 
REMARK   10  A    between atoms: C_29  and  C_30 
REMARK   11  A    between atoms: C_30  and  C_31 
REMARK   12  A    between atoms: C_31  and  O_33 
REMARK   13  A    between atoms: C_42  and  C_43 
REMARK   14  A    between atoms: C_43  and  C_44 
REMARK   15  A    between atoms: C_44  and  C_45 
REMARK   16  A    between atoms: C_45  and  O_47 
ROOT
HETATM    1  C   UNK     0     -19.396  21.276  21.760  0.00  0.00     0.051 C 
HETATM    2  C   UNK     0     -20.565  20.492  21.199  0.00  0.00    -0.031 A 
HETATM    3  C   UNK     0     -21.846  20.922  20.891  0.00  0.00     0.021 A 
HETATM    4  N   UNK     0     -22.569  19.869  20.443  0.00  0.00    -0.361 N 
HETATM    5  C   UNK     0     -21.775  18.778  20.452  0.00  0.00     0.022 A 
HETATM    6  C   UNK     0     -20.515  19.132  20.922  0.00  0.00    -0.027 A 
HETATM    7  C   UNK     0     -22.059  17.390  19.969  0.00  0.00     0.115 C 
HETATM    8  C   UNK     0     -22.800  17.266  18.649  0.00  0.00     0.021 A 
HETATM    9  N   UNK     0     -22.705  18.044  17.560  0.00  0.00    -0.361 N 
HETATM   10  C   UNK     0     -23.615  17.618  16.659  0.00  0.00     0.022 A 
HETATM   11  C   UNK     0     -24.310  16.530  17.179  0.00  0.00    -0.027 A 
HETATM   12  C   UNK     0     -23.801  16.302  18.432  0.00  0.00    -0.031 A 
HETATM   13  C   UNK     0     -24.252  15.208  19.374  0.00  0.00     0.051 C 
HETATM   14  C   UNK     0     -23.903  18.250  15.300  0.00  0.00     0.115 C 
HETATM   15  C   UNK     0     -24.381  19.691  15.380  0.00  0.00     0.021 A 
HETATM   16  N   UNK     0     -23.740  20.740  15.930  0.00  0.00    -0.361 N 
HETATM   17  C   UNK     0     -24.523  21.818  15.859  0.00  0.00     0.022 A 
HETATM   18  C   UNK     0     -25.729  21.457  15.225  0.00  0.00    -0.027 A 
HETATM   19  C   UNK     0     -25.626  20.123  14.929  0.00  0.00    -0.031 A 
HETATM   20  C   UNK     0     -26.701  19.335  14.202  0.00  0.00     0.051 C 
HETATM   21  C   UNK     0     -24.303  23.216  16.392  0.00  0.00     0.115 C 
HETATM   22  C   UNK     0     -23.528  23.357  17.681  0.00  0.00     0.022 A 
HETATM   23  N   UNK     0     -23.600  22.594  18.780  0.00  0.00    -0.361 N 
HETATM   24  C   UNK     0     -22.631  22.987  19.632  0.00  0.00     0.021 A 
HETATM   25  C   UNK     0     -21.926  24.035  19.073  0.00  0.00    -0.031 A 
HETATM   26  C   UNK     0     -20.780  24.834  19.659  0.00  0.00     0.051 C 
HETATM   27  C   UNK     0     -22.481  24.290  17.824  0.00  0.00    -0.027 A 
HETATM   28  C   UNK     0     -22.259  22.365  20.967  0.00  0.00     0.115 C 
HETATM   29  H   UNK     0     -23.648  19.895  20.162  0.00  0.00     0.165 HD
HETATM   30  H   UNK     0     -21.961  18.864  17.404  0.00  0.00     0.165 HD
HETATM   31  H   UNK     0     -22.694  20.730  16.333  0.00  0.00     0.165 HD
HETATM   32  H   UNK     0     -24.363  21.799  18.983  0.00  0.00     0.165 HD
ENDROOT
BRANCH   6  33
HETATM   33  C   UNK     0     -19.283  18.286  21.127  0.00  0.00     0.051 C 
BRANCH  33  34
HETATM   34  C   UNK     0     -19.316  17.612  22.478  0.00  0.00     0.114 C 
BRANCH  34  35
HETATM   35  C   UNK     0     -18.200  18.179  23.288  0.00  0.00     0.139 C 
HETATM   36  O   UNK     0     -18.331  18.328  24.538  0.00  0.00    -0.650 OA
BRANCH  35  37
HETATM   37  O   UNK     0     -16.988  18.563  22.727  0.00  0.00    -0.776 OA
HETATM   38  H   UNK     0     -16.116  18.471  23.224  0.00  0.00     0.167 HD
ENDBRANCH  35  37
ENDBRANCH  34  35
ENDBRANCH  33  34
ENDBRANCH   6  33
BRANCH  27  39
HETATM   39  C   UNK     0     -22.028  25.404  16.947  0.00  0.00     0.051 C 
BRANCH  39  40
HETATM   40  C   UNK     0     -21.194  25.080  15.790  0.00  0.00     0.114 C 
BRANCH  40  41
HETATM   41  C   UNK     0     -20.513  23.811  15.661  0.00  0.00     0.139 C 
HETATM   42  O   UNK     0     -19.371  23.602  16.092  0.00  0.00    -0.650 OA
BRANCH  41  43
HETATM   43  O   UNK     0     -21.177  22.735  15.007  0.00  0.00    -0.776 OA
HETATM   44  H   UNK     0     -21.282  21.901  15.573  0.00  0.00     0.167 HD
ENDBRANCH  41  43
ENDBRANCH  40  41
ENDBRANCH  39  40
ENDBRANCH  27  39
BRANCH  11  45
HETATM   45  C   UNK     0     -25.407  15.721  16.541  0.00  0.00     0.051 C 
BRANCH  45  46
HETATM   46  C   UNK     0     -26.687  16.457  16.379  0.00  0.00     0.114 C 
BRANCH  46  47
HETATM   47  C   UNK     0     -27.219  16.125  15.026  0.00  0.00     0.139 C 
HETATM   48  O   UNK     0     -28.447  16.086  14.866  0.00  0.00    -0.650 OA
BRANCH  47  49
HETATM   49  O   UNK     0     -26.369  15.868  13.981  0.00  0.00    -0.776 OA
HETATM   50  H   UNK     0     -25.703  16.568  13.634  0.00  0.00     0.167 HD
ENDBRANCH  47  49
ENDBRANCH  46  47
ENDBRANCH  45  46
ENDBRANCH  11  45
BRANCH  18  51
HETATM   51  C   UNK     0     -26.905  22.341  14.900  0.00  0.00     0.051 C 
BRANCH  51  52
HETATM   52  C   UNK     0     -26.742  22.749  13.443  0.00  0.00     0.114 C 
BRANCH  52  53
HETATM   53  C   UNK     0     -26.140  24.090  13.313  0.00  0.00     0.139 C 
HETATM   54  O   UNK     0     -26.605  25.045  13.955  0.00  0.00    -0.650 OA
BRANCH  53  55
HETATM   55  O   UNK     0     -25.067  24.275  12.475  0.00  0.00    -0.776 OA
HETATM   56  H   UNK     0     -24.909  25.063  11.893  0.00  0.00     0.167 HD
ENDBRANCH  53  55
ENDBRANCH  52  53
ENDBRANCH  51  52
ENDBRANCH  18  51
TORSDOF 16
ENDMDL
MODEL 19
REMARK VINA RESULT:      -7.5     17.995     20.718
REMARK  16 active torsions:
REMARK  status: ('A' for Active; 'I' for Inactive)
REMARK    1  A    between atoms: C_6  and  C_7 
REMARK    2  A    between atoms: C_7  and  C_8 
REMARK    3  A    between atoms: C_8  and  C_9 
REMARK    4  A    between atoms: C_9  and  O_11 
REMARK    5  A    between atoms: C_16  and  C_17 
REMARK    6  A    between atoms: C_17  and  C_18 
REMARK    7  A    between atoms: C_18  and  C_19 
REMARK    8  A    between atoms: C_19  and  O_21 
REMARK    9  A    between atoms: C_28  and  C_29 
REMARK   10  A    between atoms: C_29  and  C_30 
REMARK   11  A    between atoms: C_30  and  C_31 
REMARK   12  A    between atoms: C_31  and  O_33 
REMARK   13  A    between atoms: C_42  and  C_43 
REMARK   14  A    between atoms: C_43  and  C_44 
REMARK   15  A    between atoms: C_44  and  C_45 
REMARK   16  A    between atoms: C_45  and  O_47 
ROOT
HETATM    1  C   UNK     0     -26.035  14.730  18.448  0.00  0.00     0.051 C 
HETATM    2  C   UNK     0     -24.723  15.451  18.680  0.00  0.00    -0.031 A 
HETATM    3  C   UNK     0     -23.880  16.061  17.764  0.00  0.00     0.021 A 
HETATM    4  N   UNK     0     -22.801  16.554  18.417  0.00  0.00    -0.361 N 
HETATM    5  C   UNK     0     -22.941  16.278  19.730  0.00  0.00     0.022 A 
HETATM    6  C   UNK     0     -24.132  15.587  19.930  0.00  0.00    -0.027 A 
HETATM    7  C   UNK     0     -22.079  16.682  20.885  0.00  0.00     0.115 C 
HETATM    8  C   UNK     0     -21.566  18.112  20.886  0.00  0.00     0.021 A 
HETATM    9  N   UNK     0     -22.185  19.222  20.456  0.00  0.00    -0.361 N 
HETATM   10  C   UNK     0     -21.319  20.252  20.562  0.00  0.00     0.022 A 
HETATM   11  C   UNK     0     -20.112  19.794  21.083  0.00  0.00    -0.027 A 
HETATM   12  C   UNK     0     -20.261  18.446  21.289  0.00  0.00    -0.031 A 
HETATM   13  C   UNK     0     -19.201  17.526  21.851  0.00  0.00     0.051 C 
HETATM   14  C   UNK     0     -21.575  21.693  20.129  0.00  0.00     0.115 C 
HETATM   15  C   UNK     0     -21.867  21.848  18.645  0.00  0.00     0.021 A 
HETATM   16  N   UNK     0     -22.859  21.273  17.939  0.00  0.00    -0.361 N 
HETATM   17  C   UNK     0     -22.730  21.605  16.653  0.00  0.00     0.022 A 
HETATM   18  C   UNK     0     -21.606  22.444  16.515  0.00  0.00    -0.027 A 
HETATM   19  C   UNK     0     -21.076  22.589  17.771  0.00  0.00    -0.031 A 
HETATM   20  C   UNK     0     -19.865  23.451  18.081  0.00  0.00     0.051 C 
HETATM   21  C   UNK     0     -23.536  21.167  15.451  0.00  0.00     0.115 C 
HETATM   22  C   UNK     0     -24.090  19.761  15.457  0.00  0.00     0.022 A 
HETATM   23  N   UNK     0     -23.498  18.638  15.882  0.00  0.00    -0.361 N 
HETATM   24  C   UNK     0     -24.404  17.640  15.841  0.00  0.00     0.021 A 
HETATM   25  C   UNK     0     -25.606  18.131  15.368  0.00  0.00    -0.031 A 
HETATM   26  C   UNK     0     -26.901  17.391  15.108  0.00  0.00     0.051 C 
HETATM   27  C   UNK     0     -25.430  19.486  15.115  0.00  0.00    -0.027 A 
HETATM   28  C   UNK     0     -24.229  16.206  16.310  0.00  0.00     0.115 C 
HETATM   29  H   UNK     0     -21.928  17.057  17.940  0.00  0.00     0.165 HD
HETATM   30  H   UNK     0     -23.250  19.292  20.125  0.00  0.00     0.165 HD
HETATM   31  H   UNK     0     -23.695  20.659  18.364  0.00  0.00     0.165 HD
HETATM   32  H   UNK     0     -22.421  18.529  16.174  0.00  0.00     0.165 HD
ENDROOT
BRANCH   6  33
HETATM   33  C   UNK     0     -24.741  15.050  21.200  0.00  0.00     0.051 C 
BRANCH  33  34
HETATM   34  C   UNK     0     -24.429  13.582  21.364  0.00  0.00     0.114 C 
BRANCH  34  35
HETATM   35  C   UNK     0     -23.188  13.478  22.185  0.00  0.00     0.139 C 
HETATM   36  O   UNK     0     -23.221  13.731  23.424  0.00  0.00    -0.650 OA
BRANCH  35  37
HETATM   37  O   UNK     0     -21.963  13.103  21.646  0.00  0.00    -0.776 OA
HETATM   38  H   UNK     0     -21.509  13.641  20.926  0.00  0.00     0.167 HD
ENDBRANCH  35  37
ENDBRANCH  34  35
ENDBRANCH  33  34
ENDBRANCH   6  33
BRANCH  27  39
HETATM   39  C   UNK     0     -26.492  20.345  14.525  0.00  0.00     0.051 C 
BRANCH  39  40
HETATM   40  C   UNK     0     -26.296  20.858  13.169  0.00  0.00     0.114 C 
BRANCH  40  41
HETATM   41  C   UNK     0     -26.242  22.273  12.881  0.00  0.00     0.139 C 
HETATM   42  O   UNK     0     -27.103  23.081  13.256  0.00  0.00    -0.650 OA
BRANCH  41  43
HETATM   43  O   UNK     0     -25.148  22.783  12.126  0.00  0.00    -0.776 OA
HETATM   44  H   UNK     0     -25.384  23.557  11.516  0.00  0.00     0.167 HD
ENDBRANCH  41  43
ENDBRANCH  40  41
ENDBRANCH  39  40
ENDBRANCH  27  39
BRANCH  11  45
HETATM   45  C   UNK     0     -18.860  20.574  21.384  0.00  0.00     0.051 C 
BRANCH  45  46
HETATM   46  C   UNK     0     -19.065  21.713  22.314  0.00  0.00     0.114 C 
BRANCH  46  47
HETATM   47  C   UNK     0     -18.257  21.436  23.537  0.00  0.00     0.139 C 
HETATM   48  O   UNK     0     -17.879  22.393  24.226  0.00  0.00    -0.650 OA
BRANCH  47  49
HETATM   49  O   UNK     0     -17.938  20.150  23.891  0.00  0.00    -0.776 OA
HETATM   50  H   UNK     0     -17.855  19.859  24.872  0.00  0.00     0.167 HD
ENDBRANCH  47  49
ENDBRANCH  46  47
ENDBRANCH  45  46
ENDBRANCH  11  45
BRANCH  18  51
HETATM   51  C   UNK     0     -21.080  23.089  15.260  0.00  0.00     0.051 C 
BRANCH  51  52
HETATM   52  C   UNK     0     -21.874  24.373  15.075  0.00  0.00     0.114 C 
BRANCH  52  53
HETATM   53  C   UNK     0     -22.817  24.279  13.944  0.00  0.00     0.139 C 
HETATM   54  O   UNK     0     -23.881  24.917  13.966  0.00  0.00    -0.650 OA
BRANCH  53  55
HETATM   55  O   UNK     0     -22.511  23.480  12.869  0.00  0.00    -0.776 OA
HETATM   56  H   UNK     0     -23.083  23.328  12.072  0.00  0.00     0.167 HD
ENDBRANCH  53  55
ENDBRANCH  52  53
ENDBRANCH  51  52
ENDBRANCH  18  51
TORSDOF 16
ENDMDL
MODEL 20
REMARK VINA RESULT:      -7.5     18.124     20.575
REMARK  16 active torsions:
REMARK  status: ('A' for Active; 'I' for Inactive)
REMARK    1  A    between atoms: C_6  and  C_7 
REMARK    2  A    between atoms: C_7  and  C_8 
REMARK    3  A    between atoms: C_8  and  C_9 
REMARK    4  A    between atoms: C_9  and  O_11 
REMARK    5  A    between atoms: C_16  and  C_17 
REMARK    6  A    between atoms: C_17  and  C_18 
REMARK    7  A    between atoms: C_18  and  C_19 
REMARK    8  A    between atoms: C_19  and  O_21 
REMARK    9  A    between atoms: C_28  and  C_29 
REMARK   10  A    between atoms: C_29  and  C_30 
REMARK   11  A    between atoms: C_30  and  C_31 
REMARK   12  A    between atoms: C_31  and  O_33 
REMARK   13  A    between atoms: C_42  and  C_43 
REMARK   14  A    between atoms: C_43  and  C_44 
REMARK   15  A    between atoms: C_44  and  C_45 
REMARK   16  A    between atoms: C_45  and  O_47 
ROOT
HETATM    1  C   UNK     0     -23.202  15.536  18.502  0.00  0.00     0.051 C 
HETATM    2  C   UNK     0     -23.766  16.824  17.937  0.00  0.00    -0.031 A 
HETATM    3  C   UNK     0     -23.903  18.064  18.540  0.00  0.00     0.021 A 
HETATM    4  N   UNK     0     -24.489  18.918  17.667  0.00  0.00    -0.361 N 
HETATM    5  C   UNK     0     -24.719  18.251  16.517  0.00  0.00     0.022 A 
HETATM    6  C   UNK     0     -24.282  16.937  16.652  0.00  0.00    -0.027 A 
HETATM    7  C   UNK     0     -25.257  18.756  15.215  0.00  0.00     0.115 C 
HETATM    8  C   UNK     0     -24.734  20.099  14.736  0.00  0.00     0.021 A 
HETATM    9  N   UNK     0     -23.501  20.612  14.871  0.00  0.00    -0.361 N 
HETATM   10  C   UNK     0     -23.513  21.868  14.377  0.00  0.00     0.022 A 
HETATM   11  C   UNK     0     -24.786  22.169  13.901  0.00  0.00    -0.027 A 
HETATM   12  C   UNK     0     -25.560  21.058  14.124  0.00  0.00    -0.031 A 
HETATM   13  C   UNK     0     -27.022  20.925  13.762  0.00  0.00     0.051 C 
HETATM   14  C   UNK     0     -22.345  22.850  14.381  0.00  0.00     0.115 C 
HETATM   15  C   UNK     0     -21.842  23.202  15.772  0.00  0.00     0.021 A 
HETATM   16  N   UNK     0     -21.370  22.362  16.712  0.00  0.00    -0.361 N 
HETATM   17  C   UNK     0     -21.098  23.054  17.821  0.00  0.00     0.022 A 
HETATM   18  C   UNK     0     -21.398  24.411  17.589  0.00  0.00    -0.027 A 
HETATM   19  C   UNK     0     -21.862  24.491  16.302  0.00  0.00    -0.031 A 
HETATM   20  C   UNK     0     -22.268  25.790  15.631  0.00  0.00     0.051 C 
HETATM   21  C   UNK     0     -20.618  22.574  19.172  0.00  0.00     0.115 C 
HETATM   22  C   UNK     0     -21.096  21.220  19.642  0.00  0.00     0.022 A 
HETATM   23  N   UNK     0     -22.316  20.682  19.517  0.00  0.00    -0.361 N 
HETATM   24  C   UNK     0     -22.261  19.404  19.944  0.00  0.00     0.021 A 
HETATM   25  C   UNK     0     -20.976  19.116  20.364  0.00  0.00    -0.031 A 
HETATM   26  C   UNK     0     -20.433  17.834  20.960  0.00  0.00     0.051 C 
HETATM   27  C   UNK     0     -20.213  20.263  20.181  0.00  0.00    -0.027 A 
HETATM   28  C   UNK     0     -23.368  18.364  19.911  0.00  0.00     0.115 C 
HETATM   29  H   UNK     0     -24.771  19.974  17.882  0.00  0.00     0.165 HD
HETATM   30  H   UNK     0     -22.607  20.072  15.270  0.00  0.00     0.165 HD
HETATM   31  H   UNK     0     -21.180  21.266  16.576  0.00  0.00     0.165 HD
HETATM   32  H   UNK     0     -23.239  21.212  19.166  0.00  0.00     0.165 HD
ENDROOT
BRANCH   6  33
HETATM   33  C   UNK     0     -24.318  15.796  15.667  0.00  0.00     0.051 C 
BRANCH  33  34
HETATM   34  C   UNK     0     -25.569  14.971  15.851  0.00  0.00     0.114 C 
BRANCH  34  35
HETATM   35  C   UNK     0     -26.650  15.614  15.050  0.00  0.00     0.139 C 
HETATM   36  O   UNK     0     -27.717  15.997  15.612  0.00  0.00    -0.650 OA
BRANCH  35  37
HETATM   37  O   UNK     0     -26.545  15.823  13.680  0.00  0.00    -0.776 OA
HETATM   38  H   UNK     0     -25.805  16.376  13.279  0.00  0.00     0.167 HD
ENDBRANCH  35  37
ENDBRANCH  34  35
ENDBRANCH  33  34
ENDBRANCH   6  33
BRANCH  27  39
HETATM   39  C   UNK     0     -18.785  20.360  20.588  0.00  0.00     0.051 C 
BRANCH  39  40
HETATM   40  C   UNK     0     -18.481  20.713  21.975  0.00  0.00     0.114 C 
BRANCH  40  41
HETATM   41  C   UNK     0     -18.122  19.720  22.962  0.00  0.00     0.139 C 
HETATM   42  O   UNK     0     -18.664  19.633  24.072  0.00  0.00    -0.650 OA
BRANCH  41  43
HETATM   43  O   UNK     0     -17.093  18.784  22.659  0.00  0.00    -0.776 OA
HETATM   44  H   UNK     0     -16.280  18.846  23.260  0.00  0.00     0.167 HD
ENDBRANCH  41  43
ENDBRANCH  40  41
ENDBRANCH  39  40
ENDBRANCH  27  39
BRANCH  11  45
HETATM   45  C   UNK     0     -25.276  23.438  13.258  0.00  0.00     0.051 C 
BRANCH  45  46
HETATM   46  C   UNK     0     -25.581  24.527  14.222  0.00  0.00     0.114 C 
BRANCH  46  47
HETATM   47  C   UNK     0     -25.666  25.795  13.443  0.00  0.00     0.139 C 
HETATM   48  O   UNK     0     -26.285  25.791  12.370  0.00  0.00    -0.650 OA
BRANCH  47  49
HETATM   49  O   UNK     0     -25.071  26.943  13.902  0.00  0.00    -0.776 OA
HETATM   50  H   UNK     0     -25.616  27.777  14.151  0.00  0.00     0.167 HD
ENDBRANCH  47  49
ENDBRANCH  46  47
ENDBRANCH  45  46
ENDBRANCH  11  45
BRANCH  18  51
HETATM   51  C   UNK     0     -21.231  25.571  18.536  0.00  0.00     0.051 C 
BRANCH  51  52
HETATM   52  C   UNK     0     -19.805  26.070  18.351  0.00  0.00     0.114 C 
BRANCH  52  53
HETATM   53  C   UNK     0     -19.474  27.149  19.301  0.00  0.00     0.139 C 
HETATM   54  O   UNK     0     -18.930  26.879  20.384  0.00  0.00    -0.650 OA
BRANCH  53  55
HETATM   55  O   UNK     0     -19.772  28.451  18.981  0.00  0.00    -0.776 OA
HETATM   56  H   UNK     0     -19.786  29.219  19.611  0.00  0.00     0.167 HD
ENDBRANCH  53  55
ENDBRANCH  52  53
ENDBRANCH  51  52
ENDBRANCH  18  51
TORSDOF 16
ENDMDL
