MODEL 1
REMARK VINA RESULT:     -10.2      0.000      0.000
REMARK  28 active torsions:
REMARK  status: ('A' for Active; 'I' for Inactive)
REMARK    1  A    between atoms: C_2  and  O_3 
REMARK    2  A    between atoms: C_2  and  C_4 
REMARK    3  A    between atoms: C_4  and  C_5 
REMARK    4  A    between atoms: C_5  and  C_6 
REMARK    5  A    between atoms: C_7  and  C_8 
REMARK    6  A    between atoms: C_8  and  C_9 
REMARK    7  A    between atoms: C_9  and  O_11 
REMARK    8  A    between atoms: C_28  and  C_29 
REMARK    9  A    between atoms: C_29  and  C_30 
REMARK   10  A    between atoms: C_30  and  O_32 
REMARK   11  A    between atoms: C_33  and  C_34 
REMARK   12  A    between atoms: C_34  and  C_35 
REMARK   13  A    between atoms: C_35  and  C_36 
REMARK   14  A    between atoms: C_36  and  O_38 
REMARK   15  A    between atoms: C_39  and  C_40 
REMARK   16  A    between atoms: C_40  and  C_41 
REMARK   17  A    between atoms: C_41  and  C_42 
REMARK   18  A    between atoms: C_42  and  O_44 
REMARK   19  A    between atoms: C_45  and  C_46 
REMARK   20  A    between atoms: C_46  and  C_47 
REMARK   21  A    between atoms: C_47  and  O_49 
REMARK   22  A    between atoms: C_50  and  C_51 
REMARK   23  A    between atoms: C_51  and  C_52 
REMARK   24  A    between atoms: C_52  and  O_54 
REMARK   25  A    between atoms: C_55  and  C_56 
REMARK   26  A    between atoms: C_56  and  C_57 
REMARK   27  A    between atoms: C_57  and  C_58 
REMARK   28  A    between atoms: C_58  and  O_60 
ROOT
ATOM      1  O   UNK d   0      39.102  -3.054  46.987  0.00  0.00    -0.650 OA
ATOM      2  C   UNK d   0      37.910  -2.979  47.359  0.00  0.00     0.139 C 
ENDROOT
BRANCH   2   3
ATOM      3  O   UNK d   0      37.291  -4.096  47.866  0.00  0.00    -0.776 OA
ATOM      4  H   UNK d   0      37.814  -4.958  48.034  0.00  0.00     0.167 HD
ENDBRANCH   2   3
BRANCH   2   5
ATOM      5  C   UNK d   0      37.172  -1.689  47.251  0.00  0.00     0.115 C 
BRANCH   5   6
ATOM      6  C   UNK d   0      35.697  -1.918  47.441  0.00  0.00     0.052 C 
BRANCH   6   7
ATOM      7  C   UNK d   0      34.913  -1.749  46.162  0.00  0.00    -0.020 A 
ATOM      8  C   UNK d   0      34.277  -0.682  45.751  0.00  0.00    -0.011 A 
ATOM      9  C   UNK d   0      33.664  -0.994  44.471  0.00  0.00     0.067 A 
ATOM     10  C   UNK d   0      32.890  -0.306  43.524  0.00  0.00     0.062 C 
ATOM     11  N   UNK d   0      33.974  -2.275  44.180  0.00  0.00    -0.248 NA
ATOM     12  C   UNK d   0      32.622  -0.692  42.206  0.00  0.00     0.041 A 
ATOM     13  N   UNK d   0      32.298  -1.890  41.682  0.00  0.00    -0.355 N 
ATOM     14  C   UNK d   0      32.740   0.262  41.180  0.00  0.00    -0.022 A 
ATOM     15  C   UNK d   0      32.216  -1.721  40.349  0.00  0.00     0.042 A 
ATOM     16  H   UNK d   0      32.112  -2.831  42.245  0.00  0.00     0.166 HD
ATOM     17  C   UNK d   0      31.909  -2.644  39.329  0.00  0.00     0.062 C 
ATOM     18  C   UNK d   0      32.487  -0.385  39.996  0.00  0.00    -0.013 A 
ATOM     19  C   UNK d   0      32.369  -3.924  39.157  0.00  0.00     0.067 A 
ATOM     20  N   UNK d   0      33.044  -4.466  40.174  0.00  0.00    -0.248 NA
ATOM     21  C   UNK d   0      32.333  -4.913  38.093  0.00  0.00    -0.011 A 
ATOM     22  C   UNK d   0      33.453  -5.737  39.852  0.00  0.00     0.066 A 
ATOM     23  C   UNK d   0      34.136  -6.433  40.838  0.00  0.00     0.062 C 
ATOM     24  C   UNK d   0      32.972  -5.970  38.504  0.00  0.00    -0.020 A 
ATOM     25  C   UNK d   0      34.384  -6.032  42.160  0.00  0.00     0.041 A 
ATOM     26  N   UNK d   0      34.720  -4.845  42.679  0.00  0.00    -0.355 N 
ATOM     27  C   UNK d   0      34.260  -6.990  43.190  0.00  0.00    -0.022 A 
ATOM     28  C   UNK d   0      34.811  -5.013  44.008  0.00  0.00     0.042 A 
ATOM     29  H   UNK d   0      34.917  -3.903  42.111  0.00  0.00     0.166 HD
ATOM     30  C   UNK d   0      35.124  -4.106  45.033  0.00  0.00     0.062 C 
ATOM     31  C   UNK d   0      34.528  -6.353  44.363  0.00  0.00    -0.013 A 
ATOM     32  C   UNK d   0      34.724  -2.785  45.158  0.00  0.00     0.066 A 
BRANCH   8  33
ATOM     33  C   UNK d   0      34.180   0.614  46.448  0.00  0.00     0.151 C 
BRANCH  33  34
ATOM     34  C   UNK d   0      33.562   1.664  45.618  0.00  0.00     0.143 C 
ATOM     35  O   UNK d   0      34.252   2.376  44.874  0.00  0.00    -0.650 OA
BRANCH  34  36
ATOM     36  O   UNK d   0      32.201   1.854  45.674  0.00  0.00    -0.776 OA
ATOM     37  H   UNK d   0      31.546   1.122  45.369  0.00  0.00     0.167 HD
ENDBRANCH  34  36
ENDBRANCH  33  34
ENDBRANCH   8  33
BRANCH  31  38
ATOM     38  C   UNK d   0      34.505  -6.974  45.740  0.00  0.00     0.151 C 
BRANCH  38  39
ATOM     39  C   UNK d   0      35.826  -7.303  46.230  0.00  0.00     0.143 C 
ATOM     40  O   UNK d   0      36.298  -6.797  47.264  0.00  0.00    -0.650 OA
BRANCH  39  41
ATOM     41  O   UNK d   0      36.610  -8.219  45.529  0.00  0.00    -0.776 OA
ATOM     42  H   UNK d   0      36.176  -8.674  44.720  0.00  0.00     0.167 HD
ENDBRANCH  39  41
ENDBRANCH  38  39
ENDBRANCH  31  38
BRANCH  27  43
ATOM     43  C   UNK d   0      33.907  -8.453  43.101  0.00  0.00     0.052 C 
BRANCH  43  44
ATOM     44  C   UNK d   0      32.475  -8.737  43.423  0.00  0.00     0.115 C 
BRANCH  44  45
ATOM     45  C   UNK d   0      32.381 -10.196  43.690  0.00  0.00     0.139 C 
ATOM     46  O   UNK d   0      31.541 -10.863  43.037  0.00  0.00    -0.650 OA
BRANCH  45  47
ATOM     47  O   UNK d   0      33.176 -10.839  44.613  0.00  0.00    -0.776 OA
ATOM     48  H   UNK d   0      32.792 -11.342  45.430  0.00  0.00     0.167 HD
ENDBRANCH  45  47
ENDBRANCH  44  45
ENDBRANCH  43  44
ENDBRANCH  27  43
BRANCH  24  49
ATOM     49  C   UNK d   0      33.145  -7.227  37.756  0.00  0.00     0.052 C 
BRANCH  49  50
ATOM     50  C   UNK d   0      34.609  -7.504  37.526  0.00  0.00     0.115 C 
BRANCH  50  51
ATOM     51  C   UNK d   0      35.322  -6.606  36.628  0.00  0.00     0.139 C 
ATOM     52  O   UNK d   0      36.557  -6.408  36.710  0.00  0.00    -0.650 OA
BRANCH  51  53
ATOM     53  O   UNK d   0      34.626  -5.931  35.636  0.00  0.00    -0.776 OA
ATOM     54  H   UNK d   0      34.616  -6.323  34.711  0.00  0.00     0.167 HD
ENDBRANCH  51  53
ENDBRANCH  50  51
ENDBRANCH  49  50
ENDBRANCH  24  49
BRANCH  21  55
ATOM     55  C   UNK d   0      31.659  -4.701  36.778  0.00  0.00     0.151 C 
BRANCH  55  56
ATOM     56  C   UNK d   0      30.209  -4.930  36.858  0.00  0.00     0.143 C 
ATOM     57  O   UNK d   0      29.709  -6.069  36.942  0.00  0.00    -0.650 OA
BRANCH  56  58
ATOM     58  O   UNK d   0      29.373  -3.814  36.838  0.00  0.00    -0.776 OA
ATOM     59  H   UNK d   0      29.718  -3.001  37.380  0.00  0.00     0.167 HD
ENDBRANCH  56  58
ENDBRANCH  55  56
ENDBRANCH  21  55
BRANCH  18  60
ATOM     60  C   UNK d   0      32.515   0.263  38.634  0.00  0.00     0.151 C 
BRANCH  60  61
ATOM     61  C   UNK d   0      31.108   0.425  38.235  0.00  0.00     0.143 C 
ATOM     62  O   UNK d   0      30.454  -0.316  37.500  0.00  0.00    -0.650 OA
BRANCH  61  63
ATOM     63  O   UNK d   0      30.459   1.564  38.769  0.00  0.00    -0.776 OA
ATOM     64  H   UNK d   0      30.946   2.205  39.369  0.00  0.00     0.167 HD
ENDBRANCH  61  63
ENDBRANCH  60  61
ENDBRANCH  18  60
BRANCH  14  65
ATOM     65  C   UNK d   0      32.975   1.745  41.241  0.00  0.00     0.052 C 
BRANCH  65  66
ATOM     66  C   UNK d   0      31.731   2.521  41.492  0.00  0.00     0.115 C 
BRANCH  66  67
ATOM     67  C   UNK d   0      31.801   3.768  42.199  0.00  0.00     0.139 C 
ATOM     68  O   UNK d   0      31.599   4.857  41.545  0.00  0.00    -0.650 OA
BRANCH  67  69
ATOM     69  O   UNK d   0      32.069   3.967  43.553  0.00  0.00    -0.776 OA
ATOM     70  H   UNK d   0      31.265   4.252  44.132  0.00  0.00     0.167 HD
ENDBRANCH  67  69
ENDBRANCH  66  67
ENDBRANCH  65  66
ENDBRANCH  14  65
ENDBRANCH   6   7
ENDBRANCH   5   6
ENDBRANCH   2   5
TORSDOF 28
ENDMDL
MODEL 2
REMARK VINA RESULT:      -9.7     29.046     32.915
REMARK  28 active torsions:
REMARK  status: ('A' for Active; 'I' for Inactive)
REMARK    1  A    between atoms: C_2  and  O_3 
REMARK    2  A    between atoms: C_2  and  C_4 
REMARK    3  A    between atoms: C_4  and  C_5 
REMARK    4  A    between atoms: C_5  and  C_6 
REMARK    5  A    between atoms: C_7  and  C_8 
REMARK    6  A    between atoms: C_8  and  C_9 
REMARK    7  A    between atoms: C_9  and  O_11 
REMARK    8  A    between atoms: C_28  and  C_29 
REMARK    9  A    between atoms: C_29  and  C_30 
REMARK   10  A    between atoms: C_30  and  O_32 
REMARK   11  A    between atoms: C_33  and  C_34 
REMARK   12  A    between atoms: C_34  and  C_35 
REMARK   13  A    between atoms: C_35  and  C_36 
REMARK   14  A    between atoms: C_36  and  O_38 
REMARK   15  A    between atoms: C_39  and  C_40 
REMARK   16  A    between atoms: C_40  and  C_41 
REMARK   17  A    between atoms: C_41  and  C_42 
REMARK   18  A    between atoms: C_42  and  O_44 
REMARK   19  A    between atoms: C_45  and  C_46 
REMARK   20  A    between atoms: C_46  and  C_47 
REMARK   21  A    between atoms: C_47  and  O_49 
REMARK   22  A    between atoms: C_50  and  C_51 
REMARK   23  A    between atoms: C_51  and  C_52 
REMARK   24  A    between atoms: C_52  and  O_54 
REMARK   25  A    between atoms: C_55  and  C_56 
REMARK   26  A    between atoms: C_56  and  C_57 
REMARK   27  A    between atoms: C_57  and  C_58 
REMARK   28  A    between atoms: C_58  and  O_60 
ROOT
ATOM      1  O   UNK d   0      -0.689   3.559  39.768  0.00  0.00    -0.650 OA
ATOM      2  C   UNK d   0       0.046   3.358  38.776  0.00  0.00     0.139 C 
ENDROOT
BRANCH   2   3
ATOM      3  O   UNK d   0       0.027   2.130  38.161  0.00  0.00    -0.776 OA
ATOM      4  H   UNK d   0      -0.582   1.381  38.498  0.00  0.00     0.167 HD
ENDBRANCH   2   3
BRANCH   2   5
ATOM      5  C   UNK d   0       0.933   4.444  38.270  0.00  0.00     0.115 C 
BRANCH   5   6
ATOM      6  C   UNK d   0       0.252   5.778  38.413  0.00  0.00     0.052 C 
BRANCH   6   7
ATOM      7  C   UNK d   0       1.095   6.785  39.158  0.00  0.00    -0.020 A 
ATOM      8  C   UNK d   0       1.296   8.041  38.851  0.00  0.00    -0.011 A 
ATOM      9  C   UNK d   0       2.183   8.607  39.853  0.00  0.00     0.067 A 
ATOM     10  C   UNK d   0       2.750   9.866  40.108  0.00  0.00     0.062 C 
ATOM     11  N   UNK d   0       2.478   7.624  40.729  0.00  0.00    -0.248 NA
ATOM     12  C   UNK d   0       3.365  10.295  41.289  0.00  0.00     0.041 A 
ATOM     13  N   UNK d   0       4.232   9.675  42.113  0.00  0.00    -0.355 N 
ATOM     14  C   UNK d   0       3.035  11.560  41.808  0.00  0.00    -0.022 A 
ATOM     15  C   UNK d   0       4.455  10.512  43.144  0.00  0.00     0.042 A 
ATOM     16  H   UNK d   0       4.693   8.675  41.958  0.00  0.00     0.166 HD
ATOM     17  C   UNK d   0       5.275  10.364  44.280  0.00  0.00     0.062 C 
ATOM     18  C   UNK d   0       3.721  11.704  42.988  0.00  0.00    -0.013 A 
ATOM     19  C   UNK d   0       5.415   9.278  45.107  0.00  0.00     0.067 A 
ATOM     20  N   UNK d   0       4.866   8.132  44.698  0.00  0.00    -0.248 NA
ATOM     21  C   UNK d   0       6.028   9.022  46.400  0.00  0.00    -0.011 A 
ATOM     22  C   UNK d   0       5.073   7.145  45.631  0.00  0.00     0.066 A 
ATOM     23  C   UNK d   0       4.584   5.886  45.315  0.00  0.00     0.062 C 
ATOM     24  C   UNK d   0       5.820   7.773  46.703  0.00  0.00    -0.020 A 
ATOM     25  C   UNK d   0       3.981   5.473  44.117  0.00  0.00     0.041 A 
ATOM     26  N   UNK d   0       3.108   6.082  43.306  0.00  0.00    -0.355 N 
ATOM     27  C   UNK d   0       4.317   4.204  43.595  0.00  0.00    -0.022 A 
ATOM     28  C   UNK d   0       2.878   5.246  42.281  0.00  0.00     0.042 A 
ATOM     29  H   UNK d   0       2.638   7.083  43.468  0.00  0.00     0.166 HD
ATOM     30  C   UNK d   0       2.057   5.377  41.150  0.00  0.00     0.062 C 
ATOM     31  C   UNK d   0       3.623   4.053  42.434  0.00  0.00    -0.013 A 
ATOM     32  C   UNK d   0       1.854   6.502  40.367  0.00  0.00     0.066 A 
BRANCH   8  33
ATOM     33  C   UNK d   0       0.737   8.770  37.698  0.00  0.00     0.151 C 
BRANCH  33  34
ATOM     34  C   UNK d   0       1.677   8.853  36.565  0.00  0.00     0.143 C 
ATOM     35  O   UNK d   0       2.331   7.864  36.207  0.00  0.00    -0.650 OA
BRANCH  34  36
ATOM     36  O   UNK d   0       1.829  10.048  35.900  0.00  0.00    -0.776 OA
ATOM     37  H   UNK d   0       2.023  10.075  34.889  0.00  0.00     0.167 HD
ENDBRANCH  34  36
ENDBRANCH  33  34
ENDBRANCH   8  33
BRANCH  31  38
ATOM     38  C   UNK d   0       3.674   2.855  41.515  0.00  0.00     0.151 C 
BRANCH  38  39
ATOM     39  C   UNK d   0       2.706   1.837  41.866  0.00  0.00     0.143 C 
ATOM     40  O   UNK d   0       1.483   2.063  41.895  0.00  0.00    -0.650 OA
BRANCH  39  41
ATOM     41  O   UNK d   0       3.146   0.552  42.184  0.00  0.00    -0.776 OA
ATOM     42  H   UNK d   0       2.466  -0.208  42.078  0.00  0.00     0.167 HD
ENDBRANCH  39  41
ENDBRANCH  38  39
ENDBRANCH  31  38
BRANCH  27  43
ATOM     43  C   UNK d   0       5.248   3.156  44.149  0.00  0.00     0.052 C 
BRANCH  43  44
ATOM     44  C   UNK d   0       4.547   2.107  44.950  0.00  0.00     0.115 C 
BRANCH  44  45
ATOM     45  C   UNK d   0       5.029   2.249  46.349  0.00  0.00     0.139 C 
ATOM     46  O   UNK d   0       4.249   2.751  47.195  0.00  0.00    -0.650 OA
BRANCH  45  47
ATOM     47  O   UNK d   0       6.285   1.848  46.751  0.00  0.00    -0.776 OA
ATOM     48  H   UNK d   0       6.662   2.049  47.692  0.00  0.00     0.167 HD
ENDBRANCH  45  47
ENDBRANCH  44  45
ENDBRANCH  43  44
ENDBRANCH  27  43
BRANCH  24  49
ATOM     49  C   UNK d   0       6.303   7.081  47.909  0.00  0.00     0.052 C 
BRANCH  49  50
ATOM     50  C   UNK d   0       5.404   5.917  48.241  0.00  0.00     0.115 C 
BRANCH  50  51
ATOM     51  C   UNK d   0       5.879   4.975  49.246  0.00  0.00     0.139 C 
ATOM     52  O   UNK d   0       5.742   5.172  50.476  0.00  0.00    -0.650 OA
BRANCH  51  53
ATOM     53  O   UNK d   0       6.514   3.809  48.847  0.00  0.00    -0.776 OA
ATOM     54  H   UNK d   0       6.871   3.195  49.558  0.00  0.00     0.167 HD
ENDBRANCH  51  53
ENDBRANCH  50  51
ENDBRANCH  49  50
ENDBRANCH  24  49
BRANCH  21  55
ATOM     55  C   UNK d   0       6.760  10.052  47.195  0.00  0.00     0.151 C 
BRANCH  55  56
ATOM     56  C   UNK d   0       8.218   9.934  47.040  0.00  0.00     0.143 C 
ATOM     57  O   UNK d   0       8.756   9.012  46.396  0.00  0.00    -0.650 OA
BRANCH  56  58
ATOM     58  O   UNK d   0       9.015  10.904  47.646  0.00  0.00    -0.776 OA
ATOM     59  H   UNK d   0       9.996  10.618  47.816  0.00  0.00     0.167 HD
ENDBRANCH  56  58
ENDBRANCH  55  56
ENDBRANCH  21  55
BRANCH  18  60
ATOM     60  C   UNK d   0       3.654  12.915  43.885  0.00  0.00     0.151 C 
BRANCH  60  61
ATOM     61  C   UNK d   0       2.577  12.644  44.850  0.00  0.00     0.143 C 
ATOM     62  O   UNK d   0       1.957  11.590  44.992  0.00  0.00    -0.650 OA
BRANCH  61  63
ATOM     63  O   UNK d   0       2.238  13.728  45.694  0.00  0.00    -0.776 OA
ATOM     64  H   UNK d   0       2.013  14.630  45.314  0.00  0.00     0.167 HD
ENDBRANCH  61  63
ENDBRANCH  60  61
ENDBRANCH  18  60
BRANCH  14  65
ATOM     65  C   UNK d   0       2.206  12.671  41.229  0.00  0.00     0.052 C 
BRANCH  65  66
ATOM     66  C   UNK d   0       0.810  12.684  41.742  0.00  0.00     0.115 C 
BRANCH  66  67
ATOM     67  C   UNK d   0       0.104  11.445  41.914  0.00  0.00     0.139 C 
ATOM     68  O   UNK d   0      -0.550  10.967  40.915  0.00  0.00    -0.650 OA
BRANCH  67  69
ATOM     69  O   UNK d   0       0.028  10.659  43.063  0.00  0.00    -0.776 OA
ATOM     70  H   UNK d   0       0.601  10.973  43.860  0.00  0.00     0.167 HD
ENDBRANCH  67  69
ENDBRANCH  66  67
ENDBRANCH  65  66
ENDBRANCH  14  65
ENDBRANCH   6   7
ENDBRANCH   5   6
ENDBRANCH   2   5
TORSDOF 28
ENDMDL
MODEL 3
REMARK VINA RESULT:      -9.6      1.446      7.569
REMARK  28 active torsions:
REMARK  status: ('A' for Active; 'I' for Inactive)
REMARK    1  A    between atoms: C_2  and  O_3 
REMARK    2  A    between atoms: C_2  and  C_4 
REMARK    3  A    between atoms: C_4  and  C_5 
REMARK    4  A    between atoms: C_5  and  C_6 
REMARK    5  A    between atoms: C_7  and  C_8 
REMARK    6  A    between atoms: C_8  and  C_9 
REMARK    7  A    between atoms: C_9  and  O_11 
REMARK    8  A    between atoms: C_28  and  C_29 
REMARK    9  A    between atoms: C_29  and  C_30 
REMARK   10  A    between atoms: C_30  and  O_32 
REMARK   11  A    between atoms: C_33  and  C_34 
REMARK   12  A    between atoms: C_34  and  C_35 
REMARK   13  A    between atoms: C_35  and  C_36 
REMARK   14  A    between atoms: C_36  and  O_38 
REMARK   15  A    between atoms: C_39  and  C_40 
REMARK   16  A    between atoms: C_40  and  C_41 
REMARK   17  A    between atoms: C_41  and  C_42 
REMARK   18  A    between atoms: C_42  and  O_44 
REMARK   19  A    between atoms: C_45  and  C_46 
REMARK   20  A    between atoms: C_46  and  C_47 
REMARK   21  A    between atoms: C_47  and  O_49 
REMARK   22  A    between atoms: C_50  and  C_51 
REMARK   23  A    between atoms: C_51  and  C_52 
REMARK   24  A    between atoms: C_52  and  O_54 
REMARK   25  A    between atoms: C_55  and  C_56 
REMARK   26  A    between atoms: C_56  and  C_57 
REMARK   27  A    between atoms: C_57  and  C_58 
REMARK   28  A    between atoms: C_58  and  O_60 
ROOT
ATOM      1  O   UNK d   0      36.020   3.775  46.924  0.00  0.00    -0.650 OA
ATOM      2  C   UNK d   0      35.409   2.707  47.150  0.00  0.00     0.139 C 
ENDROOT
BRANCH   2   3
ATOM      3  O   UNK d   0      35.452   2.161  48.410  0.00  0.00    -0.776 OA
ATOM      4  H   UNK d   0      34.602   1.830  48.871  0.00  0.00     0.167 HD
ENDBRANCH   2   3
BRANCH   2   5
ATOM      5  C   UNK d   0      34.644   2.038  46.061  0.00  0.00     0.115 C 
BRANCH   5   6
ATOM      6  C   UNK d   0      33.894   0.853  46.607  0.00  0.00     0.052 C 
BRANCH   6   7
ATOM      7  C   UNK d   0      34.176  -0.417  45.840  0.00  0.00    -0.020 A 
ATOM      8  C   UNK d   0      34.860  -1.457  46.243  0.00  0.00    -0.011 A 
ATOM      9  C   UNK d   0      34.869  -2.429  45.162  0.00  0.00     0.067 A 
ATOM     10  C   UNK d   0      35.390  -3.717  44.963  0.00  0.00     0.062 C 
ATOM     11  N   UNK d   0      34.171  -1.895  44.137  0.00  0.00    -0.248 NA
ATOM     12  C   UNK d   0      35.057  -4.617  43.945  0.00  0.00     0.041 A 
ATOM     13  N   UNK d   0      34.865  -4.431  42.625  0.00  0.00    -0.355 N 
ATOM     14  C   UNK d   0      34.811  -5.962  44.278  0.00  0.00    -0.022 A 
ATOM     15  C   UNK d   0      34.495  -5.621  42.114  0.00  0.00     0.042 A 
ATOM     16  H   UNK d   0      35.006  -3.482  42.062  0.00  0.00     0.166 HD
ATOM     17  C   UNK d   0      34.175  -5.987  40.792  0.00  0.00     0.062 C 
ATOM     18  C   UNK d   0      34.450  -6.605  43.120  0.00  0.00    -0.013 A 
ATOM     19  C   UNK d   0      33.385  -5.331  39.882  0.00  0.00     0.067 A 
ATOM     20  N   UNK d   0      33.015  -4.085  40.190  0.00  0.00    -0.248 NA
ATOM     21  C   UNK d   0      32.789  -5.648  38.595  0.00  0.00    -0.011 A 
ATOM     22  C   UNK d   0      32.220  -3.565  39.199  0.00  0.00     0.066 A 
ATOM     23  C   UNK d   0      31.794  -2.257  39.373  0.00  0.00     0.062 C 
ATOM     24  C   UNK d   0      32.105  -4.613  38.203  0.00  0.00    -0.020 A 
ATOM     25  C   UNK d   0      32.149  -1.365  40.396  0.00  0.00     0.041 A 
ATOM     26  N   UNK d   0      32.326  -1.547  41.710  0.00  0.00    -0.355 N 
ATOM     27  C   UNK d   0      32.400  -0.017  40.060  0.00  0.00    -0.022 A 
ATOM     28  C   UNK d   0      32.686  -0.360  42.224  0.00  0.00     0.042 A 
ATOM     29  H   UNK d   0      32.174  -2.499  42.276  0.00  0.00     0.166 HD
ATOM     30  C   UNK d   0      32.999   0.021  43.538  0.00  0.00     0.062 C 
ATOM     31  C   UNK d   0      32.741   0.626  41.210  0.00  0.00    -0.013 A 
ATOM     32  C   UNK d   0      33.727  -0.686  44.482  0.00  0.00     0.066 A 
BRANCH   8  33
ATOM     33  C   UNK d   0      35.517  -1.632  47.551  0.00  0.00     0.151 C 
BRANCH  33  34
ATOM     34  C   UNK d   0      36.942  -1.254  47.529  0.00  0.00     0.143 C 
ATOM     35  O   UNK d   0      37.807  -2.053  47.143  0.00  0.00    -0.650 OA
BRANCH  34  36
ATOM     36  O   UNK d   0      37.313   0.004  47.944  0.00  0.00    -0.776 OA
ATOM     37  H   UNK d   0      38.279   0.208  48.235  0.00  0.00     0.167 HD
ENDBRANCH  34  36
ENDBRANCH  33  34
ENDBRANCH   8  33
BRANCH  31  38
ATOM     38  C   UNK d   0      33.111   2.085  41.339  0.00  0.00     0.151 C 
BRANCH  38  39
ATOM     39  C   UNK d   0      31.974   2.927  41.646  0.00  0.00     0.143 C 
ATOM     40  O   UNK d   0      31.679   3.250  42.810  0.00  0.00    -0.650 OA
BRANCH  39  41
ATOM     41  O   UNK d   0      31.172   3.401  40.608  0.00  0.00    -0.776 OA
ATOM     42  H   UNK d   0      31.441   4.297  40.188  0.00  0.00     0.167 HD
ENDBRANCH  39  41
ENDBRANCH  38  39
ENDBRANCH  31  38
BRANCH  27  43
ATOM     43  C   UNK d   0      32.327   0.665  38.717  0.00  0.00     0.052 C 
BRANCH  43  44
ATOM     44  C   UNK d   0      30.935   0.770  38.182  0.00  0.00     0.115 C 
BRANCH  44  45
ATOM     45  C   UNK d   0      30.849  -0.172  37.036  0.00  0.00     0.139 C 
ATOM     46  O   UNK d   0      31.908  -0.462  36.427  0.00  0.00    -0.650 OA
BRANCH  45  47
ATOM     47  O   UNK d   0      29.663  -0.738  36.622  0.00  0.00    -0.776 OA
ATOM     48  H   UNK d   0      29.115  -0.373  35.826  0.00  0.00     0.167 HD
ENDBRANCH  45  47
ENDBRANCH  44  45
ENDBRANCH  43  44
ENDBRANCH  27  43
BRANCH  24  49
ATOM     49  C   UNK d   0      31.370  -4.488  36.932  0.00  0.00     0.052 C 
BRANCH  49  50
ATOM     50  C   UNK d   0      29.999  -5.101  37.057  0.00  0.00     0.115 C 
BRANCH  50  51
ATOM     51  C   UNK d   0      28.858  -4.246  36.760  0.00  0.00     0.139 C 
ATOM     52  O   UNK d   0      28.920  -3.294  35.947  0.00  0.00    -0.650 OA
BRANCH  51  53
ATOM     53  O   UNK d   0      27.646  -4.474  37.394  0.00  0.00    -0.776 OA
ATOM     54  H   UNK d   0      26.809  -4.129  36.957  0.00  0.00     0.167 HD
ENDBRANCH  51  53
ENDBRANCH  50  51
ENDBRANCH  49  50
ENDBRANCH  24  49
BRANCH  21  55
ATOM     55  C   UNK d   0      32.968  -6.952  37.891  0.00  0.00     0.151 C 
BRANCH  55  56
ATOM     56  C   UNK d   0      34.127  -6.934  36.985  0.00  0.00     0.143 C 
ATOM     57  O   UNK d   0      35.150  -7.619  37.183  0.00  0.00    -0.650 OA
BRANCH  56  58
ATOM     58  O   UNK d   0      34.061  -6.111  35.862  0.00  0.00    -0.776 OA
ATOM     59  H   UNK d   0      34.554  -5.205  35.955  0.00  0.00     0.167 HD
ENDBRANCH  56  58
ENDBRANCH  55  56
ENDBRANCH  21  55
BRANCH  18  60
ATOM     60  C   UNK d   0      34.089  -8.066  43.020  0.00  0.00     0.151 C 
BRANCH  60  61
ATOM     61  C   UNK d   0      32.819  -8.219  43.746  0.00  0.00     0.143 C 
ATOM     62  O   UNK d   0      31.833  -7.484  43.680  0.00  0.00    -0.650 OA
BRANCH  61  63
ATOM     63  O   UNK d   0      32.749  -9.340  44.607  0.00  0.00    -0.776 OA
ATOM     64  H   UNK d   0      33.576  -9.847  44.868  0.00  0.00     0.167 HD
ENDBRANCH  61  63
ENDBRANCH  60  61
ENDBRANCH  18  60
BRANCH  14  65
ATOM     65  C   UNK d   0      34.986  -6.698  45.576  0.00  0.00     0.052 C 
BRANCH  65  66
ATOM     66  C   UNK d   0      34.414  -5.968  46.740  0.00  0.00     0.115 C 
BRANCH  66  67
ATOM     67  C   UNK d   0      33.378  -6.579  47.524  0.00  0.00     0.139 C 
ATOM     68  O   UNK d   0      32.954  -7.743  47.180  0.00  0.00    -0.650 OA
BRANCH  67  69
ATOM     69  O   UNK d   0      32.745  -6.061  48.653  0.00  0.00    -0.776 OA
ATOM     70  H   UNK d   0      33.342  -5.931  49.482  0.00  0.00     0.167 HD
ENDBRANCH  67  69
ENDBRANCH  66  67
ENDBRANCH  65  66
ENDBRANCH  14  65
ENDBRANCH   6   7
ENDBRANCH   5   6
ENDBRANCH   2   5
TORSDOF 28
ENDMDL
MODEL 4
REMARK VINA RESULT:      -9.3     28.708     32.666
REMARK  28 active torsions:
REMARK  status: ('A' for Active; 'I' for Inactive)
REMARK    1  A    between atoms: C_2  and  O_3 
REMARK    2  A    between atoms: C_2  and  C_4 
REMARK    3  A    between atoms: C_4  and  C_5 
REMARK    4  A    between atoms: C_5  and  C_6 
REMARK    5  A    between atoms: C_7  and  C_8 
REMARK    6  A    between atoms: C_8  and  C_9 
REMARK    7  A    between atoms: C_9  and  O_11 
REMARK    8  A    between atoms: C_28  and  C_29 
REMARK    9  A    between atoms: C_29  and  C_30 
REMARK   10  A    between atoms: C_30  and  O_32 
REMARK   11  A    between atoms: C_33  and  C_34 
REMARK   12  A    between atoms: C_34  and  C_35 
REMARK   13  A    between atoms: C_35  and  C_36 
REMARK   14  A    between atoms: C_36  and  O_38 
REMARK   15  A    between atoms: C_39  and  C_40 
REMARK   16  A    between atoms: C_40  and  C_41 
REMARK   17  A    between atoms: C_41  and  C_42 
REMARK   18  A    between atoms: C_42  and  O_44 
REMARK   19  A    between atoms: C_45  and  C_46 
REMARK   20  A    between atoms: C_46  and  C_47 
REMARK   21  A    between atoms: C_47  and  O_49 
REMARK   22  A    between atoms: C_50  and  C_51 
REMARK   23  A    between atoms: C_51  and  C_52 
REMARK   24  A    between atoms: C_52  and  O_54 
REMARK   25  A    between atoms: C_55  and  C_56 
REMARK   26  A    between atoms: C_56  and  C_57 
REMARK   27  A    between atoms: C_57  and  C_58 
REMARK   28  A    between atoms: C_58  and  O_60 
ROOT
ATOM      1  O   UNK d   0       5.621  -0.844  46.402  0.00  0.00    -0.650 OA
ATOM      2  C   UNK d   0       4.406  -0.553  46.458  0.00  0.00     0.139 C 
ENDROOT
BRANCH   2   3
ATOM      3  O   UNK d   0       3.468  -1.532  46.230  0.00  0.00    -0.776 OA
ATOM      4  H   UNK d   0       2.595  -1.321  45.743  0.00  0.00     0.167 HD
ENDBRANCH   2   3
BRANCH   2   5
ATOM      5  C   UNK d   0       3.984   0.842  46.770  0.00  0.00     0.115 C 
BRANCH   5   6
ATOM      6  C   UNK d   0       5.092   1.804  46.439  0.00  0.00     0.052 C 
BRANCH   6   7
ATOM      7  C   UNK d   0       4.684   2.826  45.405  0.00  0.00    -0.020 A 
ATOM      8  C   UNK d   0       4.264   2.603  44.186  0.00  0.00    -0.011 A 
ATOM      9  C   UNK d   0       4.000   3.890  43.564  0.00  0.00     0.067 A 
ATOM     10  C   UNK d   0       3.526   4.336  42.320  0.00  0.00     0.062 C 
ATOM     11  N   UNK d   0       4.293   4.842  44.475  0.00  0.00    -0.248 NA
ATOM     12  C   UNK d   0       3.072   5.619  41.997  0.00  0.00     0.041 A 
ATOM     13  N   UNK d   0       3.556   6.836  42.311  0.00  0.00    -0.355 N 
ATOM     14  C   UNK d   0       1.879   5.754  41.265  0.00  0.00    -0.022 A 
ATOM     15  C   UNK d   0       2.696   7.739  41.803  0.00  0.00     0.042 A 
ATOM     16  H   UNK d   0       4.497   7.052  42.863  0.00  0.00     0.166 HD
ATOM     17  C   UNK d   0       2.724   9.148  41.840  0.00  0.00     0.062 C 
ATOM     18  C   UNK d   0       1.632   7.099  41.140  0.00  0.00    -0.013 A 
ATOM     19  C   UNK d   0       2.999   9.977  42.897  0.00  0.00     0.067 A 
ATOM     20  N   UNK d   0       3.501   9.409  43.997  0.00  0.00    -0.248 NA
ATOM     21  C   UNK d   0       2.872  11.399  43.170  0.00  0.00    -0.011 A 
ATOM     22  C   UNK d   0       3.710  10.357  44.969  0.00  0.00     0.066 A 
ATOM     23  C   UNK d   0       4.268   9.907  46.157  0.00  0.00     0.062 C 
ATOM     24  C   UNK d   0       3.286  11.614  44.386  0.00  0.00    -0.020 A 
ATOM     25  C   UNK d   0       4.729   8.616  46.457  0.00  0.00     0.041 A 
ATOM     26  N   UNK d   0       4.240   7.407  46.158  0.00  0.00    -0.355 N 
ATOM     27  C   UNK d   0       5.929   8.482  47.189  0.00  0.00    -0.022 A 
ATOM     28  C   UNK d   0       5.091   6.504  46.671  0.00  0.00     0.042 A 
ATOM     29  H   UNK d   0       3.289   7.191  45.612  0.00  0.00     0.166 HD
ATOM     30  C   UNK d   0       5.071   5.101  46.650  0.00  0.00     0.062 C 
ATOM     31  C   UNK d   0       6.166   7.149  47.328  0.00  0.00    -0.013 A 
ATOM     32  C   UNK d   0       4.709   4.267  45.604  0.00  0.00     0.066 A 
BRANCH   8  33
ATOM     33  C   UNK d   0       4.087   1.291  43.536  0.00  0.00     0.151 C 
BRANCH  33  34
ATOM     34  C   UNK d   0       3.579   1.401  42.157  0.00  0.00     0.143 C 
ATOM     35  O   UNK d   0       4.346   1.645  41.214  0.00  0.00    -0.650 OA
BRANCH  34  36
ATOM     36  O   UNK d   0       2.236   1.232  41.916  0.00  0.00    -0.776 OA
ATOM     37  H   UNK d   0       1.627   0.756  42.595  0.00  0.00     0.167 HD
ENDBRANCH  34  36
ENDBRANCH  33  34
ENDBRANCH   8  33
BRANCH  31  38
ATOM     38  C   UNK d   0       7.348   6.522  48.031  0.00  0.00     0.151 C 
BRANCH  38  39
ATOM     39  C   UNK d   0       7.134   6.360  49.453  0.00  0.00     0.143 C 
ATOM     40  O   UNK d   0       6.227   5.644  49.913  0.00  0.00    -0.650 OA
BRANCH  39  41
ATOM     41  O   UNK d   0       7.969   7.023  50.352  0.00  0.00    -0.776 OA
ATOM     42  H   UNK d   0       7.838   8.036  50.442  0.00  0.00     0.167 HD
ENDBRANCH  39  41
ENDBRANCH  38  39
ENDBRANCH  31  38
BRANCH  27  43
ATOM     43  C   UNK d   0       6.836   9.550  47.748  0.00  0.00     0.052 C 
BRANCH  43  44
ATOM     44  C   UNK d   0       8.065   9.771  46.928  0.00  0.00     0.115 C 
BRANCH  44  45
ATOM     45  C   UNK d   0       9.174  10.025  47.884  0.00  0.00     0.139 C 
ATOM     46  O   UNK d   0       8.886  10.498  49.011  0.00  0.00    -0.650 OA
BRANCH  45  47
ATOM     47  O   UNK d   0      10.493   9.759  47.587  0.00  0.00    -0.776 OA
ATOM     48  H   UNK d   0      10.946   8.858  47.810  0.00  0.00     0.167 HD
ENDBRANCH  45  47
ENDBRANCH  44  45
ENDBRANCH  43  44
ENDBRANCH  27  43
BRANCH  24  49
ATOM     49  C   UNK d   0       3.366  12.922  45.058  0.00  0.00     0.052 C 
BRANCH  49  50
ATOM     50  C   UNK d   0       4.665  13.607  44.720  0.00  0.00     0.115 C 
BRANCH  50  51
ATOM     51  C   UNK d   0       4.973  14.839  45.434  0.00  0.00     0.139 C 
ATOM     52  O   UNK d   0       5.982  14.963  46.166  0.00  0.00    -0.650 OA
BRANCH  51  53
ATOM     53  O   UNK d   0       4.126  15.931  45.314  0.00  0.00    -0.776 OA
ATOM     54  H   UNK d   0       3.348  16.000  45.945  0.00  0.00     0.167 HD
ENDBRANCH  51  53
ENDBRANCH  50  51
ENDBRANCH  49  50
ENDBRANCH  24  49
BRANCH  21  55
ATOM     55  C   UNK d   0       2.355  12.395  42.186  0.00  0.00     0.151 C 
BRANCH  55  56
ATOM     56  C   UNK d   0       0.886  12.376  42.102  0.00  0.00     0.143 C 
ATOM     57  O   UNK d   0       0.273  12.053  41.066  0.00  0.00    -0.650 OA
BRANCH  56  58
ATOM     58  O   UNK d   0       0.166  12.737  43.240  0.00  0.00    -0.776 OA
ATOM     59  H   UNK d   0       0.018  13.755  43.358  0.00  0.00     0.167 HD
ENDBRANCH  56  58
ENDBRANCH  55  56
ENDBRANCH  21  55
BRANCH  18  60
ATOM     60  C   UNK d   0       0.443   7.697  40.429  0.00  0.00     0.151 C 
BRANCH  60  61
ATOM     61  C   UNK d   0      -0.516   8.063  41.483  0.00  0.00     0.143 C 
ATOM     62  O   UNK d   0      -0.766   9.194  41.899  0.00  0.00    -0.650 OA
BRANCH  61  63
ATOM     63  O   UNK d   0      -1.213   6.977  42.066  0.00  0.00    -0.776 OA
ATOM     64  H   UNK d   0      -1.960   7.132  42.720  0.00  0.00     0.167 HD
ENDBRANCH  61  63
ENDBRANCH  60  61
ENDBRANCH  18  60
BRANCH  14  65
ATOM     65  C   UNK d   0       1.016   4.722  40.596  0.00  0.00     0.052 C 
BRANCH  65  66
ATOM     66  C   UNK d   0       0.098   4.031  41.541  0.00  0.00     0.115 C 
BRANCH  66  67
ATOM     67  C   UNK d   0      -0.446   2.748  41.194  0.00  0.00     0.139 C 
ATOM     68  O   UNK d   0      -0.815   2.546  39.979  0.00  0.00    -0.650 OA
BRANCH  67  69
ATOM     69  O   UNK d   0      -0.636   1.648  42.030  0.00  0.00    -0.776 OA
ATOM     70  H   UNK d   0      -0.844   1.864  43.015  0.00  0.00     0.167 HD
ENDBRANCH  67  69
ENDBRANCH  66  67
ENDBRANCH  65  66
ENDBRANCH  14  65
ENDBRANCH   6   7
ENDBRANCH   5   6
ENDBRANCH   2   5
TORSDOF 28
ENDMDL
MODEL 5
REMARK VINA RESULT:      -9.2     29.368     32.672
REMARK  28 active torsions:
REMARK  status: ('A' for Active; 'I' for Inactive)
REMARK    1  A    between atoms: C_2  and  O_3 
REMARK    2  A    between atoms: C_2  and  C_4 
REMARK    3  A    between atoms: C_4  and  C_5 
REMARK    4  A    between atoms: C_5  and  C_6 
REMARK    5  A    between atoms: C_7  and  C_8 
REMARK    6  A    between atoms: C_8  and  C_9 
REMARK    7  A    between atoms: C_9  and  O_11 
REMARK    8  A    between atoms: C_28  and  C_29 
REMARK    9  A    between atoms: C_29  and  C_30 
REMARK   10  A    between atoms: C_30  and  O_32 
REMARK   11  A    between atoms: C_33  and  C_34 
REMARK   12  A    between atoms: C_34  and  C_35 
REMARK   13  A    between atoms: C_35  and  C_36 
REMARK   14  A    between atoms: C_36  and  O_38 
REMARK   15  A    between atoms: C_39  and  C_40 
REMARK   16  A    between atoms: C_40  and  C_41 
REMARK   17  A    between atoms: C_41  and  C_42 
REMARK   18  A    between atoms: C_42  and  O_44 
REMARK   19  A    between atoms: C_45  and  C_46 
REMARK   20  A    between atoms: C_46  and  C_47 
REMARK   21  A    between atoms: C_47  and  O_49 
REMARK   22  A    between atoms: C_50  and  C_51 
REMARK   23  A    between atoms: C_51  and  C_52 
REMARK   24  A    between atoms: C_52  and  O_54 
REMARK   25  A    between atoms: C_55  and  C_56 
REMARK   26  A    between atoms: C_56  and  C_57 
REMARK   27  A    between atoms: C_57  and  C_58 
REMARK   28  A    between atoms: C_58  and  O_60 
ROOT
ATOM      1  O   UNK d   0       5.072  14.441  44.852  0.00  0.00    -0.650 OA
ATOM      2  C   UNK d   0       3.931  14.091  45.226  0.00  0.00     0.139 C 
ENDROOT
BRANCH   2   3
ATOM      3  O   UNK d   0       3.508  14.414  46.493  0.00  0.00    -0.776 OA
ATOM      4  H   UNK d   0       2.519  14.577  46.693  0.00  0.00     0.167 HD
ENDBRANCH   2   3
BRANCH   2   5
ATOM      5  C   UNK d   0       3.042  13.330  44.302  0.00  0.00     0.115 C 
BRANCH   5   6
ATOM      6  C   UNK d   0       3.864  12.605  43.272  0.00  0.00     0.052 C 
BRANCH   6   7
ATOM      7  C   UNK d   0       3.215  11.322  42.809  0.00  0.00    -0.020 A 
ATOM      8  C   UNK d   0       2.276  11.183  41.908  0.00  0.00    -0.011 A 
ATOM      9  C   UNK d   0       1.965   9.767  41.805  0.00  0.00     0.067 A 
ATOM     10  C   UNK d   0       1.097   8.974  41.039  0.00  0.00     0.062 C 
ATOM     11  N   UNK d   0       2.758   9.118  42.683  0.00  0.00    -0.248 NA
ATOM     12  C   UNK d   0       1.135   7.585  40.881  0.00  0.00     0.041 A 
ATOM     13  N   UNK d   0       1.338   6.597  41.774  0.00  0.00    -0.355 N 
ATOM     14  C   UNK d   0       1.000   7.042  39.591  0.00  0.00    -0.022 A 
ATOM     15  C   UNK d   0       1.343   5.442  41.081  0.00  0.00     0.042 A 
ATOM     16  H   UNK d   0       1.456   6.712  42.874  0.00  0.00     0.166 HD
ATOM     17  C   UNK d   0       1.513   4.114  41.521  0.00  0.00     0.062 C 
ATOM     18  C   UNK d   0       1.134   5.681  39.709  0.00  0.00    -0.013 A 
ATOM     19  C   UNK d   0       2.432   3.609  42.405  0.00  0.00     0.067 A 
ATOM     20  N   UNK d   0       3.147   4.493  43.106  0.00  0.00    -0.248 NA
ATOM     21  C   UNK d   0       2.881   2.285  42.803  0.00  0.00    -0.011 A 
ATOM     22  C   UNK d   0       4.031   3.844  43.932  0.00  0.00     0.066 A 
ATOM     23  C   UNK d   0       4.813   4.646  44.749  0.00  0.00     0.062 C 
ATOM     24  C   UNK d   0       3.819   2.430  43.694  0.00  0.00    -0.020 A 
ATOM     25  C   UNK d   0       4.751   6.040  44.902  0.00  0.00     0.041 A 
ATOM     26  N   UNK d   0       4.563   7.023  44.013  0.00  0.00    -0.355 N 
ATOM     27  C   UNK d   0       4.882   6.583  46.198  0.00  0.00    -0.022 A 
ATOM     28  C   UNK d   0       4.567   8.176  44.700  0.00  0.00     0.042 A 
ATOM     29  H   UNK d   0       4.456   6.906  42.906  0.00  0.00     0.166 HD
ATOM     30  C   UNK d   0       4.408   9.504  44.274  0.00  0.00     0.062 C 
ATOM     31  C   UNK d   0       4.766   7.934  46.080  0.00  0.00    -0.013 A 
ATOM     32  C   UNK d   0       3.535   9.997  43.318  0.00  0.00     0.066 A 
BRANCH   8  33
ATOM     33  C   UNK d   0       1.630  12.256  41.130  0.00  0.00     0.151 C 
BRANCH  33  34
ATOM     34  C   UNK d   0       0.232  12.491  41.533  0.00  0.00     0.143 C 
ATOM     35  O   UNK d   0      -0.672  12.553  40.688  0.00  0.00    -0.650 OA
BRANCH  34  36
ATOM     36  O   UNK d   0      -0.070  12.645  42.867  0.00  0.00    -0.776 OA
ATOM     37  H   UNK d   0       0.108  13.533  43.356  0.00  0.00     0.167 HD
ENDBRANCH  34  36
ENDBRANCH  33  34
ENDBRANCH   8  33
BRANCH  31  38
ATOM     38  C   UNK d   0       4.828   8.937  47.209  0.00  0.00     0.151 C 
BRANCH  38  39
ATOM     39  C   UNK d   0       6.006   9.776  47.151  0.00  0.00     0.143 C 
ATOM     40  O   UNK d   0       5.937  11.017  47.107  0.00  0.00    -0.650 OA
BRANCH  39  41
ATOM     41  O   UNK d   0       7.269   9.185  47.145  0.00  0.00    -0.776 OA
ATOM     42  H   UNK d   0       7.889   9.429  46.366  0.00  0.00     0.167 HD
ENDBRANCH  39  41
ENDBRANCH  38  39
ENDBRANCH  31  38
BRANCH  27  43
ATOM     43  C   UNK d   0       5.110   5.881  47.513  0.00  0.00     0.052 C 
BRANCH  43  44
ATOM     44  C   UNK d   0       6.468   6.127  48.086  0.00  0.00     0.115 C 
BRANCH  44  45
ATOM     45  C   UNK d   0       6.644   5.152  49.194  0.00  0.00     0.139 C 
ATOM     46  O   UNK d   0       6.827   5.600  50.353  0.00  0.00    -0.650 OA
BRANCH  45  47
ATOM     47  O   UNK d   0       6.609   3.788  49.002  0.00  0.00    -0.776 OA
ATOM     48  H   UNK d   0       5.749   3.228  49.116  0.00  0.00     0.167 HD
ENDBRANCH  45  47
ENDBRANCH  44  45
ENDBRANCH  43  44
ENDBRANCH  27  43
BRANCH  24  49
ATOM     49  C   UNK d   0       4.526   1.344  44.394  0.00  0.00     0.052 C 
BRANCH  49  50
ATOM     50  C   UNK d   0       4.034   1.227  45.814  0.00  0.00     0.115 C 
BRANCH  50  51
ATOM     51  C   UNK d   0       4.783   1.942  46.838  0.00  0.00     0.139 C 
ATOM     52  O   UNK d   0       4.226   2.603  47.746  0.00  0.00    -0.650 OA
BRANCH  51  53
ATOM     53  O   UNK d   0       6.169   1.904  46.826  0.00  0.00    -0.776 OA
ATOM     54  H   UNK d   0       6.628   1.131  47.274  0.00  0.00     0.167 HD
ENDBRANCH  51  53
ENDBRANCH  50  51
ENDBRANCH  49  50
ENDBRANCH  24  49
BRANCH  21  55
ATOM     55  C   UNK d   0       2.322   1.014  42.254  0.00  0.00     0.151 C 
BRANCH  55  56
ATOM     56  C   UNK d   0       3.108   0.512  41.116  0.00  0.00     0.143 C 
ATOM     57  O   UNK d   0       3.166   1.107  40.022  0.00  0.00    -0.650 OA
BRANCH  56  58
ATOM     58  O   UNK d   0       3.810  -0.680  41.288  0.00  0.00    -0.776 OA
ATOM     59  H   UNK d   0       3.678  -1.135  42.208  0.00  0.00     0.167 HD
ENDBRANCH  56  58
ENDBRANCH  55  56
ENDBRANCH  21  55
BRANCH  18  60
ATOM     60  C   UNK d   0       1.065   4.702  38.563  0.00  0.00     0.151 C 
BRANCH  60  61
ATOM     61  C   UNK d   0       0.218   3.594  39.029  0.00  0.00     0.143 C 
ATOM     62  O   UNK d   0      -0.895   3.678  39.549  0.00  0.00    -0.650 OA
BRANCH  61  63
ATOM     63  O   UNK d   0       0.765   2.301  38.848  0.00  0.00    -0.776 OA
ATOM     64  H   UNK d   0       0.717   1.611  39.577  0.00  0.00     0.167 HD
ENDBRANCH  61  63
ENDBRANCH  60  61
ENDBRANCH  18  60
BRANCH  14  65
ATOM     65  C   UNK d   0       0.658   7.697  38.282  0.00  0.00     0.052 C 
BRANCH  65  66
ATOM     66  C   UNK d   0       1.851   8.226  37.568  0.00  0.00     0.115 C 
BRANCH  66  67
ATOM     67  C   UNK d   0       1.927   9.623  37.248  0.00  0.00     0.139 C 
ATOM     68  O   UNK d   0       1.332  10.044  36.189  0.00  0.00    -0.650 OA
BRANCH  67  69
ATOM     69  O   UNK d   0       2.586  10.626  37.958  0.00  0.00    -0.776 OA
ATOM     70  H   UNK d   0       2.266  10.774  38.926  0.00  0.00     0.167 HD
ENDBRANCH  67  69
ENDBRANCH  66  67
ENDBRANCH  65  66
ENDBRANCH  14  65
ENDBRANCH   6   7
ENDBRANCH   5   6
ENDBRANCH   2   5
TORSDOF 28
ENDMDL
MODEL 6
REMARK VINA RESULT:      -9.2      1.975      8.037
REMARK  28 active torsions:
REMARK  status: ('A' for Active; 'I' for Inactive)
REMARK    1  A    between atoms: C_2  and  O_3 
REMARK    2  A    between atoms: C_2  and  C_4 
REMARK    3  A    between atoms: C_4  and  C_5 
REMARK    4  A    between atoms: C_5  and  C_6 
REMARK    5  A    between atoms: C_7  and  C_8 
REMARK    6  A    between atoms: C_8  and  C_9 
REMARK    7  A    between atoms: C_9  and  O_11 
REMARK    8  A    between atoms: C_28  and  C_29 
REMARK    9  A    between atoms: C_29  and  C_30 
REMARK   10  A    between atoms: C_30  and  O_32 
REMARK   11  A    between atoms: C_33  and  C_34 
REMARK   12  A    between atoms: C_34  and  C_35 
REMARK   13  A    between atoms: C_35  and  C_36 
REMARK   14  A    between atoms: C_36  and  O_38 
REMARK   15  A    between atoms: C_39  and  C_40 
REMARK   16  A    between atoms: C_40  and  C_41 
REMARK   17  A    between atoms: C_41  and  C_42 
REMARK   18  A    between atoms: C_42  and  O_44 
REMARK   19  A    between atoms: C_45  and  C_46 
REMARK   20  A    between atoms: C_46  and  C_47 
REMARK   21  A    between atoms: C_47  and  O_49 
REMARK   22  A    between atoms: C_50  and  C_51 
REMARK   23  A    between atoms: C_51  and  C_52 
REMARK   24  A    between atoms: C_52  and  O_54 
REMARK   25  A    between atoms: C_55  and  C_56 
REMARK   26  A    between atoms: C_56  and  C_57 
REMARK   27  A    between atoms: C_57  and  C_58 
REMARK   28  A    between atoms: C_58  and  O_60 
ROOT
ATOM      1  O   UNK d   0      28.462  -6.393  36.660  0.00  0.00    -0.650 OA
ATOM      2  C   UNK d   0      29.274  -5.476  36.407  0.00  0.00     0.139 C 
ENDROOT
BRANCH   2   3
ATOM      3  O   UNK d   0      29.763  -5.341  35.130  0.00  0.00    -0.776 OA
ATOM      4  H   UNK d   0      30.688  -4.944  34.958  0.00  0.00     0.167 HD
ENDBRANCH   2   3
BRANCH   2   5
ATOM      5  C   UNK d   0      29.705  -4.540  37.484  0.00  0.00     0.115 C 
BRANCH   5   6
ATOM      6  C   UNK d   0      31.168  -4.219  37.337  0.00  0.00     0.052 C 
BRANCH   6   7
ATOM      7  C   UNK d   0      31.680  -3.321  38.437  0.00  0.00    -0.020 A 
ATOM      8  C   UNK d   0      31.598  -2.017  38.505  0.00  0.00    -0.011 A 
ATOM      9  C   UNK d   0      32.237  -1.595  39.741  0.00  0.00     0.067 A 
ATOM     10  C   UNK d   0      32.463  -0.376  40.399  0.00  0.00     0.062 C 
ATOM     11  N   UNK d   0      32.684  -2.707  40.361  0.00  0.00    -0.248 NA
ATOM     12  C   UNK d   0      32.855  -0.192  41.730  0.00  0.00     0.041 A 
ATOM     13  N   UNK d   0      33.773  -0.830  42.480  0.00  0.00    -0.355 N 
ATOM     14  C   UNK d   0      32.189   0.773  42.508  0.00  0.00    -0.022 A 
ATOM     15  C   UNK d   0      33.701  -0.302  43.716  0.00  0.00     0.042 A 
ATOM     16  H   UNK d   0      34.471  -1.626  42.137  0.00  0.00     0.166 HD
ATOM     17  C   UNK d   0      34.435  -0.601  44.881  0.00  0.00     0.062 C 
ATOM     18  C   UNK d   0      32.719   0.706  43.773  0.00  0.00    -0.013 A 
ATOM     19  C   UNK d   0      34.761  -1.826  45.405  0.00  0.00     0.067 A 
ATOM     20  N   UNK d   0      34.538  -2.892  44.632  0.00  0.00    -0.248 NA
ATOM     21  C   UNK d   0      35.306  -2.314  46.660  0.00  0.00    -0.011 A 
ATOM     22  C   UNK d   0      34.897  -4.042  45.291  0.00  0.00     0.066 A 
ATOM     23  C   UNK d   0      34.753  -5.228  44.586  0.00  0.00     0.062 C 
ATOM     24  C   UNK d   0      35.379  -3.612  46.589  0.00  0.00    -0.020 A 
ATOM     25  C   UNK d   0      34.369  -5.391  43.246  0.00  0.00     0.041 A 
ATOM     26  N   UNK d   0      33.446  -4.766  42.505  0.00  0.00    -0.355 N 
ATOM     27  C   UNK d   0      35.041  -6.356  42.464  0.00  0.00    -0.022 A 
ATOM     28  C   UNK d   0      33.510  -5.298  41.274  0.00  0.00     0.042 A 
ATOM     29  H   UNK d   0      32.738  -3.975  42.853  0.00  0.00     0.166 HD
ATOM     30  C   UNK d   0      32.780  -5.016  40.108  0.00  0.00     0.062 C 
ATOM     31  C   UNK d   0      34.504  -6.303  41.215  0.00  0.00    -0.013 A 
ATOM     32  C   UNK d   0      32.379  -3.779  39.628  0.00  0.00     0.066 A 
BRANCH   8  33
ATOM     33  C   UNK d   0      30.980  -1.116  37.515  0.00  0.00     0.151 C 
BRANCH  33  34
ATOM     34  C   UNK d   0      31.646   0.198  37.445  0.00  0.00     0.143 C 
ATOM     35  O   UNK d   0      32.779   0.312  36.958  0.00  0.00    -0.650 OA
BRANCH  34  36
ATOM     36  O   UNK d   0      30.997   1.310  37.930  0.00  0.00    -0.776 OA
ATOM     37  H   UNK d   0      31.091   2.226  37.470  0.00  0.00     0.167 HD
ENDBRANCH  34  36
ENDBRANCH  33  34
ENDBRANCH   8  33
BRANCH  31  38
ATOM     38  C   UNK d   0      34.917  -7.146  40.031  0.00  0.00     0.151 C 
BRANCH  38  39
ATOM     39  C   UNK d   0      33.981  -8.213  39.748  0.00  0.00     0.143 C 
ATOM     40  O   UNK d   0      33.727  -9.111  40.570  0.00  0.00    -0.650 OA
BRANCH  39  41
ATOM     41  O   UNK d   0      33.334  -8.248  38.513  0.00  0.00    -0.776 OA
ATOM     42  H   UNK d   0      32.354  -7.948  38.497  0.00  0.00     0.167 HD
ENDBRANCH  39  41
ENDBRANCH  38  39
ENDBRANCH  31  38
BRANCH  27  43
ATOM     43  C   UNK d   0      36.147  -7.304  42.855  0.00  0.00     0.052 C 
BRANCH  43  44
ATOM     44  C   UNK d   0      37.511  -6.709  42.721  0.00  0.00     0.115 C 
BRANCH  44  45
ATOM     45  C   UNK d   0      38.120  -6.737  44.076  0.00  0.00     0.139 C 
ATOM     46  O   UNK d   0      38.821  -5.757  44.431  0.00  0.00    -0.650 OA
BRANCH  45  47
ATOM     47  O   UNK d   0      37.944  -7.786  44.953  0.00  0.00    -0.776 OA
ATOM     48  H   UNK d   0      38.721  -8.207  45.486  0.00  0.00     0.167 HD
ENDBRANCH  45  47
ENDBRANCH  44  45
ENDBRANCH  43  44
ENDBRANCH  27  43
BRANCH  24  49
ATOM     49  C   UNK d   0      35.911  -4.510  47.629  0.00  0.00     0.052 C 
BRANCH  49  50
ATOM     50  C   UNK d   0      34.810  -5.376  48.187  0.00  0.00     0.115 C 
BRANCH  50  51
ATOM     51  C   UNK d   0      35.072  -6.806  48.279  0.00  0.00     0.139 C 
ATOM     52  O   UNK d   0      34.413  -7.567  49.026  0.00  0.00    -0.650 OA
BRANCH  51  53
ATOM     53  O   UNK d   0      36.087  -7.368  47.520  0.00  0.00    -0.776 OA
ATOM     54  H   UNK d   0      36.444  -6.844  46.741  0.00  0.00     0.167 HD
ENDBRANCH  51  53
ENDBRANCH  50  51
ENDBRANCH  49  50
ENDBRANCH  24  49
BRANCH  21  55
ATOM     55  C   UNK d   0      35.701  -1.432  47.798  0.00  0.00     0.151 C 
BRANCH  55  56
ATOM     56  C   UNK d   0      37.055  -0.884  47.627  0.00  0.00     0.143 C 
ATOM     57  O   UNK d   0      38.014  -1.568  47.219  0.00  0.00    -0.650 OA
BRANCH  56  58
ATOM     58  O   UNK d   0      37.255   0.460  47.937  0.00  0.00    -0.776 OA
ATOM     59  H   UNK d   0      36.417   0.955  48.291  0.00  0.00     0.167 HD
ENDBRANCH  56  58
ENDBRANCH  55  56
ENDBRANCH  21  55
BRANCH  18  60
ATOM     60  C   UNK d   0      32.289   1.564  44.937  0.00  0.00     0.151 C 
BRANCH  60  61
ATOM     61  C   UNK d   0      30.936   1.110  45.294  0.00  0.00     0.143 C 
ATOM     62  O   UNK d   0      30.527  -0.051  45.329  0.00  0.00    -0.650 OA
BRANCH  61  63
ATOM     63  O   UNK d   0      30.024   2.140  45.629  0.00  0.00    -0.776 OA
ATOM     64  H   UNK d   0      29.852   2.905  45.001  0.00  0.00     0.167 HD
ENDBRANCH  61  63
ENDBRANCH  60  61
ENDBRANCH  18  60
BRANCH  14  65
ATOM     65  C   UNK d   0      31.170   1.808  42.126  0.00  0.00     0.052 C 
BRANCH  65  66
ATOM     66  C   UNK d   0      31.764   2.979  41.427  0.00  0.00     0.115 C 
BRANCH  66  67
ATOM     67  C   UNK d   0      31.503   4.305  41.911  0.00  0.00     0.139 C 
ATOM     68  O   UNK d   0      30.837   5.111  41.163  0.00  0.00    -0.650 OA
BRANCH  67  69
ATOM     69  O   UNK d   0      31.890   4.860  43.130  0.00  0.00    -0.776 OA
ATOM     70  H   UNK d   0      32.253   4.196  43.829  0.00  0.00     0.167 HD
ENDBRANCH  67  69
ENDBRANCH  66  67
ENDBRANCH  65  66
ENDBRANCH  14  65
ENDBRANCH   6   7
ENDBRANCH   5   6
ENDBRANCH   2   5
TORSDOF 28
ENDMDL
MODEL 7
REMARK VINA RESULT:      -9.0     29.713     33.639
REMARK  28 active torsions:
REMARK  status: ('A' for Active; 'I' for Inactive)
REMARK    1  A    between atoms: C_2  and  O_3 
REMARK    2  A    between atoms: C_2  and  C_4 
REMARK    3  A    between atoms: C_4  and  C_5 
REMARK    4  A    between atoms: C_5  and  C_6 
REMARK    5  A    between atoms: C_7  and  C_8 
REMARK    6  A    between atoms: C_8  and  C_9 
REMARK    7  A    between atoms: C_9  and  O_11 
REMARK    8  A    between atoms: C_28  and  C_29 
REMARK    9  A    between atoms: C_29  and  C_30 
REMARK   10  A    between atoms: C_30  and  O_32 
REMARK   11  A    between atoms: C_33  and  C_34 
REMARK   12  A    between atoms: C_34  and  C_35 
REMARK   13  A    between atoms: C_35  and  C_36 
REMARK   14  A    between atoms: C_36  and  O_38 
REMARK   15  A    between atoms: C_39  and  C_40 
REMARK   16  A    between atoms: C_40  and  C_41 
REMARK   17  A    between atoms: C_41  and  C_42 
REMARK   18  A    between atoms: C_42  and  O_44 
REMARK   19  A    between atoms: C_45  and  C_46 
REMARK   20  A    between atoms: C_46  and  C_47 
REMARK   21  A    between atoms: C_47  and  O_49 
REMARK   22  A    between atoms: C_50  and  C_51 
REMARK   23  A    between atoms: C_51  and  C_52 
REMARK   24  A    between atoms: C_52  and  O_54 
REMARK   25  A    between atoms: C_55  and  C_56 
REMARK   26  A    between atoms: C_56  and  C_57 
REMARK   27  A    between atoms: C_57  and  C_58 
REMARK   28  A    between atoms: C_58  and  O_60 
ROOT
ATOM      1  O   UNK d   0       3.215   9.915  31.639  0.00  0.00    -0.650 OA
ATOM      2  C   UNK d   0       2.697  10.186  32.746  0.00  0.00     0.139 C 
ENDROOT
BRANCH   2   3
ATOM      3  O   UNK d   0       2.436  11.497  33.064  0.00  0.00    -0.776 OA
ATOM      4  H   UNK d   0       3.153  12.218  32.960  0.00  0.00     0.167 HD
ENDBRANCH   2   3
BRANCH   2   5
ATOM      5  C   UNK d   0       2.369   9.094  33.706  0.00  0.00     0.115 C 
BRANCH   5   6
ATOM      6  C   UNK d   0       1.770   9.670  34.960  0.00  0.00     0.052 C 
BRANCH   6   7
ATOM      7  C   UNK d   0       1.619   8.644  36.057  0.00  0.00    -0.020 A 
ATOM      8  C   UNK d   0       1.333   8.857  37.316  0.00  0.00    -0.011 A 
ATOM      9  C   UNK d   0       1.303   7.569  37.989  0.00  0.00     0.067 A 
ATOM     10  C   UNK d   0       1.045   7.113  39.292  0.00  0.00     0.062 C 
ATOM     11  N   UNK d   0       1.587   6.627  37.066  0.00  0.00    -0.248 NA
ATOM     12  C   UNK d   0       0.788   5.798  39.694  0.00  0.00     0.041 A 
ATOM     13  N   UNK d   0       1.367   4.635  39.342  0.00  0.00    -0.355 N 
ATOM     14  C   UNK d   0      -0.279   5.553  40.577  0.00  0.00    -0.022 A 
ATOM     15  C   UNK d   0       0.690   3.657  39.973  0.00  0.00     0.042 A 
ATOM     16  H   UNK d   0       2.249   4.509  38.676  0.00  0.00     0.166 HD
ATOM     17  C   UNK d   0       0.877   2.260  39.958  0.00  0.00     0.062 C 
ATOM     18  C   UNK d   0      -0.350   4.193  40.756  0.00  0.00    -0.013 A 
ATOM     19  C   UNK d   0       1.112   1.433  38.889  0.00  0.00     0.067 A 
ATOM     20  N   UNK d   0       1.401   2.018  37.724  0.00  0.00    -0.248 NA
ATOM     21  C   UNK d   0       1.118  -0.002  38.660  0.00  0.00    -0.011 A 
ATOM     22  C   UNK d   0       1.595   1.069  36.750  0.00  0.00     0.066 A 
ATOM     23  C   UNK d   0       1.941   1.540  35.491  0.00  0.00     0.062 C 
ATOM     24  C   UNK d   0       1.397  -0.208  37.406  0.00  0.00    -0.020 A 
ATOM     25  C   UNK d   0       2.207   2.864  35.111  0.00  0.00     0.041 A 
ATOM     26  N   UNK d   0       1.621   4.019  35.449  0.00  0.00    -0.355 N 
ATOM     27  C   UNK d   0       3.281   3.110  34.228  0.00  0.00    -0.022 A 
ATOM     28  C   UNK d   0       2.289   4.996  34.814  0.00  0.00     0.042 A 
ATOM     29  H   UNK d   0       0.728   4.143  36.110  0.00  0.00     0.166 HD
ATOM     30  C   UNK d   0       2.109   6.388  34.813  0.00  0.00     0.062 C 
ATOM     31  C   UNK d   0       3.341   4.456  34.036  0.00  0.00    -0.013 A 
ATOM     32  C   UNK d   0       1.787   7.209  35.882  0.00  0.00     0.066 A 
BRANCH   8  33
ATOM     33  C   UNK d   0       1.088  10.161  37.959  0.00  0.00     0.151 C 
BRANCH  33  34
ATOM     34  C   UNK d   0       2.095  10.490  38.984  0.00  0.00     0.143 C 
ATOM     35  O   UNK d   0       3.254  10.790  38.663  0.00  0.00    -0.650 OA
BRANCH  34  36
ATOM     36  O   UNK d   0       1.741  10.462  40.313  0.00  0.00    -0.776 OA
ATOM     37  H   UNK d   0       1.621  11.330  40.852  0.00  0.00     0.167 HD
ENDBRANCH  34  36
ENDBRANCH  33  34
ENDBRANCH   8  33
BRANCH  31  38
ATOM     38  C   UNK d   0       4.343   5.190  33.175  0.00  0.00     0.151 C 
BRANCH  38  39
ATOM     39  C   UNK d   0       3.925   5.297  31.793  0.00  0.00     0.143 C 
ATOM     40  O   UNK d   0       4.596   4.829  30.857  0.00  0.00    -0.650 OA
BRANCH  39  41
ATOM     41  O   UNK d   0       2.728   5.944  31.487  0.00  0.00    -0.776 OA
ATOM     42  H   UNK d   0       2.716   6.964  31.585  0.00  0.00     0.167 HD
ENDBRANCH  39  41
ENDBRANCH  38  39
ENDBRANCH  31  38
BRANCH  27  43
ATOM     43  C   UNK d   0       4.228   2.134  33.576  0.00  0.00     0.052 C 
BRANCH  43  44
ATOM     44  C   UNK d   0       5.583   2.115  34.205  0.00  0.00     0.115 C 
BRANCH  44  45
ATOM     45  C   UNK d   0       5.688   0.831  34.946  0.00  0.00     0.139 C 
ATOM     46  O   UNK d   0       6.137  -0.170  34.334  0.00  0.00    -0.650 OA
BRANCH  45  47
ATOM     47  O   UNK d   0       5.320   0.698  36.267  0.00  0.00    -0.776 OA
ATOM     48  H   UNK d   0       5.393   1.470  36.949  0.00  0.00     0.167 HD
ENDBRANCH  45  47
ENDBRANCH  44  45
ENDBRANCH  43  44
ENDBRANCH  27  43
BRANCH  24  49
ATOM     49  C   UNK d   0       1.543  -1.521  36.753  0.00  0.00     0.052 C 
BRANCH  49  50
ATOM     50  C   UNK d   0       2.971  -1.734  36.318  0.00  0.00     0.115 C 
BRANCH  50  51
ATOM     51  C   UNK d   0       3.858  -2.405  37.258  0.00  0.00     0.139 C 
ATOM     52  O   UNK d   0       3.434  -3.082  38.224  0.00  0.00    -0.650 OA
BRANCH  51  53
ATOM     53  O   UNK d   0       5.232  -2.302  37.099  0.00  0.00    -0.776 OA
ATOM     54  H   UNK d   0       5.819  -2.519  37.885  0.00  0.00     0.167 HD
ENDBRANCH  51  53
ENDBRANCH  50  51
ENDBRANCH  49  50
ENDBRANCH  24  49
BRANCH  21  55
ATOM     55  C   UNK d   0       0.849  -1.018  39.721  0.00  0.00     0.151 C 
BRANCH  55  56
ATOM     56  C   UNK d   0       1.967  -1.134  40.669  0.00  0.00     0.143 C 
ATOM     57  O   UNK d   0       3.099  -0.665  40.440  0.00  0.00    -0.650 OA
BRANCH  56  58
ATOM     58  O   UNK d   0       1.732  -1.801  41.871  0.00  0.00    -0.776 OA
ATOM     59  H   UNK d   0       2.338  -2.624  42.039  0.00  0.00     0.167 HD
ENDBRANCH  56  58
ENDBRANCH  55  56
ENDBRANCH  21  55
BRANCH  18  60
ATOM     60  C   UNK d   0      -1.361   3.488  41.625  0.00  0.00     0.151 C 
BRANCH  60  61
ATOM     61  C   UNK d   0      -0.838   3.566  42.998  0.00  0.00     0.143 C 
ATOM     62  O   UNK d   0      -1.392   4.068  43.976  0.00  0.00    -0.650 OA
BRANCH  61  63
ATOM     63  O   UNK d   0       0.443   2.993  43.188  0.00  0.00    -0.776 OA
ATOM     64  H   UNK d   0       0.601   2.303  43.902  0.00  0.00     0.167 HD
ENDBRANCH  61  63
ENDBRANCH  60  61
ENDBRANCH  18  60
BRANCH  14  65
ATOM     65  C   UNK d   0      -1.165   6.502  41.333  0.00  0.00     0.052 C 
BRANCH  65  66
ATOM     66  C   UNK d   0      -0.439   7.260  42.387  0.00  0.00     0.115 C 
BRANCH  66  67
ATOM     67  C   UNK d   0      -0.400   8.695  42.332  0.00  0.00     0.139 C 
ATOM     68  O   UNK d   0       0.674   9.294  42.706  0.00  0.00    -0.650 OA
BRANCH  67  69
ATOM     69  O   UNK d   0      -1.409   9.560  41.911  0.00  0.00    -0.776 OA
ATOM     70  H   UNK d   0      -1.390  10.504  42.323  0.00  0.00     0.167 HD
ENDBRANCH  67  69
ENDBRANCH  66  67
ENDBRANCH  65  66
ENDBRANCH  14  65
ENDBRANCH   6   7
ENDBRANCH   5   6
ENDBRANCH   2   5
TORSDOF 28
ENDMDL
MODEL 8
REMARK VINA RESULT:      -8.9      1.960      9.558
REMARK  28 active torsions:
REMARK  status: ('A' for Active; 'I' for Inactive)
REMARK    1  A    between atoms: C_2  and  O_3 
REMARK    2  A    between atoms: C_2  and  C_4 
REMARK    3  A    between atoms: C_4  and  C_5 
REMARK    4  A    between atoms: C_5  and  C_6 
REMARK    5  A    between atoms: C_7  and  C_8 
REMARK    6  A    between atoms: C_8  and  C_9 
REMARK    7  A    between atoms: C_9  and  O_11 
REMARK    8  A    between atoms: C_28  and  C_29 
REMARK    9  A    between atoms: C_29  and  C_30 
REMARK   10  A    between atoms: C_30  and  O_32 
REMARK   11  A    between atoms: C_33  and  C_34 
REMARK   12  A    between atoms: C_34  and  C_35 
REMARK   13  A    between atoms: C_35  and  C_36 
REMARK   14  A    between atoms: C_36  and  O_38 
REMARK   15  A    between atoms: C_39  and  C_40 
REMARK   16  A    between atoms: C_40  and  C_41 
REMARK   17  A    between atoms: C_41  and  C_42 
REMARK   18  A    between atoms: C_42  and  O_44 
REMARK   19  A    between atoms: C_45  and  C_46 
REMARK   20  A    between atoms: C_46  and  C_47 
REMARK   21  A    between atoms: C_47  and  O_49 
REMARK   22  A    between atoms: C_50  and  C_51 
REMARK   23  A    between atoms: C_51  and  C_52 
REMARK   24  A    between atoms: C_52  and  O_54 
REMARK   25  A    between atoms: C_55  and  C_56 
REMARK   26  A    between atoms: C_56  and  C_57 
REMARK   27  A    between atoms: C_57  and  C_58 
REMARK   28  A    between atoms: C_58  and  O_60 
ROOT
ATOM      1  O   UNK d   0      32.771   3.296  38.930  0.00  0.00    -0.650 OA
ATOM      2  C   UNK d   0      31.944   2.364  38.821  0.00  0.00     0.139 C 
ENDROOT
BRANCH   2   3
ATOM      3  O   UNK d   0      30.828   2.355  39.622  0.00  0.00    -0.776 OA
ATOM      4  H   UNK d   0      30.721   3.028  40.384  0.00  0.00     0.167 HD
ENDBRANCH   2   3
BRANCH   2   5
ATOM      5  C   UNK d   0      32.173   1.274  37.830  0.00  0.00     0.115 C 
BRANCH   5   6
ATOM      6  C   UNK d   0      31.046   0.278  37.887  0.00  0.00     0.052 C 
BRANCH   6   7
ATOM      7  C   UNK d   0      31.475  -1.052  38.460  0.00  0.00    -0.020 A 
ATOM      8  C   UNK d   0      31.396  -2.228  37.893  0.00  0.00    -0.011 A 
ATOM      9  C   UNK d   0      31.920  -3.209  38.828  0.00  0.00     0.067 A 
ATOM     10  C   UNK d   0      32.130  -4.597  38.828  0.00  0.00     0.062 C 
ATOM     11  N   UNK d   0      32.290  -2.543  39.942  0.00  0.00    -0.248 NA
ATOM     12  C   UNK d   0      32.910  -5.336  39.724  0.00  0.00     0.041 A 
ATOM     13  N   UNK d   0      33.032  -5.262  41.063  0.00  0.00    -0.355 N 
ATOM     14  C   UNK d   0      33.790  -6.311  39.218  0.00  0.00    -0.022 A 
ATOM     15  C   UNK d   0      33.971  -6.159  41.419  0.00  0.00     0.042 A 
ATOM     16  H   UNK d   0      32.451  -4.603  41.746  0.00  0.00     0.166 HD
ATOM     17  C   UNK d   0      34.482  -6.491  42.689  0.00  0.00     0.062 C 
ATOM     18  C   UNK d   0      34.470  -6.836  40.289  0.00  0.00    -0.013 A 
ATOM     19  C   UNK d   0      34.865  -5.659  43.709  0.00  0.00     0.067 A 
ATOM     20  N   UNK d   0      34.542  -4.368  43.591  0.00  0.00    -0.248 NA
ATOM     21  C   UNK d   0      35.588  -5.805  44.962  0.00  0.00    -0.011 A 
ATOM     22  C   UNK d   0      35.002  -3.660  44.674  0.00  0.00     0.066 A 
ATOM     23  C   UNK d   0      34.701  -2.306  44.698  0.00  0.00     0.062 C 
ATOM     24  C   UNK d   0      35.668  -4.631  45.519  0.00  0.00    -0.020 A 
ATOM     25  C   UNK d   0      33.905  -1.586  43.794  0.00  0.00     0.041 A 
ATOM     26  N   UNK d   0      33.795  -1.649  42.462  0.00  0.00    -0.355 N 
ATOM     27  C   UNK d   0      33.020  -0.611  44.304  0.00  0.00    -0.022 A 
ATOM     28  C   UNK d   0      32.866  -0.749  42.104  0.00  0.00     0.042 A 
ATOM     29  H   UNK d   0      34.387  -2.304  41.777  0.00  0.00     0.166 HD
ATOM     30  C   UNK d   0      32.354  -0.402  40.844  0.00  0.00     0.062 C 
ATOM     31  C   UNK d   0      32.358  -0.077  43.241  0.00  0.00    -0.013 A 
ATOM     32  C   UNK d   0      32.048  -1.241  39.784  0.00  0.00     0.066 A 
BRANCH   8  33
ATOM     33  C   UNK d   0      30.869  -2.529  36.549  0.00  0.00     0.151 C 
BRANCH  33  34
ATOM     34  C   UNK d   0      29.917  -3.655  36.548  0.00  0.00     0.143 C 
ATOM     35  O   UNK d   0      28.925  -3.651  37.292  0.00  0.00    -0.650 OA
BRANCH  34  36
ATOM     36  O   UNK d   0      30.137  -4.724  35.711  0.00  0.00    -0.776 OA
ATOM     37  H   UNK d   0      30.570  -4.598  34.786  0.00  0.00     0.167 HD
ENDBRANCH  34  36
ENDBRANCH  33  34
ENDBRANCH   8  33
BRANCH  31  38
ATOM     38  C   UNK d   0      31.296   0.997  43.300  0.00  0.00     0.151 C 
BRANCH  38  39
ATOM     39  C   UNK d   0      31.843   2.333  43.194  0.00  0.00     0.143 C 
ATOM     40  O   UNK d   0      32.527   2.697  42.222  0.00  0.00    -0.650 OA
BRANCH  39  41
ATOM     41  O   UNK d   0      31.601   3.256  44.212  0.00  0.00    -0.776 OA
ATOM     42  H   UNK d   0      30.621   3.434  44.449  0.00  0.00     0.167 HD
ENDBRANCH  39  41
ENDBRANCH  38  39
ENDBRANCH  31  38
BRANCH  27  43
ATOM     43  C   UNK d   0      32.789  -0.178  45.730  0.00  0.00     0.052 C 
BRANCH  43  44
ATOM     44  C   UNK d   0      34.054   0.061  46.488  0.00  0.00     0.115 C 
BRANCH  44  45
ATOM     45  C   UNK d   0      34.323   1.520  46.416  0.00  0.00     0.139 C 
ATOM     46  O   UNK d   0      34.674   2.110  47.468  0.00  0.00    -0.650 OA
BRANCH  45  47
ATOM     47  O   UNK d   0      34.209   2.245  45.250  0.00  0.00    -0.776 OA
ATOM     48  H   UNK d   0      34.026   3.262  45.237  0.00  0.00     0.167 HD
ENDBRANCH  45  47
ENDBRANCH  44  45
ENDBRANCH  43  44
ENDBRANCH  27  43
BRANCH  24  49
ATOM     49  C   UNK d   0      36.286  -4.329  46.822  0.00  0.00     0.052 C 
BRANCH  49  50
ATOM     50  C   UNK d   0      37.725  -3.919  46.637  0.00  0.00     0.115 C 
BRANCH  50  51
ATOM     51  C   UNK d   0      38.045  -2.511  46.824  0.00  0.00     0.139 C 
ATOM     52  O   UNK d   0      37.229  -1.690  47.307  0.00  0.00    -0.650 OA
BRANCH  51  53
ATOM     53  O   UNK d   0      39.295  -2.036  46.459  0.00  0.00    -0.776 OA
ATOM     54  H   UNK d   0      39.940  -1.783  47.187  0.00  0.00     0.167 HD
ENDBRANCH  51  53
ENDBRANCH  50  51
ENDBRANCH  49  50
ENDBRANCH  24  49
BRANCH  21  55
ATOM     55  C   UNK d   0      36.119  -7.103  45.473  0.00  0.00     0.151 C 
BRANCH  55  56
ATOM     56  C   UNK d   0      37.338  -7.518  44.763  0.00  0.00     0.143 C 
ATOM     57  O   UNK d   0      37.859  -8.641  44.915  0.00  0.00    -0.650 OA
BRANCH  56  58
ATOM     58  O   UNK d   0      37.922  -6.604  43.887  0.00  0.00    -0.776 OA
ATOM     59  H   UNK d   0      38.635  -5.986  44.313  0.00  0.00     0.167 HD
ENDBRANCH  56  58
ENDBRANCH  55  56
ENDBRANCH  21  55
BRANCH  18  60
ATOM     60  C   UNK d   0      35.524  -7.911  40.200  0.00  0.00     0.151 C 
BRANCH  60  61
ATOM     61  C   UNK d   0      36.811  -7.208  40.096  0.00  0.00     0.143 C 
ATOM     62  O   UNK d   0      37.541  -6.855  41.022  0.00  0.00    -0.650 OA
BRANCH  61  63
ATOM     63  O   UNK d   0      37.233  -6.917  38.776  0.00  0.00    -0.776 OA
ATOM     64  H   UNK d   0      36.576  -6.887  38.016  0.00  0.00     0.167 HD
ENDBRANCH  61  63
ENDBRANCH  60  61
ENDBRANCH  18  60
BRANCH  14  65
ATOM     65  C   UNK d   0      33.963  -6.847  37.825  0.00  0.00     0.052 C 
BRANCH  65  66
ATOM     66  C   UNK d   0      32.947  -7.873  37.466  0.00  0.00     0.115 C 
BRANCH  66  67
ATOM     67  C   UNK d   0      31.857  -7.522  36.600  0.00  0.00     0.139 C 
ATOM     68  O   UNK d   0      32.124  -7.140  35.402  0.00  0.00    -0.650 OA
BRANCH  67  69
ATOM     69  O   UNK d   0      30.494  -7.540  36.894  0.00  0.00    -0.776 OA
ATOM     70  H   UNK d   0      29.959  -6.714  36.590  0.00  0.00     0.167 HD
ENDBRANCH  67  69
ENDBRANCH  66  67
ENDBRANCH  65  66
ENDBRANCH  14  65
ENDBRANCH   6   7
ENDBRANCH   5   6
ENDBRANCH   2   5
TORSDOF 28
ENDMDL
MODEL 9
REMARK VINA RESULT:      -8.8     29.353     33.269
REMARK  28 active torsions:
REMARK  status: ('A' for Active; 'I' for Inactive)
REMARK    1  A    between atoms: C_2  and  O_3 
REMARK    2  A    between atoms: C_2  and  C_4 
REMARK    3  A    between atoms: C_4  and  C_5 
REMARK    4  A    between atoms: C_5  and  C_6 
REMARK    5  A    between atoms: C_7  and  C_8 
REMARK    6  A    between atoms: C_8  and  C_9 
REMARK    7  A    between atoms: C_9  and  O_11 
REMARK    8  A    between atoms: C_28  and  C_29 
REMARK    9  A    between atoms: C_29  and  C_30 
REMARK   10  A    between atoms: C_30  and  O_32 
REMARK   11  A    between atoms: C_33  and  C_34 
REMARK   12  A    between atoms: C_34  and  C_35 
REMARK   13  A    between atoms: C_35  and  C_36 
REMARK   14  A    between atoms: C_36  and  O_38 
REMARK   15  A    between atoms: C_39  and  C_40 
REMARK   16  A    between atoms: C_40  and  C_41 
REMARK   17  A    between atoms: C_41  and  C_42 
REMARK   18  A    between atoms: C_42  and  O_44 
REMARK   19  A    between atoms: C_45  and  C_46 
REMARK   20  A    between atoms: C_46  and  C_47 
REMARK   21  A    between atoms: C_47  and  O_49 
REMARK   22  A    between atoms: C_50  and  C_51 
REMARK   23  A    between atoms: C_51  and  C_52 
REMARK   24  A    between atoms: C_52  and  O_54 
REMARK   25  A    between atoms: C_55  and  C_56 
REMARK   26  A    between atoms: C_56  and  C_57 
REMARK   27  A    between atoms: C_57  and  C_58 
REMARK   28  A    between atoms: C_58  and  O_60 
ROOT
ATOM      1  O   UNK d   0       0.090  11.538  42.652  0.00  0.00    -0.650 OA
ATOM      2  C   UNK d   0       0.437  12.130  41.606  0.00  0.00     0.139 C 
ENDROOT
BRANCH   2   3
ATOM      3  O   UNK d   0      -0.527  12.650  40.776  0.00  0.00    -0.776 OA
ATOM      4  H   UNK d   0      -0.979  13.542  40.986  0.00  0.00     0.167 HD
ENDBRANCH   2   3
BRANCH   2   5
ATOM      5  C   UNK d   0       1.882  12.267  41.267  0.00  0.00     0.115 C 
BRANCH   5   6
ATOM      6  C   UNK d   0       2.190  11.513  40.001  0.00  0.00     0.052 C 
BRANCH   6   7
ATOM      7  C   UNK d   0       1.893  10.037  40.117  0.00  0.00    -0.020 A 
ATOM      8  C   UNK d   0       1.083   9.325  39.376  0.00  0.00    -0.011 A 
ATOM      9  C   UNK d   0       1.117   7.958  39.866  0.00  0.00     0.067 A 
ATOM     10  C   UNK d   0       0.517   6.739  39.511  0.00  0.00     0.062 C 
ATOM     11  N   UNK d   0       1.970   7.928  40.912  0.00  0.00    -0.248 NA
ATOM     12  C   UNK d   0       0.888   5.458  39.933  0.00  0.00     0.041 A 
ATOM     13  N   UNK d   0       1.246   4.992  41.144  0.00  0.00    -0.355 N 
ATOM     14  C   UNK d   0       0.981   4.428  38.979  0.00  0.00    -0.022 A 
ATOM     15  C   UNK d   0       1.571   3.696  40.982  0.00  0.00     0.042 A 
ATOM     16  H   UNK d   0       1.250   5.563  42.099  0.00  0.00     0.166 HD
ATOM     17  C   UNK d   0       2.009   2.740  41.920  0.00  0.00     0.062 C 
ATOM     18  C   UNK d   0       1.417   3.306  39.638  0.00  0.00    -0.013 A 
ATOM     19  C   UNK d   0       2.951   2.871  42.909  0.00  0.00     0.067 A 
ATOM     20  N   UNK d   0       3.385   4.106  43.171  0.00  0.00    -0.248 NA
ATOM     21  C   UNK d   0       3.662   1.970  43.801  0.00  0.00    -0.011 A 
ATOM     22  C   UNK d   0       4.330   4.078  44.167  0.00  0.00     0.066 A 
ATOM     23  C   UNK d   0       4.841   5.305  44.567  0.00  0.00     0.062 C 
ATOM     24  C   UNK d   0       4.470   2.682  44.531  0.00  0.00    -0.020 A 
ATOM     25  C   UNK d   0       4.445   6.582  44.140  0.00  0.00     0.041 A 
ATOM     26  N   UNK d   0       4.104   7.048  42.933  0.00  0.00    -0.355 N 
ATOM     27  C   UNK d   0       4.348   7.614  45.099  0.00  0.00    -0.022 A 
ATOM     28  C   UNK d   0       3.788   8.343  43.090  0.00  0.00     0.042 A 
ATOM     29  H   UNK d   0       4.111   6.476  41.973  0.00  0.00     0.166 HD
ATOM     30  C   UNK d   0       3.359   9.308  42.165  0.00  0.00     0.062 C 
ATOM     31  C   UNK d   0       3.932   8.731  44.444  0.00  0.00    -0.013 A 
ATOM     32  C   UNK d   0       2.471   9.148  41.113  0.00  0.00     0.066 A 
BRANCH   8  33
ATOM     33  C   UNK d   0       0.267   9.805  38.244  0.00  0.00     0.151 C 
BRANCH  33  34
ATOM     34  C   UNK d   0       0.957   9.676  36.948  0.00  0.00     0.143 C 
ATOM     35  O   UNK d   0       0.896   8.624  36.296  0.00  0.00    -0.650 OA
BRANCH  34  36
ATOM     36  O   UNK d   0       1.680  10.739  36.459  0.00  0.00    -0.776 OA
ATOM     37  H   UNK d   0       1.214  11.550  36.031  0.00  0.00     0.167 HD
ENDBRANCH  34  36
ENDBRANCH  33  34
ENDBRANCH   8  33
BRANCH  31  38
ATOM     38  C   UNK d   0       3.673  10.084  45.064  0.00  0.00     0.151 C 
BRANCH  38  39
ATOM     39  C   UNK d   0       2.334  10.211  45.598  0.00  0.00     0.143 C 
ATOM     40  O   UNK d   0       2.112  10.363  46.812  0.00  0.00    -0.650 OA
BRANCH  39  41
ATOM     41  O   UNK d   0       1.243  10.162  44.730  0.00  0.00    -0.776 OA
ATOM     42  H   UNK d   0       0.901  11.058  44.368  0.00  0.00     0.167 HD
ENDBRANCH  39  41
ENDBRANCH  38  39
ENDBRANCH  31  38
BRANCH  27  43
ATOM     43  C   UNK d   0       4.632   7.576  46.580  0.00  0.00     0.052 C 
BRANCH  43  44
ATOM     44  C   UNK d   0       6.017   8.015  46.927  0.00  0.00     0.115 C 
BRANCH  44  45
ATOM     45  C   UNK d   0       6.523   7.059  47.947  0.00  0.00     0.139 C 
ATOM     46  O   UNK d   0       5.685   6.483  48.685  0.00  0.00    -0.650 OA
BRANCH  45  47
ATOM     47  O   UNK d   0       7.862   6.778  48.108  0.00  0.00    -0.776 OA
ATOM     48  H   UNK d   0       8.430   7.178  48.872  0.00  0.00     0.167 HD
ENDBRANCH  45  47
ENDBRANCH  44  45
ENDBRANCH  43  44
ENDBRANCH  27  43
BRANCH  24  49
ATOM     49  C   UNK d   0       5.354   2.175  45.595  0.00  0.00     0.052 C 
BRANCH  49  50
ATOM     50  C   UNK d   0       4.654   2.227  46.928  0.00  0.00     0.115 C 
BRANCH  50  51
ATOM     51  C   UNK d   0       5.223   3.101  47.945  0.00  0.00     0.139 C 
ATOM     52  O   UNK d   0       6.459   3.265  48.081  0.00  0.00    -0.650 OA
BRANCH  51  53
ATOM     53  O   UNK d   0       4.384   3.786  48.810  0.00  0.00    -0.776 OA
ATOM     54  H   UNK d   0       4.502   4.780  48.898  0.00  0.00     0.167 HD
ENDBRANCH  51  53
ENDBRANCH  50  51
ENDBRANCH  49  50
ENDBRANCH  24  49
BRANCH  21  55
ATOM     55  C   UNK d   0       3.456   0.492  43.832  0.00  0.00     0.151 C 
BRANCH  55  56
ATOM     56  C   UNK d   0       3.917  -0.156  42.594  0.00  0.00     0.143 C 
ATOM     57  O   UNK d   0       3.900   0.417  41.486  0.00  0.00    -0.650 OA
BRANCH  56  58
ATOM     58  O   UNK d   0       4.389  -1.464  42.682  0.00  0.00    -0.776 OA
ATOM     59  H   UNK d   0       5.078  -1.629  43.438  0.00  0.00     0.167 HD
ENDBRANCH  56  58
ENDBRANCH  55  56
ENDBRANCH  21  55
BRANCH  18  60
ATOM     60  C   UNK d   0       1.665   1.965  38.992  0.00  0.00     0.151 C 
BRANCH  60  61
ATOM     61  C   UNK d   0       0.350   1.311  38.903  0.00  0.00     0.143 C 
ATOM     62  O   UNK d   0      -0.286   1.058  37.880  0.00  0.00    -0.650 OA
BRANCH  61  63
ATOM     63  O   UNK d   0      -0.224   0.943  40.144  0.00  0.00    -0.776 OA
ATOM     64  H   UNK d   0      -0.162  -0.001  40.484  0.00  0.00     0.167 HD
ENDBRANCH  61  63
ENDBRANCH  60  61
ENDBRANCH  18  60
BRANCH  14  65
ATOM     65  C   UNK d   0       0.598   4.399  37.526  0.00  0.00     0.052 C 
BRANCH  65  66
ATOM     66  C   UNK d   0       1.292   5.439  36.721  0.00  0.00     0.115 C 
BRANCH  66  67
ATOM     67  C   UNK d   0       1.322   5.329  35.290  0.00  0.00     0.139 C 
ATOM     68  O   UNK d   0       1.321   4.155  34.764  0.00  0.00    -0.650 OA
BRANCH  67  69
ATOM     69  O   UNK d   0       1.354   6.363  34.354  0.00  0.00    -0.776 OA
ATOM     70  H   UNK d   0       1.186   6.087  33.376  0.00  0.00     0.167 HD
ENDBRANCH  67  69
ENDBRANCH  66  67
ENDBRANCH  65  66
ENDBRANCH  14  65
ENDBRANCH   6   7
ENDBRANCH   5   6
ENDBRANCH   2   5
TORSDOF 28
ENDMDL
MODEL 10
REMARK VINA RESULT:      -8.7      1.573      7.784
REMARK  28 active torsions:
REMARK  status: ('A' for Active; 'I' for Inactive)
REMARK    1  A    between atoms: C_2  and  O_3 
REMARK    2  A    between atoms: C_2  and  C_4 
REMARK    3  A    between atoms: C_4  and  C_5 
REMARK    4  A    between atoms: C_5  and  C_6 
REMARK    5  A    between atoms: C_7  and  C_8 
REMARK    6  A    between atoms: C_8  and  C_9 
REMARK    7  A    between atoms: C_9  and  O_11 
REMARK    8  A    between atoms: C_28  and  C_29 
REMARK    9  A    between atoms: C_29  and  C_30 
REMARK   10  A    between atoms: C_30  and  O_32 
REMARK   11  A    between atoms: C_33  and  C_34 
REMARK   12  A    between atoms: C_34  and  C_35 
REMARK   13  A    between atoms: C_35  and  C_36 
REMARK   14  A    between atoms: C_36  and  O_38 
REMARK   15  A    between atoms: C_39  and  C_40 
REMARK   16  A    between atoms: C_40  and  C_41 
REMARK   17  A    between atoms: C_41  and  C_42 
REMARK   18  A    between atoms: C_42  and  O_44 
REMARK   19  A    between atoms: C_45  and  C_46 
REMARK   20  A    between atoms: C_46  and  C_47 
REMARK   21  A    between atoms: C_47  and  O_49 
REMARK   22  A    between atoms: C_50  and  C_51 
REMARK   23  A    between atoms: C_51  and  C_52 
REMARK   24  A    between atoms: C_52  and  O_54 
REMARK   25  A    between atoms: C_55  and  C_56 
REMARK   26  A    between atoms: C_56  and  C_57 
REMARK   27  A    between atoms: C_57  and  C_58 
REMARK   28  A    between atoms: C_58  and  O_60 
ROOT
ATOM      1  O   UNK d   0      30.975   2.287  44.849  0.00  0.00    -0.650 OA
ATOM      2  C   UNK d   0      32.075   2.759  44.486  0.00  0.00     0.139 C 
ENDROOT
BRANCH   2   3
ATOM      3  O   UNK d   0      32.103   3.743  43.528  0.00  0.00    -0.776 OA
ATOM      4  H   UNK d   0      31.350   3.833  42.842  0.00  0.00     0.167 HD
ENDBRANCH   2   3
BRANCH   2   5
ATOM      5  C   UNK d   0      33.341   2.255  45.090  0.00  0.00     0.115 C 
BRANCH   5   6
ATOM      6  C   UNK d   0      33.060   1.060  45.960  0.00  0.00     0.052 C 
BRANCH   6   7
ATOM      7  C   UNK d   0      33.538  -0.233  45.345  0.00  0.00    -0.020 A 
ATOM      8  C   UNK d   0      34.303  -1.143  45.892  0.00  0.00    -0.011 A 
ATOM      9  C   UNK d   0      34.501  -2.203  44.918  0.00  0.00     0.067 A 
ATOM     10  C   UNK d   0      35.176  -3.433  44.883  0.00  0.00     0.062 C 
ATOM     11  N   UNK d   0      33.826  -1.853  43.803  0.00  0.00    -0.248 NA
ATOM     12  C   UNK d   0      35.023  -4.457  43.942  0.00  0.00     0.041 A 
ATOM     13  N   UNK d   0      34.910  -4.418  42.601  0.00  0.00    -0.355 N 
ATOM     14  C   UNK d   0      34.905  -5.784  44.393  0.00  0.00    -0.022 A 
ATOM     15  C   UNK d   0      34.715  -5.686  42.190  0.00  0.00     0.042 A 
ATOM     16  H   UNK d   0      34.985  -3.516  41.955  0.00  0.00     0.166 HD
ATOM     17  C   UNK d   0      34.537  -6.209  40.894  0.00  0.00     0.062 C 
ATOM     18  C   UNK d   0      34.706  -6.571  43.286  0.00  0.00    -0.013 A 
ATOM     19  C   UNK d   0      33.748  -5.739  39.875  0.00  0.00     0.067 A 
ATOM     20  N   UNK d   0      33.219  -4.522  40.032  0.00  0.00    -0.248 NA
ATOM     21  C   UNK d   0      33.288  -6.243  38.592  0.00  0.00    -0.011 A 
ATOM     22  C   UNK d   0      32.446  -4.195  38.945  0.00  0.00     0.066 A 
ATOM     23  C   UNK d   0      31.864  -2.936  38.959  0.00  0.00     0.062 C 
ATOM     24  C   UNK d   0      32.524  -5.337  38.054  0.00  0.00    -0.020 A 
ATOM     25  C   UNK d   0      32.041  -1.917  39.907  0.00  0.00     0.041 A 
ATOM     26  N   UNK d   0      32.139  -1.954  41.242  0.00  0.00    -0.355 N 
ATOM     27  C   UNK d   0      32.163  -0.586  39.453  0.00  0.00    -0.022 A 
ATOM     28  C   UNK d   0      32.324  -0.690  41.654  0.00  0.00     0.042 A 
ATOM     29  H   UNK d   0      32.052  -2.860  41.890  0.00  0.00     0.166 HD
ATOM     30  C   UNK d   0      32.494  -0.154  42.941  0.00  0.00     0.062 C 
ATOM     31  C   UNK d   0      32.344   0.197  40.552  0.00  0.00    -0.013 A 
ATOM     32  C   UNK d   0      33.224  -0.678  43.995  0.00  0.00     0.066 A 
BRANCH   8  33
ATOM     33  C   UNK d   0      34.876  -1.116  47.251  0.00  0.00     0.151 C 
BRANCH  33  34
ATOM     34  C   UNK d   0      36.214  -0.499  47.293  0.00  0.00     0.143 C 
ATOM     35  O   UNK d   0      37.230  -1.163  47.040  0.00  0.00    -0.650 OA
BRANCH  34  36
ATOM     36  O   UNK d   0      36.334   0.832  47.619  0.00  0.00    -0.776 OA
ATOM     37  H   UNK d   0      37.257   1.272  47.740  0.00  0.00     0.167 HD
ENDBRANCH  34  36
ENDBRANCH  33  34
ENDBRANCH   8  33
BRANCH  31  38
ATOM     38  C   UNK d   0      32.537   1.696  40.556  0.00  0.00     0.151 C 
BRANCH  38  39
ATOM     39  C   UNK d   0      33.562   2.133  39.634  0.00  0.00     0.143 C 
ATOM     40  O   UNK d   0      34.594   1.471  39.423  0.00  0.00    -0.650 OA
BRANCH  39  41
ATOM     41  O   UNK d   0      33.402   3.337  38.949  0.00  0.00    -0.776 OA
ATOM     42  H   UNK d   0      32.748   3.336  38.160  0.00  0.00     0.167 HD
ENDBRANCH  39  41
ENDBRANCH  38  39
ENDBRANCH  31  38
BRANCH  27  43
ATOM     43  C   UNK d   0      32.114  -0.045  38.046  0.00  0.00     0.052 C 
BRANCH  43  44
ATOM     44  C   UNK d   0      30.723   0.120  37.525  0.00  0.00     0.115 C 
BRANCH  44  45
ATOM     45  C   UNK d   0      30.664  -0.611  36.233  0.00  0.00     0.139 C 
ATOM     46  O   UNK d   0      29.536  -0.946  35.793  0.00  0.00    -0.650 OA
BRANCH  45  47
ATOM     47  O   UNK d   0      31.789  -0.930  35.502  0.00  0.00    -0.776 OA
ATOM     48  H   UNK d   0      32.547  -0.253  35.317  0.00  0.00     0.167 HD
ENDBRANCH  45  47
ENDBRANCH  44  45
ENDBRANCH  43  44
ENDBRANCH  27  43
BRANCH  24  49
ATOM     49  C   UNK d   0      31.876  -5.419  36.734  0.00  0.00     0.052 C 
BRANCH  49  50
ATOM     50  C   UNK d   0      30.398  -5.671  36.889  0.00  0.00     0.115 C 
BRANCH  50  51
ATOM     51  C   UNK d   0      29.500  -4.563  36.595  0.00  0.00     0.139 C 
ATOM     52  O   UNK d   0      28.810  -3.999  37.477  0.00  0.00    -0.650 OA
BRANCH  51  53
ATOM     53  O   UNK d   0      29.386  -4.099  35.294  0.00  0.00    -0.776 OA
ATOM     54  H   UNK d   0      29.887  -4.585  34.570  0.00  0.00     0.167 HD
ENDBRANCH  51  53
ENDBRANCH  50  51
ENDBRANCH  49  50
ENDBRANCH  24  49
BRANCH  21  55
ATOM     55  C   UNK d   0      33.665  -7.576  38.035  0.00  0.00     0.151 C 
BRANCH  55  56
ATOM     56  C   UNK d   0      35.064  -7.609  37.582  0.00  0.00     0.143 C 
ATOM     57  O   UNK d   0      35.407  -7.290  36.426  0.00  0.00    -0.650 OA
BRANCH  56  58
ATOM     58  O   UNK d   0      36.033  -8.016  38.497  0.00  0.00    -0.776 OA
ATOM     59  H   UNK d   0      35.727  -8.012  39.487  0.00  0.00     0.167 HD
ENDBRANCH  56  58
ENDBRANCH  55  56
ENDBRANCH  21  55
BRANCH  18  60
ATOM     60  C   UNK d   0      34.519  -8.067  43.311  0.00  0.00     0.151 C 
BRANCH  60  61
ATOM     61  C   UNK d   0      33.136  -8.294  43.756  0.00  0.00     0.143 C 
ATOM     62  O   UNK d   0      32.159  -7.576  43.539  0.00  0.00    -0.650 OA
BRANCH  61  63
ATOM     63  O   UNK d   0      32.932  -9.473  44.513  0.00  0.00    -0.776 OA
ATOM     64  H   UNK d   0      32.007  -9.825  44.686  0.00  0.00     0.167 HD
ENDBRANCH  61  63
ENDBRANCH  60  61
ENDBRANCH  18  60
BRANCH  14  65
ATOM     65  C   UNK d   0      35.064  -6.371  45.767  0.00  0.00     0.052 C 
BRANCH  65  66
ATOM     66  C   UNK d   0      33.825  -6.280  46.585  0.00  0.00     0.115 C 
BRANCH  66  67
ATOM     67  C   UNK d   0      33.490  -7.342  47.491  0.00  0.00     0.139 C 
ATOM     68  O   UNK d   0      32.666  -8.247  47.097  0.00  0.00    -0.650 OA
BRANCH  67  69
ATOM     69  O   UNK d   0      33.956  -7.533  48.791  0.00  0.00    -0.776 OA
ATOM     70  H   UNK d   0      33.300  -7.278  49.544  0.00  0.00     0.167 HD
ENDBRANCH  67  69
ENDBRANCH  66  67
ENDBRANCH  65  66
ENDBRANCH  14  65
ENDBRANCH   6   7
ENDBRANCH   5   6
ENDBRANCH   2   5
TORSDOF 28
ENDMDL
MODEL 11
REMARK VINA RESULT:      -8.6     29.194     31.939
REMARK  28 active torsions:
REMARK  status: ('A' for Active; 'I' for Inactive)
REMARK    1  A    between atoms: C_2  and  O_3 
REMARK    2  A    between atoms: C_2  and  C_4 
REMARK    3  A    between atoms: C_4  and  C_5 
REMARK    4  A    between atoms: C_5  and  C_6 
REMARK    5  A    between atoms: C_7  and  C_8 
REMARK    6  A    between atoms: C_8  and  C_9 
REMARK    7  A    between atoms: C_9  and  O_11 
REMARK    8  A    between atoms: C_28  and  C_29 
REMARK    9  A    between atoms: C_29  and  C_30 
REMARK   10  A    between atoms: C_30  and  O_32 
REMARK   11  A    between atoms: C_33  and  C_34 
REMARK   12  A    between atoms: C_34  and  C_35 
REMARK   13  A    between atoms: C_35  and  C_36 
REMARK   14  A    between atoms: C_36  and  O_38 
REMARK   15  A    between atoms: C_39  and  C_40 
REMARK   16  A    between atoms: C_40  and  C_41 
REMARK   17  A    between atoms: C_41  and  C_42 
REMARK   18  A    between atoms: C_42  and  O_44 
REMARK   19  A    between atoms: C_45  and  C_46 
REMARK   20  A    between atoms: C_46  and  C_47 
REMARK   21  A    between atoms: C_47  and  O_49 
REMARK   22  A    between atoms: C_50  and  C_51 
REMARK   23  A    between atoms: C_51  and  C_52 
REMARK   24  A    between atoms: C_52  and  O_54 
REMARK   25  A    between atoms: C_55  and  C_56 
REMARK   26  A    between atoms: C_56  and  C_57 
REMARK   27  A    between atoms: C_57  and  C_58 
REMARK   28  A    between atoms: C_58  and  O_60 
ROOT
ATOM      1  O   UNK d   0       7.970  10.682  48.994  0.00  0.00    -0.650 OA
ATOM      2  C   UNK d   0       8.367  10.441  47.832  0.00  0.00     0.139 C 
ENDROOT
BRANCH   2   3
ATOM      3  O   UNK d   0       9.337   9.487  47.636  0.00  0.00    -0.776 OA
ATOM      4  H   UNK d   0       9.505   9.089  46.710  0.00  0.00     0.167 HD
ENDBRANCH   2   3
BRANCH   2   5
ATOM      5  C   UNK d   0       7.792  11.184  46.675  0.00  0.00     0.115 C 
BRANCH   5   6
ATOM      6  C   UNK d   0       6.431  11.719  47.029  0.00  0.00     0.052 C 
BRANCH   6   7
ATOM      7  C   UNK d   0       5.359  11.264  46.068  0.00  0.00    -0.020 A 
ATOM      8  C   UNK d   0       4.486  12.005  45.436  0.00  0.00    -0.011 A 
ATOM      9  C   UNK d   0       3.654  11.126  44.632  0.00  0.00     0.067 A 
ATOM     10  C   UNK d   0       2.586  11.282  43.735  0.00  0.00     0.062 C 
ATOM     11  N   UNK d   0       4.088   9.864  44.839  0.00  0.00    -0.248 NA
ATOM     12  C   UNK d   0       2.088  10.334  42.835  0.00  0.00     0.041 A 
ATOM     13  N   UNK d   0       1.846   9.017  42.980  0.00  0.00    -0.355 N 
ATOM     14  C   UNK d   0       1.818  10.727  41.512  0.00  0.00    -0.022 A 
ATOM     15  C   UNK d   0       1.437   8.563  41.780  0.00  0.00     0.042 A 
ATOM     16  H   UNK d   0       1.944   8.424  43.916  0.00  0.00     0.166 HD
ATOM     17  C   UNK d   0       1.054   7.268  41.375  0.00  0.00     0.062 C 
ATOM     18  C   UNK d   0       1.406   9.606  40.835  0.00  0.00    -0.013 A 
ATOM     19  C   UNK d   0       1.659   6.067  41.643  0.00  0.00     0.067 A 
ATOM     20  N   UNK d   0       2.625   6.069  42.566  0.00  0.00    -0.248 NA
ATOM     21  C   UNK d   0       1.537   4.704  41.154  0.00  0.00    -0.011 A 
ATOM     22  C   UNK d   0       3.144   4.806  42.715  0.00  0.00     0.066 A 
ATOM     23  C   UNK d   0       4.135   4.656  43.674  0.00  0.00     0.062 C 
ATOM     24  C   UNK d   0       2.412   3.972  41.782  0.00  0.00    -0.020 A 
ATOM     25  C   UNK d   0       4.612   5.619  44.576  0.00  0.00     0.041 A 
ATOM     26  N   UNK d   0       4.867   6.925  44.429  0.00  0.00    -0.355 N 
ATOM     27  C   UNK d   0       4.879   5.225  45.905  0.00  0.00    -0.022 A 
ATOM     28  C   UNK d   0       5.284   7.378  45.622  0.00  0.00     0.042 A 
ATOM     29  H   UNK d   0       4.778   7.517  43.485  0.00  0.00     0.166 HD
ATOM     30  C   UNK d   0       5.676   8.661  46.036  0.00  0.00     0.062 C 
ATOM     31  C   UNK d   0       5.304   6.331  46.574  0.00  0.00    -0.013 A 
ATOM     32  C   UNK d   0       5.112   9.879  45.693  0.00  0.00     0.066 A 
BRANCH   8  33
ATOM     33  C   UNK d   0       4.348  13.471  45.515  0.00  0.00     0.151 C 
BRANCH  33  34
ATOM     34  C   UNK d   0       3.015  13.895  45.981  0.00  0.00     0.143 C 
ATOM     35  O   UNK d   0       2.558  15.006  45.677  0.00  0.00    -0.650 OA
BRANCH  34  36
ATOM     36  O   UNK d   0       2.272  13.043  46.765  0.00  0.00    -0.776 OA
ATOM     37  H   UNK d   0       1.253  12.963  46.649  0.00  0.00     0.167 HD
ENDBRANCH  34  36
ENDBRANCH  33  34
ENDBRANCH   8  33
BRANCH  31  38
ATOM     38  C   UNK d   0       5.693   6.397  48.032  0.00  0.00     0.151 C 
BRANCH  38  39
ATOM     39  C   UNK d   0       6.982   7.022  48.242  0.00  0.00     0.143 C 
ATOM     40  O   UNK d   0       7.948   6.826  47.483  0.00  0.00    -0.650 OA
BRANCH  39  41
ATOM     41  O   UNK d   0       7.161   7.878  49.328  0.00  0.00    -0.776 OA
ATOM     42  H   UNK d   0       6.352   8.023  49.940  0.00  0.00     0.167 HD
ENDBRANCH  39  41
ENDBRANCH  38  39
ENDBRANCH  31  38
BRANCH  27  43
ATOM     43  C   UNK d   0       4.750   3.865  46.546  0.00  0.00     0.052 C 
BRANCH  43  44
ATOM     44  C   UNK d   0       4.907   2.738  45.577  0.00  0.00     0.115 C 
BRANCH  44  45
ATOM     45  C   UNK d   0       4.706   1.484  46.349  0.00  0.00     0.139 C 
ATOM     46  O   UNK d   0       5.658   1.062  47.050  0.00  0.00    -0.650 OA
BRANCH  45  47
ATOM     47  O   UNK d   0       3.524   0.776  46.329  0.00  0.00    -0.776 OA
ATOM     48  H   UNK d   0       3.254   0.158  45.546  0.00  0.00     0.167 HD
ENDBRANCH  45  47
ENDBRANCH  44  45
ENDBRANCH  43  44
ENDBRANCH  27  43
BRANCH  24  49
ATOM     49  C   UNK d   0       2.605   2.520  41.622  0.00  0.00     0.052 C 
BRANCH  49  50
ATOM     50  C   UNK d   0       3.308   2.225  40.321  0.00  0.00     0.115 C 
BRANCH  50  51
ATOM     51  C   UNK d   0       2.637   1.325  39.393  0.00  0.00     0.139 C 
ATOM     52  O   UNK d   0       2.000   1.735  38.395  0.00  0.00    -0.650 OA
BRANCH  51  53
ATOM     53  O   UNK d   0       2.693  -0.044  39.604  0.00  0.00    -0.776 OA
ATOM     54  H   UNK d   0       2.755  -0.377  40.551  0.00  0.00     0.167 HD
ENDBRANCH  51  53
ENDBRANCH  50  51
ENDBRANCH  49  50
ENDBRANCH  24  49
BRANCH  21  55
ATOM     55  C   UNK d   0       0.557   4.274  40.114  0.00  0.00     0.151 C 
BRANCH  55  56
ATOM     56  C   UNK d   0      -0.467   3.370  40.661  0.00  0.00     0.143 C 
ATOM     57  O   UNK d   0      -1.158   3.658  41.659  0.00  0.00    -0.650 OA
BRANCH  56  58
ATOM     58  O   UNK d   0      -0.659   2.146  40.024  0.00  0.00    -0.776 OA
ATOM     59  H   UNK d   0      -1.606   2.003  39.629  0.00  0.00     0.167 HD
ENDBRANCH  56  58
ENDBRANCH  55  56
ENDBRANCH  21  55
BRANCH  18  60
ATOM     60  C   UNK d   0       1.020   9.571  39.377  0.00  0.00     0.151 C 
BRANCH  60  61
ATOM     61  C   UNK d   0       2.268   9.337  38.634  0.00  0.00     0.143 C 
ATOM     62  O   UNK d   0       2.994   8.345  38.697  0.00  0.00    -0.650 OA
BRANCH  61  63
ATOM     63  O   UNK d   0       2.651  10.380  37.757  0.00  0.00    -0.776 OA
ATOM     64  H   UNK d   0       3.284  10.211  36.995  0.00  0.00     0.167 HD
ENDBRANCH  61  63
ENDBRANCH  60  61
ENDBRANCH  18  60
BRANCH  14  65
ATOM     65  C   UNK d   0       1.824  12.086  40.872  0.00  0.00     0.052 C 
BRANCH  65  66
ATOM     66  C   UNK d   0       3.180  12.695  40.814  0.00  0.00     0.115 C 
BRANCH  66  67
ATOM     67  C   UNK d   0       4.322  11.866  40.550  0.00  0.00     0.139 C 
ATOM     68  O   UNK d   0       4.616  11.597  39.327  0.00  0.00    -0.650 OA
BRANCH  67  69
ATOM     69  O   UNK d   0       5.190  11.289  41.477  0.00  0.00    -0.776 OA
ATOM     70  H   UNK d   0       6.195  11.412  41.286  0.00  0.00     0.167 HD
ENDBRANCH  67  69
ENDBRANCH  66  67
ENDBRANCH  65  66
ENDBRANCH  14  65
ENDBRANCH   6   7
ENDBRANCH   5   6
ENDBRANCH   2   5
TORSDOF 28
ENDMDL
MODEL 12
REMARK VINA RESULT:      -8.4      2.120      9.437
REMARK  28 active torsions:
REMARK  status: ('A' for Active; 'I' for Inactive)
REMARK    1  A    between atoms: C_2  and  O_3 
REMARK    2  A    between atoms: C_2  and  C_4 
REMARK    3  A    between atoms: C_4  and  C_5 
REMARK    4  A    between atoms: C_5  and  C_6 
REMARK    5  A    between atoms: C_7  and  C_8 
REMARK    6  A    between atoms: C_8  and  C_9 
REMARK    7  A    between atoms: C_9  and  O_11 
REMARK    8  A    between atoms: C_28  and  C_29 
REMARK    9  A    between atoms: C_29  and  C_30 
REMARK   10  A    between atoms: C_30  and  O_32 
REMARK   11  A    between atoms: C_33  and  C_34 
REMARK   12  A    between atoms: C_34  and  C_35 
REMARK   13  A    between atoms: C_35  and  C_36 
REMARK   14  A    between atoms: C_36  and  O_38 
REMARK   15  A    between atoms: C_39  and  C_40 
REMARK   16  A    between atoms: C_40  and  C_41 
REMARK   17  A    between atoms: C_41  and  C_42 
REMARK   18  A    between atoms: C_42  and  O_44 
REMARK   19  A    between atoms: C_45  and  C_46 
REMARK   20  A    between atoms: C_46  and  C_47 
REMARK   21  A    between atoms: C_47  and  O_49 
REMARK   22  A    between atoms: C_50  and  C_51 
REMARK   23  A    between atoms: C_51  and  C_52 
REMARK   24  A    between atoms: C_52  and  O_54 
REMARK   25  A    between atoms: C_55  and  C_56 
REMARK   26  A    between atoms: C_56  and  C_57 
REMARK   27  A    between atoms: C_57  and  C_58 
REMARK   28  A    between atoms: C_58  and  O_60 
ROOT
ATOM      1  O   UNK d   0      32.708   4.568  39.681  0.00  0.00    -0.650 OA
ATOM      2  C   UNK d   0      33.644   4.134  38.973  0.00  0.00     0.139 C 
ENDROOT
BRANCH   2   3
ATOM      3  O   UNK d   0      34.611   5.003  38.529  0.00  0.00    -0.776 OA
ATOM      4  H   UNK d   0      35.576   4.931  38.858  0.00  0.00     0.167 HD
ENDBRANCH   2   3
BRANCH   2   5
ATOM      5  C   UNK d   0      33.704   2.688  38.617  0.00  0.00     0.115 C 
BRANCH   5   6
ATOM      6  C   UNK d   0      32.332   2.076  38.702  0.00  0.00     0.052 C 
BRANCH   6   7
ATOM      7  C   UNK d   0      32.355   0.673  39.260  0.00  0.00    -0.020 A 
ATOM      8  C   UNK d   0      31.968  -0.427  38.667  0.00  0.00    -0.011 A 
ATOM      9  C   UNK d   0      32.169  -1.527  39.597  0.00  0.00     0.067 A 
ATOM     10  C   UNK d   0      31.984  -2.918  39.575  0.00  0.00     0.062 C 
ATOM     11  N   UNK d   0      32.677  -1.004  40.732  0.00  0.00    -0.248 NA
ATOM     12  C   UNK d   0      32.499  -3.856  40.476  0.00  0.00     0.041 A 
ATOM     13  N   UNK d   0      32.596  -3.834  41.819  0.00  0.00    -0.355 N 
ATOM     14  C   UNK d   0      33.086  -5.031  39.973  0.00  0.00    -0.022 A 
ATOM     15  C   UNK d   0      33.237  -4.962  42.181  0.00  0.00     0.042 A 
ATOM     16  H   UNK d   0      32.202  -3.047  42.499  0.00  0.00     0.166 HD
ATOM     17  C   UNK d   0      33.596  -5.439  43.457  0.00  0.00     0.062 C 
ATOM     18  C   UNK d   0      33.560  -5.738  41.051  0.00  0.00    -0.013 A 
ATOM     19  C   UNK d   0      34.166  -4.758  44.503  0.00  0.00     0.067 A 
ATOM     20  N   UNK d   0      34.219  -3.428  44.401  0.00  0.00    -0.248 NA
ATOM     21  C   UNK d   0      34.781  -5.115  45.770  0.00  0.00    -0.011 A 
ATOM     22  C   UNK d   0      34.826  -2.889  45.509  0.00  0.00     0.066 A 
ATOM     23  C   UNK d   0      34.914  -1.505  45.552  0.00  0.00     0.062 C 
ATOM     24  C   UNK d   0      35.169  -4.017  46.352  0.00  0.00    -0.020 A 
ATOM     25  C   UNK d   0      34.379  -0.581  44.643  0.00  0.00     0.041 A 
ATOM     26  N   UNK d   0      34.296  -0.595  43.307  0.00  0.00    -0.355 N 
ATOM     27  C   UNK d   0      33.786   0.597  45.148  0.00  0.00    -0.022 A 
ATOM     28  C   UNK d   0      33.665   0.533  42.943  0.00  0.00     0.042 A 
ATOM     29  H   UNK d   0      34.701  -1.382  42.624  0.00  0.00     0.166 HD
ATOM     30  C   UNK d   0      33.309   1.024  41.677  0.00  0.00     0.062 C 
ATOM     31  C   UNK d   0      33.331   1.307  44.080  0.00  0.00    -0.013 A 
ATOM     32  C   UNK d   0      32.813   0.316  40.594  0.00  0.00     0.066 A 
BRANCH   8  33
ATOM     33  C   UNK d   0      31.419  -0.553  37.305  0.00  0.00     0.151 C 
BRANCH  33  34
ATOM     34  C   UNK d   0      30.782  -1.861  37.065  0.00  0.00     0.143 C 
ATOM     35  O   UNK d   0      29.637  -2.097  37.475  0.00  0.00    -0.650 OA
BRANCH  34  36
ATOM     36  O   UNK d   0      31.473  -2.832  36.377  0.00  0.00    -0.776 OA
ATOM     37  H   UNK d   0      32.502  -2.843  36.357  0.00  0.00     0.167 HD
ENDBRANCH  34  36
ENDBRANCH  33  34
ENDBRANCH   8  33
BRANCH  31  38
ATOM     38  C   UNK d   0      32.610   2.634  44.132  0.00  0.00     0.151 C 
BRANCH  38  39
ATOM     39  C   UNK d   0      31.170   2.491  44.152  0.00  0.00     0.143 C 
ATOM     40  O   UNK d   0      30.581   1.812  45.012  0.00  0.00    -0.650 OA
BRANCH  39  41
ATOM     41  O   UNK d   0      30.403   3.131  43.179  0.00  0.00    -0.776 OA
ATOM     42  H   UNK d   0      30.747   4.036  42.842  0.00  0.00     0.167 HD
ENDBRANCH  39  41
ENDBRANCH  38  39
ENDBRANCH  31  38
BRANCH  27  43
ATOM     43  C   UNK d   0      33.641   1.061  46.576  0.00  0.00     0.052 C 
BRANCH  43  44
ATOM     44  C   UNK d   0      34.485   2.251  46.899  0.00  0.00     0.115 C 
BRANCH  44  45
ATOM     45  C   UNK d   0      35.555   1.777  47.815  0.00  0.00     0.139 C 
ATOM     46  O   UNK d   0      35.944   2.553  48.723  0.00  0.00    -0.650 OA
BRANCH  45  47
ATOM     47  O   UNK d   0      36.128   0.528  47.712  0.00  0.00    -0.776 OA
ATOM     48  H   UNK d   0      36.959   0.340  47.128  0.00  0.00     0.167 HD
ENDBRANCH  45  47
ENDBRANCH  44  45
ENDBRANCH  43  44
ENDBRANCH  27  43
BRANCH  24  49
ATOM     49  C   UNK d   0      35.807  -3.915  47.676  0.00  0.00     0.052 C 
BRANCH  49  50
ATOM     50  C   UNK d   0      37.300  -4.086  47.553  0.00  0.00     0.115 C 
BRANCH  50  51
ATOM     51  C   UNK d   0      38.100  -2.874  47.435  0.00  0.00     0.139 C 
ATOM     52  O   UNK d   0      37.621  -1.728  47.606  0.00  0.00    -0.650 OA
BRANCH  51  53
ATOM     53  O   UNK d   0      39.447  -2.969  47.120  0.00  0.00    -0.776 OA
ATOM     54  H   UNK d   0      39.709  -2.970  46.150  0.00  0.00     0.167 HD
ENDBRANCH  51  53
ENDBRANCH  50  51
ENDBRANCH  49  50
ENDBRANCH  24  49
BRANCH  21  55
ATOM     55  C   UNK d   0      34.913  -6.516  46.269  0.00  0.00     0.151 C 
BRANCH  55  56
ATOM     56  C   UNK d   0      33.776  -6.909  47.116  0.00  0.00     0.143 C 
ATOM     57  O   UNK d   0      33.866  -7.028  48.354  0.00  0.00    -0.650 OA
BRANCH  56  58
ATOM     58  O   UNK d   0      32.554  -7.154  46.491  0.00  0.00    -0.776 OA
ATOM     59  H   UNK d   0      32.357  -6.553  45.670  0.00  0.00     0.167 HD
ENDBRANCH  56  58
ENDBRANCH  55  56
ENDBRANCH  21  55
BRANCH  18  60
ATOM     60  C   UNK d   0      34.274  -7.064  40.968  0.00  0.00     0.151 C 
BRANCH  60  61
ATOM     61  C   UNK d   0      35.696  -6.746  40.770  0.00  0.00     0.143 C 
ATOM     62  O   UNK d   0      36.406  -6.040  41.488  0.00  0.00    -0.650 OA
BRANCH  61  63
ATOM     63  O   UNK d   0      36.290  -7.326  39.623  0.00  0.00    -0.776 OA
ATOM     64  H   UNK d   0      35.728  -7.649  38.856  0.00  0.00     0.167 HD
ENDBRANCH  61  63
ENDBRANCH  60  61
ENDBRANCH  18  60
BRANCH  14  65
ATOM     65  C   UNK d   0      33.145  -5.578  38.575  0.00  0.00     0.052 C 
BRANCH  65  66
ATOM     66  C   UNK d   0      31.808  -5.665  37.928  0.00  0.00     0.115 C 
BRANCH  66  67
ATOM     67  C   UNK d   0      31.682  -6.277  36.636  0.00  0.00     0.139 C 
ATOM     68  O   UNK d   0      31.581  -7.558  36.571  0.00  0.00    -0.650 OA
BRANCH  67  69
ATOM     69  O   UNK d   0      31.652  -5.647  35.392  0.00  0.00    -0.776 OA
ATOM     70  H   UNK d   0      31.041  -6.080  34.685  0.00  0.00     0.167 HD
ENDBRANCH  67  69
ENDBRANCH  66  67
ENDBRANCH  65  66
ENDBRANCH  14  65
ENDBRANCH   6   7
ENDBRANCH   5   6
ENDBRANCH   2   5
TORSDOF 28
ENDMDL
MODEL 13
REMARK VINA RESULT:      -8.4     29.701     33.105
REMARK  28 active torsions:
REMARK  status: ('A' for Active; 'I' for Inactive)
REMARK    1  A    between atoms: C_2  and  O_3 
REMARK    2  A    between atoms: C_2  and  C_4 
REMARK    3  A    between atoms: C_4  and  C_5 
REMARK    4  A    between atoms: C_5  and  C_6 
REMARK    5  A    between atoms: C_7  and  C_8 
REMARK    6  A    between atoms: C_8  and  C_9 
REMARK    7  A    between atoms: C_9  and  O_11 
REMARK    8  A    between atoms: C_28  and  C_29 
REMARK    9  A    between atoms: C_29  and  C_30 
REMARK   10  A    between atoms: C_30  and  O_32 
REMARK   11  A    between atoms: C_33  and  C_34 
REMARK   12  A    between atoms: C_34  and  C_35 
REMARK   13  A    between atoms: C_35  and  C_36 
REMARK   14  A    between atoms: C_36  and  O_38 
REMARK   15  A    between atoms: C_39  and  C_40 
REMARK   16  A    between atoms: C_40  and  C_41 
REMARK   17  A    between atoms: C_41  and  C_42 
REMARK   18  A    between atoms: C_42  and  O_44 
REMARK   19  A    between atoms: C_45  and  C_46 
REMARK   20  A    between atoms: C_46  and  C_47 
REMARK   21  A    between atoms: C_47  and  O_49 
REMARK   22  A    between atoms: C_50  and  C_51 
REMARK   23  A    between atoms: C_51  and  C_52 
REMARK   24  A    between atoms: C_52  and  O_54 
REMARK   25  A    between atoms: C_55  and  C_56 
REMARK   26  A    between atoms: C_56  and  C_57 
REMARK   27  A    between atoms: C_57  and  C_58 
REMARK   28  A    between atoms: C_58  and  O_60 
ROOT
ATOM      1  O   UNK d   0       4.489  14.504  45.793  0.00  0.00    -0.650 OA
ATOM      2  C   UNK d   0       3.328  14.062  45.643  0.00  0.00     0.139 C 
ENDROOT
BRANCH   2   3
ATOM      3  O   UNK d   0       2.297  14.620  46.359  0.00  0.00    -0.776 OA
ATOM      4  H   UNK d   0       2.479  15.232  47.157  0.00  0.00     0.167 HD
ENDBRANCH   2   3
BRANCH   2   5
ATOM      5  C   UNK d   0       3.072  12.939  44.697  0.00  0.00     0.115 C 
BRANCH   5   6
ATOM      6  C   UNK d   0       2.338  11.828  45.399  0.00  0.00     0.052 C 
BRANCH   6   7
ATOM      7  C   UNK d   0       2.899  10.464  45.072  0.00  0.00    -0.020 A 
ATOM      8  C   UNK d   0       3.843   9.817  45.706  0.00  0.00    -0.011 A 
ATOM      9  C   UNK d   0       4.050   8.551  45.023  0.00  0.00     0.067 A 
ATOM     10  C   UNK d   0       4.872   7.427  45.200  0.00  0.00     0.062 C 
ATOM     11  N   UNK d   0       3.193   8.513  43.981  0.00  0.00    -0.248 NA
ATOM     12  C   UNK d   0       4.734   6.173  44.597  0.00  0.00     0.041 A 
ATOM     13  N   UNK d   0       4.440   5.826  43.329  0.00  0.00    -0.355 N 
ATOM     14  C   UNK d   0       4.854   5.018  45.391  0.00  0.00    -0.022 A 
ATOM     15  C   UNK d   0       4.363   4.482  43.300  0.00  0.00     0.042 A 
ATOM     16  H   UNK d   0       4.309   6.517  42.467  0.00  0.00     0.166 HD
ATOM     17  C   UNK d   0       4.087   3.606  42.232  0.00  0.00     0.062 C 
ATOM     18  C   UNK d   0       4.616   3.940  44.575  0.00  0.00    -0.013 A 
ATOM     19  C   UNK d   0       3.115   3.700  41.269  0.00  0.00     0.067 A 
ATOM     20  N   UNK d   0       2.455   4.858  41.187  0.00  0.00    -0.248 NA
ATOM     21  C   UNK d   0       2.562   2.819  40.254  0.00  0.00    -0.011 A 
ATOM     22  C   UNK d   0       1.509   4.798  40.193  0.00  0.00     0.066 A 
ATOM     23  C   UNK d   0       0.772   5.952  39.973  0.00  0.00     0.062 C 
ATOM     24  C   UNK d   0       1.619   3.466  39.631  0.00  0.00    -0.020 A 
ATOM     25  C   UNK d   0       0.935   7.206  40.581  0.00  0.00     0.041 A 
ATOM     26  N   UNK d   0       1.212   7.551  41.845  0.00  0.00    -0.355 N 
ATOM     27  C   UNK d   0       0.819   8.364  39.782  0.00  0.00    -0.022 A 
ATOM     28  C   UNK d   0       1.281   8.891  41.877  0.00  0.00     0.042 A 
ATOM     29  H   UNK d   0       1.333   6.856  42.712  0.00  0.00     0.166 HD
ATOM     30  C   UNK d   0       1.546   9.776  42.934  0.00  0.00     0.062 C 
ATOM     31  C   UNK d   0       1.037   9.435  40.594  0.00  0.00    -0.013 A 
ATOM     32  C   UNK d   0       2.472   9.635  43.955  0.00  0.00     0.066 A 
BRANCH   8  33
ATOM     33  C   UNK d   0       4.582  10.273  46.898  0.00  0.00     0.151 C 
BRANCH  33  34
ATOM     34  C   UNK d   0       5.900  10.844  46.568  0.00  0.00     0.143 C 
ATOM     35  O   UNK d   0       6.851  10.113  46.257  0.00  0.00    -0.650 OA
BRANCH  34  36
ATOM     36  O   UNK d   0       6.074  12.208  46.608  0.00  0.00    -0.776 OA
ATOM     37  H   UNK d   0       7.003  12.624  46.759  0.00  0.00     0.167 HD
ENDBRANCH  34  36
ENDBRANCH  33  34
ENDBRANCH   8  33
BRANCH  31  38
ATOM     38  C   UNK d   0       1.028  10.887  40.176  0.00  0.00     0.151 C 
BRANCH  38  39
ATOM     39  C   UNK d   0       2.358  11.424  39.984  0.00  0.00     0.143 C 
ATOM     40  O   UNK d   0       3.179  10.906  39.207  0.00  0.00    -0.650 OA
BRANCH  39  41
ATOM     41  O   UNK d   0       2.746  12.564  40.688  0.00  0.00    -0.776 OA
ATOM     42  H   UNK d   0       2.269  12.741  41.577  0.00  0.00     0.167 HD
ENDBRANCH  39  41
ENDBRANCH  38  39
ENDBRANCH  31  38
BRANCH  27  43
ATOM     43  C   UNK d   0       0.513   8.486  38.310  0.00  0.00     0.052 C 
BRANCH  43  44
ATOM     44  C   UNK d   0       1.683   8.170  37.435  0.00  0.00     0.115 C 
BRANCH  44  45
ATOM     45  C   UNK d   0       1.724   9.221  36.386  0.00  0.00     0.139 C 
ATOM     46  O   UNK d   0       1.132  10.306  36.611  0.00  0.00    -0.650 OA
BRANCH  45  47
ATOM     47  O   UNK d   0       2.386   9.056  35.188  0.00  0.00    -0.776 OA
ATOM     48  H   UNK d   0       3.125   9.700  34.863  0.00  0.00     0.167 HD
ENDBRANCH  45  47
ENDBRANCH  44  45
ENDBRANCH  43  44
ENDBRANCH  27  43
BRANCH  24  49
ATOM     49  C   UNK d   0       0.820   2.961  38.501  0.00  0.00     0.052 C 
BRANCH  49  50
ATOM     50  C   UNK d   0      -0.379   2.199  39.006  0.00  0.00     0.115 C 
BRANCH  50  51
ATOM     51  C   UNK d   0      -0.377   0.755  38.817  0.00  0.00     0.139 C 
ATOM     52  O   UNK d   0       0.020   0.212  37.759  0.00  0.00    -0.650 OA
BRANCH  51  53
ATOM     53  O   UNK d   0      -0.831  -0.071  39.833  0.00  0.00    -0.776 OA
ATOM     54  H   UNK d   0      -1.081  -1.016  39.602  0.00  0.00     0.167 HD
ENDBRANCH  51  53
ENDBRANCH  50  51
ENDBRANCH  49  50
ENDBRANCH  24  49
BRANCH  21  55
ATOM     55  C   UNK d   0       3.035   1.424  40.010  0.00  0.00     0.151 C 
BRANCH  55  56
ATOM     56  C   UNK d   0       2.452   0.469  40.965  0.00  0.00     0.143 C 
ATOM     57  O   UNK d   0       2.906  -0.680  41.133  0.00  0.00    -0.650 OA
BRANCH  56  58
ATOM     58  O   UNK d   0       1.346   0.884  41.704  0.00  0.00    -0.776 OA
ATOM     59  H   UNK d   0       0.809   0.120  42.153  0.00  0.00     0.167 HD
ENDBRANCH  56  58
ENDBRANCH  55  56
ENDBRANCH  21  55
BRANCH  18  60
ATOM     60  C   UNK d   0       4.635   2.498  45.020  0.00  0.00     0.151 C 
BRANCH  60  61
ATOM     61  C   UNK d   0       3.580   1.824  44.248  0.00  0.00     0.143 C 
ATOM     62  O   UNK d   0       2.426   2.216  44.069  0.00  0.00    -0.650 OA
BRANCH  61  63
ATOM     63  O   UNK d   0       3.958   0.594  43.658  0.00  0.00    -0.776 OA
ATOM     64  H   UNK d   0       4.912   0.414  43.401  0.00  0.00     0.167 HD
ENDBRANCH  61  63
ENDBRANCH  60  61
ENDBRANCH  18  60
BRANCH  14  65
ATOM     65  C   UNK d   0       5.269   4.853  46.826  0.00  0.00     0.052 C 
BRANCH  65  66
ATOM     66  C   UNK d   0       5.306   6.140  47.572  0.00  0.00     0.115 C 
BRANCH  66  67
ATOM     67  C   UNK d   0       6.413   6.428  48.439  0.00  0.00     0.139 C 
ATOM     68  O   UNK d   0       6.735   7.657  48.637  0.00  0.00    -0.650 OA
BRANCH  67  69
ATOM     69  O   UNK d   0       7.220   5.519  49.124  0.00  0.00    -0.776 OA
ATOM     70  H   UNK d   0       7.046   5.441  50.137  0.00  0.00     0.167 HD
ENDBRANCH  67  69
ENDBRANCH  66  67
ENDBRANCH  65  66
ENDBRANCH  14  65
ENDBRANCH   6   7
ENDBRANCH   5   6
ENDBRANCH   2   5
TORSDOF 28
ENDMDL
MODEL 14
REMARK VINA RESULT:      -8.2      1.648      2.043
REMARK  28 active torsions:
REMARK  status: ('A' for Active; 'I' for Inactive)
REMARK    1  A    between atoms: C_2  and  O_3 
REMARK    2  A    between atoms: C_2  and  C_4 
REMARK    3  A    between atoms: C_4  and  C_5 
REMARK    4  A    between atoms: C_5  and  C_6 
REMARK    5  A    between atoms: C_7  and  C_8 
REMARK    6  A    between atoms: C_8  and  C_9 
REMARK    7  A    between atoms: C_9  and  O_11 
REMARK    8  A    between atoms: C_28  and  C_29 
REMARK    9  A    between atoms: C_29  and  C_30 
REMARK   10  A    between atoms: C_30  and  O_32 
REMARK   11  A    between atoms: C_33  and  C_34 
REMARK   12  A    between atoms: C_34  and  C_35 
REMARK   13  A    between atoms: C_35  and  C_36 
REMARK   14  A    between atoms: C_36  and  O_38 
REMARK   15  A    between atoms: C_39  and  C_40 
REMARK   16  A    between atoms: C_40  and  C_41 
REMARK   17  A    between atoms: C_41  and  C_42 
REMARK   18  A    between atoms: C_42  and  O_44 
REMARK   19  A    between atoms: C_45  and  C_46 
REMARK   20  A    between atoms: C_46  and  C_47 
REMARK   21  A    between atoms: C_47  and  O_49 
REMARK   22  A    between atoms: C_50  and  C_51 
REMARK   23  A    between atoms: C_51  and  C_52 
REMARK   24  A    between atoms: C_52  and  O_54 
REMARK   25  A    between atoms: C_55  and  C_56 
REMARK   26  A    between atoms: C_56  and  C_57 
REMARK   27  A    between atoms: C_57  and  C_58 
REMARK   28  A    between atoms: C_58  and  O_60 
ROOT
ATOM      1  O   UNK d   0      33.898  -5.987  47.935  0.00  0.00    -0.650 OA
ATOM      2  C   UNK d   0      34.330  -4.861  48.269  0.00  0.00     0.139 C 
ENDROOT
BRANCH   2   3
ATOM      3  O   UNK d   0      33.614  -4.105  49.166  0.00  0.00    -0.776 OA
ATOM      4  H   UNK d   0      33.262  -4.511  50.035  0.00  0.00     0.167 HD
ENDBRANCH   2   3
BRANCH   2   5
ATOM      5  C   UNK d   0      35.607  -4.348  47.696  0.00  0.00     0.115 C 
BRANCH   5   6
ATOM      6  C   UNK d   0      35.478  -2.885  47.371  0.00  0.00     0.052 C 
BRANCH   6   7
ATOM      7  C   UNK d   0      34.684  -2.637  46.111  0.00  0.00    -0.020 A 
ATOM      8  C   UNK d   0      33.967  -1.583  45.814  0.00  0.00    -0.011 A 
ATOM      9  C   UNK d   0      33.381  -1.800  44.502  0.00  0.00     0.067 A 
ATOM     10  C   UNK d   0      32.556  -1.073  43.629  0.00  0.00     0.062 C 
ATOM     11  N   UNK d   0      33.789  -3.014  44.076  0.00  0.00    -0.248 NA
ATOM     12  C   UNK d   0      32.320  -1.333  42.274  0.00  0.00     0.041 A 
ATOM     13  N   UNK d   0      32.089  -2.487  41.620  0.00  0.00    -0.355 N 
ATOM     14  C   UNK d   0      32.365  -0.265  41.359  0.00  0.00    -0.022 A 
ATOM     15  C   UNK d   0      31.995  -2.180  40.312  0.00  0.00     0.042 A 
ATOM     16  H   UNK d   0      31.976  -3.495  42.075  0.00  0.00     0.166 HD
ATOM     17  C   UNK d   0      31.761  -3.007  39.195  0.00  0.00     0.062 C 
ATOM     18  C   UNK d   0      32.163  -0.797  40.110  0.00  0.00    -0.013 A 
ATOM     19  C   UNK d   0      32.319  -4.221  38.889  0.00  0.00     0.067 A 
ATOM     20  N   UNK d   0      33.033  -4.818  39.847  0.00  0.00    -0.248 NA
ATOM     21  C   UNK d   0      32.359  -5.088  37.723  0.00  0.00    -0.011 A 
ATOM     22  C   UNK d   0      33.538  -6.011  39.392  0.00  0.00     0.066 A 
ATOM     23  C   UNK d   0      34.273  -6.757  40.302  0.00  0.00     0.062 C 
ATOM     24  C   UNK d   0      33.078  -6.132  38.022  0.00  0.00    -0.020 A 
ATOM     25  C   UNK d   0      34.488  -6.485  41.662  0.00  0.00     0.041 A 
ATOM     26  N   UNK d   0      34.731  -5.340  42.311  0.00  0.00    -0.355 N 
ATOM     27  C   UNK d   0      34.438  -7.556  42.580  0.00  0.00    -0.022 A 
ATOM     28  C   UNK d   0      34.835  -5.644  43.614  0.00  0.00     0.042 A 
ATOM     29  H   UNK d   0      34.855  -4.329  41.850  0.00  0.00     0.166 HD
ATOM     30  C   UNK d   0      35.077  -4.834  44.734  0.00  0.00     0.062 C 
ATOM     31  C   UNK d   0      34.656  -7.033  43.818  0.00  0.00    -0.013 A 
ATOM     32  C   UNK d   0      34.576  -3.569  44.999  0.00  0.00     0.066 A 
BRANCH   8  33
ATOM     33  C   UNK d   0      33.771  -0.383  46.647  0.00  0.00     0.151 C 
BRANCH  33  34
ATOM     34  C   UNK d   0      34.677   0.721  46.281  0.00  0.00     0.143 C 
ATOM     35  O   UNK d   0      34.574   1.292  45.186  0.00  0.00    -0.650 OA
BRANCH  34  36
ATOM     36  O   UNK d   0      35.650   1.118  47.168  0.00  0.00    -0.776 OA
ATOM     37  H   UNK d   0      35.535   1.962  47.745  0.00  0.00     0.167 HD
ENDBRANCH  34  36
ENDBRANCH  33  34
ENDBRANCH   8  33
BRANCH  31  38
ATOM     38  C   UNK d   0      34.680  -7.801  45.119  0.00  0.00     0.151 C 
BRANCH  38  39
ATOM     39  C   UNK d   0      36.021  -8.031  45.611  0.00  0.00     0.143 C 
ATOM     40  O   UNK d   0      36.380  -7.686  46.750  0.00  0.00    -0.650 OA
BRANCH  39  41
ATOM     41  O   UNK d   0      36.955  -8.661  44.789  0.00  0.00    -0.776 OA
ATOM     42  H   UNK d   0      37.690  -8.070  44.387  0.00  0.00     0.167 HD
ENDBRANCH  39  41
ENDBRANCH  38  39
ENDBRANCH  31  38
BRANCH  27  43
ATOM     43  C   UNK d   0      34.199  -9.024  42.329  0.00  0.00     0.052 C 
BRANCH  43  44
ATOM     44  C   UNK d   0      32.782  -9.440  42.559  0.00  0.00     0.115 C 
BRANCH  44  45
ATOM     45  C   UNK d   0      32.826 -10.606  43.480  0.00  0.00     0.139 C 
ATOM     46  O   UNK d   0      33.888 -10.817  44.117  0.00  0.00    -0.650 OA
BRANCH  45  47
ATOM     47  O   UNK d   0      31.756 -11.453  43.664  0.00  0.00    -0.776 OA
ATOM     48  H   UNK d   0      31.368 -12.038  42.906  0.00  0.00     0.167 HD
ENDBRANCH  45  47
ENDBRANCH  44  45
ENDBRANCH  43  44
ENDBRANCH  27  43
BRANCH  24  49
ATOM     49  C   UNK d   0      33.347  -7.282  37.143  0.00  0.00     0.052 C 
BRANCH  49  50
ATOM     50  C   UNK d   0      32.142  -8.184  37.074  0.00  0.00     0.115 C 
BRANCH  50  51
ATOM     51  C   UNK d   0      31.290  -8.067  35.899  0.00  0.00     0.139 C 
ATOM     52  O   UNK d   0      31.748  -8.022  34.733  0.00  0.00    -0.650 OA
BRANCH  51  53
ATOM     53  O   UNK d   0      29.913  -7.997  36.052  0.00  0.00    -0.776 OA
ATOM     54  H   UNK d   0      29.494  -7.092  36.177  0.00  0.00     0.167 HD
ENDBRANCH  51  53
ENDBRANCH  50  51
ENDBRANCH  49  50
ENDBRANCH  24  49
BRANCH  21  55
ATOM     55  C   UNK d   0      31.672  -4.785  36.433  0.00  0.00     0.151 C 
BRANCH  55  56
ATOM     56  C   UNK d   0      30.235  -4.532  36.619  0.00  0.00     0.143 C 
ATOM     57  O   UNK d   0      29.479  -5.332  37.205  0.00  0.00    -0.650 OA
BRANCH  56  58
ATOM     58  O   UNK d   0      29.715  -3.342  36.114  0.00  0.00    -0.776 OA
ATOM     59  H   UNK d   0      28.943  -2.932  36.671  0.00  0.00     0.167 HD
ENDBRANCH  56  58
ENDBRANCH  55  56
ENDBRANCH  21  55
BRANCH  18  60
ATOM     60  C   UNK d   0      32.141  -0.004  38.826  0.00  0.00     0.151 C 
BRANCH  60  61
ATOM     61  C   UNK d   0      33.096   1.098  39.016  0.00  0.00     0.143 C 
ATOM     62  O   UNK d   0      34.302   1.004  39.247  0.00  0.00    -0.650 OA
BRANCH  61  63
ATOM     63  O   UNK d   0      32.544   2.398  38.917  0.00  0.00    -0.776 OA
ATOM     64  H   UNK d   0      31.549   2.538  38.898  0.00  0.00     0.167 HD
ENDBRANCH  61  63
ENDBRANCH  60  61
ENDBRANCH  18  60
BRANCH  14  65
ATOM     65  C   UNK d   0      32.484   1.215  41.584  0.00  0.00     0.052 C 
BRANCH  65  66
ATOM     66  C   UNK d   0      31.510   1.733  42.582  0.00  0.00     0.115 C 
BRANCH  66  67
ATOM     67  C   UNK d   0      31.740   3.004  43.209  0.00  0.00     0.139 C 
ATOM     68  O   UNK d   0      30.927   3.968  42.959  0.00  0.00    -0.650 OA
BRANCH  67  69
ATOM     69  O   UNK d   0      32.768   3.349  44.085  0.00  0.00    -0.776 OA
ATOM     70  H   UNK d   0      32.788   4.333  44.387  0.00  0.00     0.167 HD
ENDBRANCH  67  69
ENDBRANCH  66  67
ENDBRANCH  65  66
ENDBRANCH  14  65
ENDBRANCH   6   7
ENDBRANCH   5   6
ENDBRANCH   2   5
TORSDOF 28
ENDMDL
MODEL 15
REMARK VINA RESULT:      -8.1     29.831     34.605
REMARK  28 active torsions:
REMARK  status: ('A' for Active; 'I' for Inactive)
REMARK    1  A    between atoms: C_2  and  O_3 
REMARK    2  A    between atoms: C_2  and  C_4 
REMARK    3  A    between atoms: C_4  and  C_5 
REMARK    4  A    between atoms: C_5  and  C_6 
REMARK    5  A    between atoms: C_7  and  C_8 
REMARK    6  A    between atoms: C_8  and  C_9 
REMARK    7  A    between atoms: C_9  and  O_11 
REMARK    8  A    between atoms: C_28  and  C_29 
REMARK    9  A    between atoms: C_29  and  C_30 
REMARK   10  A    between atoms: C_30  and  O_32 
REMARK   11  A    between atoms: C_33  and  C_34 
REMARK   12  A    between atoms: C_34  and  C_35 
REMARK   13  A    between atoms: C_35  and  C_36 
REMARK   14  A    between atoms: C_36  and  O_38 
REMARK   15  A    between atoms: C_39  and  C_40 
REMARK   16  A    between atoms: C_40  and  C_41 
REMARK   17  A    between atoms: C_41  and  C_42 
REMARK   18  A    between atoms: C_42  and  O_44 
REMARK   19  A    between atoms: C_45  and  C_46 
REMARK   20  A    between atoms: C_46  and  C_47 
REMARK   21  A    between atoms: C_47  and  O_49 
REMARK   22  A    between atoms: C_50  and  C_51 
REMARK   23  A    between atoms: C_51  and  C_52 
REMARK   24  A    between atoms: C_52  and  O_54 
REMARK   25  A    between atoms: C_55  and  C_56 
REMARK   26  A    between atoms: C_56  and  C_57 
REMARK   27  A    between atoms: C_57  and  C_58 
REMARK   28  A    between atoms: C_58  and  O_60 
ROOT
ATOM      1  O   UNK d   0       6.098   1.181  34.988  0.00  0.00    -0.650 OA
ATOM      2  C   UNK d   0       5.883   1.015  33.767  0.00  0.00     0.139 C 
ENDROOT
BRANCH   2   3
ATOM      3  O   UNK d   0       6.493  -0.027  33.110  0.00  0.00    -0.776 OA
ATOM      4  H   UNK d   0       6.127  -0.979  33.177  0.00  0.00     0.167 HD
ENDBRANCH   2   3
BRANCH   2   5
ATOM      5  C   UNK d   0       4.972   1.941  33.035  0.00  0.00     0.115 C 
BRANCH   5   6
ATOM      6  C   UNK d   0       3.555   1.442  33.112  0.00  0.00     0.052 C 
BRANCH   6   7
ATOM      7  C   UNK d   0       2.839   1.917  34.354  0.00  0.00    -0.020 A 
ATOM      8  C   UNK d   0       2.255   1.185  35.268  0.00  0.00    -0.011 A 
ATOM      9  C   UNK d   0       1.696   2.082  36.266  0.00  0.00     0.067 A 
ATOM     10  C   UNK d   0       0.988   1.942  37.470  0.00  0.00     0.062 C 
ATOM     11  N   UNK d   0       1.982   3.342  35.877  0.00  0.00    -0.248 NA
ATOM     12  C   UNK d   0       0.773   2.922  38.445  0.00  0.00     0.041 A 
ATOM     13  N   UNK d   0       0.440   4.222  38.337  0.00  0.00    -0.355 N 
ATOM     14  C   UNK d   0       0.969   2.590  39.798  0.00  0.00    -0.022 A 
ATOM     15  C   UNK d   0       0.428   4.726  39.586  0.00  0.00     0.042 A 
ATOM     16  H   UNK d   0       0.200   4.768  37.398  0.00  0.00     0.166 HD
ATOM     17  C   UNK d   0       0.144   6.028  40.042  0.00  0.00     0.062 C 
ATOM     18  C   UNK d   0       0.755   3.732  40.529  0.00  0.00    -0.013 A 
ATOM     19  C   UNK d   0       0.575   7.230  39.542  0.00  0.00     0.067 A 
ATOM     20  N   UNK d   0       1.183   7.208  38.353  0.00  0.00    -0.248 NA
ATOM     21  C   UNK d   0       0.561   8.613  39.989  0.00  0.00    -0.011 A 
ATOM     22  C   UNK d   0       1.569   8.475  37.992  0.00  0.00     0.066 A 
ATOM     23  C   UNK d   0       2.183   8.603  36.754  0.00  0.00     0.062 C 
ATOM     24  C   UNK d   0       1.148   9.336  39.080  0.00  0.00    -0.020 A 
ATOM     25  C   UNK d   0       2.378   7.608  35.784  0.00  0.00     0.041 A 
ATOM     26  N   UNK d   0       2.724   6.319  35.891  0.00  0.00    -0.355 N 
ATOM     27  C   UNK d   0       2.177   7.941  34.427  0.00  0.00    -0.022 A 
ATOM     28  C   UNK d   0       2.746   5.817  34.646  0.00  0.00     0.042 A 
ATOM     29  H   UNK d   0       2.975   5.775  36.834  0.00  0.00     0.166 HD
ATOM     30  C   UNK d   0       3.035   4.526  34.177  0.00  0.00     0.062 C 
ATOM     31  C   UNK d   0       2.407   6.813  33.700  0.00  0.00    -0.013 A 
ATOM     32  C   UNK d   0       2.669   3.312  34.734  0.00  0.00     0.066 A 
BRANCH   8  33
ATOM     33  C   UNK d   0       2.163  -0.286  35.297  0.00  0.00     0.151 C 
BRANCH  33  34
ATOM     34  C   UNK d   0       3.031  -0.892  36.323  0.00  0.00     0.143 C 
ATOM     35  O   UNK d   0       2.713  -1.952  36.881  0.00  0.00    -0.650 OA
BRANCH  34  36
ATOM     36  O   UNK d   0       4.209  -0.269  36.664  0.00  0.00    -0.776 OA
ATOM     37  H   UNK d   0       4.252   0.748  36.814  0.00  0.00     0.167 HD
ENDBRANCH  34  36
ENDBRANCH  33  34
ENDBRANCH   8  33
BRANCH  31  38
ATOM     38  C   UNK d   0       2.299   6.683  32.198  0.00  0.00     0.151 C 
BRANCH  38  39
ATOM     39  C   UNK d   0       3.566   6.875  31.525  0.00  0.00     0.143 C 
ATOM     40  O   UNK d   0       3.692   6.746  30.295  0.00  0.00    -0.650 OA
BRANCH  39  41
ATOM     41  O   UNK d   0       4.693   7.219  32.271  0.00  0.00    -0.776 OA
ATOM     42  H   UNK d   0       4.701   6.932  33.254  0.00  0.00     0.167 HD
ENDBRANCH  39  41
ENDBRANCH  38  39
ENDBRANCH  31  38
BRANCH  27  43
ATOM     43  C   UNK d   0       1.786   9.261  33.811  0.00  0.00     0.052 C 
BRANCH  43  44
ATOM     44  C   UNK d   0       2.943  10.008  33.232  0.00  0.00     0.115 C 
BRANCH  44  45
ATOM     45  C   UNK d   0       2.470  10.596  31.951  0.00  0.00     0.139 C 
ATOM     46  O   UNK d   0       1.606  11.506  32.000  0.00  0.00    -0.650 OA
BRANCH  45  47
ATOM     47  O   UNK d   0       2.943  10.188  30.722  0.00  0.00    -0.776 OA
ATOM     48  H   UNK d   0       2.503  10.469  29.831  0.00  0.00     0.167 HD
ENDBRANCH  45  47
ENDBRANCH  44  45
ENDBRANCH  43  44
ENDBRANCH  27  43
BRANCH  24  49
ATOM     49  C   UNK d   0       1.320  10.798  39.110  0.00  0.00     0.052 C 
BRANCH  49  50
ATOM     50  C   UNK d   0       2.773  11.152  39.298  0.00  0.00     0.115 C 
BRANCH  50  51
ATOM     51  C   UNK d   0       3.130  11.870  40.514  0.00  0.00     0.139 C 
ATOM     52  O   UNK d   0       2.315  12.591  41.138  0.00  0.00    -0.650 OA
BRANCH  51  53
ATOM     53  O   UNK d   0       4.418  11.769  41.018  0.00  0.00    -0.776 OA
ATOM     54  H   UNK d   0       4.652  12.305  41.835  0.00  0.00     0.167 HD
ENDBRANCH  51  53
ENDBRANCH  50  51
ENDBRANCH  49  50
ENDBRANCH  24  49
BRANCH  21  55
ATOM     55  C   UNK d   0      -0.042   9.068  41.277  0.00  0.00     0.151 C 
BRANCH  55  56
ATOM     56  C   UNK d   0       0.983   9.417  42.273  0.00  0.00     0.143 C 
ATOM     57  O   UNK d   0       1.938   8.666  42.550  0.00  0.00    -0.650 OA
BRANCH  56  58
ATOM     58  O   UNK d   0       0.865  10.644  42.924  0.00  0.00    -0.776 OA
ATOM     59  H   UNK d   0       1.509  11.381  42.585  0.00  0.00     0.167 HD
ENDBRANCH  56  58
ENDBRANCH  55  56
ENDBRANCH  21  55
BRANCH  18  60
ATOM     60  C   UNK d   0       0.867   3.832  42.030  0.00  0.00     0.151 C 
BRANCH  60  61
ATOM     61  C   UNK d   0      -0.481   3.567  42.554  0.00  0.00     0.143 C 
ATOM     62  O   UNK d   0      -1.539   3.581  41.923  0.00  0.00    -0.650 OA
BRANCH  61  63
ATOM     63  O   UNK d   0      -0.542   3.267  43.936  0.00  0.00    -0.776 OA
ATOM     64  H   UNK d   0      -0.259   3.940  44.626  0.00  0.00     0.167 HD
ENDBRANCH  61  63
ENDBRANCH  60  61
ENDBRANCH  18  60
BRANCH  14  65
ATOM     65  C   UNK d   0       1.244   1.266  40.454  0.00  0.00     0.052 C 
BRANCH  65  66
ATOM     66  C   UNK d   0       0.032   0.412  40.569  0.00  0.00     0.115 C 
BRANCH  66  67
ATOM     67  C   UNK d   0      -0.198  -0.631  39.609  0.00  0.00     0.139 C 
ATOM     68  O   UNK d   0      -1.408  -0.888  39.260  0.00  0.00    -0.650 OA
BRANCH  67  69
ATOM     69  O   UNK d   0       0.751  -1.435  38.979  0.00  0.00    -0.776 OA
ATOM     70  H   UNK d   0       1.538  -1.744  39.568  0.00  0.00     0.167 HD
ENDBRANCH  67  69
ENDBRANCH  66  67
ENDBRANCH  65  66
ENDBRANCH  14  65
ENDBRANCH   6   7
ENDBRANCH   5   6
ENDBRANCH   2   5
TORSDOF 28
ENDMDL
MODEL 16
REMARK VINA RESULT:      -7.9      1.799      7.791
REMARK  28 active torsions:
REMARK  status: ('A' for Active; 'I' for Inactive)
REMARK    1  A    between atoms: C_2  and  O_3 
REMARK    2  A    between atoms: C_2  and  C_4 
REMARK    3  A    between atoms: C_4  and  C_5 
REMARK    4  A    between atoms: C_5  and  C_6 
REMARK    5  A    between atoms: C_7  and  C_8 
REMARK    6  A    between atoms: C_8  and  C_9 
REMARK    7  A    between atoms: C_9  and  O_11 
REMARK    8  A    between atoms: C_28  and  C_29 
REMARK    9  A    between atoms: C_29  and  C_30 
REMARK   10  A    between atoms: C_30  and  O_32 
REMARK   11  A    between atoms: C_33  and  C_34 
REMARK   12  A    between atoms: C_34  and  C_35 
REMARK   13  A    between atoms: C_35  and  C_36 
REMARK   14  A    between atoms: C_36  and  O_38 
REMARK   15  A    between atoms: C_39  and  C_40 
REMARK   16  A    between atoms: C_40  and  C_41 
REMARK   17  A    between atoms: C_41  and  C_42 
REMARK   18  A    between atoms: C_42  and  O_44 
REMARK   19  A    between atoms: C_45  and  C_46 
REMARK   20  A    between atoms: C_46  and  C_47 
REMARK   21  A    between atoms: C_47  and  O_49 
REMARK   22  A    between atoms: C_50  and  C_51 
REMARK   23  A    between atoms: C_51  and  C_52 
REMARK   24  A    between atoms: C_52  and  O_54 
REMARK   25  A    between atoms: C_55  and  C_56 
REMARK   26  A    between atoms: C_56  and  C_57 
REMARK   27  A    between atoms: C_57  and  C_58 
REMARK   28  A    between atoms: C_58  and  O_60 
ROOT
ATOM      1  O   UNK d   0      36.792   0.392  47.829  0.00  0.00    -0.650 OA
ATOM      2  C   UNK d   0      35.702   0.944  47.560  0.00  0.00     0.139 C 
ENDROOT
BRANCH   2   3
ATOM      3  O   UNK d   0      35.343   2.089  48.230  0.00  0.00    -0.776 OA
ATOM      4  H   UNK d   0      35.025   2.054  49.201  0.00  0.00     0.167 HD
ENDBRANCH   2   3
BRANCH   2   5
ATOM      5  C   UNK d   0      34.805   0.362  46.522  0.00  0.00     0.115 C 
BRANCH   5   6
ATOM      6  C   UNK d   0      34.323  -0.996  46.957  0.00  0.00     0.052 C 
BRANCH   6   7
ATOM      7  C   UNK d   0      34.521  -2.050  45.895  0.00  0.00    -0.020 A 
ATOM      8  C   UNK d   0      35.235  -3.144  45.978  0.00  0.00    -0.011 A 
ATOM      9  C   UNK d   0      35.132  -3.841  44.707  0.00  0.00     0.067 A 
ATOM     10  C   UNK d   0      35.623  -5.040  44.167  0.00  0.00     0.062 C 
ATOM     11  N   UNK d   0      34.341  -3.097  43.906  0.00  0.00    -0.248 NA
ATOM     12  C   UNK d   0      35.187  -5.687  43.006  0.00  0.00     0.041 A 
ATOM     13  N   UNK d   0      34.868  -5.206  41.790  0.00  0.00    -0.355 N 
ATOM     14  C   UNK d   0      34.967  -7.076  43.043  0.00  0.00    -0.022 A 
ATOM     15  C   UNK d   0      34.443  -6.252  41.057  0.00  0.00     0.042 A 
ATOM     16  H   UNK d   0      34.959  -4.151  41.450  0.00  0.00     0.166 HD
ATOM     17  C   UNK d   0      33.992  -6.310  39.723  0.00  0.00     0.062 C 
ATOM     18  C   UNK d   0      34.491  -7.442  41.809  0.00  0.00    -0.013 A 
ATOM     19  C   UNK d   0      33.121  -5.476  39.070  0.00  0.00     0.067 A 
ATOM     20  N   UNK d   0      32.791  -4.340  39.690  0.00  0.00    -0.248 NA
ATOM     21  C   UNK d   0      32.400  -5.499  37.808  0.00  0.00    -0.011 A 
ATOM     22  C   UNK d   0      31.906  -3.620  38.927  0.00  0.00     0.066 A 
ATOM     23  C   UNK d   0      31.506  -2.394  39.438  0.00  0.00     0.062 C 
ATOM     24  C   UNK d   0      31.688  -4.412  37.732  0.00  0.00    -0.020 A 
ATOM     25  C   UNK d   0      31.966  -1.756  40.600  0.00  0.00     0.041 A 
ATOM     26  N   UNK d   0      32.269  -2.232  41.814  0.00  0.00    -0.355 N 
ATOM     27  C   UNK d   0      32.191  -0.362  40.561  0.00  0.00    -0.022 A 
ATOM     28  C   UNK d   0      32.685  -1.188  42.550  0.00  0.00     0.042 A 
ATOM     29  H   UNK d   0      32.167  -3.291  42.157  0.00  0.00     0.166 HD
ATOM     30  C   UNK d   0      33.127  -1.115  43.880  0.00  0.00     0.062 C 
ATOM     31  C   UNK d   0      32.646   0.005  41.790  0.00  0.00    -0.013 A 
ATOM     32  C   UNK d   0      33.940  -2.007  44.561  0.00  0.00     0.066 A 
BRANCH   8  33
ATOM     33  C   UNK d   0      36.016  -3.603  47.142  0.00  0.00     0.151 C 
BRANCH  33  34
ATOM     34  C   UNK d   0      37.385  -3.057  47.161  0.00  0.00     0.143 C 
ATOM     35  O   UNK d   0      38.222  -3.468  47.977  0.00  0.00    -0.650 OA
BRANCH  34  36
ATOM     36  O   UNK d   0      37.734  -2.077  46.261  0.00  0.00    -0.776 OA
ATOM     37  H   UNK d   0      38.084  -2.314  45.323  0.00  0.00     0.167 HD
ENDBRANCH  34  36
ENDBRANCH  33  34
ENDBRANCH   8  33
BRANCH  31  38
ATOM     38  C   UNK d   0      33.035   1.401  42.216  0.00  0.00     0.151 C 
BRANCH  38  39
ATOM     39  C   UNK d   0      31.893   2.224  42.554  0.00  0.00     0.143 C 
ATOM     40  O   UNK d   0      31.880   3.453  42.366  0.00  0.00    -0.650 OA
BRANCH  39  41
ATOM     41  O   UNK d   0      30.760   1.630  43.109  0.00  0.00    -0.776 OA
ATOM     42  H   UNK d   0      30.912   0.799  43.689  0.00  0.00     0.167 HD
ENDBRANCH  39  41
ENDBRANCH  38  39
ENDBRANCH  31  38
BRANCH  27  43
ATOM     43  C   UNK d   0      31.990   0.609  39.425  0.00  0.00     0.052 C 
BRANCH  43  44
ATOM     44  C   UNK d   0      33.272   1.132  38.861  0.00  0.00     0.115 C 
BRANCH  44  45
ATOM     45  C   UNK d   0      33.219   2.611  38.986  0.00  0.00     0.139 C 
ATOM     46  O   UNK d   0      34.274   3.261  38.783  0.00  0.00    -0.650 OA
BRANCH  45  47
ATOM     47  O   UNK d   0      32.065   3.293  39.309  0.00  0.00    -0.776 OA
ATOM     48  H   UNK d   0      31.242   2.833  39.730  0.00  0.00     0.167 HD
ENDBRANCH  45  47
ENDBRANCH  44  45
ENDBRANCH  43  44
ENDBRANCH  27  43
BRANCH  24  49
ATOM     49  C   UNK d   0      30.833  -4.011  36.602  0.00  0.00     0.052 C 
BRANCH  49  50
ATOM     50  C   UNK d   0      29.383  -4.012  37.014  0.00  0.00     0.115 C 
BRANCH  50  51
ATOM     51  C   UNK d   0      28.465  -4.814  36.217  0.00  0.00     0.139 C 
ATOM     52  O   UNK d   0      27.224  -4.637  36.232  0.00  0.00    -0.650 OA
BRANCH  51  53
ATOM     53  O   UNK d   0      28.962  -5.820  35.403  0.00  0.00    -0.776 OA
ATOM     54  H   UNK d   0      28.932  -6.765  35.743  0.00  0.00     0.167 HD
ENDBRANCH  51  53
ENDBRANCH  50  51
ENDBRANCH  49  50
ENDBRANCH  24  49
BRANCH  21  55
ATOM     55  C   UNK d   0      32.503  -6.602  36.808  0.00  0.00     0.151 C 
BRANCH  55  56
ATOM     56  C   UNK d   0      31.744  -7.793  37.220  0.00  0.00     0.143 C 
ATOM     57  O   UNK d   0      32.283  -8.792  37.735  0.00  0.00    -0.650 OA
BRANCH  56  58
ATOM     58  O   UNK d   0      30.364  -7.785  37.020  0.00  0.00    -0.776 OA
ATOM     59  H   UNK d   0      30.034  -8.375  36.236  0.00  0.00     0.167 HD
ENDBRANCH  56  58
ENDBRANCH  55  56
ENDBRANCH  21  55
BRANCH  18  60
ATOM     60  C   UNK d   0      34.113  -8.847  41.410  0.00  0.00     0.151 C 
BRANCH  60  61
ATOM     61  C   UNK d   0      33.186  -9.326  42.447  0.00  0.00     0.143 C 
ATOM     62  O   UNK d   0      33.112 -10.465  42.907  0.00  0.00    -0.650 OA
BRANCH  61  63
ATOM     63  O   UNK d   0      32.294  -8.351  42.954  0.00  0.00    -0.776 OA
ATOM     64  H   UNK d   0      31.921  -8.424  43.884  0.00  0.00     0.167 HD
ENDBRANCH  61  63
ENDBRANCH  60  61
ENDBRANCH  18  60
BRANCH  14  65
ATOM     65  C   UNK d   0      35.263  -8.088  44.113  0.00  0.00     0.052 C 
BRANCH  65  66
ATOM     66  C   UNK d   0      34.793  -7.664  45.460  0.00  0.00     0.115 C 
BRANCH  66  67
ATOM     67  C   UNK d   0      33.798  -8.442  46.143  0.00  0.00     0.139 C 
ATOM     68  O   UNK d   0      33.413  -8.058  47.308  0.00  0.00    -0.650 OA
BRANCH  67  69
ATOM     69  O   UNK d   0      33.169  -9.604  45.698  0.00  0.00    -0.776 OA
ATOM     70  H   UNK d   0      32.297  -9.856  46.185  0.00  0.00     0.167 HD
ENDBRANCH  67  69
ENDBRANCH  66  67
ENDBRANCH  65  66
ENDBRANCH  14  65
ENDBRANCH   6   7
ENDBRANCH   5   6
ENDBRANCH   2   5
TORSDOF 28
ENDMDL
MODEL 17
REMARK VINA RESULT:      -7.7     29.392     32.186
REMARK  28 active torsions:
REMARK  status: ('A' for Active; 'I' for Inactive)
REMARK    1  A    between atoms: C_2  and  O_3 
REMARK    2  A    between atoms: C_2  and  C_4 
REMARK    3  A    between atoms: C_4  and  C_5 
REMARK    4  A    between atoms: C_5  and  C_6 
REMARK    5  A    between atoms: C_7  and  C_8 
REMARK    6  A    between atoms: C_8  and  C_9 
REMARK    7  A    between atoms: C_9  and  O_11 
REMARK    8  A    between atoms: C_28  and  C_29 
REMARK    9  A    between atoms: C_29  and  C_30 
REMARK   10  A    between atoms: C_30  and  O_32 
REMARK   11  A    between atoms: C_33  and  C_34 
REMARK   12  A    between atoms: C_34  and  C_35 
REMARK   13  A    between atoms: C_35  and  C_36 
REMARK   14  A    between atoms: C_36  and  O_38 
REMARK   15  A    between atoms: C_39  and  C_40 
REMARK   16  A    between atoms: C_40  and  C_41 
REMARK   17  A    between atoms: C_41  and  C_42 
REMARK   18  A    between atoms: C_42  and  O_44 
REMARK   19  A    between atoms: C_45  and  C_46 
REMARK   20  A    between atoms: C_46  and  C_47 
REMARK   21  A    between atoms: C_47  and  O_49 
REMARK   22  A    between atoms: C_50  and  C_51 
REMARK   23  A    between atoms: C_51  and  C_52 
REMARK   24  A    between atoms: C_52  and  O_54 
REMARK   25  A    between atoms: C_55  and  C_56 
REMARK   26  A    between atoms: C_56  and  C_57 
REMARK   27  A    between atoms: C_57  and  C_58 
REMARK   28  A    between atoms: C_58  and  O_60 
ROOT
ATOM      1  O   UNK d   0       6.892   9.954  48.105  0.00  0.00    -0.650 OA
ATOM      2  C   UNK d   0       7.231  10.806  47.253  0.00  0.00     0.139 C 
ENDROOT
BRANCH   2   3
ATOM      3  O   UNK d   0       8.556  11.148  47.133  0.00  0.00    -0.776 OA
ATOM      4  H   UNK d   0       9.213  10.548  46.629  0.00  0.00     0.167 HD
ENDBRANCH   2   3
BRANCH   2   5
ATOM      5  C   UNK d   0       6.203  11.441  46.380  0.00  0.00     0.115 C 
BRANCH   5   6
ATOM      6  C   UNK d   0       4.823  11.088  46.864  0.00  0.00     0.052 C 
BRANCH   6   7
ATOM      7  C   UNK d   0       3.986  10.423  45.798  0.00  0.00    -0.020 A 
ATOM      8  C   UNK d   0       3.060  10.971  45.053  0.00  0.00    -0.011 A 
ATOM      9  C   UNK d   0       2.524   9.940  44.180  0.00  0.00     0.067 A 
ATOM     10  C   UNK d   0       1.558   9.876  43.164  0.00  0.00     0.062 C 
ATOM     11  N   UNK d   0       3.177   8.794  44.465  0.00  0.00    -0.248 NA
ATOM     12  C   UNK d   0       1.372   8.846  42.235  0.00  0.00     0.041 A 
ATOM     13  N   UNK d   0       1.387   7.507  42.382  0.00  0.00    -0.355 N 
ATOM     14  C   UNK d   0       1.183   9.176  40.881  0.00  0.00    -0.022 A 
ATOM     15  C   UNK d   0       1.220   6.980  41.154  0.00  0.00     0.042 A 
ATOM     16  H   UNK d   0       1.493   6.947  43.337  0.00  0.00     0.166 HD
ATOM     17  C   UNK d   0       1.158   5.635  40.739  0.00  0.00     0.062 C 
ATOM     18  C   UNK d   0       1.090   7.995  40.187  0.00  0.00    -0.013 A 
ATOM     19  C   UNK d   0       1.959   4.582  41.103  0.00  0.00     0.067 A 
ATOM     20  N   UNK d   0       2.790   4.781  42.130  0.00  0.00    -0.248 NA
ATOM     21  C   UNK d   0       2.174   3.223  40.636  0.00  0.00    -0.011 A 
ATOM     22  C   UNK d   0       3.533   3.650  42.366  0.00  0.00     0.066 A 
ATOM     23  C   UNK d   0       4.415   3.706  43.436  0.00  0.00     0.062 C 
ATOM     24  C   UNK d   0       3.099   2.684  41.376  0.00  0.00    -0.020 A 
ATOM     25  C   UNK d   0       4.577   4.745  44.364  0.00  0.00     0.041 A 
ATOM     26  N   UNK d   0       4.578   6.076  44.216  0.00  0.00    -0.355 N 
ATOM     27  C   UNK d   0       4.762   4.413  45.724  0.00  0.00    -0.022 A 
ATOM     28  C   UNK d   0       4.752   6.604  45.438  0.00  0.00     0.042 A 
ATOM     29  H   UNK d   0       4.481   6.637  43.255  0.00  0.00     0.166 HD
ATOM     30  C   UNK d   0       4.825   7.939  45.864  0.00  0.00     0.062 C 
ATOM     31  C   UNK d   0       4.873   5.583  46.411  0.00  0.00    -0.013 A 
ATOM     32  C   UNK d   0       4.070   9.018  45.430  0.00  0.00     0.066 A 
BRANCH   8  33
ATOM     33  C   UNK d   0       2.620  12.378  45.081  0.00  0.00     0.151 C 
BRANCH  33  34
ATOM     34  C   UNK d   0       3.329  13.217  44.098  0.00  0.00     0.143 C 
ATOM     35  O   UNK d   0       3.205  13.015  42.882  0.00  0.00    -0.650 OA
BRANCH  34  36
ATOM     36  O   UNK d   0       4.139  14.237  44.541  0.00  0.00    -0.776 OA
ATOM     37  H   UNK d   0       3.743  15.114  44.906  0.00  0.00     0.167 HD
ENDBRANCH  34  36
ENDBRANCH  33  34
ENDBRANCH   8  33
BRANCH  31  38
ATOM     38  C   UNK d   0       5.068   5.727  47.902  0.00  0.00     0.151 C 
BRANCH  38  39
ATOM     39  C   UNK d   0       6.446   5.553  48.307  0.00  0.00     0.143 C 
ATOM     40  O   UNK d   0       7.296   6.451  48.179  0.00  0.00    -0.650 OA
BRANCH  39  41
ATOM     41  O   UNK d   0       6.850   4.339  48.864  0.00  0.00    -0.776 OA
ATOM     42  H   UNK d   0       6.125   3.627  48.993  0.00  0.00     0.167 HD
ENDBRANCH  39  41
ENDBRANCH  38  39
ENDBRANCH  31  38
BRANCH  27  43
ATOM     43  C   UNK d   0       4.837   3.056  46.377  0.00  0.00     0.052 C 
BRANCH  43  44
ATOM     44  C   UNK d   0       4.552   1.931  45.436  0.00  0.00     0.115 C 
BRANCH  44  45
ATOM     45  C   UNK d   0       4.572   0.685  46.246  0.00  0.00     0.139 C 
ATOM     46  O   UNK d   0       5.655   0.348  46.787  0.00  0.00    -0.650 OA
BRANCH  45  47
ATOM     47  O   UNK d   0       3.459  -0.106  46.430  0.00  0.00    -0.776 OA
ATOM     48  H   UNK d   0       3.183  -0.849  45.767  0.00  0.00     0.167 HD
ENDBRANCH  45  47
ENDBRANCH  44  45
ENDBRANCH  43  44
ENDBRANCH  27  43
BRANCH  24  49
ATOM     49  C   UNK d   0       3.600   1.303  41.273  0.00  0.00     0.052 C 
BRANCH  49  50
ATOM     50  C   UNK d   0       2.572   0.332  41.796  0.00  0.00     0.115 C 
BRANCH  50  51
ATOM     51  C   UNK d   0       2.146  -0.733  40.899  0.00  0.00     0.139 C 
ATOM     52  O   UNK d   0       2.883  -1.189  39.993  0.00  0.00    -0.650 OA
BRANCH  51  53
ATOM     53  O   UNK d   0       0.878  -1.277  41.033  0.00  0.00    -0.776 OA
ATOM     54  H   UNK d   0       0.204  -1.096  40.310  0.00  0.00     0.167 HD
ENDBRANCH  51  53
ENDBRANCH  50  51
ENDBRANCH  49  50
ENDBRANCH  24  49
BRANCH  21  55
ATOM     55  C   UNK d   0       1.429   2.602  39.500  0.00  0.00     0.151 C 
BRANCH  55  56
ATOM     56  C   UNK d   0       0.008   2.395  39.821  0.00  0.00     0.143 C 
ATOM     57  O   UNK d   0      -0.377   1.930  40.911  0.00  0.00    -0.650 OA
BRANCH  56  58
ATOM     58  O   UNK d   0      -0.933   2.740  38.852  0.00  0.00    -0.776 OA
ATOM     59  H   UNK d   0      -1.440   3.625  39.031  0.00  0.00     0.167 HD
ENDBRANCH  56  58
ENDBRANCH  55  56
ENDBRANCH  21  55
BRANCH  18  60
ATOM     60  C   UNK d   0       0.892   7.882  38.696  0.00  0.00     0.151 C 
BRANCH  60  61
ATOM     61  C   UNK d   0       2.214   8.112  38.094  0.00  0.00     0.143 C 
ATOM     62  O   UNK d   0       3.232   8.502  38.667  0.00  0.00    -0.650 OA
BRANCH  61  63
ATOM     63  O   UNK d   0       2.298   7.849  36.706  0.00  0.00    -0.776 OA
ATOM     64  H   UNK d   0       2.867   8.418  36.104  0.00  0.00     0.167 HD
ENDBRANCH  61  63
ENDBRANCH  60  61
ENDBRANCH  18  60
BRANCH  14  65
ATOM     65  C   UNK d   0       0.989  10.508  40.214  0.00  0.00     0.052 C 
BRANCH  65  66
ATOM     66  C   UNK d   0      -0.283  11.173  40.604  0.00  0.00     0.115 C 
BRANCH  66  67
ATOM     67  C   UNK d   0      -0.246  12.432  41.294  0.00  0.00     0.139 C 
ATOM     68  O   UNK d   0      -0.548  13.498  40.642  0.00  0.00    -0.650 OA
BRANCH  67  69
ATOM     69  O   UNK d   0       0.087  12.664  42.628  0.00  0.00    -0.776 OA
ATOM     70  H   UNK d   0       0.832  13.357  42.790  0.00  0.00     0.167 HD
ENDBRANCH  67  69
ENDBRANCH  66  67
ENDBRANCH  65  66
ENDBRANCH  14  65
ENDBRANCH   6   7
ENDBRANCH   5   6
ENDBRANCH   2   5
TORSDOF 28
ENDMDL
MODEL 18
REMARK VINA RESULT:      -7.6     28.563     33.159
REMARK  28 active torsions:
REMARK  status: ('A' for Active; 'I' for Inactive)
REMARK    1  A    between atoms: C_2  and  O_3 
REMARK    2  A    between atoms: C_2  and  C_4 
REMARK    3  A    between atoms: C_4  and  C_5 
REMARK    4  A    between atoms: C_5  and  C_6 
REMARK    5  A    between atoms: C_7  and  C_8 
REMARK    6  A    between atoms: C_8  and  C_9 
REMARK    7  A    between atoms: C_9  and  O_11 
REMARK    8  A    between atoms: C_28  and  C_29 
REMARK    9  A    between atoms: C_29  and  C_30 
REMARK   10  A    between atoms: C_30  and  O_32 
REMARK   11  A    between atoms: C_33  and  C_34 
REMARK   12  A    between atoms: C_34  and  C_35 
REMARK   13  A    between atoms: C_35  and  C_36 
REMARK   14  A    between atoms: C_36  and  O_38 
REMARK   15  A    between atoms: C_39  and  C_40 
REMARK   16  A    between atoms: C_40  and  C_41 
REMARK   17  A    between atoms: C_41  and  C_42 
REMARK   18  A    between atoms: C_42  and  O_44 
REMARK   19  A    between atoms: C_45  and  C_46 
REMARK   20  A    between atoms: C_46  and  C_47 
REMARK   21  A    between atoms: C_47  and  O_49 
REMARK   22  A    between atoms: C_50  and  C_51 
REMARK   23  A    between atoms: C_51  and  C_52 
REMARK   24  A    between atoms: C_52  and  O_54 
REMARK   25  A    between atoms: C_55  and  C_56 
REMARK   26  A    between atoms: C_56  and  C_57 
REMARK   27  A    between atoms: C_57  and  C_58 
REMARK   28  A    between atoms: C_58  and  O_60 
ROOT
ATOM      1  O   UNK d   0      -0.736  -0.034  40.122  0.00  0.00    -0.650 OA
ATOM      2  C   UNK d   0       0.399   0.392  40.430  0.00  0.00     0.139 C 
ENDROOT
BRANCH   2   3
ATOM      3  O   UNK d   0       0.569   1.057  41.620  0.00  0.00    -0.776 OA
ATOM      4  H   UNK d   0       1.262   0.746  42.304  0.00  0.00     0.167 HD
ENDBRANCH   2   3
BRANCH   2   5
ATOM      5  C   UNK d   0       1.553   0.178  39.511  0.00  0.00     0.115 C 
BRANCH   5   6
ATOM      6  C   UNK d   0       1.069   0.058  38.092  0.00  0.00     0.052 C 
BRANCH   6   7
ATOM      7  C   UNK d   0       2.033   0.657  37.096  0.00  0.00    -0.020 A 
ATOM      8  C   UNK d   0       3.053   0.073  36.521  0.00  0.00    -0.011 A 
ATOM      9  C   UNK d   0       3.690   1.046  35.649  0.00  0.00     0.067 A 
ATOM     10  C   UNK d   0       4.780   1.053  34.765  0.00  0.00     0.062 C 
ATOM     11  N   UNK d   0       2.994   2.198  35.759  0.00  0.00    -0.248 NA
ATOM     12  C   UNK d   0       5.076   2.015  33.793  0.00  0.00     0.041 A 
ATOM     13  N   UNK d   0       5.030   3.360  33.834  0.00  0.00    -0.355 N 
ATOM     14  C   UNK d   0       5.444   1.588  32.504  0.00  0.00    -0.022 A 
ATOM     15  C   UNK d   0       5.350   3.798  32.601  0.00  0.00     0.042 A 
ATOM     16  H   UNK d   0       4.794   3.988  34.721  0.00  0.00     0.166 HD
ATOM     17  C   UNK d   0       5.453   5.109  32.096  0.00  0.00     0.062 C 
ATOM     18  C   UNK d   0       5.616   2.716  31.740  0.00  0.00    -0.013 A 
ATOM     19  C   UNK d   0       4.602   6.170  32.271  0.00  0.00     0.067 A 
ATOM     20  N   UNK d   0       3.646   6.033  33.193  0.00  0.00    -0.248 NA
ATOM     21  C   UNK d   0       4.438   7.487  31.677  0.00  0.00    -0.011 A 
ATOM     22  C   UNK d   0       2.867   7.163  33.244  0.00  0.00     0.066 A 
ATOM     23  C   UNK d   0       1.853   7.170  34.191  0.00  0.00     0.062 C 
ATOM     24  C   UNK d   0       3.418   8.060  32.248  0.00  0.00    -0.020 A 
ATOM     25  C   UNK d   0       1.580   6.200  35.167  0.00  0.00     0.041 A 
ATOM     26  N   UNK d   0       1.612   4.862  35.122  0.00  0.00    -0.355 N 
ATOM     27  C   UNK d   0       1.216   6.629  36.462  0.00  0.00    -0.022 A 
ATOM     28  C   UNK d   0       1.284   4.423  36.348  0.00  0.00     0.042 A 
ATOM     29  H   UNK d   0       1.839   4.232  34.227  0.00  0.00     0.166 HD
ATOM     30  C   UNK d   0       1.169   3.122  36.862  0.00  0.00     0.062 C 
ATOM     31  C   UNK d   0       1.027   5.511  37.215  0.00  0.00    -0.013 A 
ATOM     32  C   UNK d   0       1.984   2.030  36.614  0.00  0.00     0.066 A 
BRANCH   8  33
ATOM     33  C   UNK d   0       3.500  -1.319  36.714  0.00  0.00     0.151 C 
BRANCH  33  34
ATOM     34  C   UNK d   0       2.382  -2.280  36.724  0.00  0.00     0.143 C 
ATOM     35  O   UNK d   0       2.162  -2.989  37.716  0.00  0.00    -0.650 OA
BRANCH  34  36
ATOM     36  O   UNK d   0       1.576  -2.390  35.615  0.00  0.00    -0.776 OA
ATOM     37  H   UNK d   0       1.755  -1.835  34.767  0.00  0.00     0.167 HD
ENDBRANCH  34  36
ENDBRANCH  33  34
ENDBRANCH   8  33
BRANCH  31  38
ATOM     38  C   UNK d   0       0.639   5.476  38.675  0.00  0.00     0.151 C 
BRANCH  38  39
ATOM     39  C   UNK d   0       0.535   4.129  39.196  0.00  0.00     0.143 C 
ATOM     40  O   UNK d   0      -0.503   3.453  39.090  0.00  0.00    -0.650 OA
BRANCH  39  41
ATOM     41  O   UNK d   0       1.631   3.557  39.842  0.00  0.00    -0.776 OA
ATOM     42  H   UNK d   0       2.417   4.178  40.057  0.00  0.00     0.167 HD
ENDBRANCH  39  41
ENDBRANCH  38  39
ENDBRANCH  31  38
BRANCH  27  43
ATOM     43  C   UNK d   0       1.042   8.029  36.994  0.00  0.00     0.052 C 
BRANCH  43  44
ATOM     44  C   UNK d   0       2.263   8.558  37.674  0.00  0.00     0.115 C 
BRANCH  44  45
ATOM     45  C   UNK d   0       1.946   9.947  38.096  0.00  0.00     0.139 C 
ATOM     46  O   UNK d   0       0.738  10.268  38.215  0.00  0.00    -0.650 OA
BRANCH  45  47
ATOM     47  O   UNK d   0       2.918  10.887  38.365  0.00  0.00    -0.776 OA
ATOM     48  H   UNK d   0       2.985  11.784  37.858  0.00  0.00     0.167 HD
ENDBRANCH  45  47
ENDBRANCH  44  45
ENDBRANCH  43  44
ENDBRANCH  27  43
BRANCH  24  49
ATOM     49  C   UNK d   0       2.922   9.420  31.975  0.00  0.00     0.052 C 
BRANCH  49  50
ATOM     50  C   UNK d   0       1.947   9.402  30.826  0.00  0.00     0.115 C 
BRANCH  50  51
ATOM     51  C   UNK d   0       1.588  10.686  30.238  0.00  0.00     0.139 C 
ATOM     52  O   UNK d   0       2.435  11.577  29.992  0.00  0.00    -0.650 OA
BRANCH  51  53
ATOM     53  O   UNK d   0       0.263  10.955  29.934  0.00  0.00    -0.776 OA
ATOM     54  H   UNK d   0      -0.439  10.311  30.254  0.00  0.00     0.167 HD
ENDBRANCH  51  53
ENDBRANCH  50  51
ENDBRANCH  49  50
ENDBRANCH  24  49
BRANCH  21  55
ATOM     55  C   UNK d   0       5.319   8.035  30.604  0.00  0.00     0.151 C 
BRANCH  55  56
ATOM     56  C   UNK d   0       5.102   7.362  29.315  0.00  0.00     0.143 C 
ATOM     57  O   UNK d   0       5.787   6.392  28.936  0.00  0.00    -0.650 OA
BRANCH  56  58
ATOM     58  O   UNK d   0       4.082   7.843  28.495  0.00  0.00    -0.776 OA
ATOM     59  H   UNK d   0       3.192   8.050  28.982  0.00  0.00     0.167 HD
ENDBRANCH  56  58
ENDBRANCH  55  56
ENDBRANCH  21  55
BRANCH  18  60
ATOM     60  C   UNK d   0       6.007   2.721  30.283  0.00  0.00     0.151 C 
BRANCH  60  61
ATOM     61  C   UNK d   0       7.446   3.027  30.252  0.00  0.00     0.143 C 
ATOM     62  O   UNK d   0       8.376   2.234  30.401  0.00  0.00    -0.650 OA
BRANCH  61  63
ATOM     63  O   UNK d   0       7.768   4.386  30.024  0.00  0.00    -0.776 OA
ATOM     64  H   UNK d   0       8.684   4.743  30.232  0.00  0.00     0.167 HD
ENDBRANCH  61  63
ENDBRANCH  60  61
ENDBRANCH  18  60
BRANCH  14  65
ATOM     65  C   UNK d   0       5.737   0.214  31.972  0.00  0.00     0.052 C 
BRANCH  65  66
ATOM     66  C   UNK d   0       7.155  -0.192  32.161  0.00  0.00     0.115 C 
BRANCH  66  67
ATOM     67  C   UNK d   0       7.534  -0.928  33.335  0.00  0.00     0.139 C 
ATOM     68  O   UNK d   0       7.920  -0.273  34.372  0.00  0.00    -0.650 OA
BRANCH  67  69
ATOM     69  O   UNK d   0       7.540  -2.312  33.509  0.00  0.00    -0.776 OA
ATOM     70  H   UNK d   0       8.468  -2.759  33.509  0.00  0.00     0.167 HD
ENDBRANCH  67  69
ENDBRANCH  66  67
ENDBRANCH  65  66
ENDBRANCH  14  65
ENDBRANCH   6   7
ENDBRANCH   5   6
ENDBRANCH   2   5
TORSDOF 28
ENDMDL
MODEL 19
REMARK VINA RESULT:      -7.6     28.517     33.452
REMARK  28 active torsions:
REMARK  status: ('A' for Active; 'I' for Inactive)
REMARK    1  A    between atoms: C_2  and  O_3 
REMARK    2  A    between atoms: C_2  and  C_4 
REMARK    3  A    between atoms: C_4  and  C_5 
REMARK    4  A    between atoms: C_5  and  C_6 
REMARK    5  A    between atoms: C_7  and  C_8 
REMARK    6  A    between atoms: C_8  and  C_9 
REMARK    7  A    between atoms: C_9  and  O_11 
REMARK    8  A    between atoms: C_28  and  C_29 
REMARK    9  A    between atoms: C_29  and  C_30 
REMARK   10  A    between atoms: C_30  and  O_32 
REMARK   11  A    between atoms: C_33  and  C_34 
REMARK   12  A    between atoms: C_34  and  C_35 
REMARK   13  A    between atoms: C_35  and  C_36 
REMARK   14  A    between atoms: C_36  and  O_38 
REMARK   15  A    between atoms: C_39  and  C_40 
REMARK   16  A    between atoms: C_40  and  C_41 
REMARK   17  A    between atoms: C_41  and  C_42 
REMARK   18  A    between atoms: C_42  and  O_44 
REMARK   19  A    between atoms: C_45  and  C_46 
REMARK   20  A    between atoms: C_46  and  C_47 
REMARK   21  A    between atoms: C_47  and  O_49 
REMARK   22  A    between atoms: C_50  and  C_51 
REMARK   23  A    between atoms: C_51  and  C_52 
REMARK   24  A    between atoms: C_52  and  O_54 
REMARK   25  A    between atoms: C_55  and  C_56 
REMARK   26  A    between atoms: C_56  and  C_57 
REMARK   27  A    between atoms: C_57  and  C_58 
REMARK   28  A    between atoms: C_58  and  O_60 
ROOT
ATOM      1  O   UNK d   0      -0.727   3.152  39.723  0.00  0.00    -0.650 OA
ATOM      2  C   UNK d   0      -0.006   2.634  38.841  0.00  0.00     0.139 C 
ENDROOT
BRANCH   2   3
ATOM      3  O   UNK d   0       0.017   1.267  38.707  0.00  0.00    -0.776 OA
ATOM      4  H   UNK d   0      -0.256   0.818  37.830  0.00  0.00     0.167 HD
ENDBRANCH   2   3
BRANCH   2   5
ATOM      5  C   UNK d   0       0.821   3.496  37.949  0.00  0.00     0.115 C 
BRANCH   5   6
ATOM      6  C   UNK d   0       0.447   3.259  36.511  0.00  0.00     0.052 C 
BRANCH   6   7
ATOM      7  C   UNK d   0       1.644   3.270  35.590  0.00  0.00    -0.020 A 
ATOM      8  C   UNK d   0       2.546   2.333  35.442  0.00  0.00    -0.011 A 
ATOM      9  C   UNK d   0       3.508   2.794  34.455  0.00  0.00     0.067 A 
ATOM     10  C   UNK d   0       4.663   2.276  33.848  0.00  0.00     0.062 C 
ATOM     11  N   UNK d   0       3.118   4.024  34.059  0.00  0.00    -0.248 NA
ATOM     12  C   UNK d   0       5.308   2.758  32.704  0.00  0.00     0.041 A 
ATOM     13  N   UNK d   0       5.598   4.013  32.313  0.00  0.00    -0.355 N 
ATOM     14  C   UNK d   0       5.709   1.844  31.713  0.00  0.00    -0.022 A 
ATOM     15  C   UNK d   0       6.165   3.920  31.095  0.00  0.00     0.042 A 
ATOM     16  H   UNK d   0       5.423   4.945  32.894  0.00  0.00     0.166 HD
ATOM     17  C   UNK d   0       6.657   4.924  30.237  0.00  0.00     0.062 C 
ATOM     18  C   UNK d   0       6.251   2.575  30.685  0.00  0.00    -0.013 A 
ATOM     19  C   UNK d   0       6.087   6.125  29.899  0.00  0.00     0.067 A 
ATOM     20  N   UNK d   0       5.023   6.510  30.608  0.00  0.00    -0.248 NA
ATOM     21  C   UNK d   0       6.333   7.155  28.904  0.00  0.00    -0.011 A 
ATOM     22  C   UNK d   0       4.554   7.716  30.148  0.00  0.00     0.066 A 
ATOM     23  C   UNK d   0       3.469   8.254  30.823  0.00  0.00     0.062 C 
ATOM     24  C   UNK d   0       5.430   8.081  29.052  0.00  0.00    -0.020 A 
ATOM     25  C   UNK d   0       2.843   7.760  31.979  0.00  0.00     0.041 A 
ATOM     26  N   UNK d   0       2.541   6.514  32.361  0.00  0.00    -0.355 N 
ATOM     27  C   UNK d   0       2.445   8.678  32.975  0.00  0.00    -0.022 A 
ATOM     28  C   UNK d   0       1.967   6.605  33.571  0.00  0.00     0.042 A 
ATOM     29  H   UNK d   0       2.708   5.579  31.771  0.00  0.00     0.166 HD
ATOM     30  C   UNK d   0       1.466   5.616  34.432  0.00  0.00     0.062 C 
ATOM     31  C   UNK d   0       1.891   7.955  33.987  0.00  0.00    -0.013 A 
ATOM     32  C   UNK d   0       2.003   4.368  34.705  0.00  0.00     0.066 A 
BRANCH   8  33
ATOM     33  C   UNK d   0       2.599   1.037  36.144  0.00  0.00     0.151 C 
BRANCH  33  34
ATOM     34  C   UNK d   0       1.646   0.054  35.599  0.00  0.00     0.143 C 
ATOM     35  O   UNK d   0       0.821  -0.507  36.334  0.00  0.00    -0.650 OA
BRANCH  34  36
ATOM     36  O   UNK d   0       1.677  -0.245  34.257  0.00  0.00    -0.776 OA
ATOM     37  H   UNK d   0       2.510  -0.666  33.822  0.00  0.00     0.167 HD
ENDBRANCH  34  36
ENDBRANCH  33  34
ENDBRANCH   8  33
BRANCH  31  38
ATOM     38  C   UNK d   0       1.334   8.510  35.277  0.00  0.00     0.151 C 
BRANCH  38  39
ATOM     39  C   UNK d   0       2.307   8.525  36.348  0.00  0.00     0.143 C 
ATOM     40  O   UNK d   0       2.779   7.482  36.833  0.00  0.00    -0.650 OA
BRANCH  39  41
ATOM     41  O   UNK d   0       2.740   9.747  36.864  0.00  0.00    -0.776 OA
ATOM     42  H   UNK d   0       2.108  10.223  37.516  0.00  0.00     0.167 HD
ENDBRANCH  39  41
ENDBRANCH  38  39
ENDBRANCH  31  38
BRANCH  27  43
ATOM     43  C   UNK d   0       2.569  10.181  32.998  0.00  0.00     0.052 C 
BRANCH  43  44
ATOM     44  C   UNK d   0       1.754  10.857  31.943  0.00  0.00     0.115 C 
BRANCH  44  45
ATOM     45  C   UNK d   0       1.859  12.317  32.197  0.00  0.00     0.139 C 
ATOM     46  O   UNK d   0       1.376  13.102  31.344  0.00  0.00    -0.650 OA
BRANCH  45  47
ATOM     47  O   UNK d   0       2.457  12.839  33.324  0.00  0.00    -0.776 OA
ATOM     48  H   UNK d   0       2.502  12.329  34.221  0.00  0.00     0.167 HD
ENDBRANCH  45  47
ENDBRANCH  44  45
ENDBRANCH  43  44
ENDBRANCH  27  43
BRANCH  24  49
ATOM     49  C   UNK d   0       5.331   9.329  28.276  0.00  0.00     0.052 C 
BRANCH  49  50
ATOM     50  C   UNK d   0       4.366   9.158  27.130  0.00  0.00     0.115 C 
BRANCH  50  51
ATOM     51  C   UNK d   0       2.955   9.391  27.409  0.00  0.00     0.139 C 
ATOM     52  O   UNK d   0       2.550  10.378  28.068  0.00  0.00    -0.650 OA
BRANCH  51  53
ATOM     53  O   UNK d   0       2.006   8.498  26.937  0.00  0.00    -0.776 OA
ATOM     54  H   UNK d   0       2.204   7.515  27.004  0.00  0.00     0.167 HD
ENDBRANCH  51  53
ENDBRANCH  50  51
ENDBRANCH  49  50
ENDBRANCH  24  49
BRANCH  21  55
ATOM     55  C   UNK d   0       7.447   7.108  27.912  0.00  0.00     0.151 C 
BRANCH  55  56
ATOM     56  C   UNK d   0       7.227   6.080  26.883  0.00  0.00     0.143 C 
ATOM     57  O   UNK d   0       7.901   5.033  26.819  0.00  0.00    -0.650 OA
BRANCH  56  58
ATOM     58  O   UNK d   0       6.216   6.303  25.949  0.00  0.00    -0.776 OA
ATOM     59  H   UNK d   0       6.029   5.508  25.310  0.00  0.00     0.167 HD
ENDBRANCH  56  58
ENDBRANCH  55  56
ENDBRANCH  21  55
BRANCH  18  60
ATOM     60  C   UNK d   0       6.804   1.993  29.408  0.00  0.00     0.151 C 
BRANCH  60  61
ATOM     61  C   UNK d   0       8.267   2.018  29.553  0.00  0.00     0.143 C 
ATOM     62  O   UNK d   0       8.940   1.425  30.397  0.00  0.00    -0.650 OA
BRANCH  61  63
ATOM     63  O   UNK d   0       8.953   2.817  28.607  0.00  0.00    -0.776 OA
ATOM     64  H   UNK d   0       9.065   3.805  28.747  0.00  0.00     0.167 HD
ENDBRANCH  61  63
ENDBRANCH  60  61
ENDBRANCH  18  60
BRANCH  14  65
ATOM     65  C   UNK d   0       5.707   0.342  31.705  0.00  0.00     0.052 C 
BRANCH  65  66
ATOM     66  C   UNK d   0       6.802  -0.245  32.524  0.00  0.00     0.115 C 
BRANCH  66  67
ATOM     67  C   UNK d   0       7.552  -1.359  32.016  0.00  0.00     0.139 C 
ATOM     68  O   UNK d   0       7.664  -2.409  32.749  0.00  0.00    -0.650 OA
BRANCH  67  69
ATOM     69  O   UNK d   0       8.203  -1.459  30.787  0.00  0.00    -0.776 OA
ATOM     70  H   UNK d   0       9.128  -1.912  30.805  0.00  0.00     0.167 HD
ENDBRANCH  67  69
ENDBRANCH  66  67
ENDBRANCH  65  66
ENDBRANCH  14  65
ENDBRANCH   6   7
ENDBRANCH   5   6
ENDBRANCH   2   5
TORSDOF 28
ENDMDL
MODEL 20
REMARK VINA RESULT:      -7.2     26.937     31.545
REMARK  28 active torsions:
REMARK  status: ('A' for Active; 'I' for Inactive)
REMARK    1  A    between atoms: C_2  and  O_3 
REMARK    2  A    between atoms: C_2  and  C_4 
REMARK    3  A    between atoms: C_4  and  C_5 
REMARK    4  A    between atoms: C_5  and  C_6 
REMARK    5  A    between atoms: C_7  and  C_8 
REMARK    6  A    between atoms: C_8  and  C_9 
REMARK    7  A    between atoms: C_9  and  O_11 
REMARK    8  A    between atoms: C_28  and  C_29 
REMARK    9  A    between atoms: C_29  and  C_30 
REMARK   10  A    between atoms: C_30  and  O_32 
REMARK   11  A    between atoms: C_33  and  C_34 
REMARK   12  A    between atoms: C_34  and  C_35 
REMARK   13  A    between atoms: C_35  and  C_36 
REMARK   14  A    between atoms: C_36  and  O_38 
REMARK   15  A    between atoms: C_39  and  C_40 
REMARK   16  A    between atoms: C_40  and  C_41 
REMARK   17  A    between atoms: C_41  and  C_42 
REMARK   18  A    between atoms: C_42  and  O_44 
REMARK   19  A    between atoms: C_45  and  C_46 
REMARK   20  A    between atoms: C_46  and  C_47 
REMARK   21  A    between atoms: C_47  and  O_49 
REMARK   22  A    between atoms: C_50  and  C_51 
REMARK   23  A    between atoms: C_51  and  C_52 
REMARK   24  A    between atoms: C_52  and  O_54 
REMARK   25  A    between atoms: C_55  and  C_56 
REMARK   26  A    between atoms: C_56  and  C_57 
REMARK   27  A    between atoms: C_57  and  C_58 
REMARK   28  A    between atoms: C_58  and  O_60 
ROOT
ATOM      1  O   UNK d   0       3.678  11.602  27.995  0.00  0.00    -0.650 OA
ATOM      2  C   UNK d   0       3.985  11.280  29.164  0.00  0.00     0.139 C 
ENDROOT
BRANCH   2   3
ATOM      3  O   UNK d   0       3.585  12.077  30.209  0.00  0.00    -0.776 OA
ATOM      4  H   UNK d   0       4.174  12.843  30.543  0.00  0.00     0.167 HD
ENDBRANCH   2   3
BRANCH   2   5
ATOM      5  C   UNK d   0       4.778  10.043  29.416  0.00  0.00     0.115 C 
BRANCH   5   6
ATOM      6  C   UNK d   0       3.954   8.826  29.093  0.00  0.00     0.052 C 
BRANCH   6   7
ATOM      7  C   UNK d   0       4.052   7.759  30.158  0.00  0.00    -0.020 A 
ATOM      8  C   UNK d   0       3.358   7.668  31.263  0.00  0.00    -0.011 A 
ATOM      9  C   UNK d   0       3.806   6.483  31.974  0.00  0.00     0.067 A 
ATOM     10  C   UNK d   0       3.466   5.830  33.169  0.00  0.00     0.062 C 
ATOM     11  N   UNK d   0       4.781   5.916  31.233  0.00  0.00    -0.248 NA
ATOM     12  C   UNK d   0       3.822   4.534  33.557  0.00  0.00     0.041 A 
ATOM     13  N   UNK d   0       4.989   3.868  33.461  0.00  0.00    -0.355 N 
ATOM     14  C   UNK d   0       2.836   3.692  34.103  0.00  0.00    -0.022 A 
ATOM     15  C   UNK d   0       4.767   2.624  33.924  0.00  0.00     0.042 A 
ATOM     16  H   UNK d   0       5.955   4.276  33.091  0.00  0.00     0.166 HD
ATOM     17  C   UNK d   0       5.641   1.526  34.048  0.00  0.00     0.062 C 
ATOM     18  C   UNK d   0       3.428   2.475  34.335  0.00  0.00    -0.013 A 
ATOM     19  C   UNK d   0       6.557   1.046  33.146  0.00  0.00     0.067 A 
ATOM     20  N   UNK d   0       6.817   1.812  32.084  0.00  0.00    -0.248 NA
ATOM     21  C   UNK d   0       7.364  -0.155  33.016  0.00  0.00    -0.011 A 
ATOM     22  C   UNK d   0       7.735   1.198  31.268  0.00  0.00     0.066 A 
ATOM     23  C   UNK d   0       8.127   1.904  30.140  0.00  0.00     0.062 C 
ATOM     24  C   UNK d   0       8.049  -0.062  31.913  0.00  0.00    -0.020 A 
ATOM     25  C   UNK d   0       7.768   3.211  29.775  0.00  0.00     0.041 A 
ATOM     26  N   UNK d   0       6.604   3.867  29.857  0.00  0.00    -0.355 N 
ATOM     27  C   UNK d   0       8.759   4.057  29.231  0.00  0.00    -0.022 A 
ATOM     28  C   UNK d   0       6.821   5.106  29.387  0.00  0.00     0.042 A 
ATOM     29  H   UNK d   0       5.631   3.452  30.219  0.00  0.00     0.166 HD
ATOM     30  C   UNK d   0       5.959   6.205  29.250  0.00  0.00     0.062 C 
ATOM     31  C   UNK d   0       8.169   5.258  28.984  0.00  0.00    -0.013 A 
ATOM     32  C   UNK d   0       4.976   6.635  30.127  0.00  0.00     0.066 A 
BRANCH   8  33
ATOM     33  C   UNK d   0       2.307   8.594  31.727  0.00  0.00     0.151 C 
BRANCH  33  34
ATOM     34  C   UNK d   0       2.773   9.498  32.793  0.00  0.00     0.143 C 
ATOM     35  O   UNK d   0       3.173  10.641  32.530  0.00  0.00    -0.650 OA
BRANCH  34  36
ATOM     36  O   UNK d   0       2.765   9.063  34.099  0.00  0.00    -0.776 OA
ATOM     37  H   UNK d   0       2.998   9.698  34.875  0.00  0.00     0.167 HD
ENDBRANCH  34  36
ENDBRANCH  33  34
ENDBRANCH   8  33
BRANCH  31  38
ATOM     38  C   UNK d   0       8.845   6.482  28.411  0.00  0.00     0.151 C 
BRANCH  38  39
ATOM     39  C   UNK d   0       8.712   6.576  26.973  0.00  0.00     0.143 C 
ATOM     40  O   UNK d   0       9.226   7.498  26.316  0.00  0.00    -0.650 OA
BRANCH  39  41
ATOM     41  O   UNK d   0       7.986   5.603  26.286  0.00  0.00    -0.776 OA
ATOM     42  H   UNK d   0       7.059   5.372  26.657  0.00  0.00     0.167 HD
ENDBRANCH  39  41
ENDBRANCH  38  39
ENDBRANCH  31  38
BRANCH  27  43
ATOM     43  C   UNK d   0      10.212   3.769  28.944  0.00  0.00     0.052 C 
BRANCH  43  44
ATOM     44  C   UNK d   0      10.456   3.300  27.546  0.00  0.00     0.115 C 
BRANCH  44  45
ATOM     45  C   UNK d   0      11.071   1.951  27.653  0.00  0.00     0.139 C 
ATOM     46  O   UNK d   0      12.152   1.842  28.283  0.00  0.00    -0.650 OA
BRANCH  45  47
ATOM     47  O   UNK d   0      10.504   0.825  27.097  0.00  0.00    -0.776 OA
ATOM     48  H   UNK d   0      10.693  -0.128  27.447  0.00  0.00     0.167 HD
ENDBRANCH  45  47
ENDBRANCH  44  45
ENDBRANCH  43  44
ENDBRANCH  27  43
BRANCH  24  49
ATOM     49  C   UNK d   0       9.026  -1.043  31.411  0.00  0.00     0.052 C 
BRANCH  49  50
ATOM     50  C   UNK d   0       8.508  -1.708  30.162  0.00  0.00     0.115 C 
BRANCH  50  51
ATOM     51  C   UNK d   0       7.275  -2.475  30.279  0.00  0.00     0.139 C 
ATOM     52  O   UNK d   0       7.219  -3.581  30.866  0.00  0.00    -0.650 OA
BRANCH  51  53
ATOM     53  O   UNK d   0       6.104  -1.981  29.724  0.00  0.00    -0.776 OA
ATOM     54  H   UNK d   0       5.350  -2.623  29.555  0.00  0.00     0.167 HD
ENDBRANCH  51  53
ENDBRANCH  50  51
ENDBRANCH  49  50
ENDBRANCH  24  49
BRANCH  21  55
ATOM     55  C   UNK d   0       7.371  -1.268  34.011  0.00  0.00     0.151 C 
BRANCH  55  56
ATOM     56  C   UNK d   0       7.884  -0.836  35.320  0.00  0.00     0.143 C 
ATOM     57  O   UNK d   0       9.085  -0.563  35.518  0.00  0.00    -0.650 OA
BRANCH  56  58
ATOM     58  O   UNK d   0       6.975  -0.731  36.371  0.00  0.00    -0.776 OA
ATOM     59  H   UNK d   0       6.342  -1.543  36.482  0.00  0.00     0.167 HD
ENDBRANCH  56  58
ENDBRANCH  55  56
ENDBRANCH  21  55
BRANCH  18  60
ATOM     60  C   UNK d   0       2.728   1.269  34.912  0.00  0.00     0.151 C 
BRANCH  60  61
ATOM     61  C   UNK d   0       3.111   1.220  36.331  0.00  0.00     0.143 C 
ATOM     62  O   UNK d   0       4.092   0.655  36.816  0.00  0.00    -0.650 OA
BRANCH  61  63
ATOM     63  O   UNK d   0       2.242   1.905  37.213  0.00  0.00    -0.776 OA
ATOM     64  H   UNK d   0       1.820   2.779  36.952  0.00  0.00     0.167 HD
ENDBRANCH  61  63
ENDBRANCH  60  61
ENDBRANCH  18  60
BRANCH  14  65
ATOM     65  C   UNK d   0       1.418   3.977  34.508  0.00  0.00     0.052 C 
BRANCH  65  66
ATOM     66  C   UNK d   0       1.320   4.833  35.721  0.00  0.00     0.115 C 
BRANCH  66  67
ATOM     67  C   UNK d   0       1.322   6.262  35.584  0.00  0.00     0.139 C 
ATOM     68  O   UNK d   0       2.015   6.957  36.415  0.00  0.00    -0.650 OA
BRANCH  67  69
ATOM     69  O   UNK d   0       0.647   7.030  34.636  0.00  0.00    -0.776 OA
ATOM     70  H   UNK d   0      -0.368   6.866  34.567  0.00  0.00     0.167 HD
ENDBRANCH  67  69
ENDBRANCH  66  67
ENDBRANCH  65  66
ENDBRANCH  14  65
ENDBRANCH   6   7
ENDBRANCH   5   6
ENDBRANCH   2   5
TORSDOF 28
ENDMDL
