MODEL 1
REMARK VINA RESULT:     -10.4      0.000      0.000
REMARK  28 active torsions:
REMARK  status: ('A' for Active; 'I' for Inactive)
REMARK    1  A    between atoms: C_2  and  O_3 
REMARK    2  A    between atoms: C_2  and  C_4 
REMARK    3  A    between atoms: C_4  and  C_5 
REMARK    4  A    between atoms: C_5  and  C_6 
REMARK    5  A    between atoms: C_7  and  C_8 
REMARK    6  A    between atoms: C_8  and  C_9 
REMARK    7  A    between atoms: C_9  and  O_11 
REMARK    8  A    between atoms: C_28  and  C_29 
REMARK    9  A    between atoms: C_29  and  C_30 
REMARK   10  A    between atoms: C_30  and  O_32 
REMARK   11  A    between atoms: C_33  and  C_34 
REMARK   12  A    between atoms: C_34  and  C_35 
REMARK   13  A    between atoms: C_35  and  C_36 
REMARK   14  A    between atoms: C_36  and  O_38 
REMARK   15  A    between atoms: C_39  and  C_40 
REMARK   16  A    between atoms: C_40  and  C_41 
REMARK   17  A    between atoms: C_41  and  C_42 
REMARK   18  A    between atoms: C_42  and  O_44 
REMARK   19  A    between atoms: C_45  and  C_46 
REMARK   20  A    between atoms: C_46  and  C_47 
REMARK   21  A    between atoms: C_47  and  O_49 
REMARK   22  A    between atoms: C_50  and  C_51 
REMARK   23  A    between atoms: C_51  and  C_52 
REMARK   24  A    between atoms: C_52  and  O_54 
REMARK   25  A    between atoms: C_55  and  C_56 
REMARK   26  A    between atoms: C_56  and  C_57 
REMARK   27  A    between atoms: C_57  and  C_58 
REMARK   28  A    between atoms: C_58  and  O_60 
ROOT
ATOM      1  O   UNK d   0       1.500  -2.417  31.695  0.00  0.00    -0.650 OA
ATOM      2  C   UNK d   0       1.055  -1.260  31.861  0.00  0.00     0.139 C 
ENDROOT
BRANCH   2   3
ATOM      3  O   UNK d   0       0.245  -0.997  32.940  0.00  0.00    -0.776 OA
ATOM      4  H   UNK d   0      -0.024  -0.040  33.177  0.00  0.00     0.167 HD
ENDBRANCH   2   3
BRANCH   2   5
ATOM      5  C   UNK d   0       1.401  -0.179  30.894  0.00  0.00     0.115 C 
BRANCH   5   6
ATOM      6  C   UNK d   0       1.344  -0.707  29.486  0.00  0.00     0.052 C 
BRANCH   6   7
ATOM      7  C   UNK d   0      -0.056  -0.706  28.922  0.00  0.00    -0.020 A 
ATOM      8  C   UNK d   0      -0.701   0.300  28.389  0.00  0.00    -0.011 A 
ATOM      9  C   UNK d   0      -2.018  -0.173  27.997  0.00  0.00     0.067 A 
ATOM     10  C   UNK d   0      -3.149   0.378  27.374  0.00  0.00     0.062 C 
ATOM     11  N   UNK d   0      -2.091  -1.478  28.333  0.00  0.00    -0.248 NA
ATOM     12  C   UNK d   0      -4.234  -0.312  26.823  0.00  0.00     0.041 A 
ATOM     13  N   UNK d   0      -4.931  -1.372  27.273  0.00  0.00    -0.355 N 
ATOM     14  C   UNK d   0      -4.709   0.069  25.554  0.00  0.00    -0.022 A 
ATOM     15  C   UNK d   0      -5.831  -1.679  26.320  0.00  0.00     0.042 A 
ATOM     16  H   UNK d   0      -4.803  -1.881  28.253  0.00  0.00     0.166 HD
ATOM     17  C   UNK d   0      -6.807  -2.695  26.278  0.00  0.00     0.062 C 
ATOM     18  C   UNK d   0      -5.722  -0.798  25.227  0.00  0.00    -0.013 A 
ATOM     19  C   UNK d   0      -6.689  -4.018  26.618  0.00  0.00     0.067 A 
ATOM     20  N   UNK d   0      -5.575  -4.381  27.260  0.00  0.00    -0.248 NA
ATOM     21  C   UNK d   0      -7.493  -5.217  26.447  0.00  0.00    -0.011 A 
ATOM     22  C   UNK d   0      -5.592  -5.729  27.519  0.00  0.00     0.066 A 
ATOM     23  C   UNK d   0      -4.507  -6.236  28.219  0.00  0.00     0.062 C 
ATOM     24  C   UNK d   0      -6.844  -6.215  26.972  0.00  0.00    -0.020 A 
ATOM     25  C   UNK d   0      -3.433  -5.524  28.776  0.00  0.00     0.041 A 
ATOM     26  N   UNK d   0      -2.730  -4.480  28.321  0.00  0.00    -0.355 N 
ATOM     27  C   UNK d   0      -2.960  -5.904  30.050  0.00  0.00    -0.022 A 
ATOM     28  C   UNK d   0      -1.826  -4.177  29.266  0.00  0.00     0.042 A 
ATOM     29  H   UNK d   0      -2.854  -3.976  27.331  0.00  0.00     0.166 HD
ATOM     30  C   UNK d   0      -0.844  -3.175  29.317  0.00  0.00     0.062 C 
ATOM     31  C   UNK d   0      -1.943  -5.056  30.369  0.00  0.00    -0.013 A 
ATOM     32  C   UNK d   0      -0.942  -1.860  28.893  0.00  0.00     0.066 A 
BRANCH   8  33
ATOM     33  C   UNK d   0      -0.204   1.678  28.214  0.00  0.00     0.151 C 
BRANCH  33  34
ATOM     34  C   UNK d   0      -0.758   2.615  29.208  0.00  0.00     0.143 C 
ATOM     35  O   UNK d   0      -0.558   3.834  29.114  0.00  0.00    -0.650 OA
BRANCH  34  36
ATOM     36  O   UNK d   0      -1.505   2.126  30.255  0.00  0.00    -0.776 OA
ATOM     37  H   UNK d   0      -2.413   2.541  30.503  0.00  0.00     0.167 HD
ENDBRANCH  34  36
ENDBRANCH  33  34
ENDBRANCH   8  33
BRANCH  31  38
ATOM     38  C   UNK d   0      -1.139  -5.070  31.648  0.00  0.00     0.151 C 
BRANCH  38  39
ATOM     39  C   UNK d   0      -1.809  -4.397  32.740  0.00  0.00     0.143 C 
ATOM     40  O   UNK d   0      -2.877  -4.814  33.224  0.00  0.00    -0.650 OA
BRANCH  39  41
ATOM     41  O   UNK d   0      -1.250  -3.239  33.279  0.00  0.00    -0.776 OA
ATOM     42  H   UNK d   0      -1.882  -2.617  33.793  0.00  0.00     0.167 HD
ENDBRANCH  39  41
ENDBRANCH  38  39
ENDBRANCH  31  38
BRANCH  27  43
ATOM     43  C   UNK d   0      -3.426  -7.018  30.953  0.00  0.00     0.052 C 
BRANCH  43  44
ATOM     44  C   UNK d   0      -2.577  -8.245  30.866  0.00  0.00     0.115 C 
BRANCH  44  45
ATOM     45  C   UNK d   0      -2.146  -8.562  32.252  0.00  0.00     0.139 C 
ATOM     46  O   UNK d   0      -1.442  -9.587  32.432  0.00  0.00    -0.650 OA
BRANCH  45  47
ATOM     47  O   UNK d   0      -2.481  -7.781  33.336  0.00  0.00    -0.776 OA
ATOM     48  H   UNK d   0      -1.853  -7.056  33.720  0.00  0.00     0.167 HD
ENDBRANCH  45  47
ENDBRANCH  44  45
ENDBRANCH  43  44
ENDBRANCH  27  43
BRANCH  24  49
ATOM     49  C   UNK d   0      -7.312  -7.610  27.053  0.00  0.00     0.052 C 
BRANCH  49  50
ATOM     50  C   UNK d   0      -6.530  -8.366  28.097  0.00  0.00     0.115 C 
BRANCH  50  51
ATOM     51  C   UNK d   0      -6.313  -9.787  27.865  0.00  0.00     0.139 C 
ATOM     52  O   UNK d   0      -7.253 -10.589  27.653  0.00  0.00    -0.650 OA
BRANCH  51  53
ATOM     53  O   UNK d   0      -5.023 -10.295  27.877  0.00  0.00    -0.776 OA
ATOM     54  H   UNK d   0      -4.901 -11.285  27.755  0.00  0.00     0.167 HD
ENDBRANCH  51  53
ENDBRANCH  50  51
ENDBRANCH  49  50
ENDBRANCH  24  49
BRANCH  21  55
ATOM     55  C   UNK d   0      -8.828  -5.238  25.779  0.00  0.00     0.151 C 
BRANCH  55  56
ATOM     56  C   UNK d   0      -9.922  -4.969  26.725  0.00  0.00     0.143 C 
ATOM     57  O   UNK d   0     -10.361  -3.822  26.940  0.00  0.00    -0.650 OA
BRANCH  56  58
ATOM     58  O   UNK d   0     -10.478  -6.054  27.399  0.00  0.00    -0.776 OA
ATOM     59  H   UNK d   0     -10.316  -6.062  28.423  0.00  0.00     0.167 HD
ENDBRANCH  56  58
ENDBRANCH  55  56
ENDBRANCH  21  55
BRANCH  18  60
ATOM     60  C   UNK d   0      -6.511  -0.758  23.942  0.00  0.00     0.151 C 
BRANCH  60  61
ATOM     61  C   UNK d   0      -7.857  -0.293  24.308  0.00  0.00     0.143 C 
ATOM     62  O   UNK d   0      -8.142   0.698  24.983  0.00  0.00    -0.650 OA
BRANCH  61  63
ATOM     63  O   UNK d   0      -8.923  -1.086  23.821  0.00  0.00    -0.776 OA
ATOM     64  H   UNK d   0      -9.864  -0.948  24.146  0.00  0.00     0.167 HD
ENDBRANCH  61  63
ENDBRANCH  60  61
ENDBRANCH  18  60
BRANCH  14  65
ATOM     65  C   UNK d   0      -4.348   1.237  24.682  0.00  0.00     0.052 C 
BRANCH  65  66
ATOM     66  C   UNK d   0      -5.269   2.394  24.849  0.00  0.00     0.115 C 
BRANCH  66  67
ATOM     67  C   UNK d   0      -4.949   3.428  25.792  0.00  0.00     0.139 C 
ATOM     68  O   UNK d   0      -5.841   4.317  26.054  0.00  0.00    -0.650 OA
BRANCH  67  69
ATOM     69  O   UNK d   0      -3.754   3.608  26.488  0.00  0.00    -0.776 OA
ATOM     70  H   UNK d   0      -3.350   4.554  26.448  0.00  0.00     0.167 HD
ENDBRANCH  67  69
ENDBRANCH  66  67
ENDBRANCH  65  66
ENDBRANCH  14  65
ENDBRANCH   6   7
ENDBRANCH   5   6
ENDBRANCH   2   5
TORSDOF 28
ENDMDL
MODEL 2
REMARK VINA RESULT:     -10.3      1.637      7.755
REMARK  28 active torsions:
REMARK  status: ('A' for Active; 'I' for Inactive)
REMARK    1  A    between atoms: C_2  and  O_3 
REMARK    2  A    between atoms: C_2  and  C_4 
REMARK    3  A    between atoms: C_4  and  C_5 
REMARK    4  A    between atoms: C_5  and  C_6 
REMARK    5  A    between atoms: C_7  and  C_8 
REMARK    6  A    between atoms: C_8  and  C_9 
REMARK    7  A    between atoms: C_9  and  O_11 
REMARK    8  A    between atoms: C_28  and  C_29 
REMARK    9  A    between atoms: C_29  and  C_30 
REMARK   10  A    between atoms: C_30  and  O_32 
REMARK   11  A    between atoms: C_33  and  C_34 
REMARK   12  A    between atoms: C_34  and  C_35 
REMARK   13  A    between atoms: C_35  and  C_36 
REMARK   14  A    between atoms: C_36  and  O_38 
REMARK   15  A    between atoms: C_39  and  C_40 
REMARK   16  A    between atoms: C_40  and  C_41 
REMARK   17  A    between atoms: C_41  and  C_42 
REMARK   18  A    between atoms: C_42  and  O_44 
REMARK   19  A    between atoms: C_45  and  C_46 
REMARK   20  A    between atoms: C_46  and  C_47 
REMARK   21  A    between atoms: C_47  and  O_49 
REMARK   22  A    between atoms: C_50  and  C_51 
REMARK   23  A    between atoms: C_51  and  C_52 
REMARK   24  A    between atoms: C_52  and  O_54 
REMARK   25  A    between atoms: C_55  and  C_56 
REMARK   26  A    between atoms: C_56  and  C_57 
REMARK   27  A    between atoms: C_57  and  C_58 
REMARK   28  A    between atoms: C_58  and  O_60 
ROOT
ATOM      1  O   UNK d   0      -1.167   3.351  29.175  0.00  0.00    -0.650 OA
ATOM      2  C   UNK d   0      -0.110   2.911  28.671  0.00  0.00     0.139 C 
ENDROOT
BRANCH   2   3
ATOM      3  O   UNK d   0       1.014   3.700  28.666  0.00  0.00    -0.776 OA
ATOM      4  H   UNK d   0       0.998   4.638  28.260  0.00  0.00     0.167 HD
ENDBRANCH   2   3
BRANCH   2   5
ATOM      5  C   UNK d   0      -0.076   1.542  28.083  0.00  0.00     0.115 C 
BRANCH   5   6
ATOM      6  C   UNK d   0       0.131   0.518  29.166  0.00  0.00     0.052 C 
BRANCH   6   7
ATOM      7  C   UNK d   0      -0.650  -0.751  28.922  0.00  0.00    -0.020 A 
ATOM      8  C   UNK d   0      -0.276  -1.980  29.175  0.00  0.00    -0.011 A 
ATOM      9  C   UNK d   0      -1.353  -2.866  28.766  0.00  0.00     0.067 A 
ATOM     10  C   UNK d   0      -1.588  -4.249  28.784  0.00  0.00     0.062 C 
ATOM     11  N   UNK d   0      -2.342  -2.092  28.270  0.00  0.00    -0.248 NA
ATOM     12  C   UNK d   0      -2.811  -4.903  28.600  0.00  0.00     0.041 A 
ATOM     13  N   UNK d   0      -3.807  -4.690  27.719  0.00  0.00    -0.355 N 
ATOM     14  C   UNK d   0      -3.167  -5.942  29.480  0.00  0.00    -0.022 A 
ATOM     15  C   UNK d   0      -4.787  -5.562  28.021  0.00  0.00     0.042 A 
ATOM     16  H   UNK d   0      -3.808  -3.952  26.887  0.00  0.00     0.166 HD
ATOM     17  C   UNK d   0      -6.045  -5.767  27.419  0.00  0.00     0.062 C 
ATOM     18  C   UNK d   0      -4.423  -6.363  29.120  0.00  0.00    -0.013 A 
ATOM     19  C   UNK d   0      -6.970  -4.838  27.015  0.00  0.00     0.067 A 
ATOM     20  N   UNK d   0      -6.577  -3.562  26.997  0.00  0.00    -0.248 NA
ATOM     21  C   UNK d   0      -8.358  -4.864  26.587  0.00  0.00    -0.011 A 
ATOM     22  C   UNK d   0      -7.608  -2.751  26.589  0.00  0.00     0.066 A 
ATOM     23  C   UNK d   0      -7.325  -1.397  26.488  0.00  0.00     0.062 C 
ATOM     24  C   UNK d   0      -8.727  -3.639  26.343  0.00  0.00    -0.020 A 
ATOM     25  C   UNK d   0      -6.086  -0.762  26.665  0.00  0.00     0.041 A 
ATOM     26  N   UNK d   0      -5.103  -0.964  27.551  0.00  0.00    -0.355 N 
ATOM     27  C   UNK d   0      -5.728   0.278  25.779  0.00  0.00    -0.022 A 
ATOM     28  C   UNK d   0      -4.127  -0.090  27.257  0.00  0.00     0.042 A 
ATOM     29  H   UNK d   0      -5.108  -1.699  28.393  0.00  0.00     0.166 HD
ATOM     30  C   UNK d   0      -2.876   0.131  27.853  0.00  0.00     0.062 C 
ATOM     31  C   UNK d   0      -4.490   0.708  26.146  0.00  0.00    -0.013 A 
ATOM     32  C   UNK d   0      -1.981  -0.810  28.337  0.00  0.00     0.066 A 
BRANCH   8  33
ATOM     33  C   UNK d   0       1.006  -2.411  29.762  0.00  0.00     0.151 C 
BRANCH  33  34
ATOM     34  C   UNK d   0       0.876  -2.832  31.169  0.00  0.00     0.143 C 
ATOM     35  O   UNK d   0       0.091  -2.255  31.936  0.00  0.00    -0.650 OA
BRANCH  34  36
ATOM     36  O   UNK d   0       1.638  -3.878  31.635  0.00  0.00    -0.776 OA
ATOM     37  H   UNK d   0       2.665  -3.817  31.668  0.00  0.00     0.167 HD
ENDBRANCH  34  36
ENDBRANCH  33  34
ENDBRANCH   8  33
BRANCH  31  38
ATOM     38  C   UNK d   0      -3.692   1.802  25.475  0.00  0.00     0.151 C 
BRANCH  38  39
ATOM     39  C   UNK d   0      -3.886   3.097  26.091  0.00  0.00     0.143 C 
ATOM     40  O   UNK d   0      -4.703   3.926  25.654  0.00  0.00    -0.650 OA
BRANCH  39  41
ATOM     41  O   UNK d   0      -3.137   3.441  27.216  0.00  0.00    -0.776 OA
ATOM     42  H   UNK d   0      -3.631   3.934  27.967  0.00  0.00     0.167 HD
ENDBRANCH  39  41
ENDBRANCH  38  39
ENDBRANCH  31  38
BRANCH  27  43
ATOM     43  C   UNK d   0      -6.504   0.864  24.626  0.00  0.00     0.052 C 
BRANCH  43  44
ATOM     44  C   UNK d   0      -7.777   1.524  25.045  0.00  0.00     0.115 C 
BRANCH  44  45
ATOM     45  C   UNK d   0      -7.597   2.980  24.812  0.00  0.00     0.139 C 
ATOM     46  O   UNK d   0      -8.238   3.780  25.538  0.00  0.00    -0.650 OA
BRANCH  45  47
ATOM     47  O   UNK d   0      -6.756   3.483  23.842  0.00  0.00    -0.776 OA
ATOM     48  H   UNK d   0      -6.976   4.333  23.296  0.00  0.00     0.167 HD
ENDBRANCH  45  47
ENDBRANCH  44  45
ENDBRANCH  43  44
ENDBRANCH  27  43
BRANCH  24  49
ATOM     49  C   UNK d   0     -10.047  -3.212  25.848  0.00  0.00     0.052 C 
BRANCH  49  50
ATOM     50  C   UNK d   0     -10.719  -2.315  26.855  0.00  0.00     0.115 C 
BRANCH  50  51
ATOM     51  C   UNK d   0     -11.617  -2.946  27.813  0.00  0.00     0.139 C 
ATOM     52  O   UNK d   0     -11.822  -4.183  27.834  0.00  0.00    -0.650 OA
BRANCH  51  53
ATOM     53  O   UNK d   0     -12.283  -2.167  28.746  0.00  0.00    -0.776 OA
ATOM     54  H   UNK d   0     -13.247  -2.376  28.939  0.00  0.00     0.167 HD
ENDBRANCH  51  53
ENDBRANCH  50  51
ENDBRANCH  49  50
ENDBRANCH  24  49
BRANCH  21  55
ATOM     55  C   UNK d   0      -9.170  -6.110  26.462  0.00  0.00     0.151 C 
BRANCH  55  56
ATOM     56  C   UNK d   0      -9.055  -6.712  25.125  0.00  0.00     0.143 C 
ATOM     57  O   UNK d   0      -8.042  -7.335  24.750  0.00  0.00    -0.650 OA
BRANCH  56  58
ATOM     58  O   UNK d   0     -10.133  -6.569  24.253  0.00  0.00    -0.776 OA
ATOM     59  H   UNK d   0     -10.938  -7.192  24.450  0.00  0.00     0.167 HD
ENDBRANCH  56  58
ENDBRANCH  55  56
ENDBRANCH  21  55
BRANCH  18  60
ATOM     60  C   UNK d   0      -5.196  -7.462  29.807  0.00  0.00     0.151 C 
BRANCH  60  61
ATOM     61  C   UNK d   0      -5.056  -8.650  28.952  0.00  0.00     0.143 C 
ATOM     62  O   UNK d   0      -4.011  -9.224  28.645  0.00  0.00    -0.650 OA
BRANCH  61  63
ATOM     63  O   UNK d   0      -6.269  -9.169  28.439  0.00  0.00    -0.776 OA
ATOM     64  H   UNK d   0      -6.622  -8.876  27.545  0.00  0.00     0.167 HD
ENDBRANCH  61  63
ENDBRANCH  60  61
ENDBRANCH  18  60
BRANCH  14  65
ATOM     65  C   UNK d   0      -2.377  -6.626  30.560  0.00  0.00     0.052 C 
BRANCH  65  66
ATOM     66  C   UNK d   0      -2.703  -6.126  31.923  0.00  0.00     0.115 C 
BRANCH  66  67
ATOM     67  C   UNK d   0      -1.799  -5.230  32.587  0.00  0.00     0.139 C 
ATOM     68  O   UNK d   0      -0.572  -5.588  32.726  0.00  0.00    -0.650 OA
BRANCH  67  69
ATOM     69  O   UNK d   0      -2.082  -3.974  33.123  0.00  0.00    -0.776 OA
ATOM     70  H   UNK d   0      -2.713  -3.381  32.565  0.00  0.00     0.167 HD
ENDBRANCH  67  69
ENDBRANCH  66  67
ENDBRANCH  65  66
ENDBRANCH  14  65
ENDBRANCH   6   7
ENDBRANCH   5   6
ENDBRANCH   2   5
TORSDOF 28
ENDMDL
MODEL 3
REMARK VINA RESULT:     -10.0      1.797      7.796
REMARK  28 active torsions:
REMARK  status: ('A' for Active; 'I' for Inactive)
REMARK    1  A    between atoms: C_2  and  O_3 
REMARK    2  A    between atoms: C_2  and  C_4 
REMARK    3  A    between atoms: C_4  and  C_5 
REMARK    4  A    between atoms: C_5  and  C_6 
REMARK    5  A    between atoms: C_7  and  C_8 
REMARK    6  A    between atoms: C_8  and  C_9 
REMARK    7  A    between atoms: C_9  and  O_11 
REMARK    8  A    between atoms: C_28  and  C_29 
REMARK    9  A    between atoms: C_29  and  C_30 
REMARK   10  A    between atoms: C_30  and  O_32 
REMARK   11  A    between atoms: C_33  and  C_34 
REMARK   12  A    between atoms: C_34  and  C_35 
REMARK   13  A    between atoms: C_35  and  C_36 
REMARK   14  A    between atoms: C_36  and  O_38 
REMARK   15  A    between atoms: C_39  and  C_40 
REMARK   16  A    between atoms: C_40  and  C_41 
REMARK   17  A    between atoms: C_41  and  C_42 
REMARK   18  A    between atoms: C_42  and  O_44 
REMARK   19  A    between atoms: C_45  and  C_46 
REMARK   20  A    between atoms: C_46  and  C_47 
REMARK   21  A    between atoms: C_47  and  O_49 
REMARK   22  A    between atoms: C_50  and  C_51 
REMARK   23  A    between atoms: C_51  and  C_52 
REMARK   24  A    between atoms: C_52  and  O_54 
REMARK   25  A    between atoms: C_55  and  C_56 
REMARK   26  A    between atoms: C_56  and  C_57 
REMARK   27  A    between atoms: C_57  and  C_58 
REMARK   28  A    between atoms: C_58  and  O_60 
ROOT
ATOM      1  O   UNK d   0       3.300   0.386  28.616  0.00  0.00    -0.650 OA
ATOM      2  C   UNK d   0       2.384   1.194  28.342  0.00  0.00     0.139 C 
ENDROOT
BRANCH   2   3
ATOM      3  O   UNK d   0       2.628   2.543  28.431  0.00  0.00    -0.776 OA
ATOM      4  H   UNK d   0       3.577   2.901  28.558  0.00  0.00     0.167 HD
ENDBRANCH   2   3
BRANCH   2   5
ATOM      5  C   UNK d   0       1.044   0.693  27.925  0.00  0.00     0.115 C 
BRANCH   5   6
ATOM      6  C   UNK d   0       0.252   0.268  29.132  0.00  0.00     0.052 C 
BRANCH   6   7
ATOM      7  C   UNK d   0      -0.572  -0.972  28.880  0.00  0.00    -0.020 A 
ATOM      8  C   UNK d   0      -0.226  -2.216  29.090  0.00  0.00    -0.011 A 
ATOM      9  C   UNK d   0      -1.339  -3.061  28.690  0.00  0.00     0.067 A 
ATOM     10  C   UNK d   0      -1.612  -4.438  28.681  0.00  0.00     0.062 C 
ATOM     11  N   UNK d   0      -2.318  -2.248  28.243  0.00  0.00    -0.248 NA
ATOM     12  C   UNK d   0      -2.858  -5.053  28.516  0.00  0.00     0.041 A 
ATOM     13  N   UNK d   0      -3.871  -4.789  27.668  0.00  0.00    -0.355 N 
ATOM     14  C   UNK d   0      -3.219  -6.104  29.379  0.00  0.00    -0.022 A 
ATOM     15  C   UNK d   0      -4.868  -5.641  27.977  0.00  0.00     0.042 A 
ATOM     16  H   UNK d   0      -3.875  -4.030  26.856  0.00  0.00     0.166 HD
ATOM     17  C   UNK d   0      -6.147  -5.795  27.406  0.00  0.00     0.062 C 
ATOM     18  C   UNK d   0      -4.496  -6.480  29.045  0.00  0.00    -0.013 A 
ATOM     19  C   UNK d   0      -7.056  -4.831  27.052  0.00  0.00     0.067 A 
ATOM     20  N   UNK d   0      -6.627  -3.566  27.055  0.00  0.00    -0.248 NA
ATOM     21  C   UNK d   0      -8.456  -4.808  26.663  0.00  0.00    -0.011 A 
ATOM     22  C   UNK d   0      -7.646  -2.717  26.697  0.00  0.00     0.066 A 
ATOM     23  C   UNK d   0      -7.327  -1.369  26.621  0.00  0.00     0.062 C 
ATOM     24  C   UNK d   0      -8.796  -3.567  26.460  0.00  0.00    -0.020 A 
ATOM     25  C   UNK d   0      -6.066  -0.773  26.779  0.00  0.00     0.041 A 
ATOM     26  N   UNK d   0      -5.065  -1.025  27.631  0.00  0.00    -0.355 N 
ATOM     27  C   UNK d   0      -5.704   0.278  25.909  0.00  0.00    -0.022 A 
ATOM     28  C   UNK d   0      -4.073  -0.172  27.331  0.00  0.00     0.042 A 
ATOM     29  H   UNK d   0      -5.067  -1.781  28.454  0.00  0.00     0.166 HD
ATOM     30  C   UNK d   0      -2.800  -0.001  27.896  0.00  0.00     0.062 C 
ATOM     31  C   UNK d   0      -4.444   0.664  26.251  0.00  0.00    -0.013 A 
ATOM     32  C   UNK d   0      -1.920  -0.978  28.331  0.00  0.00     0.066 A 
BRANCH   8  33
ATOM     33  C   UNK d   0       1.059  -2.698  29.630  0.00  0.00     0.151 C 
BRANCH  33  34
ATOM     34  C   UNK d   0       0.996  -2.997  31.072  0.00  0.00     0.143 C 
ATOM     35  O   UNK d   0       1.884  -3.663  31.624  0.00  0.00    -0.650 OA
BRANCH  34  36
ATOM     36  O   UNK d   0      -0.066  -2.530  31.813  0.00  0.00    -0.776 OA
ATOM     37  H   UNK d   0      -1.006  -2.446  31.404  0.00  0.00     0.167 HD
ENDBRANCH  34  36
ENDBRANCH  33  34
ENDBRANCH   8  33
BRANCH  31  38
ATOM     38  C   UNK d   0      -3.634   1.752  25.585  0.00  0.00     0.151 C 
BRANCH  38  39
ATOM     39  C   UNK d   0      -3.709   3.017  26.286  0.00  0.00     0.143 C 
ATOM     40  O   UNK d   0      -4.495   3.919  25.947  0.00  0.00    -0.650 OA
BRANCH  39  41
ATOM     41  O   UNK d   0      -2.877   3.245  27.381  0.00  0.00    -0.776 OA
ATOM     42  H   UNK d   0      -3.328   3.294  28.300  0.00  0.00     0.167 HD
ENDBRANCH  39  41
ENDBRANCH  38  39
ENDBRANCH  31  38
BRANCH  27  43
ATOM     43  C   UNK d   0      -6.494   0.915  24.793  0.00  0.00     0.052 C 
BRANCH  43  44
ATOM     44  C   UNK d   0      -7.679   1.688  25.275  0.00  0.00     0.115 C 
BRANCH  44  45
ATOM     45  C   UNK d   0      -7.501   3.082  24.790  0.00  0.00     0.139 C 
ATOM     46  O   UNK d   0      -8.257   3.970  25.254  0.00  0.00    -0.650 OA
BRANCH  45  47
ATOM     47  O   UNK d   0      -6.544   3.434  23.863  0.00  0.00    -0.776 OA
ATOM     48  H   UNK d   0      -5.944   2.742  23.386  0.00  0.00     0.167 HD
ENDBRANCH  45  47
ENDBRANCH  44  45
ENDBRANCH  43  44
ENDBRANCH  27  43
BRANCH  24  49
ATOM     49  C   UNK d   0     -10.116  -3.091  26.014  0.00  0.00     0.052 C 
BRANCH  49  50
ATOM     50  C   UNK d   0     -10.019  -2.495  24.633  0.00  0.00     0.115 C 
BRANCH  50  51
ATOM     51  C   UNK d   0     -10.786  -1.284  24.376  0.00  0.00     0.139 C 
ATOM     52  O   UNK d   0     -11.926  -1.089  24.861  0.00  0.00    -0.650 OA
BRANCH  51  53
ATOM     53  O   UNK d   0     -10.255  -0.294  23.563  0.00  0.00    -0.776 OA
ATOM     54  H   UNK d   0      -9.294  -0.034  23.697  0.00  0.00     0.167 HD
ENDBRANCH  51  53
ENDBRANCH  50  51
ENDBRANCH  49  50
ENDBRANCH  24  49
BRANCH  21  55
ATOM     55  C   UNK d   0      -9.306  -6.027  26.530  0.00  0.00     0.151 C 
BRANCH  55  56
ATOM     56  C   UNK d   0      -9.280  -6.571  25.164  0.00  0.00     0.143 C 
ATOM     57  O   UNK d   0     -10.194  -6.369  24.339  0.00  0.00    -0.650 OA
BRANCH  56  58
ATOM     58  O   UNK d   0      -8.180  -7.342  24.792  0.00  0.00    -0.776 OA
ATOM     59  H   UNK d   0      -7.267  -6.994  25.137  0.00  0.00     0.167 HD
ENDBRANCH  56  58
ENDBRANCH  55  56
ENDBRANCH  21  55
BRANCH  18  60
ATOM     60  C   UNK d   0      -5.280  -7.574  29.726  0.00  0.00     0.151 C 
BRANCH  60  61
ATOM     61  C   UNK d   0      -5.271  -8.715  28.798  0.00  0.00     0.143 C 
ATOM     62  O   UNK d   0      -6.235  -9.196  28.203  0.00  0.00    -0.650 OA
BRANCH  61  63
ATOM     63  O   UNK d   0      -4.002  -9.306  28.584  0.00  0.00    -0.776 OA
ATOM     64  H   UNK d   0      -3.630  -9.413  27.657  0.00  0.00     0.167 HD
ENDBRANCH  61  63
ENDBRANCH  60  61
ENDBRANCH  18  60
BRANCH  14  65
ATOM     65  C   UNK d   0      -2.420  -6.836  30.419  0.00  0.00     0.052 C 
BRANCH  65  66
ATOM     66  C   UNK d   0      -2.744  -6.412  31.807  0.00  0.00     0.115 C 
BRANCH  66  67
ATOM     67  C   UNK d   0      -2.133  -5.232  32.352  0.00  0.00     0.139 C 
ATOM     68  O   UNK d   0      -2.635  -4.087  32.051  0.00  0.00    -0.650 OA
BRANCH  67  69
ATOM     69  O   UNK d   0      -1.025  -5.156  33.195  0.00  0.00    -0.776 OA
ATOM     70  H   UNK d   0      -0.107  -5.257  32.738  0.00  0.00     0.167 HD
ENDBRANCH  67  69
ENDBRANCH  66  67
ENDBRANCH  65  66
ENDBRANCH  14  65
ENDBRANCH   6   7
ENDBRANCH   5   6
ENDBRANCH   2   5
TORSDOF 28
ENDMDL
MODEL 4
REMARK VINA RESULT:      -9.9      1.698      9.467
REMARK  28 active torsions:
REMARK  status: ('A' for Active; 'I' for Inactive)
REMARK    1  A    between atoms: C_2  and  O_3 
REMARK    2  A    between atoms: C_2  and  C_4 
REMARK    3  A    between atoms: C_4  and  C_5 
REMARK    4  A    between atoms: C_5  and  C_6 
REMARK    5  A    between atoms: C_7  and  C_8 
REMARK    6  A    between atoms: C_8  and  C_9 
REMARK    7  A    between atoms: C_9  and  O_11 
REMARK    8  A    between atoms: C_28  and  C_29 
REMARK    9  A    between atoms: C_29  and  C_30 
REMARK   10  A    between atoms: C_30  and  O_32 
REMARK   11  A    between atoms: C_33  and  C_34 
REMARK   12  A    between atoms: C_34  and  C_35 
REMARK   13  A    between atoms: C_35  and  C_36 
REMARK   14  A    between atoms: C_36  and  O_38 
REMARK   15  A    between atoms: C_39  and  C_40 
REMARK   16  A    between atoms: C_40  and  C_41 
REMARK   17  A    between atoms: C_41  and  C_42 
REMARK   18  A    between atoms: C_42  and  O_44 
REMARK   19  A    between atoms: C_45  and  C_46 
REMARK   20  A    between atoms: C_46  and  C_47 
REMARK   21  A    between atoms: C_47  and  O_49 
REMARK   22  A    between atoms: C_50  and  C_51 
REMARK   23  A    between atoms: C_51  and  C_52 
REMARK   24  A    between atoms: C_52  and  O_54 
REMARK   25  A    between atoms: C_55  and  C_56 
REMARK   26  A    between atoms: C_56  and  C_57 
REMARK   27  A    between atoms: C_57  and  C_58 
REMARK   28  A    between atoms: C_58  and  O_60 
ROOT
ATOM      1  O   UNK d   0      -7.628  -9.974  26.700  0.00  0.00    -0.650 OA
ATOM      2  C   UNK d   0      -6.653 -10.160  27.462  0.00  0.00     0.139 C 
ENDROOT
BRANCH   2   3
ATOM      3  O   UNK d   0      -5.898 -11.300  27.323  0.00  0.00    -0.776 OA
ATOM      4  H   UNK d   0      -5.419 -11.512  26.445  0.00  0.00     0.167 HD
ENDBRANCH   2   3
BRANCH   2   5
ATOM      5  C   UNK d   0      -6.318  -9.153  28.508  0.00  0.00     0.115 C 
BRANCH   5   6
ATOM      6  C   UNK d   0      -4.826  -9.060  28.678  0.00  0.00     0.052 C 
BRANCH   6   7
ATOM      7  C   UNK d   0      -4.351  -7.640  28.868  0.00  0.00    -0.020 A 
ATOM      8  C   UNK d   0      -3.405  -7.215  29.666  0.00  0.00    -0.011 A 
ATOM      9  C   UNK d   0      -3.309  -5.773  29.514  0.00  0.00     0.067 A 
ATOM     10  C   UNK d   0      -2.511  -4.749  30.048  0.00  0.00     0.062 C 
ATOM     11  N   UNK d   0      -4.238  -5.403  28.608  0.00  0.00    -0.248 NA
ATOM     12  C   UNK d   0      -2.379  -3.440  29.570  0.00  0.00     0.041 A 
ATOM     13  N   UNK d   0      -3.298  -2.565  29.119  0.00  0.00    -0.355 N 
ATOM     14  C   UNK d   0      -1.092  -2.883  29.458  0.00  0.00    -0.022 A 
ATOM     15  C   UNK d   0      -2.626  -1.470  28.716  0.00  0.00     0.042 A 
ATOM     16  H   UNK d   0      -4.400  -2.710  29.104  0.00  0.00     0.166 HD
ATOM     17  C   UNK d   0      -3.096  -0.261  28.166  0.00  0.00     0.062 C 
ATOM     18  C   UNK d   0      -1.241  -1.632  28.913  0.00  0.00    -0.013 A 
ATOM     19  C   UNK d   0      -4.036  -0.067  27.186  0.00  0.00     0.067 A 
ATOM     20  N   UNK d   0      -4.759  -1.130  26.823  0.00  0.00    -0.248 NA
ATOM     21  C   UNK d   0      -4.479   1.050  26.370  0.00  0.00    -0.011 A 
ATOM     22  C   UNK d   0      -5.642  -0.789  25.828  0.00  0.00     0.066 A 
ATOM     23  C   UNK d   0      -6.485  -1.795  25.380  0.00  0.00     0.062 C 
ATOM     24  C   UNK d   0      -5.416   0.621  25.574  0.00  0.00    -0.020 A 
ATOM     25  C   UNK d   0      -6.611  -3.099  25.883  0.00  0.00     0.041 A 
ATOM     26  N   UNK d   0      -5.697  -3.975  26.317  0.00  0.00    -0.355 N 
ATOM     27  C   UNK d   0      -7.903  -3.656  25.999  0.00  0.00    -0.022 A 
ATOM     28  C   UNK d   0      -6.364  -5.071  26.711  0.00  0.00     0.042 A 
ATOM     29  H   UNK d   0      -4.589  -3.831  26.322  0.00  0.00     0.166 HD
ATOM     30  C   UNK d   0      -5.908  -6.284  27.252  0.00  0.00     0.062 C 
ATOM     31  C   UNK d   0      -7.756  -4.903  26.524  0.00  0.00    -0.013 A 
ATOM     32  C   UNK d   0      -4.898  -6.480  28.181  0.00  0.00     0.066 A 
BRANCH   8  33
ATOM     33  C   UNK d   0      -2.575  -8.033  30.570  0.00  0.00     0.151 C 
BRANCH  33  34
ATOM     34  C   UNK d   0      -1.229  -8.294  30.029  0.00  0.00     0.143 C 
ATOM     35  O   UNK d   0      -0.963  -8.057  28.842  0.00  0.00    -0.650 OA
BRANCH  34  36
ATOM     36  O   UNK d   0      -0.257  -8.810  30.855  0.00  0.00    -0.776 OA
ATOM     37  H   UNK d   0      -0.495  -9.213  31.772  0.00  0.00     0.167 HD
ENDBRANCH  34  36
ENDBRANCH  33  34
ENDBRANCH   8  33
BRANCH  31  38
ATOM     38  C   UNK d   0      -8.870  -5.874  26.840  0.00  0.00     0.151 C 
BRANCH  38  39
ATOM     39  C   UNK d   0      -9.308  -6.623  25.682  0.00  0.00     0.143 C 
ATOM     40  O   UNK d   0     -10.417  -6.437  25.150  0.00  0.00    -0.650 OA
BRANCH  39  41
ATOM     41  O   UNK d   0      -8.468  -7.590  25.131  0.00  0.00    -0.776 OA
ATOM     42  H   UNK d   0      -8.656  -7.868  24.163  0.00  0.00     0.167 HD
ENDBRANCH  39  41
ENDBRANCH  38  39
ENDBRANCH  31  38
BRANCH  27  43
ATOM     43  C   UNK d   0      -9.240  -3.059  25.637  0.00  0.00     0.052 C 
BRANCH  43  44
ATOM     44  C   UNK d   0      -9.889  -2.331  26.769  0.00  0.00     0.115 C 
BRANCH  44  45
ATOM     45  C   UNK d   0     -11.203  -2.986  26.998  0.00  0.00     0.139 C 
ATOM     46  O   UNK d   0     -11.841  -2.685  28.037  0.00  0.00    -0.650 OA
BRANCH  45  47
ATOM     47  O   UNK d   0     -11.746  -3.898  26.120  0.00  0.00    -0.776 OA
ATOM     48  H   UNK d   0     -11.344  -4.837  25.968  0.00  0.00     0.167 HD
ENDBRANCH  45  47
ENDBRANCH  44  45
ENDBRANCH  43  44
ENDBRANCH  27  43
BRANCH  24  49
ATOM     49  C   UNK d   0      -6.171   1.432  24.604  0.00  0.00     0.052 C 
BRANCH  49  50
ATOM     50  C   UNK d   0      -7.267   2.197  25.300  0.00  0.00     0.115 C 
BRANCH  50  51
ATOM     51  C   UNK d   0      -7.357   3.626  25.030  0.00  0.00     0.139 C 
ATOM     52  O   UNK d   0      -6.706   4.479  25.678  0.00  0.00    -0.650 OA
BRANCH  51  53
ATOM     53  O   UNK d   0      -8.190   4.082  24.020  0.00  0.00    -0.776 OA
ATOM     54  H   UNK d   0      -7.922   4.912  23.521  0.00  0.00     0.167 HD
ENDBRANCH  51  53
ENDBRANCH  50  51
ENDBRANCH  49  50
ENDBRANCH  24  49
BRANCH  21  55
ATOM     55  C   UNK d   0      -3.924   2.432  26.473  0.00  0.00     0.151 C 
BRANCH  55  56
ATOM     56  C   UNK d   0      -2.572   2.527  25.900  0.00  0.00     0.143 C 
ATOM     57  O   UNK d   0      -1.538   2.398  26.584  0.00  0.00    -0.650 OA
BRANCH  56  58
ATOM     58  O   UNK d   0      -2.463   2.773  24.532  0.00  0.00    -0.776 OA
ATOM     59  H   UNK d   0      -3.105   3.499  24.167  0.00  0.00     0.167 HD
ENDBRANCH  56  58
ENDBRANCH  55  56
ENDBRANCH  21  55
BRANCH  18  60
ATOM     60  C   UNK d   0      -0.109  -0.682  28.610  0.00  0.00     0.151 C 
BRANCH  60  61
ATOM     61  C   UNK d   0      -0.220   0.405  29.595  0.00  0.00     0.143 C 
ATOM     62  O   UNK d   0      -0.315   0.292  30.817  0.00  0.00    -0.650 OA
BRANCH  61  63
ATOM     63  O   UNK d   0      -0.214   1.713  29.052  0.00  0.00    -0.776 OA
ATOM     64  H   UNK d   0      -0.117   2.519  29.644  0.00  0.00     0.167 HD
ENDBRANCH  61  63
ENDBRANCH  60  61
ENDBRANCH  18  60
BRANCH  14  65
ATOM     65  C   UNK d   0       0.243  -3.399  29.913  0.00  0.00     0.052 C 
BRANCH  65  66
ATOM     66  C   UNK d   0       0.622  -2.916  31.268  0.00  0.00     0.115 C 
BRANCH  66  67
ATOM     67  C   UNK d   0       0.086  -3.564  32.431  0.00  0.00     0.139 C 
ATOM     68  O   UNK d   0       0.709  -4.583  32.908  0.00  0.00    -0.650 OA
BRANCH  67  69
ATOM     69  O   UNK d   0      -1.065  -3.227  33.142  0.00  0.00    -0.776 OA
ATOM     70  H   UNK d   0      -1.201  -3.721  34.035  0.00  0.00     0.167 HD
ENDBRANCH  67  69
ENDBRANCH  66  67
ENDBRANCH  65  66
ENDBRANCH  14  65
ENDBRANCH   6   7
ENDBRANCH   5   6
ENDBRANCH   2   5
TORSDOF 28
ENDMDL
MODEL 5
REMARK VINA RESULT:      -9.9      1.483     10.748
REMARK  28 active torsions:
REMARK  status: ('A' for Active; 'I' for Inactive)
REMARK    1  A    between atoms: C_2  and  O_3 
REMARK    2  A    between atoms: C_2  and  C_4 
REMARK    3  A    between atoms: C_4  and  C_5 
REMARK    4  A    between atoms: C_5  and  C_6 
REMARK    5  A    between atoms: C_7  and  C_8 
REMARK    6  A    between atoms: C_8  and  C_9 
REMARK    7  A    between atoms: C_9  and  O_11 
REMARK    8  A    between atoms: C_28  and  C_29 
REMARK    9  A    between atoms: C_29  and  C_30 
REMARK   10  A    between atoms: C_30  and  O_32 
REMARK   11  A    between atoms: C_33  and  C_34 
REMARK   12  A    between atoms: C_34  and  C_35 
REMARK   13  A    between atoms: C_35  and  C_36 
REMARK   14  A    between atoms: C_36  and  O_38 
REMARK   15  A    between atoms: C_39  and  C_40 
REMARK   16  A    between atoms: C_40  and  C_41 
REMARK   17  A    between atoms: C_41  and  C_42 
REMARK   18  A    between atoms: C_42  and  O_44 
REMARK   19  A    between atoms: C_45  and  C_46 
REMARK   20  A    between atoms: C_46  and  C_47 
REMARK   21  A    between atoms: C_47  and  O_49 
REMARK   22  A    between atoms: C_50  and  C_51 
REMARK   23  A    between atoms: C_51  and  C_52 
REMARK   24  A    between atoms: C_52  and  O_54 
REMARK   25  A    between atoms: C_55  and  C_56 
REMARK   26  A    between atoms: C_56  and  C_57 
REMARK   27  A    between atoms: C_57  and  C_58 
REMARK   28  A    between atoms: C_58  and  O_60 
ROOT
ATOM      1  O   UNK d   0     -10.124  -4.918  25.373  0.00  0.00    -0.650 OA
ATOM      2  C   UNK d   0      -9.739  -6.106  25.447  0.00  0.00     0.139 C 
ENDROOT
BRANCH   2   3
ATOM      3  O   UNK d   0      -9.877  -6.928  24.354  0.00  0.00    -0.776 OA
ATOM      4  H   UNK d   0      -9.397  -7.830  24.309  0.00  0.00     0.167 HD
ENDBRANCH   2   3
BRANCH   2   5
ATOM      5  C   UNK d   0      -9.138  -6.620  26.710  0.00  0.00     0.115 C 
BRANCH   5   6
ATOM      6  C   UNK d   0      -7.875  -7.381  26.410  0.00  0.00     0.052 C 
BRANCH   6   7
ATOM      7  C   UNK d   0      -6.705  -6.916  27.244  0.00  0.00    -0.020 A 
ATOM      8  C   UNK d   0      -6.081  -7.579  28.184  0.00  0.00    -0.011 A 
ATOM      9  C   UNK d   0      -5.029  -6.724  28.708  0.00  0.00     0.067 A 
ATOM     10  C   UNK d   0      -4.023  -6.837  29.680  0.00  0.00     0.062 C 
ATOM     11  N   UNK d   0      -5.088  -5.557  28.033  0.00  0.00    -0.248 NA
ATOM     12  C   UNK d   0      -2.916  -5.999  29.855  0.00  0.00     0.041 A 
ATOM     13  N   UNK d   0      -2.805  -4.658  29.815  0.00  0.00    -0.355 N 
ATOM     14  C   UNK d   0      -1.650  -6.578  30.059  0.00  0.00    -0.022 A 
ATOM     15  C   UNK d   0      -1.499  -4.371  29.981  0.00  0.00     0.042 A 
ATOM     16  H   UNK d   0      -3.634  -3.927  29.692  0.00  0.00     0.166 HD
ATOM     17  C   UNK d   0      -0.835  -3.129  30.022  0.00  0.00     0.062 C 
ATOM     18  C   UNK d   0      -0.744  -5.549  30.136  0.00  0.00    -0.013 A 
ATOM     19  C   UNK d   0      -0.989  -2.041  29.201  0.00  0.00     0.067 A 
ATOM     20  N   UNK d   0      -2.031  -2.056  28.366  0.00  0.00    -0.248 NA
ATOM     21  C   UNK d   0      -0.270  -0.800  28.966  0.00  0.00    -0.011 A 
ATOM     22  C   UNK d   0      -2.045  -0.915  27.602  0.00  0.00     0.066 A 
ATOM     23  C   UNK d   0      -3.102  -0.782  26.713  0.00  0.00     0.062 C 
ATOM     24  C   UNK d   0      -0.891  -0.148  28.026  0.00  0.00    -0.020 A 
ATOM     25  C   UNK d   0      -4.211  -1.628  26.562  0.00  0.00     0.041 A 
ATOM     26  N   UNK d   0      -4.320  -2.962  26.586  0.00  0.00    -0.355 N 
ATOM     27  C   UNK d   0      -5.482  -1.046  26.362  0.00  0.00    -0.022 A 
ATOM     28  C   UNK d   0      -5.619  -3.251  26.413  0.00  0.00     0.042 A 
ATOM     29  H   UNK d   0      -3.484  -3.695  26.699  0.00  0.00     0.166 HD
ATOM     30  C   UNK d   0      -6.292  -4.482  26.360  0.00  0.00     0.062 C 
ATOM     31  C   UNK d   0      -6.379  -2.066  26.267  0.00  0.00    -0.013 A 
ATOM     32  C   UNK d   0      -6.075  -5.609  27.137  0.00  0.00     0.066 A 
BRANCH   8  33
ATOM     33  C   UNK d   0      -6.379  -8.946  28.649  0.00  0.00     0.151 C 
BRANCH  33  34
ATOM     34  C   UNK d   0      -5.717  -9.982  27.835  0.00  0.00     0.143 C 
ATOM     35  O   UNK d   0      -4.512 -10.233  27.981  0.00  0.00    -0.650 OA
BRANCH  34  36
ATOM     36  O   UNK d   0      -6.450 -10.677  26.901  0.00  0.00    -0.776 OA
ATOM     37  H   UNK d   0      -6.367 -11.699  26.809  0.00  0.00     0.167 HD
ENDBRANCH  34  36
ENDBRANCH  33  34
ENDBRANCH   8  33
BRANCH  31  38
ATOM     38  C   UNK d   0      -7.870  -1.926  26.064  0.00  0.00     0.151 C 
BRANCH  38  39
ATOM     39  C   UNK d   0      -8.618  -2.045  27.297  0.00  0.00     0.143 C 
ATOM     40  O   UNK d   0      -8.311  -1.417  28.325  0.00  0.00    -0.650 OA
BRANCH  39  41
ATOM     41  O   UNK d   0      -9.727  -2.889  27.348  0.00  0.00    -0.776 OA
ATOM     42  H   UNK d   0     -10.579  -2.560  26.884  0.00  0.00     0.167 HD
ENDBRANCH  39  41
ENDBRANCH  38  39
ENDBRANCH  31  38
BRANCH  27  43
ATOM     43  C   UNK d   0      -5.864   0.409  26.258  0.00  0.00     0.052 C 
BRANCH  43  44
ATOM     44  C   UNK d   0      -5.732   0.957  24.875  0.00  0.00     0.115 C 
BRANCH  44  45
ATOM     45  C   UNK d   0      -4.628   1.952  24.916  0.00  0.00     0.139 C 
ATOM     46  O   UNK d   0      -4.497   2.647  25.954  0.00  0.00    -0.650 OA
BRANCH  45  47
ATOM     47  O   UNK d   0      -3.747   2.134  23.872  0.00  0.00    -0.776 OA
ATOM     48  H   UNK d   0      -3.955   2.741  23.063  0.00  0.00     0.167 HD
ENDBRANCH  45  47
ENDBRANCH  44  45
ENDBRANCH  43  44
ENDBRANCH  27  43
BRANCH  24  49
ATOM     49  C   UNK d   0      -0.524   1.179  27.501  0.00  0.00     0.052 C 
BRANCH  49  50
ATOM     50  C   UNK d   0      -1.419   2.241  28.088  0.00  0.00     0.115 C 
BRANCH  50  51
ATOM     51  C   UNK d   0      -0.905   2.989  29.227  0.00  0.00     0.139 C 
ATOM     52  O   UNK d   0      -0.043   3.892  29.108  0.00  0.00    -0.650 OA
BRANCH  51  53
ATOM     53  O   UNK d   0      -1.371   2.707  30.501  0.00  0.00    -0.776 OA
ATOM     54  H   UNK d   0      -2.263   3.080  30.775  0.00  0.00     0.167 HD
ENDBRANCH  51  53
ENDBRANCH  50  51
ENDBRANCH  49  50
ENDBRANCH  24  49
BRANCH  21  55
ATOM     55  C   UNK d   0       0.960  -0.394  29.708  0.00  0.00     0.151 C 
BRANCH  55  56
ATOM     56  C   UNK d   0       0.761  -0.426  31.165  0.00  0.00     0.143 C 
ATOM     57  O   UNK d   0       1.298  -1.277  31.901  0.00  0.00    -0.650 OA
BRANCH  56  58
ATOM     58  O   UNK d   0      -0.066   0.544  31.728  0.00  0.00    -0.776 OA
ATOM     59  H   UNK d   0      -0.372   1.289  31.076  0.00  0.00     0.167 HD
ENDBRANCH  56  58
ENDBRANCH  55  56
ENDBRANCH  21  55
BRANCH  18  60
ATOM     60  C   UNK d   0       0.740  -5.719  30.343  0.00  0.00     0.151 C 
BRANCH  60  61
ATOM     61  C   UNK d   0       1.030  -5.156  31.671  0.00  0.00     0.143 C 
ATOM     62  O   UNK d   0       0.506  -5.469  32.740  0.00  0.00    -0.650 OA
BRANCH  61  63
ATOM     63  O   UNK d   0       2.023  -4.147  31.694  0.00  0.00    -0.776 OA
ATOM     64  H   UNK d   0       1.773  -3.174  31.725  0.00  0.00     0.167 HD
ENDBRANCH  61  63
ENDBRANCH  60  61
ENDBRANCH  18  60
BRANCH  14  65
ATOM     65  C   UNK d   0      -1.250  -8.009  30.282  0.00  0.00     0.052 C 
BRANCH  65  66
ATOM     66  C   UNK d   0      -0.985  -8.322  31.711  0.00  0.00     0.115 C 
BRANCH  66  67
ATOM     67  C   UNK d   0      -1.976  -8.014  32.704  0.00  0.00     0.139 C 
ATOM     68  O   UNK d   0      -2.832  -8.921  33.018  0.00  0.00    -0.650 OA
BRANCH  67  69
ATOM     69  O   UNK d   0      -2.144  -6.818  33.399  0.00  0.00    -0.776 OA
ATOM     70  H   UNK d   0      -3.082  -6.657  33.794  0.00  0.00     0.167 HD
ENDBRANCH  67  69
ENDBRANCH  66  67
ENDBRANCH  65  66
ENDBRANCH  14  65
ENDBRANCH   6   7
ENDBRANCH   5   6
ENDBRANCH   2   5
TORSDOF 28
ENDMDL
MODEL 6
REMARK VINA RESULT:      -9.8      1.651      7.655
REMARK  28 active torsions:
REMARK  status: ('A' for Active; 'I' for Inactive)
REMARK    1  A    between atoms: C_2  and  O_3 
REMARK    2  A    between atoms: C_2  and  C_4 
REMARK    3  A    between atoms: C_4  and  C_5 
REMARK    4  A    between atoms: C_5  and  C_6 
REMARK    5  A    between atoms: C_7  and  C_8 
REMARK    6  A    between atoms: C_8  and  C_9 
REMARK    7  A    between atoms: C_9  and  O_11 
REMARK    8  A    between atoms: C_28  and  C_29 
REMARK    9  A    between atoms: C_29  and  C_30 
REMARK   10  A    between atoms: C_30  and  O_32 
REMARK   11  A    between atoms: C_33  and  C_34 
REMARK   12  A    between atoms: C_34  and  C_35 
REMARK   13  A    between atoms: C_35  and  C_36 
REMARK   14  A    between atoms: C_36  and  O_38 
REMARK   15  A    between atoms: C_39  and  C_40 
REMARK   16  A    between atoms: C_40  and  C_41 
REMARK   17  A    between atoms: C_41  and  C_42 
REMARK   18  A    between atoms: C_42  and  O_44 
REMARK   19  A    between atoms: C_45  and  C_46 
REMARK   20  A    between atoms: C_46  and  C_47 
REMARK   21  A    between atoms: C_47  and  O_49 
REMARK   22  A    between atoms: C_50  and  C_51 
REMARK   23  A    between atoms: C_51  and  C_52 
REMARK   24  A    between atoms: C_52  and  O_54 
REMARK   25  A    between atoms: C_55  and  C_56 
REMARK   26  A    between atoms: C_56  and  C_57 
REMARK   27  A    between atoms: C_57  and  C_58 
REMARK   28  A    between atoms: C_58  and  O_60 
ROOT
ATOM      1  O   UNK d   0       1.506  -9.843  30.163  0.00  0.00    -0.650 OA
ATOM      2  C   UNK d   0       0.329 -10.061  30.528  0.00  0.00     0.139 C 
ENDROOT
BRANCH   2   3
ATOM      3  O   UNK d   0       0.091 -10.979  31.522  0.00  0.00    -0.776 OA
ATOM      4  H   UNK d   0       0.219 -11.980  31.358  0.00  0.00     0.167 HD
ENDBRANCH   2   3
BRANCH   2   5
ATOM      5  C   UNK d   0      -0.801  -9.331  29.886  0.00  0.00     0.115 C 
BRANCH   5   6
ATOM      6  C   UNK d   0      -1.518  -8.488  30.905  0.00  0.00     0.052 C 
BRANCH   6   7
ATOM      7  C   UNK d   0      -1.525  -7.021  30.544  0.00  0.00    -0.020 A 
ATOM      8  C   UNK d   0      -0.767  -6.075  31.035  0.00  0.00    -0.011 A 
ATOM      9  C   UNK d   0      -1.141  -4.826  30.392  0.00  0.00     0.067 A 
ATOM     10  C   UNK d   0      -0.716  -3.490  30.450  0.00  0.00     0.062 C 
ATOM     11  N   UNK d   0      -2.139  -5.105  29.527  0.00  0.00    -0.248 NA
ATOM     12  C   UNK d   0      -1.013  -2.466  29.544  0.00  0.00     0.041 A 
ATOM     13  N   UNK d   0      -2.164  -2.131  28.930  0.00  0.00    -0.355 N 
ATOM     14  C   UNK d   0       0.026  -1.627  29.101  0.00  0.00    -0.022 A 
ATOM     15  C   UNK d   0      -1.880  -1.106  28.104  0.00  0.00     0.042 A 
ATOM     16  H   UNK d   0      -3.161  -2.597  29.092  0.00  0.00     0.166 HD
ATOM     17  C   UNK d   0      -2.714  -0.378  27.233  0.00  0.00     0.062 C 
ATOM     18  C   UNK d   0      -0.517  -0.762  28.184  0.00  0.00    -0.013 A 
ATOM     19  C   UNK d   0      -3.665  -0.842  26.360  0.00  0.00     0.067 A 
ATOM     20  N   UNK d   0      -4.006  -2.129  26.466  0.00  0.00    -0.248 NA
ATOM     21  C   UNK d   0      -4.444  -0.281  25.269  0.00  0.00    -0.011 A 
ATOM     22  C   UNK d   0      -4.951  -2.450  25.522  0.00  0.00     0.066 A 
ATOM     23  C   UNK d   0      -5.425  -3.754  25.544  0.00  0.00     0.062 C 
ATOM     24  C   UNK d   0      -5.191  -1.228  24.780  0.00  0.00    -0.020 A 
ATOM     25  C   UNK d   0      -5.124  -4.763  26.471  0.00  0.00     0.041 A 
ATOM     26  N   UNK d   0      -3.978  -5.106  27.070  0.00  0.00    -0.355 N 
ATOM     27  C   UNK d   0      -6.169  -5.602  26.918  0.00  0.00    -0.022 A 
ATOM     28  C   UNK d   0      -4.256  -6.133  27.888  0.00  0.00     0.042 A 
ATOM     29  H   UNK d   0      -2.974  -4.644  26.898  0.00  0.00     0.166 HD
ATOM     30  C   UNK d   0      -3.434  -6.873  28.753  0.00  0.00     0.062 C 
ATOM     31  C   UNK d   0      -5.628  -6.472  27.815  0.00  0.00    -0.013 A 
ATOM     32  C   UNK d   0      -2.417  -6.409  29.571  0.00  0.00     0.066 A 
BRANCH   8  33
ATOM     33  C   UNK d   0       0.280  -6.223  32.062  0.00  0.00     0.151 C 
BRANCH  33  34
ATOM     34  C   UNK d   0       1.642  -6.164  31.501  0.00  0.00     0.143 C 
ATOM     35  O   UNK d   0       2.204  -5.077  31.307  0.00  0.00    -0.650 OA
BRANCH  34  36
ATOM     36  O   UNK d   0       2.295  -7.334  31.188  0.00  0.00    -0.776 OA
ATOM     37  H   UNK d   0       3.312  -7.428  31.314  0.00  0.00     0.167 HD
ENDBRANCH  34  36
ENDBRANCH  33  34
ENDBRANCH   8  33
BRANCH  31  38
ATOM     38  C   UNK d   0      -6.370  -7.551  28.569  0.00  0.00     0.151 C 
BRANCH  38  39
ATOM     39  C   UNK d   0      -6.324  -8.834  27.901  0.00  0.00     0.143 C 
ATOM     40  O   UNK d   0      -7.191  -9.190  27.083  0.00  0.00    -0.650 OA
BRANCH  39  41
ATOM     41  O   UNK d   0      -5.277  -9.714  28.175  0.00  0.00    -0.776 OA
ATOM     42  H   UNK d   0      -4.557  -9.385  28.826  0.00  0.00     0.167 HD
ENDBRANCH  39  41
ENDBRANCH  38  39
ENDBRANCH  31  38
BRANCH  27  43
ATOM     43  C   UNK d   0      -7.626  -5.608  26.530  0.00  0.00     0.052 C 
BRANCH  43  44
ATOM     44  C   UNK d   0      -7.920  -6.476  25.350  0.00  0.00     0.115 C 
BRANCH  44  45
ATOM     45  C   UNK d   0      -9.326  -6.934  25.500  0.00  0.00     0.139 C 
ATOM     46  O   UNK d   0     -10.235  -6.225  25.001  0.00  0.00    -0.650 OA
BRANCH  45  47
ATOM     47  O   UNK d   0      -9.668  -8.098  26.153  0.00  0.00    -0.776 OA
ATOM     48  H   UNK d   0     -10.364  -8.129  26.915  0.00  0.00     0.167 HD
ENDBRANCH  45  47
ENDBRANCH  44  45
ENDBRANCH  43  44
ENDBRANCH  27  43
BRANCH  24  49
ATOM     49  C   UNK d   0      -6.167  -1.088  23.685  0.00  0.00     0.052 C 
BRANCH  49  50
ATOM     50  C   UNK d   0      -7.569  -1.268  24.206  0.00  0.00     0.115 C 
BRANCH  50  51
ATOM     51  C   UNK d   0      -8.130  -0.182  24.998  0.00  0.00     0.139 C 
ATOM     52  O   UNK d   0      -8.401  -0.303  26.215  0.00  0.00    -0.650 OA
BRANCH  51  53
ATOM     53  O   UNK d   0      -8.383   1.043  24.400  0.00  0.00    -0.776 OA
ATOM     54  H   UNK d   0      -8.281   1.874  24.957  0.00  0.00     0.167 HD
ENDBRANCH  51  53
ENDBRANCH  50  51
ENDBRANCH  49  50
ENDBRANCH  24  49
BRANCH  21  55
ATOM     55  C   UNK d   0      -4.363   1.144  24.831  0.00  0.00     0.151 C 
BRANCH  55  56
ATOM     56  C   UNK d   0      -4.916   2.062  25.838  0.00  0.00     0.143 C 
ATOM     57  O   UNK d   0      -6.139   2.163  26.061  0.00  0.00    -0.650 OA
BRANCH  56  58
ATOM     58  O   UNK d   0      -4.020   2.844  26.565  0.00  0.00    -0.776 OA
ATOM     59  H   UNK d   0      -3.276   3.294  26.000  0.00  0.00     0.167 HD
ENDBRANCH  56  58
ENDBRANCH  55  56
ENDBRANCH  21  55
BRANCH  18  60
ATOM     60  C   UNK d   0       0.249   0.309  27.448  0.00  0.00     0.151 C 
BRANCH  60  61
ATOM     61  C   UNK d   0      -0.361   1.587  27.846  0.00  0.00     0.143 C 
ATOM     62  O   UNK d   0      -1.166   2.259  27.200  0.00  0.00    -0.650 OA
BRANCH  61  63
ATOM     63  O   UNK d   0       0.037   2.075  29.114  0.00  0.00    -0.776 OA
ATOM     64  H   UNK d   0       0.092   3.061  29.296  0.00  0.00     0.167 HD
ENDBRANCH  61  63
ENDBRANCH  60  61
ENDBRANCH  18  60
BRANCH  14  65
ATOM     65  C   UNK d   0       1.456  -1.517  29.549  0.00  0.00     0.052 C 
BRANCH  65  66
ATOM     66  C   UNK d   0       1.633  -0.608  30.713  0.00  0.00     0.115 C 
BRANCH  66  67
ATOM     67  C   UNK d   0       0.542  -0.394  31.621  0.00  0.00     0.139 C 
ATOM     68  O   UNK d   0      -0.296   0.547  31.362  0.00  0.00    -0.650 OA
BRANCH  67  69
ATOM     69  O   UNK d   0       0.256  -1.095  32.792  0.00  0.00    -0.776 OA
ATOM     70  H   UNK d   0      -0.744  -1.227  33.002  0.00  0.00     0.167 HD
ENDBRANCH  67  69
ENDBRANCH  66  67
ENDBRANCH  65  66
ENDBRANCH  14  65
ENDBRANCH   6   7
ENDBRANCH   5   6
ENDBRANCH   2   5
TORSDOF 28
ENDMDL
MODEL 7
REMARK VINA RESULT:      -9.8      1.659      7.828
REMARK  28 active torsions:
REMARK  status: ('A' for Active; 'I' for Inactive)
REMARK    1  A    between atoms: C_2  and  O_3 
REMARK    2  A    between atoms: C_2  and  C_4 
REMARK    3  A    between atoms: C_4  and  C_5 
REMARK    4  A    between atoms: C_5  and  C_6 
REMARK    5  A    between atoms: C_7  and  C_8 
REMARK    6  A    between atoms: C_8  and  C_9 
REMARK    7  A    between atoms: C_9  and  O_11 
REMARK    8  A    between atoms: C_28  and  C_29 
REMARK    9  A    between atoms: C_29  and  C_30 
REMARK   10  A    between atoms: C_30  and  O_32 
REMARK   11  A    between atoms: C_33  and  C_34 
REMARK   12  A    between atoms: C_34  and  C_35 
REMARK   13  A    between atoms: C_35  and  C_36 
REMARK   14  A    between atoms: C_36  and  O_38 
REMARK   15  A    between atoms: C_39  and  C_40 
REMARK   16  A    between atoms: C_40  and  C_41 
REMARK   17  A    between atoms: C_41  and  C_42 
REMARK   18  A    between atoms: C_42  and  O_44 
REMARK   19  A    between atoms: C_45  and  C_46 
REMARK   20  A    between atoms: C_46  and  C_47 
REMARK   21  A    between atoms: C_47  and  O_49 
REMARK   22  A    between atoms: C_50  and  C_51 
REMARK   23  A    between atoms: C_51  and  C_52 
REMARK   24  A    between atoms: C_52  and  O_54 
REMARK   25  A    between atoms: C_55  and  C_56 
REMARK   26  A    between atoms: C_56  and  C_57 
REMARK   27  A    between atoms: C_57  and  C_58 
REMARK   28  A    between atoms: C_58  and  O_60 
ROOT
ATOM      1  O   UNK d   0       1.844  -1.729  32.403  0.00  0.00    -0.650 OA
ATOM      2  C   UNK d   0       0.636  -1.464  32.213  0.00  0.00     0.139 C 
ENDROOT
BRANCH   2   3
ATOM      3  O   UNK d   0      -0.318  -2.077  32.989  0.00  0.00    -0.776 OA
ATOM      4  H   UNK d   0      -0.142  -2.986  33.421  0.00  0.00     0.167 HD
ENDBRANCH   2   3
BRANCH   2   5
ATOM      5  C   UNK d   0       0.241  -0.493  31.154  0.00  0.00     0.115 C 
BRANCH   5   6
ATOM      6  C   UNK d   0       0.575  -1.045  29.794  0.00  0.00     0.052 C 
BRANCH   6   7
ATOM      7  C   UNK d   0      -0.389  -2.120  29.351  0.00  0.00    -0.020 A 
ATOM      8  C   UNK d   0      -0.228  -3.416  29.424  0.00  0.00    -0.011 A 
ATOM      9  C   UNK d   0      -1.416  -4.044  28.869  0.00  0.00     0.067 A 
ATOM     10  C   UNK d   0      -1.871  -5.358  28.677  0.00  0.00     0.062 C 
ATOM     11  N   UNK d   0      -2.246  -3.055  28.476  0.00  0.00    -0.248 NA
ATOM     12  C   UNK d   0      -3.174  -5.768  28.376  0.00  0.00     0.041 A 
ATOM     13  N   UNK d   0      -4.085  -5.268  27.518  0.00  0.00    -0.355 N 
ATOM     14  C   UNK d   0      -3.729  -6.849  29.085  0.00  0.00    -0.022 A 
ATOM     15  C   UNK d   0      -5.205  -6.000  27.670  0.00  0.00     0.042 A 
ATOM     16  H   UNK d   0      -3.932  -4.428  26.806  0.00  0.00     0.166 HD
ATOM     17  C   UNK d   0      -6.452  -5.906  27.021  0.00  0.00     0.062 C 
ATOM     18  C   UNK d   0      -5.020  -7.000  28.644  0.00  0.00    -0.013 A 
ATOM     19  C   UNK d   0      -7.198  -4.789  26.744  0.00  0.00     0.067 A 
ATOM     20  N   UNK d   0      -6.604  -3.606  26.923  0.00  0.00    -0.248 NA
ATOM     21  C   UNK d   0      -8.553  -4.523  26.292  0.00  0.00    -0.011 A 
ATOM     22  C   UNK d   0      -7.474  -2.586  26.622  0.00  0.00     0.066 A 
ATOM     23  C   UNK d   0      -6.972  -1.297  26.729  0.00  0.00     0.062 C 
ATOM     24  C   UNK d   0      -8.710  -3.232  26.227  0.00  0.00    -0.020 A 
ATOM     25  C   UNK d   0      -5.656  -0.907  27.021  0.00  0.00     0.041 A 
ATOM     26  N   UNK d   0      -4.757  -1.394  27.884  0.00  0.00    -0.355 N 
ATOM     27  C   UNK d   0      -5.099   0.176  26.306  0.00  0.00    -0.022 A 
ATOM     28  C   UNK d   0      -3.642  -0.660  27.740  0.00  0.00     0.042 A 
ATOM     29  H   UNK d   0      -4.915  -2.231  28.607  0.00  0.00     0.166 HD
ATOM     30  C   UNK d   0      -2.397  -0.737  28.385  0.00  0.00     0.062 C 
ATOM     31  C   UNK d   0      -3.824   0.338  26.754  0.00  0.00    -0.013 A 
ATOM     32  C   UNK d   0      -1.687  -1.873  28.740  0.00  0.00     0.066 A 
BRANCH   8  33
ATOM     33  C   UNK d   0       0.941  -4.134  29.964  0.00  0.00     0.151 C 
BRANCH  33  34
ATOM     34  C   UNK d   0       0.576  -5.136  30.981  0.00  0.00     0.143 C 
ATOM     35  O   UNK d   0       0.035  -4.798  32.043  0.00  0.00    -0.650 OA
BRANCH  34  36
ATOM     36  O   UNK d   0       0.843  -6.465  30.746  0.00  0.00    -0.776 OA
ATOM     37  H   UNK d   0       1.457  -7.006  31.370  0.00  0.00     0.167 HD
ENDBRANCH  34  36
ENDBRANCH  33  34
ENDBRANCH   8  33
BRANCH  31  38
ATOM     38  C   UNK d   0      -2.833   1.370  26.269  0.00  0.00     0.151 C 
BRANCH  38  39
ATOM     39  C   UNK d   0      -2.832   2.571  27.076  0.00  0.00     0.143 C 
ATOM     40  O   UNK d   0      -2.053   2.729  28.033  0.00  0.00    -0.650 OA
BRANCH  39  41
ATOM     41  O   UNK d   0      -3.729   3.597  26.781  0.00  0.00    -0.776 OA
ATOM     42  H   UNK d   0      -3.817   4.347  27.475  0.00  0.00     0.167 HD
ENDBRANCH  39  41
ENDBRANCH  38  39
ENDBRANCH  31  38
BRANCH  27  43
ATOM     43  C   UNK d   0      -5.721   1.041  25.239  0.00  0.00     0.052 C 
BRANCH  43  44
ATOM     44  C   UNK d   0      -6.784   1.952  25.762  0.00  0.00     0.115 C 
BRANCH  44  45
ATOM     45  C   UNK d   0      -6.663   3.225  25.004  0.00  0.00     0.139 C 
ATOM     46  O   UNK d   0      -6.934   4.296  25.599  0.00  0.00    -0.650 OA
BRANCH  45  47
ATOM     47  O   UNK d   0      -6.264   3.274  23.686  0.00  0.00    -0.776 OA
ATOM     48  H   UNK d   0      -5.735   4.068  23.290  0.00  0.00     0.167 HD
ENDBRANCH  45  47
ENDBRANCH  44  45
ENDBRANCH  43  44
ENDBRANCH  27  43
BRANCH  24  49
ATOM     49  C   UNK d   0      -9.921  -2.526  25.777  0.00  0.00     0.052 C 
BRANCH  49  50
ATOM     50  C   UNK d   0     -10.434  -1.618  26.865  0.00  0.00     0.115 C 
BRANCH  50  51
ATOM     51  C   UNK d   0     -10.511  -2.170  28.211  0.00  0.00     0.139 C 
ATOM     52  O   UNK d   0      -9.668  -1.906  29.100  0.00  0.00    -0.650 OA
BRANCH  51  53
ATOM     53  O   UNK d   0     -11.549  -3.028  28.541  0.00  0.00    -0.776 OA
ATOM     54  H   UNK d   0     -11.319  -3.957  28.848  0.00  0.00     0.167 HD
ENDBRANCH  51  53
ENDBRANCH  50  51
ENDBRANCH  49  50
ENDBRANCH  24  49
BRANCH  21  55
ATOM     55  C   UNK d   0      -9.549  -5.587  25.968  0.00  0.00     0.151 C 
BRANCH  55  56
ATOM     56  C   UNK d   0     -10.721  -5.534  26.856  0.00  0.00     0.143 C 
ATOM     57  O   UNK d   0     -10.671  -5.857  28.059  0.00  0.00    -0.650 OA
BRANCH  56  58
ATOM     58  O   UNK d   0     -11.929  -5.102  26.311  0.00  0.00    -0.776 OA
ATOM     59  H   UNK d   0     -12.770  -5.353  26.861  0.00  0.00     0.167 HD
ENDBRANCH  56  58
ENDBRANCH  55  56
ENDBRANCH  21  55
BRANCH  18  60
ATOM     60  C   UNK d   0      -5.988  -8.043  29.146  0.00  0.00     0.151 C 
BRANCH  60  61
ATOM     61  C   UNK d   0      -6.000  -9.106  28.129  0.00  0.00     0.143 C 
ATOM     62  O   UNK d   0      -6.863  -9.305  27.274  0.00  0.00    -0.650 OA
BRANCH  61  63
ATOM     63  O   UNK d   0      -4.886  -9.979  28.157  0.00  0.00    -0.776 OA
ATOM     64  H   UNK d   0      -4.663 -10.561  27.369  0.00  0.00     0.167 HD
ENDBRANCH  61  63
ENDBRANCH  60  61
ENDBRANCH  18  60
BRANCH  14  65
ATOM     65  C   UNK d   0      -3.106  -7.802  30.065  0.00  0.00     0.052 C 
BRANCH  65  66
ATOM     66  C   UNK d   0      -2.866  -7.189  31.399  0.00  0.00     0.115 C 
BRANCH  66  67
ATOM     67  C   UNK d   0      -2.122  -7.913  32.391  0.00  0.00     0.139 C 
ATOM     68  O   UNK d   0      -0.992  -8.427  32.057  0.00  0.00    -0.650 OA
BRANCH  67  69
ATOM     69  O   UNK d   0      -2.473  -8.144  33.721  0.00  0.00    -0.776 OA
ATOM     70  H   UNK d   0      -1.691  -8.336  34.364  0.00  0.00     0.167 HD
ENDBRANCH  67  69
ENDBRANCH  66  67
ENDBRANCH  65  66
ENDBRANCH  14  65
ENDBRANCH   6   7
ENDBRANCH   5   6
ENDBRANCH   2   5
TORSDOF 28
ENDMDL
MODEL 8
REMARK VINA RESULT:      -9.8      1.847      4.294
REMARK  28 active torsions:
REMARK  status: ('A' for Active; 'I' for Inactive)
REMARK    1  A    between atoms: C_2  and  O_3 
REMARK    2  A    between atoms: C_2  and  C_4 
REMARK    3  A    between atoms: C_4  and  C_5 
REMARK    4  A    between atoms: C_5  and  C_6 
REMARK    5  A    between atoms: C_7  and  C_8 
REMARK    6  A    between atoms: C_8  and  C_9 
REMARK    7  A    between atoms: C_9  and  O_11 
REMARK    8  A    between atoms: C_28  and  C_29 
REMARK    9  A    between atoms: C_29  and  C_30 
REMARK   10  A    between atoms: C_30  and  O_32 
REMARK   11  A    between atoms: C_33  and  C_34 
REMARK   12  A    between atoms: C_34  and  C_35 
REMARK   13  A    between atoms: C_35  and  C_36 
REMARK   14  A    between atoms: C_36  and  O_38 
REMARK   15  A    between atoms: C_39  and  C_40 
REMARK   16  A    between atoms: C_40  and  C_41 
REMARK   17  A    between atoms: C_41  and  C_42 
REMARK   18  A    between atoms: C_42  and  O_44 
REMARK   19  A    between atoms: C_45  and  C_46 
REMARK   20  A    between atoms: C_46  and  C_47 
REMARK   21  A    between atoms: C_47  and  O_49 
REMARK   22  A    between atoms: C_50  and  C_51 
REMARK   23  A    between atoms: C_51  and  C_52 
REMARK   24  A    between atoms: C_52  and  O_54 
REMARK   25  A    between atoms: C_55  and  C_56 
REMARK   26  A    between atoms: C_56  and  C_57 
REMARK   27  A    between atoms: C_57  and  C_58 
REMARK   28  A    between atoms: C_58  and  O_60 
ROOT
ATOM      1  O   UNK d   0       1.304  -8.270  30.637  0.00  0.00    -0.650 OA
ATOM      2  C   UNK d   0       2.010  -7.250  30.478  0.00  0.00     0.139 C 
ENDROOT
BRANCH   2   3
ATOM      3  O   UNK d   0       3.337  -7.394  30.151  0.00  0.00    -0.776 OA
ATOM      4  H   UNK d   0       4.069  -7.283  30.856  0.00  0.00     0.167 HD
ENDBRANCH   2   3
BRANCH   2   5
ATOM      5  C   UNK d   0       1.415  -5.893  30.644  0.00  0.00     0.115 C 
BRANCH   5   6
ATOM      6  C   UNK d   0       1.542  -5.112  29.364  0.00  0.00     0.052 C 
BRANCH   6   7
ATOM      7  C   UNK d   0       0.367  -4.194  29.125  0.00  0.00    -0.020 A 
ATOM      8  C   UNK d   0       0.346  -2.888  29.199  0.00  0.00    -0.011 A 
ATOM      9  C   UNK d   0      -1.005  -2.446  28.896  0.00  0.00     0.067 A 
ATOM     10  C   UNK d   0      -1.667  -1.213  28.788  0.00  0.00     0.062 C 
ATOM     11  N   UNK d   0      -1.743  -3.550  28.655  0.00  0.00    -0.248 NA
ATOM     12  C   UNK d   0      -2.917  -0.971  28.210  0.00  0.00     0.041 A 
ATOM     13  N   UNK d   0      -4.078  -1.649  28.290  0.00  0.00    -0.355 N 
ATOM     14  C   UNK d   0      -3.062   0.121  27.335  0.00  0.00    -0.022 A 
ATOM     15  C   UNK d   0      -4.953  -1.020  27.483  0.00  0.00     0.042 A 
ATOM     16  H   UNK d   0      -4.280  -2.544  28.920  0.00  0.00     0.166 HD
ATOM     17  C   UNK d   0      -6.302  -1.309  27.197  0.00  0.00     0.062 C 
ATOM     18  C   UNK d   0      -4.352   0.094  26.866  0.00  0.00    -0.013 A 
ATOM     19  C   UNK d   0      -6.885  -2.518  26.917  0.00  0.00     0.067 A 
ATOM     20  N   UNK d   0      -6.143  -3.609  27.125  0.00  0.00    -0.248 NA
ATOM     21  C   UNK d   0      -8.170  -2.965  26.407  0.00  0.00    -0.011 A 
ATOM     22  C   UNK d   0      -6.850  -4.737  26.787  0.00  0.00     0.066 A 
ATOM     23  C   UNK d   0      -6.210  -5.951  26.991  0.00  0.00     0.062 C 
ATOM     24  C   UNK d   0      -8.142  -4.265  26.329  0.00  0.00    -0.020 A 
ATOM     25  C   UNK d   0      -4.958  -6.173  27.585  0.00  0.00     0.041 A 
ATOM     26  N   UNK d   0      -3.801  -5.508  27.494  0.00  0.00    -0.355 N 
ATOM     27  C   UNK d   0      -4.815  -7.267  28.466  0.00  0.00    -0.022 A 
ATOM     28  C   UNK d   0      -2.924  -6.138  28.291  0.00  0.00     0.042 A 
ATOM     29  H   UNK d   0      -3.596  -4.616  26.852  0.00  0.00     0.166 HD
ATOM     30  C   UNK d   0      -1.576  -5.868  28.577  0.00  0.00     0.062 C 
ATOM     31  C   UNK d   0      -3.531  -7.252  28.918  0.00  0.00    -0.013 A 
ATOM     32  C   UNK d   0      -0.976  -4.635  28.776  0.00  0.00     0.066 A 
BRANCH   8  33
ATOM     33  C   UNK d   0       1.477  -2.003  29.535  0.00  0.00     0.151 C 
BRANCH  33  34
ATOM     34  C   UNK d   0       1.431  -1.521  30.927  0.00  0.00     0.143 C 
ATOM     35  O   UNK d   0       1.556  -2.306  31.877  0.00  0.00    -0.650 OA
BRANCH  34  36
ATOM     36  O   UNK d   0       1.245  -0.179  31.171  0.00  0.00    -0.776 OA
ATOM     37  H   UNK d   0       0.368   0.173  31.578  0.00  0.00     0.167 HD
ENDBRANCH  34  36
ENDBRANCH  33  34
ENDBRANCH   8  33
BRANCH  31  38
ATOM     38  C   UNK d   0      -2.919  -8.227  29.896  0.00  0.00     0.151 C 
BRANCH  38  39
ATOM     39  C   UNK d   0      -2.539  -7.604  31.147  0.00  0.00     0.143 C 
ATOM     40  O   UNK d   0      -3.216  -6.705  31.675  0.00  0.00    -0.650 OA
BRANCH  39  41
ATOM     41  O   UNK d   0      -1.375  -8.018  31.794  0.00  0.00    -0.776 OA
ATOM     42  H   UNK d   0      -0.645  -7.312  31.928  0.00  0.00     0.167 HD
ENDBRANCH  39  41
ENDBRANCH  38  39
ENDBRANCH  31  38
BRANCH  27  43
ATOM     43  C   UNK d   0      -5.830  -8.302  28.882  0.00  0.00     0.052 C 
BRANCH  43  44
ATOM     44  C   UNK d   0      -5.635  -9.624  28.212  0.00  0.00     0.115 C 
BRANCH  44  45
ATOM     45  C   UNK d   0      -6.888  -9.910  27.465  0.00  0.00     0.139 C 
ATOM     46  O   UNK d   0      -7.320 -11.089  27.465  0.00  0.00    -0.650 OA
BRANCH  45  47
ATOM     47  O   UNK d   0      -7.590  -8.939  26.785  0.00  0.00    -0.776 OA
ATOM     48  H   UNK d   0      -7.743  -7.990  27.162  0.00  0.00     0.167 HD
ENDBRANCH  45  47
ENDBRANCH  44  45
ENDBRANCH  43  44
ENDBRANCH  27  43
BRANCH  24  49
ATOM     49  C   UNK d   0      -9.251  -5.133  25.898  0.00  0.00     0.052 C 
BRANCH  49  50
ATOM     50  C   UNK d   0      -9.868  -5.825  27.087  0.00  0.00     0.115 C 
BRANCH  50  51
ATOM     51  C   UNK d   0     -11.307  -6.049  27.052  0.00  0.00     0.139 C 
ATOM     52  O   UNK d   0     -12.139  -5.138  27.277  0.00  0.00    -0.650 OA
BRANCH  51  53
ATOM     53  O   UNK d   0     -11.798  -7.313  26.764  0.00  0.00    -0.776 OA
ATOM     54  H   UNK d   0     -11.219  -8.107  26.973  0.00  0.00     0.167 HD
ENDBRANCH  51  53
ENDBRANCH  50  51
ENDBRANCH  49  50
ENDBRANCH  24  49
BRANCH  21  55
ATOM     55  C   UNK d   0      -9.294  -2.048  26.055  0.00  0.00     0.151 C 
BRANCH  55  56
ATOM     56  C   UNK d   0     -10.405  -2.143  27.014  0.00  0.00     0.143 C 
ATOM     57  O   UNK d   0     -10.236  -2.108  28.248  0.00  0.00    -0.650 OA
BRANCH  56  58
ATOM     58  O   UNK d   0     -11.695  -2.278  26.501  0.00  0.00    -0.776 OA
ATOM     59  H   UNK d   0     -12.109  -3.222  26.606  0.00  0.00     0.167 HD
ENDBRANCH  56  58
ENDBRANCH  55  56
ENDBRANCH  21  55
BRANCH  18  60
ATOM     60  C   UNK d   0      -4.938   1.085  25.891  0.00  0.00     0.151 C 
BRANCH  60  61
ATOM     61  C   UNK d   0      -4.184   0.913  24.639  0.00  0.00     0.143 C 
ATOM     62  O   UNK d   0      -3.671   1.799  23.955  0.00  0.00    -0.650 OA
BRANCH  61  63
ATOM     63  O   UNK d   0      -4.048  -0.425  24.197  0.00  0.00    -0.776 OA
ATOM     64  H   UNK d   0      -4.373  -1.192  24.758  0.00  0.00     0.167 HD
ENDBRANCH  61  63
ENDBRANCH  60  61
ENDBRANCH  18  60
BRANCH  14  65
ATOM     65  C   UNK d   0      -2.113   1.233  26.989  0.00  0.00     0.052 C 
BRANCH  65  66
ATOM     66  C   UNK d   0      -2.133   2.344  27.978  0.00  0.00     0.115 C 
BRANCH  66  67
ATOM     67  C   UNK d   0      -1.074   2.458  28.942  0.00  0.00     0.139 C 
ATOM     68  O   UNK d   0      -0.153   3.332  28.740  0.00  0.00    -0.650 OA
BRANCH  67  69
ATOM     69  O   UNK d   0      -0.903   1.720  30.112  0.00  0.00    -0.776 OA
ATOM     70  H   UNK d   0      -0.443   0.804  30.001  0.00  0.00     0.167 HD
ENDBRANCH  67  69
ENDBRANCH  66  67
ENDBRANCH  65  66
ENDBRANCH  14  65
ENDBRANCH   6   7
ENDBRANCH   5   6
ENDBRANCH   2   5
TORSDOF 28
ENDMDL
MODEL 9
REMARK VINA RESULT:      -9.8      1.603      7.991
REMARK  28 active torsions:
REMARK  status: ('A' for Active; 'I' for Inactive)
REMARK    1  A    between atoms: C_2  and  O_3 
REMARK    2  A    between atoms: C_2  and  C_4 
REMARK    3  A    between atoms: C_4  and  C_5 
REMARK    4  A    between atoms: C_5  and  C_6 
REMARK    5  A    between atoms: C_7  and  C_8 
REMARK    6  A    between atoms: C_8  and  C_9 
REMARK    7  A    between atoms: C_9  and  O_11 
REMARK    8  A    between atoms: C_28  and  C_29 
REMARK    9  A    between atoms: C_29  and  C_30 
REMARK   10  A    between atoms: C_30  and  O_32 
REMARK   11  A    between atoms: C_33  and  C_34 
REMARK   12  A    between atoms: C_34  and  C_35 
REMARK   13  A    between atoms: C_35  and  C_36 
REMARK   14  A    between atoms: C_36  and  O_38 
REMARK   15  A    between atoms: C_39  and  C_40 
REMARK   16  A    between atoms: C_40  and  C_41 
REMARK   17  A    between atoms: C_41  and  C_42 
REMARK   18  A    between atoms: C_42  and  O_44 
REMARK   19  A    between atoms: C_45  and  C_46 
REMARK   20  A    between atoms: C_46  and  C_47 
REMARK   21  A    between atoms: C_47  and  O_49 
REMARK   22  A    between atoms: C_50  and  C_51 
REMARK   23  A    between atoms: C_51  and  C_52 
REMARK   24  A    between atoms: C_52  and  O_54 
REMARK   25  A    between atoms: C_55  and  C_56 
REMARK   26  A    between atoms: C_56  and  C_57 
REMARK   27  A    between atoms: C_57  and  C_58 
REMARK   28  A    between atoms: C_58  and  O_60 
ROOT
ATOM      1  O   UNK d   0       0.055   0.445  31.688  0.00  0.00    -0.650 OA
ATOM      2  C   UNK d   0       0.955  -0.231  31.142  0.00  0.00     0.139 C 
ENDROOT
BRANCH   2   3
ATOM      3  O   UNK d   0       1.767   0.360  30.205  0.00  0.00    -0.776 OA
ATOM      4  H   UNK d   0       1.374   0.821  29.382  0.00  0.00     0.167 HD
ENDBRANCH   2   3
BRANCH   2   5
ATOM      5  C   UNK d   0       1.139  -1.665  31.508  0.00  0.00     0.115 C 
BRANCH   5   6
ATOM      6  C   UNK d   0       1.530  -2.462  30.293  0.00  0.00     0.052 C 
BRANCH   6   7
ATOM      7  C   UNK d   0       0.379  -3.260  29.727  0.00  0.00    -0.020 A 
ATOM      8  C   UNK d   0       0.259  -4.562  29.678  0.00  0.00    -0.011 A 
ATOM      9  C   UNK d   0      -1.011  -4.867  29.038  0.00  0.00     0.067 A 
ATOM     10  C   UNK d   0      -1.726  -6.029  28.710  0.00  0.00     0.062 C 
ATOM     11  N   UNK d   0      -1.595  -3.691  28.726  0.00  0.00    -0.248 NA
ATOM     12  C   UNK d   0      -3.072  -6.120  28.343  0.00  0.00     0.041 A 
ATOM     13  N   UNK d   0      -3.820  -5.362  27.518  0.00  0.00    -0.355 N 
ATOM     14  C   UNK d   0      -3.872  -7.117  28.931  0.00  0.00    -0.022 A 
ATOM     15  C   UNK d   0      -5.075  -5.846  27.575  0.00  0.00     0.042 A 
ATOM     16  H   UNK d   0      -3.463  -4.513  26.894  0.00  0.00     0.166 HD
ATOM     17  C   UNK d   0      -6.246  -5.428  26.912  0.00  0.00     0.062 C 
ATOM     18  C   UNK d   0      -5.147  -6.947  28.450  0.00  0.00    -0.013 A 
ATOM     19  C   UNK d   0      -6.725  -4.156  26.728  0.00  0.00     0.067 A 
ATOM     20  N   UNK d   0      -5.903  -3.150  27.034  0.00  0.00    -0.248 NA
ATOM     21  C   UNK d   0      -7.974  -3.566  26.275  0.00  0.00    -0.011 A 
ATOM     22  C   UNK d   0      -6.523  -1.944  26.815  0.00  0.00     0.066 A 
ATOM     23  C   UNK d   0      -5.765  -0.808  27.057  0.00  0.00     0.062 C 
ATOM     24  C   UNK d   0      -7.850  -2.271  26.332  0.00  0.00    -0.020 A 
ATOM     25  C   UNK d   0      -4.409  -0.738  27.413  0.00  0.00     0.041 A 
ATOM     26  N   UNK d   0      -3.670  -1.483  28.244  0.00  0.00    -0.355 N 
ATOM     27  C   UNK d   0      -3.606   0.260  26.819  0.00  0.00    -0.022 A 
ATOM     28  C   UNK d   0      -2.420  -0.996  28.196  0.00  0.00     0.042 A 
ATOM     29  H   UNK d   0      -4.032  -2.328  28.879  0.00  0.00     0.166 HD
ATOM     30  C   UNK d   0      -1.248  -1.396  28.857  0.00  0.00     0.062 C 
ATOM     31  C   UNK d   0      -2.346   0.103  27.308  0.00  0.00    -0.013 A 
ATOM     32  C   UNK d   0      -0.810  -2.685  29.115  0.00  0.00     0.066 A 
BRANCH   8  33
ATOM     33  C   UNK d   0       1.226  -5.560  30.170  0.00  0.00     0.151 C 
BRANCH  33  34
ATOM     34  C   UNK d   0       0.894  -6.061  31.515  0.00  0.00     0.143 C 
ATOM     35  O   UNK d   0       0.385  -7.181  31.670  0.00  0.00    -0.650 OA
BRANCH  34  36
ATOM     36  O   UNK d   0       1.152  -5.273  32.613  0.00  0.00    -0.776 OA
ATOM     37  H   UNK d   0       2.004  -5.402  33.175  0.00  0.00     0.167 HD
ENDBRANCH  34  36
ENDBRANCH  33  34
ENDBRANCH   8  33
BRANCH  31  38
ATOM     38  C   UNK d   0      -1.139   0.937  26.946  0.00  0.00     0.151 C 
BRANCH  38  39
ATOM     39  C   UNK d   0      -0.844   1.955  27.932  0.00  0.00     0.143 C 
ATOM     40  O   UNK d   0      -1.717   2.716  28.385  0.00  0.00    -0.650 OA
BRANCH  39  41
ATOM     41  O   UNK d   0       0.462   2.100  28.399  0.00  0.00    -0.776 OA
ATOM     42  H   UNK d   0       0.687   1.643  29.289  0.00  0.00     0.167 HD
ENDBRANCH  39  41
ENDBRANCH  38  39
ENDBRANCH  31  38
BRANCH  27  43
ATOM     43  C   UNK d   0      -3.986   1.331  25.828  0.00  0.00     0.052 C 
BRANCH  43  44
ATOM     44  C   UNK d   0      -4.383   2.619  26.473  0.00  0.00     0.115 C 
BRANCH  44  45
ATOM     45  C   UNK d   0      -5.279   3.316  25.514  0.00  0.00     0.139 C 
ATOM     46  O   UNK d   0      -5.890   4.339  25.912  0.00  0.00    -0.650 OA
BRANCH  45  47
ATOM     47  O   UNK d   0      -5.460   2.891  24.216  0.00  0.00    -0.776 OA
ATOM     48  H   UNK d   0      -5.574   3.543  23.424  0.00  0.00     0.167 HD
ENDBRANCH  45  47
ENDBRANCH  44  45
ENDBRANCH  43  44
ENDBRANCH  27  43
BRANCH  24  49
ATOM     49  C   UNK d   0      -8.865  -1.283  25.927  0.00  0.00     0.052 C 
BRANCH  49  50
ATOM     50  C   UNK d   0      -8.912  -1.166  24.425  0.00  0.00     0.115 C 
BRANCH  50  51
ATOM     51  C   UNK d   0      -7.789  -0.506  23.774  0.00  0.00     0.139 C 
ATOM     52  O   UNK d   0      -7.282   0.554  24.210  0.00  0.00    -0.650 OA
BRANCH  51  53
ATOM     53  O   UNK d   0      -7.244  -1.055  22.623  0.00  0.00    -0.776 OA
ATOM     54  H   UNK d   0      -6.904  -0.430  21.913  0.00  0.00     0.167 HD
ENDBRANCH  51  53
ENDBRANCH  50  51
ENDBRANCH  49  50
ENDBRANCH  24  49
BRANCH  21  55
ATOM     55  C   UNK d   0      -9.158  -4.357  25.828  0.00  0.00     0.151 C 
BRANCH  55  56
ATOM     56  C   UNK d   0     -10.035  -4.720  26.952  0.00  0.00     0.143 C 
ATOM     57  O   UNK d   0     -10.141  -5.888  27.376  0.00  0.00    -0.650 OA
BRANCH  56  58
ATOM     58  O   UNK d   0     -10.769  -3.702  27.557  0.00  0.00    -0.776 OA
ATOM     59  H   UNK d   0     -11.624  -3.417  27.045  0.00  0.00     0.167 HD
ENDBRANCH  56  58
ENDBRANCH  55  56
ENDBRANCH  21  55
BRANCH  18  60
ATOM     60  C   UNK d   0      -6.334  -7.798  28.828  0.00  0.00     0.151 C 
BRANCH  60  61
ATOM     61  C   UNK d   0      -6.519  -8.748  27.720  0.00  0.00     0.143 C 
ATOM     62  O   UNK d   0      -7.231  -8.599  26.726  0.00  0.00    -0.650 OA
BRANCH  61  63
ATOM     63  O   UNK d   0      -5.786  -9.954  27.832  0.00  0.00    -0.776 OA
ATOM     64  H   UNK d   0      -5.192 -10.271  27.087  0.00  0.00     0.167 HD
ENDBRANCH  61  63
ENDBRANCH  60  61
ENDBRANCH  18  60
BRANCH  14  65
ATOM     65  C   UNK d   0      -3.507  -8.266  29.828  0.00  0.00     0.052 C 
BRANCH  65  66
ATOM     66  C   UNK d   0      -2.762  -9.341  29.120  0.00  0.00     0.115 C 
BRANCH  66  67
ATOM     67  C   UNK d   0      -1.730 -10.064  29.809  0.00  0.00     0.139 C 
ATOM     68  O   UNK d   0      -1.506  -9.786  31.044  0.00  0.00    -0.650 OA
BRANCH  67  69
ATOM     69  O   UNK d   0      -0.903 -11.065  29.299  0.00  0.00    -0.776 OA
ATOM     70  H   UNK d   0      -0.339 -11.576  29.993  0.00  0.00     0.167 HD
ENDBRANCH  67  69
ENDBRANCH  66  67
ENDBRANCH  65  66
ENDBRANCH  14  65
ENDBRANCH   6   7
ENDBRANCH   5   6
ENDBRANCH   2   5
TORSDOF 28
ENDMDL
MODEL 10
REMARK VINA RESULT:      -9.7      5.703     12.675
REMARK  28 active torsions:
REMARK  status: ('A' for Active; 'I' for Inactive)
REMARK    1  A    between atoms: C_2  and  O_3 
REMARK    2  A    between atoms: C_2  and  C_4 
REMARK    3  A    between atoms: C_4  and  C_5 
REMARK    4  A    between atoms: C_5  and  C_6 
REMARK    5  A    between atoms: C_7  and  C_8 
REMARK    6  A    between atoms: C_8  and  C_9 
REMARK    7  A    between atoms: C_9  and  O_11 
REMARK    8  A    between atoms: C_28  and  C_29 
REMARK    9  A    between atoms: C_29  and  C_30 
REMARK   10  A    between atoms: C_30  and  O_32 
REMARK   11  A    between atoms: C_33  and  C_34 
REMARK   12  A    between atoms: C_34  and  C_35 
REMARK   13  A    between atoms: C_35  and  C_36 
REMARK   14  A    between atoms: C_36  and  O_38 
REMARK   15  A    between atoms: C_39  and  C_40 
REMARK   16  A    between atoms: C_40  and  C_41 
REMARK   17  A    between atoms: C_41  and  C_42 
REMARK   18  A    between atoms: C_42  and  O_44 
REMARK   19  A    between atoms: C_45  and  C_46 
REMARK   20  A    between atoms: C_46  and  C_47 
REMARK   21  A    between atoms: C_47  and  O_49 
REMARK   22  A    between atoms: C_50  and  C_51 
REMARK   23  A    between atoms: C_51  and  C_52 
REMARK   24  A    between atoms: C_52  and  O_54 
REMARK   25  A    between atoms: C_55  and  C_56 
REMARK   26  A    between atoms: C_56  and  C_57 
REMARK   27  A    between atoms: C_57  and  C_58 
REMARK   28  A    between atoms: C_58  and  O_60 
ROOT
ATOM      1  O   UNK d   0      -2.520  -3.216  30.381  0.00  0.00    -0.650 OA
ATOM      2  C   UNK d   0      -2.627  -4.439  30.624  0.00  0.00     0.139 C 
ENDROOT
BRANCH   2   3
ATOM      3  O   UNK d   0      -2.178  -4.928  31.827  0.00  0.00    -0.776 OA
ATOM      4  H   UNK d   0      -2.747  -5.574  32.378  0.00  0.00     0.167 HD
ENDBRANCH   2   3
BRANCH   2   5
ATOM      5  C   UNK d   0      -3.234  -5.351  29.614  0.00  0.00     0.115 C 
BRANCH   5   6
ATOM      6  C   UNK d   0      -2.386  -5.387  28.372  0.00  0.00     0.052 C 
BRANCH   6   7
ATOM      7  C   UNK d   0      -0.948  -5.743  28.660  0.00  0.00    -0.020 A 
ATOM      8  C   UNK d   0      -0.472  -6.902  29.037  0.00  0.00    -0.011 A 
ATOM      9  C   UNK d   0       0.965  -6.762  29.200  0.00  0.00     0.067 A 
ATOM     10  C   UNK d   0       2.031  -7.604  29.553  0.00  0.00     0.062 C 
ATOM     11  N   UNK d   0       1.279  -5.482  28.908  0.00  0.00    -0.248 NA
ATOM     12  C   UNK d   0       3.398  -7.356  29.387  0.00  0.00     0.041 A 
ATOM     13  N   UNK d   0       4.130  -6.246  29.603  0.00  0.00    -0.355 N 
ATOM     14  C   UNK d   0       4.214  -8.371  28.855  0.00  0.00    -0.022 A 
ATOM     15  C   UNK d   0       5.388  -6.529  29.214  0.00  0.00     0.042 A 
ATOM     16  H   UNK d   0       3.769  -5.289  30.039  0.00  0.00     0.166 HD
ATOM     17  C   UNK d   0       6.549  -5.730  29.226  0.00  0.00     0.062 C 
ATOM     18  C   UNK d   0       5.480  -7.852  28.739  0.00  0.00    -0.013 A 
ATOM     19  C   UNK d   0       6.701  -4.425  28.832  0.00  0.00     0.067 A 
ATOM     20  N   UNK d   0       5.586  -3.733  28.586  0.00  0.00    -0.248 NA
ATOM     21  C   UNK d   0       7.821  -3.534  28.580  0.00  0.00    -0.011 A 
ATOM     22  C   UNK d   0       5.895  -2.455  28.189  0.00  0.00     0.066 A 
ATOM     23  C   UNK d   0       4.823  -1.612  27.936  0.00  0.00     0.062 C 
ATOM     24  C   UNK d   0       7.343  -2.384  28.200  0.00  0.00    -0.020 A 
ATOM     25  C   UNK d   0       3.458  -1.877  28.122  0.00  0.00     0.041 A 
ATOM     26  N   UNK d   0       2.727  -2.974  27.893  0.00  0.00    -0.355 N 
ATOM     27  C   UNK d   0       2.640  -0.859  28.660  0.00  0.00    -0.022 A 
ATOM     28  C   UNK d   0       1.470  -2.692  28.272  0.00  0.00     0.042 A 
ATOM     29  H   UNK d   0       3.089  -3.932  27.445  0.00  0.00     0.166 HD
ATOM     30  C   UNK d   0       0.304  -3.474  28.257  0.00  0.00     0.062 C 
ATOM     31  C   UNK d   0       1.381  -1.367  28.759  0.00  0.00    -0.013 A 
ATOM     32  C   UNK d   0       0.172  -4.817  28.575  0.00  0.00     0.066 A 
BRANCH   8  33
ATOM     33  C   UNK d   0      -1.239  -8.141  29.266  0.00  0.00     0.151 C 
BRANCH  33  34
ATOM     34  C   UNK d   0      -1.272  -8.537  30.686  0.00  0.00     0.143 C 
ATOM     35  O   UNK d   0      -1.426  -7.691  31.579  0.00  0.00    -0.650 OA
BRANCH  34  36
ATOM     36  O   UNK d   0      -1.129  -9.863  31.020  0.00  0.00    -0.776 OA
ATOM     37  H   UNK d   0      -1.193 -10.604  30.309  0.00  0.00     0.167 HD
ENDBRANCH  34  36
ENDBRANCH  33  34
ENDBRANCH   8  33
BRANCH  31  38
ATOM     38  C   UNK d   0       0.168  -0.643  29.295  0.00  0.00     0.151 C 
BRANCH  38  39
ATOM     39  C   UNK d   0       0.073  -0.699  30.738  0.00  0.00     0.143 C 
ATOM     40  O   UNK d   0       0.050   0.325  31.443  0.00  0.00    -0.650 OA
BRANCH  39  41
ATOM     41  O   UNK d   0       0.004  -1.938  31.374  0.00  0.00    -0.776 OA
ATOM     42  H   UNK d   0      -0.007  -2.767  30.770  0.00  0.00     0.167 HD
ENDBRANCH  39  41
ENDBRANCH  38  39
ENDBRANCH  31  38
BRANCH  27  43
ATOM     43  C   UNK d   0       3.004   0.546  29.071  0.00  0.00     0.052 C 
BRANCH  43  44
ATOM     44  C   UNK d   0       3.231   1.461  27.912  0.00  0.00     0.115 C 
BRANCH  44  45
ATOM     45  C   UNK d   0       4.672   1.825  27.935  0.00  0.00     0.139 C 
ATOM     46  O   UNK d   0       5.303   1.678  29.011  0.00  0.00    -0.650 OA
BRANCH  45  47
ATOM     47  O   UNK d   0       5.338   2.308  26.829  0.00  0.00    -0.776 OA
ATOM     48  H   UNK d   0       5.407   1.783  25.942  0.00  0.00     0.167 HD
ENDBRANCH  45  47
ENDBRANCH  44  45
ENDBRANCH  43  44
ENDBRANCH  27  43
BRANCH  24  49
ATOM     49  C   UNK d   0       8.128  -1.180  27.879  0.00  0.00     0.052 C 
BRANCH  49  50
ATOM     50  C   UNK d   0       8.600  -1.228  26.448  0.00  0.00     0.115 C 
BRANCH  50  51
ATOM     51  C   UNK d   0       7.729  -0.638  25.441  0.00  0.00     0.139 C 
ATOM     52  O   UNK d   0       6.908   0.272  25.706  0.00  0.00    -0.650 OA
BRANCH  51  53
ATOM     53  O   UNK d   0       7.791  -1.087  24.131  0.00  0.00    -0.776 OA
ATOM     54  H   UNK d   0       8.679  -1.059  23.661  0.00  0.00     0.167 HD
ENDBRANCH  51  53
ENDBRANCH  50  51
ENDBRANCH  49  50
ENDBRANCH  24  49
BRANCH  21  55
ATOM     55  C   UNK d   0       9.253  -3.923  28.749  0.00  0.00     0.151 C 
BRANCH  55  56
ATOM     56  C   UNK d   0       9.642  -3.992  30.166  0.00  0.00     0.143 C 
ATOM     57  O   UNK d   0       9.911  -5.065  30.740  0.00  0.00    -0.650 OA
BRANCH  56  58
ATOM     58  O   UNK d   0       9.706  -2.796  30.880  0.00  0.00    -0.776 OA
ATOM     59  H   UNK d   0       9.358  -2.851  31.854  0.00  0.00     0.167 HD
ENDBRANCH  56  58
ENDBRANCH  55  56
ENDBRANCH  21  55
BRANCH  18  60
ATOM     60  C   UNK d   0       6.675  -8.599  28.202  0.00  0.00     0.151 C 
BRANCH  60  61
ATOM     61  C   UNK d   0       7.561  -8.826  29.355  0.00  0.00     0.143 C 
ATOM     62  O   UNK d   0       8.720  -8.433  29.488  0.00  0.00    -0.650 OA
BRANCH  61  63
ATOM     63  O   UNK d   0       6.994  -9.578  30.411  0.00  0.00    -0.776 OA
ATOM     64  H   UNK d   0       6.089 -10.004  30.317  0.00  0.00     0.167 HD
ENDBRANCH  61  63
ENDBRANCH  60  61
ENDBRANCH  18  60
BRANCH  14  65
ATOM     65  C   UNK d   0       3.913  -9.809  28.544  0.00  0.00     0.052 C 
BRANCH  65  66
ATOM     66  C   UNK d   0       2.477 -10.050  28.237  0.00  0.00     0.115 C 
BRANCH  66  67
ATOM     67  C   UNK d   0       1.803 -11.173  28.825  0.00  0.00     0.139 C 
ATOM     68  O   UNK d   0       2.491 -12.219  29.115  0.00  0.00    -0.650 OA
BRANCH  67  69
ATOM     69  O   UNK d   0       0.448 -11.287  29.136  0.00  0.00    -0.776 OA
ATOM     70  H   UNK d   0       0.226 -11.405  30.136  0.00  0.00     0.167 HD
ENDBRANCH  67  69
ENDBRANCH  66  67
ENDBRANCH  65  66
ENDBRANCH  14  65
ENDBRANCH   6   7
ENDBRANCH   5   6
ENDBRANCH   2   5
TORSDOF 28
ENDMDL
MODEL 11
REMARK VINA RESULT:      -9.7      1.673      8.016
REMARK  28 active torsions:
REMARK  status: ('A' for Active; 'I' for Inactive)
REMARK    1  A    between atoms: C_2  and  O_3 
REMARK    2  A    between atoms: C_2  and  C_4 
REMARK    3  A    between atoms: C_4  and  C_5 
REMARK    4  A    between atoms: C_5  and  C_6 
REMARK    5  A    between atoms: C_7  and  C_8 
REMARK    6  A    between atoms: C_8  and  C_9 
REMARK    7  A    between atoms: C_9  and  O_11 
REMARK    8  A    between atoms: C_28  and  C_29 
REMARK    9  A    between atoms: C_29  and  C_30 
REMARK   10  A    between atoms: C_30  and  O_32 
REMARK   11  A    between atoms: C_33  and  C_34 
REMARK   12  A    between atoms: C_34  and  C_35 
REMARK   13  A    between atoms: C_35  and  C_36 
REMARK   14  A    between atoms: C_36  and  O_38 
REMARK   15  A    between atoms: C_39  and  C_40 
REMARK   16  A    between atoms: C_40  and  C_41 
REMARK   17  A    between atoms: C_41  and  C_42 
REMARK   18  A    between atoms: C_42  and  O_44 
REMARK   19  A    between atoms: C_45  and  C_46 
REMARK   20  A    between atoms: C_46  and  C_47 
REMARK   21  A    between atoms: C_47  and  O_49 
REMARK   22  A    between atoms: C_50  and  C_51 
REMARK   23  A    between atoms: C_51  and  C_52 
REMARK   24  A    between atoms: C_52  and  O_54 
REMARK   25  A    between atoms: C_55  and  C_56 
REMARK   26  A    between atoms: C_56  and  C_57 
REMARK   27  A    between atoms: C_57  and  C_58 
REMARK   28  A    between atoms: C_58  and  O_60 
ROOT
ATOM      1  O   UNK d   0      -1.045  -3.309  33.163  0.00  0.00    -0.650 OA
ATOM      2  C   UNK d   0       0.036  -3.929  33.044  0.00  0.00     0.139 C 
ENDROOT
BRANCH   2   3
ATOM      3  O   UNK d   0       1.219  -3.230  33.066  0.00  0.00    -0.776 OA
ATOM      4  H   UNK d   0       1.490  -2.628  32.286  0.00  0.00     0.167 HD
ENDBRANCH   2   3
BRANCH   2   5
ATOM      5  C   UNK d   0       0.034  -5.410  32.878  0.00  0.00     0.115 C 
BRANCH   5   6
ATOM      6  C   UNK d   0       0.443  -5.775  31.477  0.00  0.00     0.052 C 
BRANCH   6   7
ATOM      7  C   UNK d   0      -0.727  -5.824  30.524  0.00  0.00    -0.020 A 
ATOM      8  C   UNK d   0      -1.388  -6.880  30.125  0.00  0.00    -0.011 A 
ATOM      9  C   UNK d   0      -2.423  -6.437  29.206  0.00  0.00     0.067 A 
ATOM     10  C   UNK d   0      -3.450  -7.045  28.468  0.00  0.00     0.062 C 
ATOM     11  N   UNK d   0      -2.315  -5.096  29.098  0.00  0.00    -0.248 NA
ATOM     12  C   UNK d   0      -4.534  -6.416  27.846  0.00  0.00     0.041 A 
ATOM     13  N   UNK d   0      -4.603  -5.286  27.116  0.00  0.00    -0.355 N 
ATOM     14  C   UNK d   0      -5.820  -6.962  28.004  0.00  0.00    -0.022 A 
ATOM     15  C   UNK d   0      -5.902  -5.097  26.814  0.00  0.00     0.042 A 
ATOM     16  H   UNK d   0      -3.749  -4.645  26.804  0.00  0.00     0.166 HD
ATOM     17  C   UNK d   0      -6.528  -4.075  26.073  0.00  0.00     0.062 C 
ATOM     18  C   UNK d   0      -6.695  -6.128  27.353  0.00  0.00    -0.013 A 
ATOM     19  C   UNK d   0      -6.326  -2.720  26.131  0.00  0.00     0.067 A 
ATOM     20  N   UNK d   0      -5.269  -2.296  26.829  0.00  0.00    -0.248 NA
ATOM     21  C   UNK d   0      -7.002  -1.540  25.619  0.00  0.00    -0.011 A 
ATOM     22  C   UNK d   0      -5.205  -0.924  26.811  0.00  0.00     0.066 A 
ATOM     23  C   UNK d   0      -4.129  -0.348  27.469  0.00  0.00     0.062 C 
ATOM     24  C   UNK d   0      -6.343  -0.492  26.023  0.00  0.00    -0.020 A 
ATOM     25  C   UNK d   0      -3.044  -0.998  28.076  0.00  0.00     0.041 A 
ATOM     26  N   UNK d   0      -2.977  -2.113  28.814  0.00  0.00    -0.355 N 
ATOM     27  C   UNK d   0      -1.752  -0.452  27.913  0.00  0.00    -0.022 A 
ATOM     28  C   UNK d   0      -1.684  -2.299  29.124  0.00  0.00     0.042 A 
ATOM     29  H   UNK d   0      -3.837  -2.750  29.135  0.00  0.00     0.166 HD
ATOM     30  C   UNK d   0      -1.048  -3.305  29.868  0.00  0.00     0.062 C 
ATOM     31  C   UNK d   0      -0.885  -1.268  28.573  0.00  0.00    -0.013 A 
ATOM     32  C   UNK d   0      -1.314  -4.665  29.868  0.00  0.00     0.066 A 
BRANCH   8  33
ATOM     33  C   UNK d   0      -1.142  -8.279  30.520  0.00  0.00     0.151 C 
BRANCH  33  34
ATOM     34  C   UNK d   0      -0.054  -8.907  29.748  0.00  0.00     0.143 C 
ATOM     35  O   UNK d   0      -0.197  -9.170  28.546  0.00  0.00    -0.650 OA
BRANCH  34  36
ATOM     36  O   UNK d   0       1.134  -9.204  30.374  0.00  0.00    -0.776 OA
ATOM     37  H   UNK d   0       1.229 -10.036  30.974  0.00  0.00     0.167 HD
ENDBRANCH  34  36
ENDBRANCH  33  34
ENDBRANCH   8  33
BRANCH  31  38
ATOM     38  C   UNK d   0       0.612  -1.091  28.664  0.00  0.00     0.151 C 
BRANCH  38  39
ATOM     39  C   UNK d   0       1.008  -0.196  29.730  0.00  0.00     0.143 C 
ATOM     40  O   UNK d   0       2.105   0.390  29.734  0.00  0.00    -0.650 OA
BRANCH  39  41
ATOM     41  O   UNK d   0       0.137   0.029  30.796  0.00  0.00    -0.776 OA
ATOM     42  H   UNK d   0      -0.317  -0.795  31.202  0.00  0.00     0.167 HD
ENDBRANCH  39  41
ENDBRANCH  38  39
ENDBRANCH  31  38
BRANCH  27  43
ATOM     43  C   UNK d   0      -1.323   0.791  27.173  0.00  0.00     0.052 C 
BRANCH  43  44
ATOM     44  C   UNK d   0      -1.928   2.043  27.720  0.00  0.00     0.115 C 
BRANCH  44  45
ATOM     45  C   UNK d   0      -0.972   2.570  28.728  0.00  0.00     0.139 C 
ATOM     46  O   UNK d   0      -1.303   2.524  29.939  0.00  0.00    -0.650 OA
BRANCH  45  47
ATOM     47  O   UNK d   0       0.255   3.098  28.390  0.00  0.00    -0.776 OA
ATOM     48  H   UNK d   0       0.415   3.633  27.520  0.00  0.00     0.167 HD
ENDBRANCH  45  47
ENDBRANCH  44  45
ENDBRANCH  43  44
ENDBRANCH  27  43
BRANCH  24  49
ATOM     49  C   UNK d   0      -6.659   0.910  25.700  0.00  0.00     0.052 C 
BRANCH  49  50
ATOM     50  C   UNK d   0      -5.809   1.388  24.551  0.00  0.00     0.115 C 
BRANCH  50  51
ATOM     51  C   UNK d   0      -4.733   2.320  24.863  0.00  0.00     0.139 C 
ATOM     52  O   UNK d   0      -4.724   3.019  25.904  0.00  0.00    -0.650 OA
BRANCH  51  53
ATOM     53  O   UNK d   0      -3.668   2.456  23.986  0.00  0.00    -0.776 OA
ATOM     54  H   UNK d   0      -3.759   2.068  23.064  0.00  0.00     0.167 HD
ENDBRANCH  51  53
ENDBRANCH  50  51
ENDBRANCH  49  50
ENDBRANCH  24  49
BRANCH  21  55
ATOM     55  C   UNK d   0      -8.232  -1.583  24.774  0.00  0.00     0.151 C 
BRANCH  55  56
ATOM     56  C   UNK d   0      -9.419  -1.974  25.549  0.00  0.00     0.143 C 
ATOM     57  O   UNK d   0      -9.703  -1.466  26.652  0.00  0.00    -0.650 OA
BRANCH  56  58
ATOM     58  O   UNK d   0     -10.250  -2.956  25.013  0.00  0.00    -0.776 OA
ATOM     59  H   UNK d   0     -10.143  -3.897  25.434  0.00  0.00     0.167 HD
ENDBRANCH  56  58
ENDBRANCH  55  56
ENDBRANCH  21  55
BRANCH  18  60
ATOM     60  C   UNK d   0      -8.188  -6.332  27.276  0.00  0.00     0.151 C 
BRANCH  60  61
ATOM     61  C   UNK d   0      -8.422  -7.152  26.078  0.00  0.00     0.143 C 
ATOM     62  O   UNK d   0      -7.751  -7.166  25.046  0.00  0.00    -0.650 OA
BRANCH  61  63
ATOM     63  O   UNK d   0      -9.547  -8.008  26.144  0.00  0.00    -0.776 OA
ATOM     64  H   UNK d   0     -10.242  -8.009  25.418  0.00  0.00     0.167 HD
ENDBRANCH  61  63
ENDBRANCH  60  61
ENDBRANCH  18  60
BRANCH  14  65
ATOM     65  C   UNK d   0      -6.268  -8.251  28.632  0.00  0.00     0.052 C 
BRANCH  65  66
ATOM     66  C   UNK d   0      -5.928  -9.446  27.814  0.00  0.00     0.115 C 
BRANCH  66  67
ATOM     67  C   UNK d   0      -6.979 -10.269  27.284  0.00  0.00     0.139 C 
ATOM     68  O   UNK d   0      -7.438 -11.223  28.014  0.00  0.00    -0.650 OA
BRANCH  67  69
ATOM     69  O   UNK d   0      -7.593 -10.170  26.036  0.00  0.00    -0.776 OA
ATOM     70  H   UNK d   0      -8.479  -9.645  26.013  0.00  0.00     0.167 HD
ENDBRANCH  67  69
ENDBRANCH  66  67
ENDBRANCH  65  66
ENDBRANCH  14  65
ENDBRANCH   6   7
ENDBRANCH   5   6
ENDBRANCH   2   5
TORSDOF 28
ENDMDL
MODEL 12
REMARK VINA RESULT:      -9.7      1.737      8.002
REMARK  28 active torsions:
REMARK  status: ('A' for Active; 'I' for Inactive)
REMARK    1  A    between atoms: C_2  and  O_3 
REMARK    2  A    between atoms: C_2  and  C_4 
REMARK    3  A    between atoms: C_4  and  C_5 
REMARK    4  A    between atoms: C_5  and  C_6 
REMARK    5  A    between atoms: C_7  and  C_8 
REMARK    6  A    between atoms: C_8  and  C_9 
REMARK    7  A    between atoms: C_9  and  O_11 
REMARK    8  A    between atoms: C_28  and  C_29 
REMARK    9  A    between atoms: C_29  and  C_30 
REMARK   10  A    between atoms: C_30  and  O_32 
REMARK   11  A    between atoms: C_33  and  C_34 
REMARK   12  A    between atoms: C_34  and  C_35 
REMARK   13  A    between atoms: C_35  and  C_36 
REMARK   14  A    between atoms: C_36  and  O_38 
REMARK   15  A    between atoms: C_39  and  C_40 
REMARK   16  A    between atoms: C_40  and  C_41 
REMARK   17  A    between atoms: C_41  and  C_42 
REMARK   18  A    between atoms: C_42  and  O_44 
REMARK   19  A    between atoms: C_45  and  C_46 
REMARK   20  A    between atoms: C_46  and  C_47 
REMARK   21  A    between atoms: C_47  and  O_49 
REMARK   22  A    between atoms: C_50  and  C_51 
REMARK   23  A    between atoms: C_51  and  C_52 
REMARK   24  A    between atoms: C_52  and  O_54 
REMARK   25  A    between atoms: C_55  and  C_56 
REMARK   26  A    between atoms: C_56  and  C_57 
REMARK   27  A    between atoms: C_57  and  C_58 
REMARK   28  A    between atoms: C_58  and  O_60 
ROOT
ATOM      1  O   UNK d   0      -1.256 -11.886  29.510  0.00  0.00    -0.650 OA
ATOM      2  C   UNK d   0      -1.743 -10.872  28.961  0.00  0.00     0.139 C 
ENDROOT
BRANCH   2   3
ATOM      3  O   UNK d   0      -2.908 -10.990  28.243  0.00  0.00    -0.776 OA
ATOM      4  H   UNK d   0      -3.087 -10.401  27.427  0.00  0.00     0.167 HD
ENDBRANCH   2   3
BRANCH   2   5
ATOM      5  C   UNK d   0      -1.062  -9.553  29.087  0.00  0.00     0.115 C 
BRANCH   5   6
ATOM      6  C   UNK d   0      -1.512  -8.855  30.342  0.00  0.00     0.052 C 
BRANCH   6   7
ATOM      7  C   UNK d   0      -1.540  -7.353  30.194  0.00  0.00    -0.020 A 
ATOM      8  C   UNK d   0      -0.737  -6.481  30.749  0.00  0.00    -0.011 A 
ATOM      9  C   UNK d   0      -1.155  -5.156  30.321  0.00  0.00     0.067 A 
ATOM     10  C   UNK d   0      -0.718  -3.839  30.532  0.00  0.00     0.062 C 
ATOM     11  N   UNK d   0      -2.223  -5.315  29.512  0.00  0.00    -0.248 NA
ATOM     12  C   UNK d   0      -1.081  -2.699  29.808  0.00  0.00     0.041 A 
ATOM     13  N   UNK d   0      -2.277  -2.287  29.346  0.00  0.00    -0.355 N 
ATOM     14  C   UNK d   0      -0.077  -1.801  29.403  0.00  0.00    -0.022 A 
ATOM     15  C   UNK d   0      -2.056  -1.154  28.652  0.00  0.00     0.042 A 
ATOM     16  H   UNK d   0      -3.260  -2.776  29.523  0.00  0.00     0.166 HD
ATOM     17  C   UNK d   0      -2.955  -0.314  27.965  0.00  0.00     0.062 C 
ATOM     18  C   UNK d   0      -0.689  -0.818  28.665  0.00  0.00    -0.013 A 
ATOM     19  C   UNK d   0      -3.978  -0.655  27.118  0.00  0.00     0.067 A 
ATOM     20  N   UNK d   0      -4.319  -1.945  27.069  0.00  0.00    -0.248 NA
ATOM     21  C   UNK d   0      -4.842   0.051  26.185  0.00  0.00    -0.011 A 
ATOM     22  C   UNK d   0      -5.341  -2.135  26.171  0.00  0.00     0.066 A 
ATOM     23  C   UNK d   0      -5.820  -3.431  26.048  0.00  0.00     0.062 C 
ATOM     24  C   UNK d   0      -5.634  -0.822  25.632  0.00  0.00    -0.020 A 
ATOM     25  C   UNK d   0      -5.450  -4.560  26.795  0.00  0.00     0.041 A 
ATOM     26  N   UNK d   0      -4.260  -4.978  27.242  0.00  0.00    -0.355 N 
ATOM     27  C   UNK d   0      -6.459  -5.459  27.205  0.00  0.00    -0.022 A 
ATOM     28  C   UNK d   0      -4.476  -6.112  27.926  0.00  0.00     0.042 A 
ATOM     29  H   UNK d   0      -3.271  -4.491  27.054  0.00  0.00     0.166 HD
ATOM     30  C   UNK d   0      -3.590  -6.963  28.607  0.00  0.00     0.062 C 
ATOM     31  C   UNK d   0      -5.852  -6.443  27.921  0.00  0.00    -0.013 A 
ATOM     32  C   UNK d   0      -2.505  -6.613  29.394  0.00  0.00     0.066 A 
BRANCH   8  33
ATOM     33  C   UNK d   0       0.392  -6.768  31.653  0.00  0.00     0.151 C 
BRANCH  33  34
ATOM     34  C   UNK d   0       1.670  -6.926  30.938  0.00  0.00     0.143 C 
ATOM     35  O   UNK d   0       1.999  -8.020  30.455  0.00  0.00    -0.650 OA
BRANCH  34  36
ATOM     36  O   UNK d   0       2.510  -5.844  30.807  0.00  0.00    -0.776 OA
ATOM     37  H   UNK d   0       3.129  -5.552  31.575  0.00  0.00     0.167 HD
ENDBRANCH  34  36
ENDBRANCH  33  34
ENDBRANCH   8  33
BRANCH  31  38
ATOM     38  C   UNK d   0      -6.535  -7.622  28.574  0.00  0.00     0.151 C 
BRANCH  38  39
ATOM     39  C   UNK d   0      -6.465  -8.826  27.774  0.00  0.00     0.143 C 
ATOM     40  O   UNK d   0      -7.274  -9.065  26.860  0.00  0.00    -0.650 OA
BRANCH  39  41
ATOM     41  O   UNK d   0      -5.460  -9.759  28.024  0.00  0.00    -0.776 OA
ATOM     42  H   UNK d   0      -5.573 -10.685  27.598  0.00  0.00     0.167 HD
ENDBRANCH  39  41
ENDBRANCH  38  39
ENDBRANCH  31  38
BRANCH  27  43
ATOM     43  C   UNK d   0      -7.944  -5.417  26.943  0.00  0.00     0.052 C 
BRANCH  43  44
ATOM     44  C   UNK d   0      -8.349  -6.171  25.718  0.00  0.00     0.115 C 
BRANCH  44  45
ATOM     45  C   UNK d   0      -9.690  -6.748  25.999  0.00  0.00     0.139 C 
ATOM     46  O   UNK d   0     -10.625  -5.960  26.284  0.00  0.00    -0.650 OA
BRANCH  45  47
ATOM     47  O   UNK d   0      -9.945  -8.102  25.954  0.00  0.00    -0.776 OA
ATOM     48  H   UNK d   0     -10.868  -8.506  26.181  0.00  0.00     0.167 HD
ENDBRANCH  45  47
ENDBRANCH  44  45
ENDBRANCH  43  44
ENDBRANCH  27  43
BRANCH  24  49
ATOM     49  C   UNK d   0      -6.696  -0.533  24.653  0.00  0.00     0.052 C 
BRANCH  49  50
ATOM     50  C   UNK d   0      -8.010  -0.306  25.356  0.00  0.00     0.115 C 
BRANCH  50  51
ATOM     51  C   UNK d   0      -9.097  -1.224  25.045  0.00  0.00     0.139 C 
ATOM     52  O   UNK d   0     -10.276  -0.839  24.861  0.00  0.00    -0.650 OA
BRANCH  51  53
ATOM     53  O   UNK d   0      -8.841  -2.583  24.945  0.00  0.00    -0.776 OA
ATOM     54  H   UNK d   0      -7.944  -2.873  24.597  0.00  0.00     0.167 HD
ENDBRANCH  51  53
ENDBRANCH  50  51
ENDBRANCH  49  50
ENDBRANCH  24  49
BRANCH  21  55
ATOM     55  C   UNK d   0      -4.788   1.524  25.948  0.00  0.00     0.151 C 
BRANCH  55  56
ATOM     56  C   UNK d   0      -3.579   1.920  25.210  0.00  0.00     0.143 C 
ATOM     57  O   UNK d   0      -2.497   2.174  25.773  0.00  0.00    -0.650 OA
BRANCH  56  58
ATOM     58  O   UNK d   0      -3.667   2.009  23.821  0.00  0.00    -0.776 OA
ATOM     59  H   UNK d   0      -4.610   2.239  23.458  0.00  0.00     0.167 HD
ENDBRANCH  56  58
ENDBRANCH  55  56
ENDBRANCH  21  55
BRANCH  18  60
ATOM     60  C   UNK d   0       0.020   0.351  28.027  0.00  0.00     0.151 C 
BRANCH  60  61
ATOM     61  C   UNK d   0      -0.415   1.543  28.771  0.00  0.00     0.143 C 
ATOM     62  O   UNK d   0      -0.640   1.622  29.979  0.00  0.00    -0.650 OA
BRANCH  61  63
ATOM     63  O   UNK d   0      -0.586   2.711  27.991  0.00  0.00    -0.776 OA
ATOM     64  H   UNK d   0      -0.671   3.615  28.422  0.00  0.00     0.167 HD
ENDBRANCH  61  63
ENDBRANCH  60  61
ENDBRANCH  18  60
BRANCH  14  65
ATOM     65  C   UNK d   0       1.386  -1.748  29.741  0.00  0.00     0.052 C 
BRANCH  65  66
ATOM     66  C   UNK d   0       1.667  -0.998  30.994  0.00  0.00     0.115 C 
BRANCH  66  67
ATOM     67  C   UNK d   0       1.235  -1.532  32.255  0.00  0.00     0.139 C 
ATOM     68  O   UNK d   0       1.779  -2.616  32.682  0.00  0.00    -0.650 OA
BRANCH  67  69
ATOM     69  O   UNK d   0       0.265  -1.015  33.114  0.00  0.00    -0.776 OA
ATOM     70  H   UNK d   0       0.292  -1.365  34.082  0.00  0.00     0.167 HD
ENDBRANCH  67  69
ENDBRANCH  66  67
ENDBRANCH  65  66
ENDBRANCH  14  65
ENDBRANCH   6   7
ENDBRANCH   5   6
ENDBRANCH   2   5
TORSDOF 28
ENDMDL
MODEL 13
REMARK VINA RESULT:      -9.6      1.330      4.235
REMARK  28 active torsions:
REMARK  status: ('A' for Active; 'I' for Inactive)
REMARK    1  A    between atoms: C_2  and  O_3 
REMARK    2  A    between atoms: C_2  and  C_4 
REMARK    3  A    between atoms: C_4  and  C_5 
REMARK    4  A    between atoms: C_5  and  C_6 
REMARK    5  A    between atoms: C_7  and  C_8 
REMARK    6  A    between atoms: C_8  and  C_9 
REMARK    7  A    between atoms: C_9  and  O_11 
REMARK    8  A    between atoms: C_28  and  C_29 
REMARK    9  A    between atoms: C_29  and  C_30 
REMARK   10  A    between atoms: C_30  and  O_32 
REMARK   11  A    between atoms: C_33  and  C_34 
REMARK   12  A    between atoms: C_34  and  C_35 
REMARK   13  A    between atoms: C_35  and  C_36 
REMARK   14  A    between atoms: C_36  and  O_38 
REMARK   15  A    between atoms: C_39  and  C_40 
REMARK   16  A    between atoms: C_40  and  C_41 
REMARK   17  A    between atoms: C_41  and  C_42 
REMARK   18  A    between atoms: C_42  and  O_44 
REMARK   19  A    between atoms: C_45  and  C_46 
REMARK   20  A    between atoms: C_46  and  C_47 
REMARK   21  A    between atoms: C_47  and  O_49 
REMARK   22  A    between atoms: C_50  and  C_51 
REMARK   23  A    between atoms: C_51  and  C_52 
REMARK   24  A    between atoms: C_52  and  O_54 
REMARK   25  A    between atoms: C_55  and  C_56 
REMARK   26  A    between atoms: C_56  and  C_57 
REMARK   27  A    between atoms: C_57  and  C_58 
REMARK   28  A    between atoms: C_58  and  O_60 
ROOT
ATOM      1  O   UNK d   0      -0.585  -4.769  33.179  0.00  0.00    -0.650 OA
ATOM      2  C   UNK d   0       0.546  -4.726  32.646  0.00  0.00     0.139 C 
ENDROOT
BRANCH   2   3
ATOM      3  O   UNK d   0       1.523  -3.933  33.200  0.00  0.00    -0.776 OA
ATOM      4  H   UNK d   0       1.783  -4.028  34.184  0.00  0.00     0.167 HD
ENDBRANCH   2   3
BRANCH   2   5
ATOM      5  C   UNK d   0       0.827  -5.527  31.421  0.00  0.00     0.115 C 
BRANCH   5   6
ATOM      6  C   UNK d   0       1.266  -4.623  30.301  0.00  0.00     0.052 C 
BRANCH   6   7
ATOM      7  C   UNK d   0       0.154  -3.730  29.806  0.00  0.00    -0.020 A 
ATOM      8  C   UNK d   0       0.147  -2.423  29.744  0.00  0.00    -0.011 A 
ATOM      9  C   UNK d   0      -1.139  -2.009  29.209  0.00  0.00     0.067 A 
ATOM     10  C   UNK d   0      -1.756  -0.790  28.884  0.00  0.00     0.062 C 
ATOM     11  N   UNK d   0      -1.856  -3.128  28.978  0.00  0.00    -0.248 NA
ATOM     12  C   UNK d   0      -2.908  -0.603  28.113  0.00  0.00     0.041 A 
ATOM     13  N   UNK d   0      -4.080  -1.265  28.096  0.00  0.00    -0.355 N 
ATOM     14  C   UNK d   0      -2.908   0.394  27.121  0.00  0.00    -0.022 A 
ATOM     15  C   UNK d   0      -4.821  -0.718  27.113  0.00  0.00     0.042 A 
ATOM     16  H   UNK d   0      -4.386  -2.089  28.777  0.00  0.00     0.166 HD
ATOM     17  C   UNK d   0      -6.122  -1.029  26.670  0.00  0.00     0.062 C 
ATOM     18  C   UNK d   0      -4.119   0.325  26.479  0.00  0.00    -0.013 A 
ATOM     19  C   UNK d   0      -6.682  -2.258  26.433  0.00  0.00     0.067 A 
ATOM     20  N   UNK d   0      -5.998  -3.325  26.853  0.00  0.00    -0.248 NA
ATOM     21  C   UNK d   0      -7.892  -2.749  25.794  0.00  0.00    -0.011 A 
ATOM     22  C   UNK d   0      -6.672  -4.479  26.534  0.00  0.00     0.066 A 
ATOM     23  C   UNK d   0      -6.089  -5.667  26.948  0.00  0.00     0.062 C 
ATOM     24  C   UNK d   0      -7.877  -4.050  25.852  0.00  0.00    -0.020 A 
ATOM     25  C   UNK d   0      -4.938  -5.833  27.734  0.00  0.00     0.041 A 
ATOM     26  N   UNK d   0      -3.767  -5.186  27.740  0.00  0.00    -0.355 N 
ATOM     27  C   UNK d   0      -4.941  -6.832  28.732  0.00  0.00    -0.022 A 
ATOM     28  C   UNK d   0      -3.023  -5.735  28.714  0.00  0.00     0.042 A 
ATOM     29  H   UNK d   0      -3.457  -4.365  27.048  0.00  0.00     0.166 HD
ATOM     30  C   UNK d   0      -1.724  -5.442  29.159  0.00  0.00     0.062 C 
ATOM     31  C   UNK d   0      -3.733  -6.776  29.357  0.00  0.00    -0.013 A 
ATOM     32  C   UNK d   0      -1.134  -4.198  29.316  0.00  0.00     0.066 A 
BRANCH   8  33
ATOM     33  C   UNK d   0       1.236  -1.513  30.145  0.00  0.00     0.151 C 
BRANCH  33  34
ATOM     34  C   UNK d   0       0.931  -0.767  31.380  0.00  0.00     0.143 C 
ATOM     35  O   UNK d   0       0.283   0.288  31.342  0.00  0.00    -0.650 OA
BRANCH  34  36
ATOM     36  O   UNK d   0       1.375  -1.252  32.588  0.00  0.00    -0.776 OA
ATOM     37  H   UNK d   0       2.168  -1.905  32.643  0.00  0.00     0.167 HD
ENDBRANCH  34  36
ENDBRANCH  33  34
ENDBRANCH   8  33
BRANCH  31  38
ATOM     38  C   UNK d   0      -3.283  -7.648  30.506  0.00  0.00     0.151 C 
BRANCH  38  39
ATOM     39  C   UNK d   0      -2.359  -8.684  30.096  0.00  0.00     0.143 C 
ATOM     40  O   UNK d   0      -2.666  -9.561  29.270  0.00  0.00    -0.650 OA
BRANCH  39  41
ATOM     41  O   UNK d   0      -1.074  -8.711  30.638  0.00  0.00    -0.776 OA
ATOM     42  H   UNK d   0      -0.989  -8.489  31.635  0.00  0.00     0.167 HD
ENDBRANCH  39  41
ENDBRANCH  38  39
ENDBRANCH  31  38
BRANCH  27  43
ATOM     43  C   UNK d   0      -6.023  -7.814  29.102  0.00  0.00     0.052 C 
BRANCH  43  44
ATOM     44  C   UNK d   0      -6.683  -8.441  27.916  0.00  0.00     0.115 C 
BRANCH  44  45
ATOM     45  C   UNK d   0      -6.284  -9.872  27.916  0.00  0.00     0.139 C 
ATOM     46  O   UNK d   0      -7.193 -10.740  27.914  0.00  0.00    -0.650 OA
BRANCH  45  47
ATOM     47  O   UNK d   0      -4.969 -10.282  27.913  0.00  0.00    -0.776 OA
ATOM     48  H   UNK d   0      -4.404 -10.345  27.050  0.00  0.00     0.167 HD
ENDBRANCH  45  47
ENDBRANCH  44  45
ENDBRANCH  43  44
ENDBRANCH  27  43
BRANCH  24  49
ATOM     49  C   UNK d   0      -8.931  -4.953  25.358  0.00  0.00     0.052 C 
BRANCH  49  50
ATOM     50  C   UNK d   0      -9.773  -5.453  26.504  0.00  0.00     0.115 C 
BRANCH  50  51
ATOM     51  C   UNK d   0     -11.140  -4.956  26.590  0.00  0.00     0.139 C 
ATOM     52  O   UNK d   0     -11.918  -5.278  27.519  0.00  0.00    -0.650 OA
BRANCH  51  53
ATOM     53  O   UNK d   0     -11.620  -4.095  25.616  0.00  0.00    -0.776 OA
ATOM     54  H   UNK d   0     -12.081  -4.492  24.816  0.00  0.00     0.167 HD
ENDBRANCH  51  53
ENDBRANCH  50  51
ENDBRANCH  49  50
ENDBRANCH  24  49
BRANCH  21  55
ATOM     55  C   UNK d   0      -8.937  -1.868  25.195  0.00  0.00     0.151 C 
BRANCH  55  56
ATOM     56  C   UNK d   0      -8.362  -0.882  24.267  0.00  0.00     0.143 C 
ATOM     57  O   UNK d   0      -8.453   0.349  24.449  0.00  0.00    -0.650 OA
BRANCH  56  58
ATOM     58  O   UNK d   0      -7.689  -1.361  23.145  0.00  0.00    -0.776 OA
ATOM     59  H   UNK d   0      -8.302  -1.672  22.369  0.00  0.00     0.167 HD
ENDBRANCH  56  58
ENDBRANCH  55  56
ENDBRANCH  21  55
BRANCH  18  60
ATOM     60  C   UNK d   0      -4.543   1.212  25.335  0.00  0.00     0.151 C 
BRANCH  60  61
ATOM     61  C   UNK d   0      -5.349   2.287  25.935  0.00  0.00     0.143 C 
ATOM     62  O   UNK d   0      -4.934   3.314  26.472  0.00  0.00    -0.650 OA
BRANCH  61  63
ATOM     63  O   UNK d   0      -6.751   2.094  25.874  0.00  0.00    -0.776 OA
ATOM     64  H   UNK d   0      -7.167   1.226  26.160  0.00  0.00     0.167 HD
ENDBRANCH  61  63
ENDBRANCH  60  61
ENDBRANCH  18  60
BRANCH  14  65
ATOM     65  C   UNK d   0      -1.899   1.461  26.802  0.00  0.00     0.052 C 
BRANCH  65  66
ATOM     66  C   UNK d   0      -1.886   2.566  27.798  0.00  0.00     0.115 C 
BRANCH  66  67
ATOM     67  C   UNK d   0      -0.827   2.640  28.765  0.00  0.00     0.139 C 
ATOM     68  O   UNK d   0      -1.067   3.206  29.895  0.00  0.00    -0.650 OA
BRANCH  67  69
ATOM     69  O   UNK d   0       0.477   2.163  28.641  0.00  0.00    -0.776 OA
ATOM     70  H   UNK d   0       0.573   1.143  28.530  0.00  0.00     0.167 HD
ENDBRANCH  67  69
ENDBRANCH  66  67
ENDBRANCH  65  66
ENDBRANCH  14  65
ENDBRANCH   6   7
ENDBRANCH   5   6
ENDBRANCH   2   5
TORSDOF 28
ENDMDL
MODEL 14
REMARK VINA RESULT:      -9.6      1.733      7.864
REMARK  28 active torsions:
REMARK  status: ('A' for Active; 'I' for Inactive)
REMARK    1  A    between atoms: C_2  and  O_3 
REMARK    2  A    between atoms: C_2  and  C_4 
REMARK    3  A    between atoms: C_4  and  C_5 
REMARK    4  A    between atoms: C_5  and  C_6 
REMARK    5  A    between atoms: C_7  and  C_8 
REMARK    6  A    between atoms: C_8  and  C_9 
REMARK    7  A    between atoms: C_9  and  O_11 
REMARK    8  A    between atoms: C_28  and  C_29 
REMARK    9  A    between atoms: C_29  and  C_30 
REMARK   10  A    between atoms: C_30  and  O_32 
REMARK   11  A    between atoms: C_33  and  C_34 
REMARK   12  A    between atoms: C_34  and  C_35 
REMARK   13  A    between atoms: C_35  and  C_36 
REMARK   14  A    between atoms: C_36  and  O_38 
REMARK   15  A    between atoms: C_39  and  C_40 
REMARK   16  A    between atoms: C_40  and  C_41 
REMARK   17  A    between atoms: C_41  and  C_42 
REMARK   18  A    between atoms: C_42  and  O_44 
REMARK   19  A    between atoms: C_45  and  C_46 
REMARK   20  A    between atoms: C_46  and  C_47 
REMARK   21  A    between atoms: C_47  and  O_49 
REMARK   22  A    between atoms: C_50  and  C_51 
REMARK   23  A    between atoms: C_51  and  C_52 
REMARK   24  A    between atoms: C_52  and  O_54 
REMARK   25  A    between atoms: C_55  and  C_56 
REMARK   26  A    between atoms: C_56  and  C_57 
REMARK   27  A    between atoms: C_57  and  C_58 
REMARK   28  A    between atoms: C_58  and  O_60 
ROOT
ATOM      1  O   UNK d   0      -2.245  -7.291  33.505  0.00  0.00    -0.650 OA
ATOM      2  C   UNK d   0      -2.362  -8.376  32.893  0.00  0.00     0.139 C 
ENDROOT
BRANCH   2   3
ATOM      3  O   UNK d   0      -2.233  -9.557  33.584  0.00  0.00    -0.776 OA
ATOM      4  H   UNK d   0      -1.687  -9.606  34.447  0.00  0.00     0.167 HD
ENDBRANCH   2   3
BRANCH   2   5
ATOM      5  C   UNK d   0      -2.639  -8.383  31.429  0.00  0.00     0.115 C 
BRANCH   5   6
ATOM      6  C   UNK d   0      -1.392  -8.030  30.665  0.00  0.00     0.052 C 
BRANCH   6   7
ATOM      7  C   UNK d   0      -1.306  -6.558  30.340  0.00  0.00    -0.020 A 
ATOM      8  C   UNK d   0      -0.444  -5.688  30.801  0.00  0.00    -0.011 A 
ATOM      9  C   UNK d   0      -0.759  -4.396  30.215  0.00  0.00     0.067 A 
ATOM     10  C   UNK d   0      -0.226  -3.099  30.275  0.00  0.00     0.062 C 
ATOM     11  N   UNK d   0      -1.832  -4.570  29.414  0.00  0.00    -0.248 NA
ATOM     12  C   UNK d   0      -0.499  -2.029  29.416  0.00  0.00     0.041 A 
ATOM     13  N   UNK d   0      -1.658  -1.587  28.892  0.00  0.00    -0.355 N 
ATOM     14  C   UNK d   0       0.572  -1.261  28.924  0.00  0.00    -0.022 A 
ATOM     15  C   UNK d   0      -1.349  -0.564  28.073  0.00  0.00     0.042 A 
ATOM     16  H   UNK d   0      -2.676  -1.978  29.111  0.00  0.00     0.166 HD
ATOM     17  C   UNK d   0      -2.179   0.253  27.279  0.00  0.00     0.062 C 
ATOM     18  C   UNK d   0       0.039  -0.330  28.067  0.00  0.00    -0.013 A 
ATOM     19  C   UNK d   0      -3.220  -0.110  26.463  0.00  0.00     0.067 A 
ATOM     20  N   UNK d   0      -3.655  -1.369  26.561  0.00  0.00    -0.248 NA
ATOM     21  C   UNK d   0      -4.023   0.542  25.442  0.00  0.00    -0.011 A 
ATOM     22  C   UNK d   0      -4.684  -1.588  25.678  0.00  0.00     0.066 A 
ATOM     23  C   UNK d   0      -5.258  -2.850  25.701  0.00  0.00     0.062 C 
ATOM     24  C   UNK d   0      -4.875  -0.329  24.983  0.00  0.00    -0.020 A 
ATOM     25  C   UNK d   0      -4.977  -3.907  26.581  0.00  0.00     0.041 A 
ATOM     26  N   UNK d   0      -3.824  -4.355  27.091  0.00  0.00    -0.355 N 
ATOM     27  C   UNK d   0      -6.053  -4.674  27.078  0.00  0.00    -0.022 A 
ATOM     28  C   UNK d   0      -4.128  -5.381  27.901  0.00  0.00     0.042 A 
ATOM     29  H   UNK d   0      -2.801  -3.968  26.861  0.00  0.00     0.166 HD
ATOM     30  C   UNK d   0      -3.313  -6.208  28.689  0.00  0.00     0.062 C 
ATOM     31  C   UNK d   0      -5.525  -5.609  27.915  0.00  0.00    -0.013 A 
ATOM     32  C   UNK d   0      -2.209  -5.849  29.446  0.00  0.00     0.066 A 
BRANCH   8  33
ATOM     33  C   UNK d   0       0.655  -5.948  31.749  0.00  0.00     0.151 C 
BRANCH  33  34
ATOM     34  C   UNK d   0       0.527  -5.173  32.997  0.00  0.00     0.143 C 
ATOM     35  O   UNK d   0       1.525  -4.699  33.557  0.00  0.00    -0.650 OA
BRANCH  34  36
ATOM     36  O   UNK d   0      -0.719  -4.978  33.546  0.00  0.00    -0.776 OA
ATOM     37  H   UNK d   0      -1.564  -5.364  33.103  0.00  0.00     0.167 HD
ENDBRANCH  34  36
ENDBRANCH  33  34
ENDBRANCH   8  33
BRANCH  31  38
ATOM     38  C   UNK d   0      -6.298  -6.649  28.692  0.00  0.00     0.151 C 
BRANCH  38  39
ATOM     39  C   UNK d   0      -6.261  -7.956  28.072  0.00  0.00     0.143 C 
ATOM     40  O   UNK d   0      -5.451  -8.834  28.418  0.00  0.00    -0.650 OA
BRANCH  39  41
ATOM     41  O   UNK d   0      -7.161  -8.256  27.049  0.00  0.00    -0.776 OA
ATOM     42  H   UNK d   0      -7.417  -9.242  26.934  0.00  0.00     0.167 HD
ENDBRANCH  39  41
ENDBRANCH  38  39
ENDBRANCH  31  38
BRANCH  27  43
ATOM     43  C   UNK d   0      -7.529  -4.555  26.792  0.00  0.00     0.052 C 
BRANCH  43  44
ATOM     44  C   UNK d   0      -7.971  -5.367  25.618  0.00  0.00     0.115 C 
BRANCH  44  45
ATOM     45  C   UNK d   0      -9.365  -5.797  25.899  0.00  0.00     0.139 C 
ATOM     46  O   UNK d   0     -10.267  -5.440  25.102  0.00  0.00    -0.650 OA
BRANCH  45  47
ATOM     47  O   UNK d   0      -9.703  -6.569  26.990  0.00  0.00    -0.776 OA
ATOM     48  H   UNK d   0     -10.449  -6.306  27.653  0.00  0.00     0.167 HD
ENDBRANCH  45  47
ENDBRANCH  44  45
ENDBRANCH  43  44
ENDBRANCH  27  43
BRANCH  24  49
ATOM     49  C   UNK d   0      -5.906  -0.081  23.962  0.00  0.00     0.052 C 
BRANCH  49  50
ATOM     50  C   UNK d   0      -7.218   0.271  24.616  0.00  0.00     0.115 C 
BRANCH  50  51
ATOM     51  C   UNK d   0      -8.385  -0.510  24.228  0.00  0.00     0.139 C 
ATOM     52  O   UNK d   0      -8.492  -1.734  24.474  0.00  0.00    -0.650 OA
BRANCH  51  53
ATOM     53  O   UNK d   0      -9.430   0.106  23.555  0.00  0.00    -0.776 OA
ATOM     54  H   UNK d   0      -9.796  -0.343  22.734  0.00  0.00     0.167 HD
ENDBRANCH  51  53
ENDBRANCH  50  51
ENDBRANCH  49  50
ENDBRANCH  24  49
BRANCH  21  55
ATOM     55  C   UNK d   0      -3.858   1.968  25.034  0.00  0.00     0.151 C 
BRANCH  55  56
ATOM     56  C   UNK d   0      -4.383   2.896  26.048  0.00  0.00     0.143 C 
ATOM     57  O   UNK d   0      -3.648   3.506  26.849  0.00  0.00    -0.650 OA
BRANCH  56  58
ATOM     58  O   UNK d   0      -5.762   3.088  26.099  0.00  0.00    -0.776 OA
ATOM     59  H   UNK d   0      -6.240   2.614  26.887  0.00  0.00     0.167 HD
ENDBRANCH  56  58
ENDBRANCH  55  56
ENDBRANCH  21  55
BRANCH  18  60
ATOM     60  C   UNK d   0       0.837   0.700  27.305  0.00  0.00     0.151 C 
BRANCH  60  61
ATOM     61  C   UNK d   0       1.154   1.761  28.273  0.00  0.00     0.143 C 
ATOM     62  O   UNK d   0       2.249   1.995  28.785  0.00  0.00    -0.650 OA
BRANCH  61  63
ATOM     63  O   UNK d   0       0.065   2.589  28.637  0.00  0.00    -0.776 OA
ATOM     64  H   UNK d   0      -0.765   2.202  29.050  0.00  0.00     0.167 HD
ENDBRANCH  61  63
ENDBRANCH  60  61
ENDBRANCH  18  60
BRANCH  14  65
ATOM     65  C   UNK d   0       2.033  -1.276  29.274  0.00  0.00     0.052 C 
BRANCH  65  66
ATOM     66  C   UNK d   0       2.824  -2.209  28.427  0.00  0.00     0.115 C 
BRANCH  66  67
ATOM     67  C   UNK d   0       3.991  -1.731  27.741  0.00  0.00     0.139 C 
ATOM     68  O   UNK d   0       5.121  -1.765  28.355  0.00  0.00    -0.650 OA
BRANCH  67  69
ATOM     69  O   UNK d   0       4.069  -1.213  26.449  0.00  0.00    -0.776 OA
ATOM     70  H   UNK d   0       4.446  -0.257  26.371  0.00  0.00     0.167 HD
ENDBRANCH  67  69
ENDBRANCH  66  67
ENDBRANCH  65  66
ENDBRANCH  14  65
ENDBRANCH   6   7
ENDBRANCH   5   6
ENDBRANCH   2   5
TORSDOF 28
ENDMDL
MODEL 15
REMARK VINA RESULT:      -9.5      1.335      1.819
REMARK  28 active torsions:
REMARK  status: ('A' for Active; 'I' for Inactive)
REMARK    1  A    between atoms: C_2  and  O_3 
REMARK    2  A    between atoms: C_2  and  C_4 
REMARK    3  A    between atoms: C_4  and  C_5 
REMARK    4  A    between atoms: C_5  and  C_6 
REMARK    5  A    between atoms: C_7  and  C_8 
REMARK    6  A    between atoms: C_8  and  C_9 
REMARK    7  A    between atoms: C_9  and  O_11 
REMARK    8  A    between atoms: C_28  and  C_29 
REMARK    9  A    between atoms: C_29  and  C_30 
REMARK   10  A    between atoms: C_30  and  O_32 
REMARK   11  A    between atoms: C_33  and  C_34 
REMARK   12  A    between atoms: C_34  and  C_35 
REMARK   13  A    between atoms: C_35  and  C_36 
REMARK   14  A    between atoms: C_36  and  O_38 
REMARK   15  A    between atoms: C_39  and  C_40 
REMARK   16  A    between atoms: C_40  and  C_41 
REMARK   17  A    between atoms: C_41  and  C_42 
REMARK   18  A    between atoms: C_42  and  O_44 
REMARK   19  A    between atoms: C_45  and  C_46 
REMARK   20  A    between atoms: C_46  and  C_47 
REMARK   21  A    between atoms: C_47  and  O_49 
REMARK   22  A    between atoms: C_50  and  C_51 
REMARK   23  A    between atoms: C_51  and  C_52 
REMARK   24  A    between atoms: C_52  and  O_54 
REMARK   25  A    between atoms: C_55  and  C_56 
REMARK   26  A    between atoms: C_56  and  C_57 
REMARK   27  A    between atoms: C_57  and  C_58 
REMARK   28  A    between atoms: C_58  and  O_60 
ROOT
ATOM      1  O   UNK d   0       4.049  -3.342  27.153  0.00  0.00    -0.650 OA
ATOM      2  C   UNK d   0       3.109  -2.940  27.875  0.00  0.00     0.139 C 
ENDROOT
BRANCH   2   3
ATOM      3  O   UNK d   0       2.580  -3.782  28.822  0.00  0.00    -0.776 OA
ATOM      4  H   UNK d   0       1.579  -3.984  28.849  0.00  0.00     0.167 HD
ENDBRANCH   2   3
BRANCH   2   5
ATOM      5  C   UNK d   0       2.572  -1.560  27.703  0.00  0.00     0.115 C 
BRANCH   5   6
ATOM      6  C   UNK d   0       1.651  -1.219  28.843  0.00  0.00     0.052 C 
BRANCH   6   7
ATOM      7  C   UNK d   0       0.216  -1.057  28.402  0.00  0.00    -0.020 A 
ATOM      8  C   UNK d   0      -0.360   0.022  27.936  0.00  0.00    -0.011 A 
ATOM      9  C   UNK d   0      -1.749  -0.301  27.656  0.00  0.00     0.067 A 
ATOM     10  C   UNK d   0      -2.862   0.380  27.138  0.00  0.00     0.062 C 
ATOM     11  N   UNK d   0      -1.934  -1.596  27.986  0.00  0.00    -0.248 NA
ATOM     12  C   UNK d   0      -4.058  -0.179  26.678  0.00  0.00     0.041 A 
ATOM     13  N   UNK d   0      -4.826  -1.166  27.179  0.00  0.00    -0.355 N 
ATOM     14  C   UNK d   0      -4.596   0.272  25.459  0.00  0.00    -0.022 A 
ATOM     15  C   UNK d   0      -5.832  -1.358  26.305  0.00  0.00     0.042 A 
ATOM     16  H   UNK d   0      -4.670  -1.704  28.140  0.00  0.00     0.166 HD
ATOM     17  C   UNK d   0      -6.912  -2.262  26.340  0.00  0.00     0.062 C 
ATOM     18  C   UNK d   0      -5.722  -0.475  25.214  0.00  0.00    -0.013 A 
ATOM     19  C   UNK d   0      -6.910  -3.596  26.658  0.00  0.00     0.067 A 
ATOM     20  N   UNK d   0      -5.792  -4.088  27.197  0.00  0.00    -0.248 NA
ATOM     21  C   UNK d   0      -7.852  -4.698  26.547  0.00  0.00    -0.011 A 
ATOM     22  C   UNK d   0      -5.933  -5.431  27.446  0.00  0.00     0.066 A 
ATOM     23  C   UNK d   0      -4.853  -6.064  28.045  0.00  0.00     0.062 C 
ATOM     24  C   UNK d   0      -7.272  -5.770  27.006  0.00  0.00    -0.020 A 
ATOM     25  C   UNK d   0      -3.665  -5.481  28.511  0.00  0.00     0.041 A 
ATOM     26  N   UNK d   0      -2.894  -4.510  28.006  0.00  0.00    -0.355 N 
ATOM     27  C   UNK d   0      -3.128  -5.932  29.737  0.00  0.00    -0.022 A 
ATOM     28  C   UNK d   0      -1.885  -4.323  28.872  0.00  0.00     0.042 A 
ATOM     29  H   UNK d   0      -3.046  -3.979  27.035  0.00  0.00     0.166 HD
ATOM     30  C   UNK d   0      -0.799  -3.434  28.845  0.00  0.00     0.062 C 
ATOM     31  C   UNK d   0      -2.002  -5.204  29.973  0.00  0.00    -0.013 A 
ATOM     32  C   UNK d   0      -0.790  -2.108  28.441  0.00  0.00     0.066 A 
BRANCH   8  33
ATOM     33  C   UNK d   0       0.267   1.340  27.730  0.00  0.00     0.151 C 
BRANCH  33  34
ATOM     34  C   UNK d   0      -0.160   2.338  28.727  0.00  0.00     0.143 C 
ATOM     35  O   UNK d   0      -0.925   2.027  29.652  0.00  0.00    -0.650 OA
BRANCH  34  36
ATOM     36  O   UNK d   0       0.297   3.632  28.627  0.00  0.00    -0.776 OA
ATOM     37  H   UNK d   0      -0.275   4.426  28.945  0.00  0.00     0.167 HD
ENDBRANCH  34  36
ENDBRANCH  33  34
ENDBRANCH   8  33
BRANCH  31  38
ATOM     38  C   UNK d   0      -1.098  -5.327  31.177  0.00  0.00     0.151 C 
BRANCH  38  39
ATOM     39  C   UNK d   0      -1.528  -4.505  32.288  0.00  0.00     0.143 C 
ATOM     40  O   UNK d   0      -2.392  -4.882  33.100  0.00  0.00    -0.650 OA
BRANCH  39  41
ATOM     41  O   UNK d   0      -0.962  -3.243  32.468  0.00  0.00    -0.776 OA
ATOM     42  H   UNK d   0      -1.090  -2.807  33.386  0.00  0.00     0.167 HD
ENDBRANCH  39  41
ENDBRANCH  38  39
ENDBRANCH  31  38
BRANCH  27  43
ATOM     43  C   UNK d   0      -3.634  -7.005  30.668  0.00  0.00     0.052 C 
BRANCH  43  44
ATOM     44  C   UNK d   0      -2.964  -8.325  30.468  0.00  0.00     0.115 C 
BRANCH  44  45
ATOM     45  C   UNK d   0      -2.207  -8.610  31.714  0.00  0.00     0.139 C 
ATOM     46  O   UNK d   0      -1.297  -9.475  31.669  0.00  0.00    -0.650 OA
BRANCH  45  47
ATOM     47  O   UNK d   0      -2.457  -7.964  32.905  0.00  0.00    -0.776 OA
ATOM     48  H   UNK d   0      -3.409  -7.843  33.287  0.00  0.00     0.167 HD
ENDBRANCH  45  47
ENDBRANCH  44  45
ENDBRANCH  43  44
ENDBRANCH  27  43
BRANCH  24  49
ATOM     49  C   UNK d   0      -7.880  -7.107  27.116  0.00  0.00     0.052 C 
BRANCH  49  50
ATOM     50  C   UNK d   0      -8.082  -7.706  25.748  0.00  0.00     0.115 C 
BRANCH  50  51
ATOM     51  C   UNK d   0      -8.822  -8.958  25.672  0.00  0.00     0.139 C 
ATOM     52  O   UNK d   0     -10.062  -9.001  25.496  0.00  0.00    -0.650 OA
BRANCH  51  53
ATOM     53  O   UNK d   0      -8.147 -10.163  25.800  0.00  0.00    -0.776 OA
ATOM     54  H   UNK d   0      -7.261 -10.163  26.274  0.00  0.00     0.167 HD
ENDBRANCH  51  53
ENDBRANCH  50  51
ENDBRANCH  49  50
ENDBRANCH  24  49
BRANCH  21  55
ATOM     55  C   UNK d   0      -9.233  -4.564  25.998  0.00  0.00     0.151 C 
BRANCH  55  56
ATOM     56  C   UNK d   0     -10.218  -4.269  27.049  0.00  0.00     0.143 C 
ATOM     57  O   UNK d   0     -10.978  -5.136  27.525  0.00  0.00    -0.650 OA
BRANCH  56  58
ATOM     58  O   UNK d   0     -10.292  -2.960  27.521  0.00  0.00    -0.776 OA
ATOM     59  H   UNK d   0      -9.380  -2.477  27.611  0.00  0.00     0.167 HD
ENDBRANCH  56  58
ENDBRANCH  55  56
ENDBRANCH  21  55
BRANCH  18  60
ATOM     60  C   UNK d   0      -6.609  -0.328  24.002  0.00  0.00     0.151 C 
BRANCH  60  61
ATOM     61  C   UNK d   0      -7.832   0.338  24.476  0.00  0.00     0.143 C 
ATOM     62  O   UNK d   0      -7.944   1.075  25.456  0.00  0.00    -0.650 OA
BRANCH  61  63
ATOM     63  O   UNK d   0      -8.992   0.089  23.703  0.00  0.00    -0.776 OA
ATOM     64  H   UNK d   0      -9.706  -0.539  24.027  0.00  0.00     0.167 HD
ENDBRANCH  61  63
ENDBRANCH  60  61
ENDBRANCH  18  60
BRANCH  14  65
ATOM     65  C   UNK d   0      -4.187   1.410  24.568  0.00  0.00     0.052 C 
BRANCH  65  66
ATOM     66  C   UNK d   0      -4.385   2.743  25.198  0.00  0.00     0.115 C 
BRANCH  66  67
ATOM     67  C   UNK d   0      -5.624   3.443  25.007  0.00  0.00     0.139 C 
ATOM     68  O   UNK d   0      -5.994   4.291  25.901  0.00  0.00    -0.650 OA
BRANCH  67  69
ATOM     69  O   UNK d   0      -6.516   3.324  23.942  0.00  0.00    -0.776 OA
ATOM     70  H   UNK d   0      -7.113   2.485  23.950  0.00  0.00     0.167 HD
ENDBRANCH  67  69
ENDBRANCH  66  67
ENDBRANCH  65  66
ENDBRANCH  14  65
ENDBRANCH   6   7
ENDBRANCH   5   6
ENDBRANCH   2   5
TORSDOF 28
ENDMDL
MODEL 16
REMARK VINA RESULT:      -9.5      1.999      8.016
REMARK  28 active torsions:
REMARK  status: ('A' for Active; 'I' for Inactive)
REMARK    1  A    between atoms: C_2  and  O_3 
REMARK    2  A    between atoms: C_2  and  C_4 
REMARK    3  A    between atoms: C_4  and  C_5 
REMARK    4  A    between atoms: C_5  and  C_6 
REMARK    5  A    between atoms: C_7  and  C_8 
REMARK    6  A    between atoms: C_8  and  C_9 
REMARK    7  A    between atoms: C_9  and  O_11 
REMARK    8  A    between atoms: C_28  and  C_29 
REMARK    9  A    between atoms: C_29  and  C_30 
REMARK   10  A    between atoms: C_30  and  O_32 
REMARK   11  A    between atoms: C_33  and  C_34 
REMARK   12  A    between atoms: C_34  and  C_35 
REMARK   13  A    between atoms: C_35  and  C_36 
REMARK   14  A    between atoms: C_36  and  O_38 
REMARK   15  A    between atoms: C_39  and  C_40 
REMARK   16  A    between atoms: C_40  and  C_41 
REMARK   17  A    between atoms: C_41  and  C_42 
REMARK   18  A    between atoms: C_42  and  O_44 
REMARK   19  A    between atoms: C_45  and  C_46 
REMARK   20  A    between atoms: C_46  and  C_47 
REMARK   21  A    between atoms: C_47  and  O_49 
REMARK   22  A    between atoms: C_50  and  C_51 
REMARK   23  A    between atoms: C_51  and  C_52 
REMARK   24  A    between atoms: C_52  and  O_54 
REMARK   25  A    between atoms: C_55  and  C_56 
REMARK   26  A    between atoms: C_56  and  C_57 
REMARK   27  A    between atoms: C_57  and  C_58 
REMARK   28  A    between atoms: C_58  and  O_60 
ROOT
ATOM      1  O   UNK d   0       2.475  -6.023  30.466  0.00  0.00    -0.650 OA
ATOM      2  C   UNK d   0       1.524  -5.960  31.277  0.00  0.00     0.139 C 
ENDROOT
BRANCH   2   3
ATOM      3  O   UNK d   0       1.421  -4.872  32.110  0.00  0.00    -0.776 OA
ATOM      4  H   UNK d   0       2.164  -4.645  32.775  0.00  0.00     0.167 HD
ENDBRANCH   2   3
BRANCH   2   5
ATOM      5  C   UNK d   0       0.516  -7.055  31.334  0.00  0.00     0.115 C 
BRANCH   5   6
ATOM      6  C   UNK d   0      -0.808  -6.517  31.806  0.00  0.00     0.052 C 
BRANCH   6   7
ATOM      7  C   UNK d   0      -1.743  -6.193  30.665  0.00  0.00    -0.020 A 
ATOM      8  C   UNK d   0      -2.636  -6.978  30.119  0.00  0.00    -0.011 A 
ATOM      9  C   UNK d   0      -3.288  -6.235  29.053  0.00  0.00     0.067 A 
ATOM     10  C   UNK d   0      -4.314  -6.483  28.127  0.00  0.00     0.062 C 
ATOM     11  N   UNK d   0      -2.726  -5.009  29.017  0.00  0.00    -0.248 NA
ATOM     12  C   UNK d   0      -5.001  -5.542  27.353  0.00  0.00     0.041 A 
ATOM     13  N   UNK d   0      -4.565  -4.469  26.666  0.00  0.00    -0.355 N 
ATOM     14  C   UNK d   0      -6.403  -5.626  27.267  0.00  0.00    -0.022 A 
ATOM     15  C   UNK d   0      -5.653  -3.866  26.153  0.00  0.00     0.042 A 
ATOM     16  H   UNK d   0      -3.506  -4.156  26.530  0.00  0.00     0.166 HD
ATOM     17  C   UNK d   0      -5.766  -2.710  25.355  0.00  0.00     0.062 C 
ATOM     18  C   UNK d   0      -6.825  -4.562  26.509  0.00  0.00    -0.013 A 
ATOM     19  C   UNK d   0      -5.140  -1.498  25.500  0.00  0.00     0.067 A 
ATOM     20  N   UNK d   0      -4.142  -1.435  26.384  0.00  0.00    -0.248 NA
ATOM     21  C   UNK d   0      -5.287  -0.171  24.924  0.00  0.00    -0.011 A 
ATOM     22  C   UNK d   0      -3.625  -0.163  26.429  0.00  0.00     0.066 A 
ATOM     23  C   UNK d   0      -2.551   0.036  27.284  0.00  0.00     0.062 C 
ATOM     24  C   UNK d   0      -4.400   0.606  25.476  0.00  0.00    -0.020 A 
ATOM     25  C   UNK d   0      -1.866  -0.925  28.043  0.00  0.00     0.041 A 
ATOM     26  N   UNK d   0      -2.302  -1.983  28.738  0.00  0.00    -0.355 N 
ATOM     27  C   UNK d   0      -0.459  -0.843  28.125  0.00  0.00    -0.022 A 
ATOM     28  C   UNK d   0      -1.218  -2.581  29.258  0.00  0.00     0.042 A 
ATOM     29  H   UNK d   0      -3.366  -2.290  28.883  0.00  0.00     0.166 HD
ATOM     30  C   UNK d   0      -1.092  -3.726  30.061  0.00  0.00     0.062 C 
ATOM     31  C   UNK d   0      -0.041  -1.888  28.891  0.00  0.00    -0.013 A 
ATOM     32  C   UNK d   0      -1.789  -4.920  29.962  0.00  0.00     0.066 A 
BRANCH   8  33
ATOM     33  C   UNK d   0      -2.940  -8.371  30.496  0.00  0.00     0.151 C 
BRANCH  33  34
ATOM     34  C   UNK d   0      -2.013  -9.342  29.887  0.00  0.00     0.143 C 
ATOM     35  O   UNK d   0      -1.430 -10.186  30.581  0.00  0.00    -0.650 OA
BRANCH  34  36
ATOM     36  O   UNK d   0      -1.795  -9.307  28.529  0.00  0.00    -0.776 OA
ATOM     37  H   UNK d   0      -1.502  -8.440  28.057  0.00  0.00     0.167 HD
ENDBRANCH  34  36
ENDBRANCH  33  34
ENDBRANCH   8  33
BRANCH  31  38
ATOM     38  C   UNK d   0       1.391  -2.217  29.245  0.00  0.00     0.151 C 
BRANCH  38  39
ATOM     39  C   UNK d   0       2.036  -3.052  28.254  0.00  0.00     0.143 C 
ATOM     40  O   UNK d   0       2.972  -2.642  27.546  0.00  0.00    -0.650 OA
BRANCH  39  41
ATOM     41  O   UNK d   0       1.603  -4.366  28.077  0.00  0.00    -0.776 OA
ATOM     42  H   UNK d   0       0.610  -4.499  27.860  0.00  0.00     0.167 HD
ENDBRANCH  39  41
ENDBRANCH  38  39
ENDBRANCH  31  38
BRANCH  27  43
ATOM     43  C   UNK d   0       0.479   0.170  27.518  0.00  0.00     0.052 C 
BRANCH  43  44
ATOM     44  C   UNK d   0       0.889   1.243  28.473  0.00  0.00     0.115 C 
BRANCH  44  45
ATOM     45  C   UNK d   0       2.374   1.281  28.458  0.00  0.00     0.139 C 
ATOM     46  O   UNK d   0       2.986   0.929  29.497  0.00  0.00    -0.650 OA
BRANCH  45  47
ATOM     47  O   UNK d   0       3.100   1.678  27.356  0.00  0.00    -0.776 OA
ATOM     48  H   UNK d   0       4.081   1.393  27.199  0.00  0.00     0.167 HD
ENDBRANCH  45  47
ENDBRANCH  44  45
ENDBRANCH  43  44
ENDBRANCH  27  43
BRANCH  24  49
ATOM     49  C   UNK d   0      -4.172   2.026  25.157  0.00  0.00     0.052 C 
BRANCH  49  50
ATOM     50  C   UNK d   0      -5.031   2.904  26.032  0.00  0.00     0.115 C 
BRANCH  50  51
ATOM     51  C   UNK d   0      -6.021   3.740  25.366  0.00  0.00     0.139 C 
ATOM     52  O   UNK d   0      -6.579   4.709  25.933  0.00  0.00    -0.650 OA
BRANCH  51  53
ATOM     53  O   UNK d   0      -6.376   3.470  24.053  0.00  0.00    -0.776 OA
ATOM     54  H   UNK d   0      -7.345   3.550  23.797  0.00  0.00     0.167 HD
ENDBRANCH  51  53
ENDBRANCH  50  51
ENDBRANCH  49  50
ENDBRANCH  24  49
BRANCH  21  55
ATOM     55  C   UNK d   0      -6.295   0.180  23.881  0.00  0.00     0.151 C 
BRANCH  55  56
ATOM     56  C   UNK d   0      -7.658   0.240  24.429  0.00  0.00     0.143 C 
ATOM     57  O   UNK d   0      -7.892   0.457  25.634  0.00  0.00    -0.650 OA
BRANCH  56  58
ATOM     58  O   UNK d   0      -8.721   0.044  23.549  0.00  0.00    -0.776 OA
ATOM     59  H   UNK d   0      -9.534   0.668  23.700  0.00  0.00     0.167 HD
ENDBRANCH  56  58
ENDBRANCH  55  56
ENDBRANCH  21  55
BRANCH  18  60
ATOM     60  C   UNK d   0      -8.263  -4.259  26.169  0.00  0.00     0.151 C 
BRANCH  60  61
ATOM     61  C   UNK d   0      -8.569  -2.974  26.817  0.00  0.00     0.143 C 
ATOM     62  O   UNK d   0      -8.139  -2.566  27.896  0.00  0.00    -0.650 OA
BRANCH  61  63
ATOM     63  O   UNK d   0      -9.457  -2.135  26.101  0.00  0.00    -0.776 OA
ATOM     64  H   UNK d   0      -9.923  -2.460  25.273  0.00  0.00     0.167 HD
ENDBRANCH  61  63
ENDBRANCH  60  61
ENDBRANCH  18  60
BRANCH  14  65
ATOM     65  C   UNK d   0      -7.355  -6.679  27.759  0.00  0.00     0.052 C 
BRANCH  65  66
ATOM     66  C   UNK d   0      -7.450  -7.849  26.846  0.00  0.00     0.115 C 
BRANCH  66  67
ATOM     67  C   UNK d   0      -8.504  -7.909  25.873  0.00  0.00     0.139 C 
ATOM     68  O   UNK d   0      -8.255  -7.518  24.674  0.00  0.00    -0.650 OA
BRANCH  67  69
ATOM     69  O   UNK d   0      -9.814  -8.351  26.059  0.00  0.00    -0.776 OA
ATOM     70  H   UNK d   0     -10.437  -8.262  25.244  0.00  0.00     0.167 HD
ENDBRANCH  67  69
ENDBRANCH  66  67
ENDBRANCH  65  66
ENDBRANCH  14  65
ENDBRANCH   6   7
ENDBRANCH   5   6
ENDBRANCH   2   5
TORSDOF 28
ENDMDL
MODEL 17
REMARK VINA RESULT:      -9.5      1.687      8.116
REMARK  28 active torsions:
REMARK  status: ('A' for Active; 'I' for Inactive)
REMARK    1  A    between atoms: C_2  and  O_3 
REMARK    2  A    between atoms: C_2  and  C_4 
REMARK    3  A    between atoms: C_4  and  C_5 
REMARK    4  A    between atoms: C_5  and  C_6 
REMARK    5  A    between atoms: C_7  and  C_8 
REMARK    6  A    between atoms: C_8  and  C_9 
REMARK    7  A    between atoms: C_9  and  O_11 
REMARK    8  A    between atoms: C_28  and  C_29 
REMARK    9  A    between atoms: C_29  and  C_30 
REMARK   10  A    between atoms: C_30  and  O_32 
REMARK   11  A    between atoms: C_33  and  C_34 
REMARK   12  A    between atoms: C_34  and  C_35 
REMARK   13  A    between atoms: C_35  and  C_36 
REMARK   14  A    between atoms: C_36  and  O_38 
REMARK   15  A    between atoms: C_39  and  C_40 
REMARK   16  A    between atoms: C_40  and  C_41 
REMARK   17  A    between atoms: C_41  and  C_42 
REMARK   18  A    between atoms: C_42  and  O_44 
REMARK   19  A    between atoms: C_45  and  C_46 
REMARK   20  A    between atoms: C_46  and  C_47 
REMARK   21  A    between atoms: C_47  and  O_49 
REMARK   22  A    between atoms: C_50  and  C_51 
REMARK   23  A    between atoms: C_51  and  C_52 
REMARK   24  A    between atoms: C_52  and  O_54 
REMARK   25  A    between atoms: C_55  and  C_56 
REMARK   26  A    between atoms: C_56  and  C_57 
REMARK   27  A    between atoms: C_57  and  C_58 
REMARK   28  A    between atoms: C_58  and  O_60 
ROOT
ATOM      1  O   UNK d   0      -7.822 -10.328  26.778  0.00  0.00    -0.650 OA
ATOM      2  C   UNK d   0      -6.710 -10.634  27.262  0.00  0.00     0.139 C 
ENDROOT
BRANCH   2   3
ATOM      3  O   UNK d   0      -6.283 -11.939  27.194  0.00  0.00    -0.776 OA
ATOM      4  H   UNK d   0      -5.832 -12.303  26.352  0.00  0.00     0.167 HD
ENDBRANCH   2   3
BRANCH   2   5
ATOM      5  C   UNK d   0      -5.860  -9.592  27.904  0.00  0.00     0.115 C 
BRANCH   5   6
ATOM      6  C   UNK d   0      -6.714  -8.446  28.375  0.00  0.00     0.052 C 
BRANCH   6   7
ATOM      7  C   UNK d   0      -6.252  -7.115  27.831  0.00  0.00    -0.020 A 
ATOM      8  C   UNK d   0      -6.798  -6.412  26.872  0.00  0.00    -0.011 A 
ATOM      9  C   UNK d   0      -6.001  -5.211  26.691  0.00  0.00     0.067 A 
ATOM     10  C   UNK d   0      -6.054  -4.074  25.870  0.00  0.00     0.062 C 
ATOM     11  N   UNK d   0      -4.985  -5.267  27.578  0.00  0.00    -0.248 NA
ATOM     12  C   UNK d   0      -5.347  -2.878  26.031  0.00  0.00     0.041 A 
ATOM     13  N   UNK d   0      -4.063  -2.645  26.364  0.00  0.00    -0.355 N 
ATOM     14  C   UNK d   0      -6.033  -1.658  25.894  0.00  0.00    -0.022 A 
ATOM     15  C   UNK d   0      -3.919  -1.309  26.448  0.00  0.00     0.042 A 
ATOM     16  H   UNK d   0      -3.269  -3.410  26.516  0.00  0.00     0.166 HD
ATOM     17  C   UNK d   0      -2.786  -0.531  26.760  0.00  0.00     0.062 C 
ATOM     18  C   UNK d   0      -5.133  -0.656  26.160  0.00  0.00    -0.013 A 
ATOM     19  C   UNK d   0      -1.864  -0.711  27.759  0.00  0.00     0.067 A 
ATOM     20  N   UNK d   0      -1.904  -1.874  28.415  0.00  0.00    -0.248 NA
ATOM     21  C   UNK d   0      -0.792   0.075  28.346  0.00  0.00    -0.011 A 
ATOM     22  C   UNK d   0      -0.937  -1.903  29.390  0.00  0.00     0.066 A 
ATOM     23  C   UNK d   0      -0.841  -3.074  30.128  0.00  0.00     0.062 C 
ATOM     24  C   UNK d   0      -0.256  -0.626  29.303  0.00  0.00    -0.020 A 
ATOM     25  C   UNK d   0      -1.552  -4.269  29.941  0.00  0.00     0.041 A 
ATOM     26  N   UNK d   0      -2.832  -4.501  29.625  0.00  0.00    -0.355 N 
ATOM     27  C   UNK d   0      -0.861  -5.494  30.075  0.00  0.00    -0.022 A 
ATOM     28  C   UNK d   0      -2.980  -5.833  29.549  0.00  0.00     0.042 A 
ATOM     29  H   UNK d   0      -3.631  -3.732  29.483  0.00  0.00     0.166 HD
ATOM     30  C   UNK d   0      -4.103  -6.621  29.249  0.00  0.00     0.062 C 
ATOM     31  C   UNK d   0      -1.757  -6.488  29.828  0.00  0.00    -0.013 A 
ATOM     32  C   UNK d   0      -5.080  -6.388  28.294  0.00  0.00     0.066 A 
BRANCH   8  33
ATOM     33  C   UNK d   0      -8.003  -6.760  26.096  0.00  0.00     0.151 C 
BRANCH  33  34
ATOM     34  C   UNK d   0      -9.153  -5.891  26.408  0.00  0.00     0.143 C 
ATOM     35  O   UNK d   0      -9.345  -4.840  25.780  0.00  0.00    -0.650 OA
BRANCH  34  36
ATOM     36  O   UNK d   0     -10.022  -6.254  27.411  0.00  0.00    -0.776 OA
ATOM     37  H   UNK d   0     -10.533  -5.548  27.956  0.00  0.00     0.167 HD
ENDBRANCH  34  36
ENDBRANCH  33  34
ENDBRANCH   8  33
BRANCH  31  38
ATOM     38  C   UNK d   0      -1.470  -7.971  29.842  0.00  0.00     0.151 C 
BRANCH  38  39
ATOM     39  C   UNK d   0      -1.676  -8.571  31.144  0.00  0.00     0.143 C 
ATOM     40  O   UNK d   0      -1.221  -9.689  31.441  0.00  0.00    -0.650 OA
BRANCH  39  41
ATOM     41  O   UNK d   0      -2.410  -7.881  32.108  0.00  0.00    -0.776 OA
ATOM     42  H   UNK d   0      -2.512  -6.870  31.975  0.00  0.00     0.167 HD
ENDBRANCH  39  41
ENDBRANCH  38  39
ENDBRANCH  31  38
BRANCH  27  43
ATOM     43  C   UNK d   0       0.584  -5.745  30.423  0.00  0.00     0.052 C 
BRANCH  43  44
ATOM     44  C   UNK d   0       0.776  -6.269  31.809  0.00  0.00     0.115 C 
BRANCH  44  45
ATOM     45  C   UNK d   0       0.479  -5.144  32.733  0.00  0.00     0.139 C 
ATOM     46  O   UNK d   0      -0.611  -5.161  33.356  0.00  0.00    -0.650 OA
BRANCH  45  47
ATOM     47  O   UNK d   0       1.349  -4.094  32.935  0.00  0.00    -0.776 OA
ATOM     48  H   UNK d   0       1.926  -3.691  32.179  0.00  0.00     0.167 HD
ENDBRANCH  45  47
ENDBRANCH  44  45
ENDBRANCH  43  44
ENDBRANCH  27  43
BRANCH  24  49
ATOM     49  C   UNK d   0       0.889  -0.224  30.137  0.00  0.00     0.052 C 
BRANCH  49  50
ATOM     50  C   UNK d   0       2.176  -0.737  29.543  0.00  0.00     0.115 C 
BRANCH  50  51
ATOM     51  C   UNK d   0       3.016   0.227  28.845  0.00  0.00     0.139 C 
ATOM     52  O   UNK d   0       3.852   0.950  29.436  0.00  0.00    -0.650 OA
BRANCH  51  53
ATOM     53  O   UNK d   0       2.900   0.369  27.470  0.00  0.00    -0.776 OA
ATOM     54  H   UNK d   0       3.694   0.714  26.960  0.00  0.00     0.167 HD
ENDBRANCH  51  53
ENDBRANCH  50  51
ENDBRANCH  49  50
ENDBRANCH  24  49
BRANCH  21  55
ATOM     55  C   UNK d   0      -0.413   1.444  27.886  0.00  0.00     0.151 C 
BRANCH  55  56
ATOM     56  C   UNK d   0      -1.320   2.474  28.415  0.00  0.00     0.143 C 
ATOM     57  O   UNK d   0      -2.256   2.956  27.747  0.00  0.00    -0.650 OA
BRANCH  56  58
ATOM     58  O   UNK d   0      -1.109   2.919  29.719  0.00  0.00    -0.776 OA
ATOM     59  H   UNK d   0      -1.141   3.947  29.840  0.00  0.00     0.167 HD
ENDBRANCH  56  58
ENDBRANCH  55  56
ENDBRANCH  21  55
BRANCH  18  60
ATOM     60  C   UNK d   0      -5.448   0.819  26.136  0.00  0.00     0.151 C 
BRANCH  60  61
ATOM     61  C   UNK d   0      -5.278   1.245  24.738  0.00  0.00     0.143 C 
ATOM     62  O   UNK d   0      -4.217   1.395  24.132  0.00  0.00    -0.650 OA
BRANCH  61  63
ATOM     63  O   UNK d   0      -6.481   1.502  24.036  0.00  0.00    -0.776 OA
ATOM     64  H   UNK d   0      -7.220   0.823  24.008  0.00  0.00     0.167 HD
ENDBRANCH  61  63
ENDBRANCH  60  61
ENDBRANCH  18  60
BRANCH  14  65
ATOM     65  C   UNK d   0      -7.435  -1.366  25.438  0.00  0.00     0.052 C 
BRANCH  65  66
ATOM     66  C   UNK d   0      -8.277  -0.754  26.501  0.00  0.00     0.115 C 
BRANCH  66  67
ATOM     67  C   UNK d   0      -8.900  -1.592  27.486  0.00  0.00     0.139 C 
ATOM     68  O   UNK d   0      -8.540  -1.466  28.714  0.00  0.00    -0.650 OA
BRANCH  67  69
ATOM     69  O   UNK d   0      -9.880  -2.562  27.284  0.00  0.00    -0.776 OA
ATOM     70  H   UNK d   0      -9.562  -3.434  26.835  0.00  0.00     0.167 HD
ENDBRANCH  67  69
ENDBRANCH  66  67
ENDBRANCH  65  66
ENDBRANCH  14  65
ENDBRANCH   6   7
ENDBRANCH   5   6
ENDBRANCH   2   5
TORSDOF 28
ENDMDL
MODEL 18
REMARK VINA RESULT:      -9.5      1.726     10.609
REMARK  28 active torsions:
REMARK  status: ('A' for Active; 'I' for Inactive)
REMARK    1  A    between atoms: C_2  and  O_3 
REMARK    2  A    between atoms: C_2  and  C_4 
REMARK    3  A    between atoms: C_4  and  C_5 
REMARK    4  A    between atoms: C_5  and  C_6 
REMARK    5  A    between atoms: C_7  and  C_8 
REMARK    6  A    between atoms: C_8  and  C_9 
REMARK    7  A    between atoms: C_9  and  O_11 
REMARK    8  A    between atoms: C_28  and  C_29 
REMARK    9  A    between atoms: C_29  and  C_30 
REMARK   10  A    between atoms: C_30  and  O_32 
REMARK   11  A    between atoms: C_33  and  C_34 
REMARK   12  A    between atoms: C_34  and  C_35 
REMARK   13  A    between atoms: C_35  and  C_36 
REMARK   14  A    between atoms: C_36  and  O_38 
REMARK   15  A    between atoms: C_39  and  C_40 
REMARK   16  A    between atoms: C_40  and  C_41 
REMARK   17  A    between atoms: C_41  and  C_42 
REMARK   18  A    between atoms: C_42  and  O_44 
REMARK   19  A    between atoms: C_45  and  C_46 
REMARK   20  A    between atoms: C_46  and  C_47 
REMARK   21  A    between atoms: C_47  and  O_49 
REMARK   22  A    between atoms: C_50  and  C_51 
REMARK   23  A    between atoms: C_51  and  C_52 
REMARK   24  A    between atoms: C_52  and  O_54 
REMARK   25  A    between atoms: C_55  and  C_56 
REMARK   26  A    between atoms: C_56  and  C_57 
REMARK   27  A    between atoms: C_57  and  C_58 
REMARK   28  A    between atoms: C_58  and  O_60 
ROOT
ATOM      1  O   UNK d   0      -8.463  -9.457  23.758  0.00  0.00    -0.650 OA
ATOM      2  C   UNK d   0      -8.546  -9.103  24.955  0.00  0.00     0.139 C 
ENDROOT
BRANCH   2   3
ATOM      3  O   UNK d   0      -9.028  -9.990  25.887  0.00  0.00    -0.776 OA
ATOM      4  H   UNK d   0      -9.639 -10.762  25.614  0.00  0.00     0.167 HD
ENDBRANCH   2   3
BRANCH   2   5
ATOM      5  C   UNK d   0      -8.124  -7.732  25.361  0.00  0.00     0.115 C 
BRANCH   5   6
ATOM      6  C   UNK d   0      -8.243  -7.575  26.853  0.00  0.00     0.052 C 
BRANCH   6   7
ATOM      7  C   UNK d   0      -7.044  -6.888  27.462  0.00  0.00    -0.020 A 
ATOM      8  C   UNK d   0      -6.185  -7.387  28.313  0.00  0.00    -0.011 A 
ATOM      9  C   UNK d   0      -5.211  -6.353  28.621  0.00  0.00     0.067 A 
ATOM     10  C   UNK d   0      -4.060  -6.251  29.418  0.00  0.00     0.062 C 
ATOM     11  N   UNK d   0      -5.558  -5.254  27.918  0.00  0.00    -0.248 NA
ATOM     12  C   UNK d   0      -3.085  -5.248  29.373  0.00  0.00     0.041 A 
ATOM     13  N   UNK d   0      -3.193  -3.911  29.261  0.00  0.00    -0.355 N 
ATOM     14  C   UNK d   0      -1.728  -5.618  29.388  0.00  0.00    -0.022 A 
ATOM     15  C   UNK d   0      -1.940  -3.423  29.197  0.00  0.00     0.042 A 
ATOM     16  H   UNK d   0      -4.137  -3.322  29.247  0.00  0.00     0.166 HD
ATOM     17  C   UNK d   0      -1.481  -2.096  29.078  0.00  0.00     0.062 C 
ATOM     18  C   UNK d   0      -0.994  -4.464  29.274  0.00  0.00    -0.013 A 
ATOM     19  C   UNK d   0      -1.931  -1.100  28.249  0.00  0.00     0.067 A 
ATOM     20  N   UNK d   0      -3.076  -1.324  27.600  0.00  0.00    -0.248 NA
ATOM     21  C   UNK d   0      -1.462   0.216  27.848  0.00  0.00    -0.011 A 
ATOM     22  C   UNK d   0      -3.389  -0.251  26.802  0.00  0.00     0.066 A 
ATOM     23  C   UNK d   0      -4.580  -0.334  26.095  0.00  0.00     0.062 C 
ATOM     24  C   UNK d   0      -2.317   0.706  26.998  0.00  0.00    -0.020 A 
ATOM     25  C   UNK d   0      -5.552  -1.344  26.164  0.00  0.00     0.041 A 
ATOM     26  N   UNK d   0      -5.444  -2.675  26.260  0.00  0.00    -0.355 N 
ATOM     27  C   UNK d   0      -6.914  -0.972  26.153  0.00  0.00    -0.022 A 
ATOM     28  C   UNK d   0      -6.693  -3.165  26.315  0.00  0.00     0.042 A 
ATOM     29  H   UNK d   0      -4.496  -3.266  26.263  0.00  0.00     0.166 HD
ATOM     30  C   UNK d   0      -7.163  -4.482  26.424  0.00  0.00     0.062 C 
ATOM     31  C   UNK d   0      -7.642  -2.118  26.249  0.00  0.00    -0.013 A 
ATOM     32  C   UNK d   0      -6.653  -5.511  27.200  0.00  0.00     0.066 A 
BRANCH   8  33
ATOM     33  C   UNK d   0      -6.187  -8.750  28.876  0.00  0.00     0.151 C 
BRANCH  33  34
ATOM     34  C   UNK d   0      -5.483  -9.722  28.020  0.00  0.00     0.143 C 
ATOM     35  O   UNK d   0      -4.252  -9.854  28.087  0.00  0.00    -0.650 OA
BRANCH  34  36
ATOM     36  O   UNK d   0      -6.204 -10.490  27.135  0.00  0.00    -0.776 OA
ATOM     37  H   UNK d   0      -6.470 -10.129  26.209  0.00  0.00     0.167 HD
ENDBRANCH  34  36
ENDBRANCH  33  34
ENDBRANCH   8  33
BRANCH  31  38
ATOM     38  C   UNK d   0      -9.150  -2.214  26.288  0.00  0.00     0.151 C 
BRANCH  38  39
ATOM     39  C   UNK d   0      -9.684  -2.105  27.629  0.00  0.00     0.143 C 
ATOM     40  O   UNK d   0     -10.872  -2.360  27.895  0.00  0.00    -0.650 OA
BRANCH  39  41
ATOM     41  O   UNK d   0      -8.848  -1.702  28.670  0.00  0.00    -0.776 OA
ATOM     42  H   UNK d   0      -7.892  -1.434  28.417  0.00  0.00     0.167 HD
ENDBRANCH  39  41
ENDBRANCH  38  39
ENDBRANCH  31  38
BRANCH  27  43
ATOM     43  C   UNK d   0      -7.531   0.400  26.054  0.00  0.00     0.052 C 
BRANCH  43  44
ATOM     44  C   UNK d   0      -7.556   0.938  24.660  0.00  0.00     0.115 C 
BRANCH  44  45
ATOM     45  C   UNK d   0      -7.514   2.419  24.776  0.00  0.00     0.139 C 
ATOM     46  O   UNK d   0      -8.035   2.949  25.789  0.00  0.00    -0.650 OA
BRANCH  45  47
ATOM     47  O   UNK d   0      -6.925   3.227  23.827  0.00  0.00    -0.776 OA
ATOM     48  H   UNK d   0      -6.976   4.258  23.859  0.00  0.00     0.167 HD
ENDBRANCH  45  47
ENDBRANCH  44  45
ENDBRANCH  43  44
ENDBRANCH  27  43
BRANCH  24  49
ATOM     49  C   UNK d   0      -2.251   2.035  26.367  0.00  0.00     0.052 C 
BRANCH  49  50
ATOM     50  C   UNK d   0      -3.421   2.881  26.800  0.00  0.00     0.115 C 
BRANCH  50  51
ATOM     51  C   UNK d   0      -4.297   3.389  25.753  0.00  0.00     0.139 C 
ATOM     52  O   UNK d   0      -4.166   3.070  24.547  0.00  0.00    -0.650 OA
BRANCH  51  53
ATOM     53  O   UNK d   0      -5.323   4.262  26.080  0.00  0.00    -0.776 OA
ATOM     54  H   UNK d   0      -5.202   4.859  26.880  0.00  0.00     0.167 HD
ENDBRANCH  51  53
ENDBRANCH  50  51
ENDBRANCH  49  50
ENDBRANCH  24  49
BRANCH  21  55
ATOM     55  C   UNK d   0      -0.210   0.849  28.360  0.00  0.00     0.151 C 
BRANCH  55  56
ATOM     56  C   UNK d   0      -0.473   2.135  29.022  0.00  0.00     0.143 C 
ATOM     57  O   UNK d   0      -1.291   2.260  29.955  0.00  0.00    -0.650 OA
BRANCH  56  58
ATOM     58  O   UNK d   0       0.231   3.252  28.574  0.00  0.00    -0.776 OA
ATOM     59  H   UNK d   0      -0.347   3.973  28.105  0.00  0.00     0.167 HD
ENDBRANCH  56  58
ENDBRANCH  55  56
ENDBRANCH  21  55
BRANCH  18  60
ATOM     60  C   UNK d   0       0.513  -4.397  29.240  0.00  0.00     0.151 C 
BRANCH  60  61
ATOM     61  C   UNK d   0       0.916  -3.732  30.488  0.00  0.00     0.143 C 
ATOM     62  O   UNK d   0       0.603  -4.054  31.635  0.00  0.00    -0.650 OA
BRANCH  61  63
ATOM     63  O   UNK d   0       1.754  -2.603  30.326  0.00  0.00    -0.776 OA
ATOM     64  H   UNK d   0       2.636  -2.539  30.803  0.00  0.00     0.167 HD
ENDBRANCH  61  63
ENDBRANCH  60  61
ENDBRANCH  18  60
BRANCH  14  65
ATOM     65  C   UNK d   0      -1.078  -6.956  29.600  0.00  0.00     0.052 C 
BRANCH  65  66
ATOM     66  C   UNK d   0      -0.577  -7.146  30.988  0.00  0.00     0.115 C 
BRANCH  66  67
ATOM     67  C   UNK d   0      -1.445  -6.881  32.101  0.00  0.00     0.139 C 
ATOM     68  O   UNK d   0      -2.477  -7.631  32.265  0.00  0.00    -0.650 OA
BRANCH  67  69
ATOM     69  O   UNK d   0      -1.317  -5.882  33.065  0.00  0.00    -0.776 OA
ATOM     70  H   UNK d   0      -0.528  -5.990  33.719  0.00  0.00     0.167 HD
ENDBRANCH  67  69
ENDBRANCH  66  67
ENDBRANCH  65  66
ENDBRANCH  14  65
ENDBRANCH   6   7
ENDBRANCH   5   6
ENDBRANCH   2   5
TORSDOF 28
ENDMDL
MODEL 19
REMARK VINA RESULT:      -9.5      1.850     10.968
REMARK  28 active torsions:
REMARK  status: ('A' for Active; 'I' for Inactive)
REMARK    1  A    between atoms: C_2  and  O_3 
REMARK    2  A    between atoms: C_2  and  C_4 
REMARK    3  A    between atoms: C_4  and  C_5 
REMARK    4  A    between atoms: C_5  and  C_6 
REMARK    5  A    between atoms: C_7  and  C_8 
REMARK    6  A    between atoms: C_8  and  C_9 
REMARK    7  A    between atoms: C_9  and  O_11 
REMARK    8  A    between atoms: C_28  and  C_29 
REMARK    9  A    between atoms: C_29  and  C_30 
REMARK   10  A    between atoms: C_30  and  O_32 
REMARK   11  A    between atoms: C_33  and  C_34 
REMARK   12  A    between atoms: C_34  and  C_35 
REMARK   13  A    between atoms: C_35  and  C_36 
REMARK   14  A    between atoms: C_36  and  O_38 
REMARK   15  A    between atoms: C_39  and  C_40 
REMARK   16  A    between atoms: C_40  and  C_41 
REMARK   17  A    between atoms: C_41  and  C_42 
REMARK   18  A    between atoms: C_42  and  O_44 
REMARK   19  A    between atoms: C_45  and  C_46 
REMARK   20  A    between atoms: C_46  and  C_47 
REMARK   21  A    between atoms: C_47  and  O_49 
REMARK   22  A    between atoms: C_50  and  C_51 
REMARK   23  A    between atoms: C_51  and  C_52 
REMARK   24  A    between atoms: C_52  and  O_54 
REMARK   25  A    between atoms: C_55  and  C_56 
REMARK   26  A    between atoms: C_56  and  C_57 
REMARK   27  A    between atoms: C_57  and  C_58 
REMARK   28  A    between atoms: C_58  and  O_60 
ROOT
ATOM      1  O   UNK d   0     -11.469  -8.141  25.906  0.00  0.00    -0.650 OA
ATOM      2  C   UNK d   0     -10.239  -8.361  25.968  0.00  0.00     0.139 C 
ENDROOT
BRANCH   2   3
ATOM      3  O   UNK d   0      -9.772  -9.637  25.760  0.00  0.00    -0.776 OA
ATOM      4  H   UNK d   0     -10.354 -10.452  25.965  0.00  0.00     0.167 HD
ENDBRANCH   2   3
BRANCH   2   5
ATOM      5  C   UNK d   0      -9.294  -7.248  26.264  0.00  0.00     0.115 C 
BRANCH   5   6
ATOM      6  C   UNK d   0      -7.904  -7.617  25.821  0.00  0.00     0.052 C 
BRANCH   6   7
ATOM      7  C   UNK d   0      -6.854  -7.262  26.846  0.00  0.00    -0.020 A 
ATOM      8  C   UNK d   0      -6.459  -7.981  27.865  0.00  0.00    -0.011 A 
ATOM      9  C   UNK d   0      -5.438  -7.227  28.573  0.00  0.00     0.067 A 
ATOM     10  C   UNK d   0      -4.623  -7.433  29.697  0.00  0.00     0.062 C 
ATOM     11  N   UNK d   0      -5.277  -6.058  27.918  0.00  0.00    -0.248 NA
ATOM     12  C   UNK d   0      -3.490  -6.700  30.068  0.00  0.00     0.041 A 
ATOM     13  N   UNK d   0      -3.254  -5.375  30.071  0.00  0.00    -0.355 N 
ATOM     14  C   UNK d   0      -2.334  -7.393  30.471  0.00  0.00    -0.022 A 
ATOM     15  C   UNK d   0      -1.974  -5.209  30.457  0.00  0.00     0.042 A 
ATOM     16  H   UNK d   0      -3.982  -4.571  29.824  0.00  0.00     0.166 HD
ATOM     17  C   UNK d   0      -1.218  -4.033  30.630  0.00  0.00     0.062 C 
ATOM     18  C   UNK d   0      -1.365  -6.452  30.717  0.00  0.00    -0.013 A 
ATOM     19  C   UNK d   0      -1.132  -2.934  29.813  0.00  0.00     0.067 A 
ATOM     20  N   UNK d   0      -2.017  -2.852  28.816  0.00  0.00    -0.248 NA
ATOM     21  C   UNK d   0      -0.275  -1.764  29.723  0.00  0.00    -0.011 A 
ATOM     22  C   UNK d   0      -1.800  -1.714  28.079  0.00  0.00     0.066 A 
ATOM     23  C   UNK d   0      -2.676  -1.483  27.029  0.00  0.00     0.062 C 
ATOM     24  C   UNK d   0      -0.669  -1.056  28.703  0.00  0.00    -0.020 A 
ATOM     25  C   UNK d   0      -3.816  -2.224  26.681  0.00  0.00     0.041 A 
ATOM     26  N   UNK d   0      -4.047  -3.542  26.664  0.00  0.00    -0.355 N 
ATOM     27  C   UNK d   0      -4.977  -1.528  26.281  0.00  0.00    -0.022 A 
ATOM     28  C   UNK d   0      -5.319  -3.711  26.270  0.00  0.00     0.042 A 
ATOM     29  H   UNK d   0      -3.310  -4.349  26.902  0.00  0.00     0.166 HD
ATOM     30  C   UNK d   0      -6.081  -4.875  26.085  0.00  0.00     0.062 C 
ATOM     31  C   UNK d   0      -5.933  -2.461  26.020  0.00  0.00    -0.013 A 
ATOM     32  C   UNK d   0      -6.100  -6.018  26.869  0.00  0.00     0.066 A 
BRANCH   8  33
ATOM     33  C   UNK d   0      -6.952  -9.316  28.251  0.00  0.00     0.151 C 
BRANCH  33  34
ATOM     34  C   UNK d   0      -6.377 -10.396  27.429  0.00  0.00     0.143 C 
ATOM     35  O   UNK d   0      -7.042 -10.940  26.537  0.00  0.00    -0.650 OA
BRANCH  34  36
ATOM     36  O   UNK d   0      -5.083 -10.804  27.659  0.00  0.00    -0.776 OA
ATOM     37  H   UNK d   0      -4.880 -11.667  28.181  0.00  0.00     0.167 HD
ENDBRANCH  34  36
ENDBRANCH  33  34
ENDBRANCH   8  33
BRANCH  31  38
ATOM     38  C   UNK d   0      -7.350  -2.184  25.573  0.00  0.00     0.151 C 
BRANCH  38  39
ATOM     39  C   UNK d   0      -8.285  -2.120  26.676  0.00  0.00     0.143 C 
ATOM     40  O   UNK d   0      -8.315  -1.161  27.468  0.00  0.00    -0.650 OA
BRANCH  39  41
ATOM     41  O   UNK d   0      -9.190  -3.163  26.871  0.00  0.00    -0.776 OA
ATOM     42  H   UNK d   0      -9.138  -3.659  27.766  0.00  0.00     0.167 HD
ENDBRANCH  39  41
ENDBRANCH  38  39
ENDBRANCH  31  38
BRANCH  27  43
ATOM     43  C   UNK d   0      -5.204  -0.043  26.139  0.00  0.00     0.052 C 
BRANCH  43  44
ATOM     44  C   UNK d   0      -4.901   0.473  24.770  0.00  0.00     0.115 C 
BRANCH  44  45
ATOM     45  C   UNK d   0      -4.049   1.677  24.950  0.00  0.00     0.139 C 
ATOM     46  O   UNK d   0      -3.853   2.095  26.118  0.00  0.00    -0.650 OA
BRANCH  45  47
ATOM     47  O   UNK d   0      -3.467   2.345  23.894  0.00  0.00    -0.776 OA
ATOM     48  H   UNK d   0      -3.088   3.302  23.977  0.00  0.00     0.167 HD
ENDBRANCH  45  47
ENDBRANCH  44  45
ENDBRANCH  43  44
ENDBRANCH  27  43
BRANCH  24  49
ATOM     49  C   UNK d   0      -0.101   0.233  28.270  0.00  0.00     0.052 C 
BRANCH  49  50
ATOM     50  C   UNK d   0      -1.170   1.295  28.247  0.00  0.00     0.115 C 
BRANCH  50  51
ATOM     51  C   UNK d   0      -0.992   2.437  29.134  0.00  0.00     0.139 C 
ATOM     52  O   UNK d   0      -0.392   3.480  28.782  0.00  0.00    -0.650 OA
BRANCH  51  53
ATOM     53  O   UNK d   0      -1.497   2.388  30.425  0.00  0.00    -0.776 OA
ATOM     54  H   UNK d   0      -0.857   2.512  31.190  0.00  0.00     0.167 HD
ENDBRANCH  51  53
ENDBRANCH  50  51
ENDBRANCH  49  50
ENDBRANCH  24  49
BRANCH  21  55
ATOM     55  C   UNK d   0       0.844  -1.473  30.666  0.00  0.00     0.151 C 
BRANCH  55  56
ATOM     56  C   UNK d   0       0.399  -0.678  31.821  0.00  0.00     0.143 C 
ATOM     57  O   UNK d   0       0.068   0.520  31.729  0.00  0.00    -0.650 OA
BRANCH  56  58
ATOM     58  O   UNK d   0       0.351  -1.309  33.064  0.00  0.00    -0.776 OA
ATOM     59  H   UNK d   0      -0.240  -0.835  33.771  0.00  0.00     0.167 HD
ENDBRANCH  56  58
ENDBRANCH  55  56
ENDBRANCH  21  55
BRANCH  18  60
ATOM     60  C   UNK d   0       0.042  -6.757  31.166  0.00  0.00     0.151 C 
BRANCH  60  61
ATOM     61  C   UNK d   0       0.890  -6.595  29.975  0.00  0.00     0.143 C 
ATOM     62  O   UNK d   0       0.797  -7.204  28.909  0.00  0.00    -0.650 OA
BRANCH  61  63
ATOM     63  O   UNK d   0       1.917  -5.628  30.094  0.00  0.00    -0.776 OA
ATOM     64  H   UNK d   0       1.717  -4.695  30.407  0.00  0.00     0.167 HD
ENDBRANCH  61  63
ENDBRANCH  60  61
ENDBRANCH  18  60
BRANCH  14  65
ATOM     65  C   UNK d   0      -2.108  -8.855  30.733  0.00  0.00     0.052 C 
BRANCH  65  66
ATOM     66  C   UNK d   0      -1.597  -9.587  29.543  0.00  0.00     0.115 C 
BRANCH  66  67
ATOM     67  C   UNK d   0      -0.533 -10.539  29.696  0.00  0.00     0.139 C 
ATOM     68  O   UNK d   0       0.505 -10.196  30.374  0.00  0.00    -0.650 OA
BRANCH  67  69
ATOM     69  O   UNK d   0      -0.470 -11.836  29.189  0.00  0.00    -0.776 OA
ATOM     70  H   UNK d   0      -1.158 -12.065  28.458  0.00  0.00     0.167 HD
ENDBRANCH  67  69
ENDBRANCH  66  67
ENDBRANCH  65  66
ENDBRANCH  14  65
ENDBRANCH   6   7
ENDBRANCH   5   6
ENDBRANCH   2   5
TORSDOF 28
ENDMDL
MODEL 20
REMARK VINA RESULT:      -9.5      1.793      3.561
REMARK  28 active torsions:
REMARK  status: ('A' for Active; 'I' for Inactive)
REMARK    1  A    between atoms: C_2  and  O_3 
REMARK    2  A    between atoms: C_2  and  C_4 
REMARK    3  A    between atoms: C_4  and  C_5 
REMARK    4  A    between atoms: C_5  and  C_6 
REMARK    5  A    between atoms: C_7  and  C_8 
REMARK    6  A    between atoms: C_8  and  C_9 
REMARK    7  A    between atoms: C_9  and  O_11 
REMARK    8  A    between atoms: C_28  and  C_29 
REMARK    9  A    between atoms: C_29  and  C_30 
REMARK   10  A    between atoms: C_30  and  O_32 
REMARK   11  A    between atoms: C_33  and  C_34 
REMARK   12  A    between atoms: C_34  and  C_35 
REMARK   13  A    between atoms: C_35  and  C_36 
REMARK   14  A    between atoms: C_36  and  O_38 
REMARK   15  A    between atoms: C_39  and  C_40 
REMARK   16  A    between atoms: C_40  and  C_41 
REMARK   17  A    between atoms: C_41  and  C_42 
REMARK   18  A    between atoms: C_42  and  O_44 
REMARK   19  A    between atoms: C_45  and  C_46 
REMARK   20  A    between atoms: C_46  and  C_47 
REMARK   21  A    between atoms: C_47  and  O_49 
REMARK   22  A    between atoms: C_50  and  C_51 
REMARK   23  A    between atoms: C_51  and  C_52 
REMARK   24  A    between atoms: C_52  and  O_54 
REMARK   25  A    between atoms: C_55  and  C_56 
REMARK   26  A    between atoms: C_56  and  C_57 
REMARK   27  A    between atoms: C_57  and  C_58 
REMARK   28  A    between atoms: C_58  and  O_60 
ROOT
ATOM      1  O   UNK d   0       3.303  -4.354  30.531  0.00  0.00    -0.650 OA
ATOM      2  C   UNK d   0       2.137  -4.115  30.918  0.00  0.00     0.139 C 
ENDROOT
BRANCH   2   3
ATOM      3  O   UNK d   0       1.944  -3.318  32.021  0.00  0.00    -0.776 OA
ATOM      4  H   UNK d   0       1.923  -2.300  31.939  0.00  0.00     0.167 HD
ENDBRANCH   2   3
BRANCH   2   5
ATOM      5  C   UNK d   0       0.973  -4.691  30.187  0.00  0.00     0.115 C 
BRANCH   5   6
ATOM      6  C   UNK d   0       0.899  -4.118  28.797  0.00  0.00     0.052 C 
BRANCH   6   7
ATOM      7  C   UNK d   0      -0.413  -3.421  28.525  0.00  0.00    -0.020 A 
ATOM      8  C   UNK d   0      -0.638  -2.133  28.481  0.00  0.00    -0.011 A 
ATOM      9  C   UNK d   0      -2.050  -1.938  28.196  0.00  0.00     0.067 A 
ATOM     10  C   UNK d   0      -2.902  -0.839  28.004  0.00  0.00     0.062 C 
ATOM     11  N   UNK d   0      -2.610  -3.161  28.088  0.00  0.00    -0.248 NA
ATOM     12  C   UNK d   0      -4.191  -0.851  27.459  0.00  0.00     0.041 A 
ATOM     13  N   UNK d   0      -5.226  -1.691  27.650  0.00  0.00    -0.355 N 
ATOM     14  C   UNK d   0      -4.531   0.116  26.496  0.00  0.00    -0.022 A 
ATOM     15  C   UNK d   0      -6.211  -1.287  26.826  0.00  0.00     0.042 A 
ATOM     16  H   UNK d   0      -5.266  -2.541  28.366  0.00  0.00     0.166 HD
ATOM     17  C   UNK d   0      -7.505  -1.808  26.625  0.00  0.00     0.062 C 
ATOM     18  C   UNK d   0      -5.813  -0.157  26.086  0.00  0.00    -0.013 A 
ATOM     19  C   UNK d   0      -7.896  -3.114  26.481  0.00  0.00     0.067 A 
ATOM     20  N   UNK d   0      -6.985  -4.052  26.756  0.00  0.00    -0.248 NA
ATOM     21  C   UNK d   0      -9.108  -3.803  26.068  0.00  0.00    -0.011 A 
ATOM     22  C   UNK d   0      -7.513  -5.303  26.552  0.00  0.00     0.066 A 
ATOM     23  C   UNK d   0      -6.682  -6.377  26.838  0.00  0.00     0.062 C 
ATOM     24  C   UNK d   0      -8.876  -5.083  26.108  0.00  0.00    -0.020 A 
ATOM     25  C   UNK d   0      -5.396  -6.344  27.397  0.00  0.00     0.041 A 
ATOM     26  N   UNK d   0      -4.361  -5.518  27.197  0.00  0.00    -0.355 N 
ATOM     27  C   UNK d   0      -5.056  -7.312  28.368  0.00  0.00    -0.022 A 
ATOM     28  C   UNK d   0      -3.374  -5.924  28.011  0.00  0.00     0.042 A 
ATOM     29  H   UNK d   0      -4.319  -4.671  26.469  0.00  0.00     0.166 HD
ATOM     30  C   UNK d   0      -2.080  -5.421  28.214  0.00  0.00     0.062 C 
ATOM     31  C   UNK d   0      -3.779  -7.053  28.762  0.00  0.00    -0.013 A 
ATOM     32  C   UNK d   0      -1.677  -4.097  28.275  0.00  0.00     0.066 A 
BRANCH   8  33
ATOM     33  C   UNK d   0       0.346  -1.054  28.687  0.00  0.00     0.151 C 
BRANCH  33  34
ATOM     34  C   UNK d   0       0.739  -0.902  30.099  0.00  0.00     0.143 C 
ATOM     35  O   UNK d   0      -0.073  -1.113  31.012  0.00  0.00    -0.650 OA
BRANCH  34  36
ATOM     36  O   UNK d   0       2.024  -0.517  30.405  0.00  0.00    -0.776 OA
ATOM     37  H   UNK d   0       2.219   0.392  30.845  0.00  0.00     0.167 HD
ENDBRANCH  34  36
ENDBRANCH  33  34
ENDBRANCH   8  33
BRANCH  31  38
ATOM     38  C   UNK d   0      -2.994  -7.822  29.798  0.00  0.00     0.151 C 
BRANCH  38  39
ATOM     39  C   UNK d   0      -3.066  -7.225  31.115  0.00  0.00     0.143 C 
ATOM     40  O   UNK d   0      -2.473  -7.705  32.096  0.00  0.00    -0.650 OA
BRANCH  39  41
ATOM     41  O   UNK d   0      -3.824  -6.070  31.303  0.00  0.00    -0.776 OA
ATOM     42  H   UNK d   0      -4.338  -5.995  32.187  0.00  0.00     0.167 HD
ENDBRANCH  39  41
ENDBRANCH  38  39
ENDBRANCH  31  38
BRANCH  27  43
ATOM     43  C   UNK d   0      -5.882  -8.447  28.918  0.00  0.00     0.052 C 
BRANCH  43  44
ATOM     44  C   UNK d   0      -5.605  -9.756  28.254  0.00  0.00     0.115 C 
BRANCH  44  45
ATOM     45  C   UNK d   0      -6.867 -10.172  27.589  0.00  0.00     0.139 C 
ATOM     46  O   UNK d   0      -7.445  -9.342  26.844  0.00  0.00    -0.650 OA
BRANCH  45  47
ATOM     47  O   UNK d   0      -7.422 -11.422  27.753  0.00  0.00    -0.776 OA
ATOM     48  H   UNK d   0      -8.329 -11.692  27.339  0.00  0.00     0.167 HD
ENDBRANCH  45  47
ENDBRANCH  44  45
ENDBRANCH  43  44
ENDBRANCH  27  43
BRANCH  24  49
ATOM     49  C   UNK d   0      -9.844  -6.151  25.805  0.00  0.00     0.052 C 
BRANCH  49  50
ATOM     50  C   UNK d   0     -10.534  -6.607  27.065  0.00  0.00     0.115 C 
BRANCH  50  51
ATOM     51  C   UNK d   0     -11.988  -6.682  27.037  0.00  0.00     0.139 C 
ATOM     52  O   UNK d   0     -12.720  -5.677  27.196  0.00  0.00    -0.650 OA
BRANCH  51  53
ATOM     53  O   UNK d   0     -12.609  -7.904  26.830  0.00  0.00    -0.776 OA
ATOM     54  H   UNK d   0     -13.174  -8.017  26.007  0.00  0.00     0.167 HD
ENDBRANCH  51  53
ENDBRANCH  50  51
ENDBRANCH  49  50
ENDBRANCH  24  49
BRANCH  21  55
ATOM     55  C   UNK d   0     -10.372  -3.110  25.682  0.00  0.00     0.151 C 
BRANCH  55  56
ATOM     56  C   UNK d   0     -11.131  -2.653  26.856  0.00  0.00     0.143 C 
ATOM     57  O   UNK d   0     -11.962  -1.725  26.802  0.00  0.00    -0.650 OA
BRANCH  56  58
ATOM     58  O   UNK d   0     -10.899  -3.296  28.070  0.00  0.00    -0.776 OA
ATOM     59  H   UNK d   0      -9.984  -3.778  28.140  0.00  0.00     0.167 HD
ENDBRANCH  56  58
ENDBRANCH  55  56
ENDBRANCH  21  55
BRANCH  18  60
ATOM     60  C   UNK d   0      -6.575   0.631  25.050  0.00  0.00     0.151 C 
BRANCH  60  61
ATOM     61  C   UNK d   0      -6.627  -0.221  23.852  0.00  0.00     0.143 C 
ATOM     62  O   UNK d   0      -5.722  -0.922  23.401  0.00  0.00    -0.650 OA
BRANCH  61  63
ATOM     63  O   UNK d   0      -7.864  -0.216  23.163  0.00  0.00    -0.776 OA
ATOM     64  H   UNK d   0      -8.368  -1.069  22.998  0.00  0.00     0.167 HD
ENDBRANCH  61  63
ENDBRANCH  60  61
ENDBRANCH  18  60
BRANCH  14  65
ATOM     65  C   UNK d   0      -3.781   1.323  26.010  0.00  0.00     0.052 C 
BRANCH  65  66
ATOM     66  C   UNK d   0      -4.288   2.596  26.590  0.00  0.00     0.115 C 
BRANCH  66  67
ATOM     67  C   UNK d   0      -4.946   3.551  25.744  0.00  0.00     0.139 C 
ATOM     68  O   UNK d   0      -4.554   3.663  24.525  0.00  0.00    -0.650 OA
BRANCH  67  69
ATOM     69  O   UNK d   0      -5.995   4.407  26.078  0.00  0.00    -0.776 OA
ATOM     70  H   UNK d   0      -6.838   3.955  26.459  0.00  0.00     0.167 HD
ENDBRANCH  67  69
ENDBRANCH  66  67
ENDBRANCH  65  66
ENDBRANCH  14  65
ENDBRANCH   6   7
ENDBRANCH   5   6
ENDBRANCH   2   5
TORSDOF 28
ENDMDL
