MODEL 1
REMARK VINA RESULT:      -8.5      0.000      0.000
REMARK  28 active torsions:
REMARK  status: ('A' for Active; 'I' for Inactive)
REMARK    1  A    between atoms: C_2  and  O_3 
REMARK    2  A    between atoms: C_2  and  C_4 
REMARK    3  A    between atoms: C_4  and  C_5 
REMARK    4  A    between atoms: C_5  and  C_6 
REMARK    5  A    between atoms: C_7  and  C_8 
REMARK    6  A    between atoms: C_8  and  C_9 
REMARK    7  A    between atoms: C_9  and  O_11 
REMARK    8  A    between atoms: C_28  and  C_29 
REMARK    9  A    between atoms: C_29  and  C_30 
REMARK   10  A    between atoms: C_30  and  O_32 
REMARK   11  A    between atoms: C_33  and  C_34 
REMARK   12  A    between atoms: C_34  and  C_35 
REMARK   13  A    between atoms: C_35  and  C_36 
REMARK   14  A    between atoms: C_36  and  O_38 
REMARK   15  A    between atoms: C_39  and  C_40 
REMARK   16  A    between atoms: C_40  and  C_41 
REMARK   17  A    between atoms: C_41  and  C_42 
REMARK   18  A    between atoms: C_42  and  O_44 
REMARK   19  A    between atoms: C_45  and  C_46 
REMARK   20  A    between atoms: C_46  and  C_47 
REMARK   21  A    between atoms: C_47  and  O_49 
REMARK   22  A    between atoms: C_50  and  C_51 
REMARK   23  A    between atoms: C_51  and  C_52 
REMARK   24  A    between atoms: C_52  and  O_54 
REMARK   25  A    between atoms: C_55  and  C_56 
REMARK   26  A    between atoms: C_56  and  C_57 
REMARK   27  A    between atoms: C_57  and  C_58 
REMARK   28  A    between atoms: C_58  and  O_60 
ROOT
ATOM      1  O   UNK d   0      11.993 -21.544   4.100  0.00  0.00    -0.650 OA
ATOM      2  C   UNK d   0      10.836 -21.180   4.408  0.00  0.00     0.139 C 
ENDROOT
BRANCH   2   3
ATOM      3  O   UNK d   0      10.337 -21.501   5.647  0.00  0.00    -0.776 OA
ATOM      4  H   UNK d   0       9.567 -22.166   5.749  0.00  0.00     0.167 HD
ENDBRANCH   2   3
BRANCH   2   5
ATOM      5  C   UNK d   0      10.012 -20.406   3.437  0.00  0.00     0.115 C 
BRANCH   5   6
ATOM      6  C   UNK d   0      10.715 -19.128   3.064  0.00  0.00     0.052 C 
BRANCH   6   7
ATOM      7  C   UNK d   0      10.898 -18.201   4.242  0.00  0.00    -0.020 A 
ATOM      8  C   UNK d   0      12.023 -17.830   4.798  0.00  0.00    -0.011 A 
ATOM      9  C   UNK d   0      11.701 -16.940   5.901  0.00  0.00     0.067 A 
ATOM     10  C   UNK d   0      12.425 -16.206   6.854  0.00  0.00     0.062 C 
ATOM     11  N   UNK d   0      10.357 -16.829   5.948  0.00  0.00    -0.248 NA
ATOM     12  C   UNK d   0      11.947 -15.176   7.672  0.00  0.00     0.041 A 
ATOM     13  N   UNK d   0      10.801 -15.057   8.369  0.00  0.00    -0.355 N 
ATOM     14  C   UNK d   0      12.708 -14.001   7.801  0.00  0.00    -0.022 A 
ATOM     15  C   UNK d   0      10.812 -13.834   8.931  0.00  0.00     0.042 A 
ATOM     16  H   UNK d   0      10.009 -15.830   8.478  0.00  0.00     0.166 HD
ATOM     17  C   UNK d   0       9.865 -13.200   9.759  0.00  0.00     0.062 C 
ATOM     18  C   UNK d   0      11.992 -13.141   8.597  0.00  0.00    -0.013 A 
ATOM     19  C   UNK d   0       8.501 -13.144   9.623  0.00  0.00     0.067 A 
ATOM     20  N   UNK d   0       7.951 -13.948   8.709  0.00  0.00    -0.248 NA
ATOM     21  C   UNK d   0       7.420 -12.389  10.234  0.00  0.00    -0.011 A 
ATOM     22  C   UNK d   0       6.589 -13.771   8.676  0.00  0.00     0.066 A 
ATOM     23  C   UNK d   0       5.885 -14.575   7.793  0.00  0.00     0.062 C 
ATOM     24  C   UNK d   0       6.305 -12.757   9.673  0.00  0.00    -0.020 A 
ATOM     25  C   UNK d   0       6.382 -15.613   6.989  0.00  0.00     0.041 A 
ATOM     26  N   UNK d   0       7.514 -15.725   6.284  0.00  0.00    -0.355 N 
ATOM     27  C   UNK d   0       5.619 -16.794   6.864  0.00  0.00    -0.022 A 
ATOM     28  C   UNK d   0       7.501 -16.941   5.716  0.00  0.00     0.042 A 
ATOM     29  H   UNK d   0       8.304 -14.943   6.167  0.00  0.00     0.166 HD
ATOM     30  C   UNK d   0       8.432 -17.581   4.883  0.00  0.00     0.062 C 
ATOM     31  C   UNK d   0       6.319 -17.640   6.060  0.00  0.00    -0.013 A 
ATOM     32  C   UNK d   0       9.815 -17.564   4.975  0.00  0.00     0.066 A 
BRANCH   8  33
ATOM     33  C   UNK d   0      13.383 -18.234   4.398  0.00  0.00     0.151 C 
BRANCH  33  34
ATOM     34  C   UNK d   0      13.830 -17.582   3.154  0.00  0.00     0.143 C 
ATOM     35  O   UNK d   0      13.760 -16.352   3.020  0.00  0.00    -0.650 OA
BRANCH  34  36
ATOM     36  O   UNK d   0      14.329 -18.352   2.129  0.00  0.00    -0.776 OA
ATOM     37  H   UNK d   0      15.135 -18.040   1.571  0.00  0.00     0.167 HD
ENDBRANCH  34  36
ENDBRANCH  33  34
ENDBRANCH   8  33
BRANCH  31  38
ATOM     38  C   UNK d   0       5.901 -19.034   5.653  0.00  0.00     0.151 C 
BRANCH  38  39
ATOM     39  C   UNK d   0       6.452 -20.059   6.514  0.00  0.00     0.143 C 
ATOM     40  O   UNK d   0       7.455 -20.724   6.200  0.00  0.00    -0.650 OA
BRANCH  39  41
ATOM     41  O   UNK d   0       5.846 -20.321   7.743  0.00  0.00    -0.776 OA
ATOM     42  H   UNK d   0       4.823 -20.281   7.771  0.00  0.00     0.167 HD
ENDBRANCH  39  41
ENDBRANCH  38  39
ENDBRANCH  31  38
BRANCH  27  43
ATOM     43  C   UNK d   0       4.279 -17.138   7.465  0.00  0.00     0.052 C 
BRANCH  43  44
ATOM     44  C   UNK d   0       3.212 -16.142   7.139  0.00  0.00     0.115 C 
BRANCH  44  45
ATOM     45  C   UNK d   0       2.413 -15.956   8.378  0.00  0.00     0.139 C 
ATOM     46  O   UNK d   0       1.196 -15.671   8.260  0.00  0.00    -0.650 OA
BRANCH  45  47
ATOM     47  O   UNK d   0       2.950 -16.087   9.640  0.00  0.00    -0.776 OA
ATOM     48  H   UNK d   0       3.948 -16.294   9.806  0.00  0.00     0.167 HD
ENDBRANCH  45  47
ENDBRANCH  44  45
ENDBRANCH  43  44
ENDBRANCH  27  43
BRANCH  24  49
ATOM     49  C   UNK d   0       4.957 -12.271  10.017  0.00  0.00     0.052 C 
BRANCH  49  50
ATOM     50  C   UNK d   0       4.320 -11.605   8.824  0.00  0.00     0.115 C 
BRANCH  50  51
ATOM     51  C   UNK d   0       3.054 -12.152   8.355  0.00  0.00     0.139 C 
ATOM     52  O   UNK d   0       2.035 -12.218   9.082  0.00  0.00    -0.650 OA
BRANCH  51  53
ATOM     53  O   UNK d   0       2.951 -12.627   7.056  0.00  0.00    -0.776 OA
ATOM     54  H   UNK d   0       2.287 -12.191   6.442  0.00  0.00     0.167 HD
ENDBRANCH  51  53
ENDBRANCH  50  51
ENDBRANCH  49  50
ENDBRANCH  24  49
BRANCH  21  55
ATOM     55  C   UNK d   0       7.615 -11.380  11.317  0.00  0.00     0.151 C 
BRANCH  55  56
ATOM     56  C   UNK d   0       7.524 -11.985  12.655  0.00  0.00     0.143 C 
ATOM     57  O   UNK d   0       8.520 -12.415  13.271  0.00  0.00    -0.650 OA
BRANCH  56  58
ATOM     58  O   UNK d   0       6.264 -12.071  13.245  0.00  0.00    -0.776 OA
ATOM     59  H   UNK d   0       5.612 -12.734  12.786  0.00  0.00     0.167 HD
ENDBRANCH  56  58
ENDBRANCH  55  56
ENDBRANCH  21  55
BRANCH  18  60
ATOM     60  C   UNK d   0      12.437 -11.754   8.990  0.00  0.00     0.151 C 
BRANCH  60  61
ATOM     61  C   UNK d   0      13.422 -11.936  10.067  0.00  0.00     0.143 C 
ATOM     62  O   UNK d   0      13.263 -12.550  11.123  0.00  0.00    -0.650 OA
BRANCH  61  63
ATOM     63  O   UNK d   0      14.681 -11.330   9.840  0.00  0.00    -0.776 OA
ATOM     64  H   UNK d   0      14.829 -10.721   9.056  0.00  0.00     0.167 HD
ENDBRANCH  61  63
ENDBRANCH  60  61
ENDBRANCH  18  60
BRANCH  14  65
ATOM     65  C   UNK d   0      14.091 -13.669   7.315  0.00  0.00     0.052 C 
BRANCH  65  66
ATOM     66  C   UNK d   0      14.090 -12.863   6.065  0.00  0.00     0.115 C 
BRANCH  66  67
ATOM     67  C   UNK d   0      14.456 -11.475   6.113  0.00  0.00     0.139 C 
ATOM     68  O   UNK d   0      14.009 -10.690   5.198  0.00  0.00    -0.650 OA
BRANCH  67  69
ATOM     69  O   UNK d   0      15.263 -10.838   7.055  0.00  0.00    -0.776 OA
ATOM     70  H   UNK d   0      15.185  -9.811   7.090  0.00  0.00     0.167 HD
ENDBRANCH  67  69
ENDBRANCH  66  67
ENDBRANCH  65  66
ENDBRANCH  14  65
ENDBRANCH   6   7
ENDBRANCH   5   6
ENDBRANCH   2   5
TORSDOF 28
ENDMDL
MODEL 2
REMARK VINA RESULT:      -7.5      2.195      3.546
REMARK  28 active torsions:
REMARK  status: ('A' for Active; 'I' for Inactive)
REMARK    1  A    between atoms: C_2  and  O_3 
REMARK    2  A    between atoms: C_2  and  C_4 
REMARK    3  A    between atoms: C_4  and  C_5 
REMARK    4  A    between atoms: C_5  and  C_6 
REMARK    5  A    between atoms: C_7  and  C_8 
REMARK    6  A    between atoms: C_8  and  C_9 
REMARK    7  A    between atoms: C_9  and  O_11 
REMARK    8  A    between atoms: C_28  and  C_29 
REMARK    9  A    between atoms: C_29  and  C_30 
REMARK   10  A    between atoms: C_30  and  O_32 
REMARK   11  A    between atoms: C_33  and  C_34 
REMARK   12  A    between atoms: C_34  and  C_35 
REMARK   13  A    between atoms: C_35  and  C_36 
REMARK   14  A    between atoms: C_36  and  O_38 
REMARK   15  A    between atoms: C_39  and  C_40 
REMARK   16  A    between atoms: C_40  and  C_41 
REMARK   17  A    between atoms: C_41  and  C_42 
REMARK   18  A    between atoms: C_42  and  O_44 
REMARK   19  A    between atoms: C_45  and  C_46 
REMARK   20  A    between atoms: C_46  and  C_47 
REMARK   21  A    between atoms: C_47  and  O_49 
REMARK   22  A    between atoms: C_50  and  C_51 
REMARK   23  A    between atoms: C_51  and  C_52 
REMARK   24  A    between atoms: C_52  and  O_54 
REMARK   25  A    between atoms: C_55  and  C_56 
REMARK   26  A    between atoms: C_56  and  C_57 
REMARK   27  A    between atoms: C_57  and  C_58 
REMARK   28  A    between atoms: C_58  and  O_60 
ROOT
ATOM      1  O   UNK d   0       7.975 -19.651   2.358  0.00  0.00    -0.650 OA
ATOM      2  C   UNK d   0       7.485 -19.710   3.508  0.00  0.00     0.139 C 
ENDROOT
BRANCH   2   3
ATOM      3  O   UNK d   0       7.636 -20.859   4.246  0.00  0.00    -0.776 OA
ATOM      4  H   UNK d   0       6.983 -21.094   4.996  0.00  0.00     0.167 HD
ENDBRANCH   2   3
BRANCH   2   5
ATOM      5  C   UNK d   0       6.746 -18.543   4.067  0.00  0.00     0.115 C 
BRANCH   5   6
ATOM      6  C   UNK d   0       7.516 -17.275   3.821  0.00  0.00     0.052 C 
BRANCH   6   7
ATOM      7  C   UNK d   0       8.140 -16.719   5.079  0.00  0.00    -0.020 A 
ATOM      8  C   UNK d   0       9.374 -16.861   5.488  0.00  0.00    -0.011 A 
ATOM      9  C   UNK d   0       9.507 -16.159   6.754  0.00  0.00     0.067 A 
ATOM     10  C   UNK d   0      10.540 -15.914   7.672  0.00  0.00     0.062 C 
ATOM     11  N   UNK d   0       8.303 -15.623   7.043  0.00  0.00    -0.248 NA
ATOM     12  C   UNK d   0      10.547 -14.973   8.708  0.00  0.00     0.041 A 
ATOM     13  N   UNK d   0       9.598 -14.628   9.598  0.00  0.00    -0.355 N 
ATOM     14  C   UNK d   0      11.686 -14.167   8.886  0.00  0.00    -0.022 A 
ATOM     15  C   UNK d   0      10.103 -13.618  10.332  0.00  0.00     0.042 A 
ATOM     16  H   UNK d   0       8.599 -15.101   9.719  0.00  0.00     0.166 HD
ATOM     17  C   UNK d   0       9.534 -12.889  11.395  0.00  0.00     0.062 C 
ATOM     18  C   UNK d   0      11.410 -13.301   9.914  0.00  0.00    -0.013 A 
ATOM     19  C   UNK d   0       8.273 -12.360  11.502  0.00  0.00     0.067 A 
ATOM     20  N   UNK d   0       7.381 -12.734  10.581  0.00  0.00    -0.248 NA
ATOM     21  C   UNK d   0       7.602 -11.431  12.395  0.00  0.00    -0.011 A 
ATOM     22  C   UNK d   0       6.176 -12.115  10.806  0.00  0.00     0.066 A 
ATOM     23  C   UNK d   0       5.143 -12.445   9.941  0.00  0.00     0.062 C 
ATOM     24  C   UNK d   0       6.376 -11.289  11.980  0.00  0.00    -0.020 A 
ATOM     25  C   UNK d   0       5.152 -13.402   8.915  0.00  0.00     0.041 A 
ATOM     26  N   UNK d   0       6.090 -13.736   8.020  0.00  0.00    -0.355 N 
ATOM     27  C   UNK d   0       4.010 -14.214   8.739  0.00  0.00    -0.022 A 
ATOM     28  C   UNK d   0       5.586 -14.737   7.281  0.00  0.00     0.042 A 
ATOM     29  H   UNK d   0       7.089 -13.252   7.893  0.00  0.00     0.166 HD
ATOM     30  C   UNK d   0       6.137 -15.465   6.215  0.00  0.00     0.062 C 
ATOM     31  C   UNK d   0       4.276 -15.062   7.708  0.00  0.00    -0.013 A 
ATOM     32  C   UNK d   0       7.437 -15.923   6.074  0.00  0.00     0.066 A 
BRANCH   8  33
ATOM     33  C   UNK d   0      10.453 -17.601   4.807  0.00  0.00     0.151 C 
BRANCH  33  34
ATOM     34  C   UNK d   0      10.783 -18.873   5.476  0.00  0.00     0.143 C 
ATOM     35  O   UNK d   0       9.890 -19.606   5.926  0.00  0.00    -0.650 OA
BRANCH  34  36
ATOM     36  O   UNK d   0      12.100 -19.248   5.602  0.00  0.00    -0.776 OA
ATOM     37  H   UNK d   0      12.768 -18.680   6.141  0.00  0.00     0.167 HD
ENDBRANCH  34  36
ENDBRANCH  33  34
ENDBRANCH   8  33
BRANCH  31  38
ATOM     38  C   UNK d   0       3.350 -16.126   7.168  0.00  0.00     0.151 C 
BRANCH  38  39
ATOM     39  C   UNK d   0       3.678 -17.452   7.648  0.00  0.00     0.143 C 
ATOM     40  O   UNK d   0       4.332 -18.263   6.969  0.00  0.00    -0.650 OA
BRANCH  39  41
ATOM     41  O   UNK d   0       3.251 -17.847   8.915  0.00  0.00    -0.776 OA
ATOM     42  H   UNK d   0       2.717 -17.161   9.457  0.00  0.00     0.167 HD
ENDBRANCH  39  41
ENDBRANCH  38  39
ENDBRANCH  31  38
BRANCH  27  43
ATOM     43  C   UNK d   0       2.706 -14.211   9.497  0.00  0.00     0.052 C 
BRANCH  43  44
ATOM     44  C   UNK d   0       1.676 -13.310   8.897  0.00  0.00     0.115 C 
BRANCH  44  45
ATOM     45  C   UNK d   0       0.911 -12.726  10.029  0.00  0.00     0.139 C 
ATOM     46  O   UNK d   0       1.194 -11.557  10.393  0.00  0.00    -0.650 OA
BRANCH  45  47
ATOM     47  O   UNK d   0      -0.090 -13.408  10.685  0.00  0.00    -0.776 OA
ATOM     48  H   UNK d   0      -0.665 -14.135  10.229  0.00  0.00     0.167 HD
ENDBRANCH  45  47
ENDBRANCH  44  45
ENDBRANCH  43  44
ENDBRANCH  27  43
BRANCH  24  49
ATOM     49  C   UNK d   0       5.333 -10.467  12.617  0.00  0.00     0.052 C 
BRANCH  49  50
ATOM     50  C   UNK d   0       5.179  -9.157  11.888  0.00  0.00     0.115 C 
BRANCH  50  51
ATOM     51  C   UNK d   0       3.914  -8.453  12.045  0.00  0.00     0.139 C 
ATOM     52  O   UNK d   0       2.804  -9.013  11.884  0.00  0.00    -0.650 OA
BRANCH  51  53
ATOM     53  O   UNK d   0       3.914  -7.108  12.384  0.00  0.00    -0.776 OA
ATOM     54  H   UNK d   0       4.647  -6.526  12.018  0.00  0.00     0.167 HD
ENDBRANCH  51  53
ENDBRANCH  50  51
ENDBRANCH  49  50
ENDBRANCH  24  49
BRANCH  21  55
ATOM     55  C   UNK d   0       8.254 -10.786  13.573  0.00  0.00     0.151 C 
BRANCH  55  56
ATOM     56  C   UNK d   0       8.397 -11.717  14.703  0.00  0.00     0.143 C 
ATOM     57  O   UNK d   0       9.503 -12.134  15.098  0.00  0.00    -0.650 OA
BRANCH  56  58
ATOM     58  O   UNK d   0       7.235 -12.139  15.347  0.00  0.00    -0.776 OA
ATOM     59  H   UNK d   0       7.389 -12.755  16.165  0.00  0.00     0.167 HD
ENDBRANCH  56  58
ENDBRANCH  55  56
ENDBRANCH  21  55
BRANCH  18  60
ATOM     60  C   UNK d   0      12.357 -12.248  10.436  0.00  0.00     0.151 C 
BRANCH  60  61
ATOM     61  C   UNK d   0      13.160 -12.908  11.477  0.00  0.00     0.143 C 
ATOM     62  O   UNK d   0      14.269 -13.425  11.342  0.00  0.00    -0.650 OA
BRANCH  61  63
ATOM     63  O   UNK d   0      12.570 -12.937  12.764  0.00  0.00    -0.776 OA
ATOM     64  H   UNK d   0      11.588 -12.767  12.888  0.00  0.00     0.167 HD
ENDBRANCH  61  63
ENDBRANCH  60  61
ENDBRANCH  18  60
BRANCH  14  65
ATOM     65  C   UNK d   0      13.037 -14.219   8.231  0.00  0.00     0.052 C 
BRANCH  65  66
ATOM     66  C   UNK d   0      13.621 -15.587   8.209  0.00  0.00     0.115 C 
BRANCH  66  67
ATOM     67  C   UNK d   0      13.824 -16.254   6.953  0.00  0.00     0.139 C 
ATOM     68  O   UNK d   0      13.566 -15.612   5.869  0.00  0.00    -0.650 OA
BRANCH  67  69
ATOM     69  O   UNK d   0      14.279 -17.555   6.742  0.00  0.00    -0.776 OA
ATOM     70  H   UNK d   0      13.551 -18.283   6.698  0.00  0.00     0.167 HD
ENDBRANCH  67  69
ENDBRANCH  66  67
ENDBRANCH  65  66
ENDBRANCH  14  65
ENDBRANCH   6   7
ENDBRANCH   5   6
ENDBRANCH   2   5
TORSDOF 28
ENDMDL
MODEL 3
REMARK VINA RESULT:      -6.7      3.434      8.717
REMARK  28 active torsions:
REMARK  status: ('A' for Active; 'I' for Inactive)
REMARK    1  A    between atoms: C_2  and  O_3 
REMARK    2  A    between atoms: C_2  and  C_4 
REMARK    3  A    between atoms: C_4  and  C_5 
REMARK    4  A    between atoms: C_5  and  C_6 
REMARK    5  A    between atoms: C_7  and  C_8 
REMARK    6  A    between atoms: C_8  and  C_9 
REMARK    7  A    between atoms: C_9  and  O_11 
REMARK    8  A    between atoms: C_28  and  C_29 
REMARK    9  A    between atoms: C_29  and  C_30 
REMARK   10  A    between atoms: C_30  and  O_32 
REMARK   11  A    between atoms: C_33  and  C_34 
REMARK   12  A    between atoms: C_34  and  C_35 
REMARK   13  A    between atoms: C_35  and  C_36 
REMARK   14  A    between atoms: C_36  and  O_38 
REMARK   15  A    between atoms: C_39  and  C_40 
REMARK   16  A    between atoms: C_40  and  C_41 
REMARK   17  A    between atoms: C_41  and  C_42 
REMARK   18  A    between atoms: C_42  and  O_44 
REMARK   19  A    between atoms: C_45  and  C_46 
REMARK   20  A    between atoms: C_46  and  C_47 
REMARK   21  A    between atoms: C_47  and  O_49 
REMARK   22  A    between atoms: C_50  and  C_51 
REMARK   23  A    between atoms: C_51  and  C_52 
REMARK   24  A    between atoms: C_52  and  O_54 
REMARK   25  A    between atoms: C_55  and  C_56 
REMARK   26  A    between atoms: C_56  and  C_57 
REMARK   27  A    between atoms: C_57  and  C_58 
REMARK   28  A    between atoms: C_58  and  O_60 
ROOT
ATOM      1  O   UNK d   0      16.717 -14.837  -2.576  0.00  0.00    -0.650 OA
ATOM      2  C   UNK d   0      16.861 -15.256  -1.406  0.00  0.00     0.139 C 
ENDROOT
BRANCH   2   3
ATOM      3  O   UNK d   0      17.890 -14.767  -0.638  0.00  0.00    -0.776 OA
ATOM      4  H   UNK d   0      17.748 -14.532   0.347  0.00  0.00     0.167 HD
ENDBRANCH   2   3
BRANCH   2   5
ATOM      5  C   UNK d   0      15.925 -16.276  -0.856  0.00  0.00     0.115 C 
BRANCH   5   6
ATOM      6  C   UNK d   0      14.501 -15.859  -1.104  0.00  0.00     0.052 C 
BRANCH   6   7
ATOM      7  C   UNK d   0      13.596 -16.151   0.069  0.00  0.00    -0.020 A 
ATOM      8  C   UNK d   0      12.741 -17.133   0.193  0.00  0.00    -0.011 A 
ATOM      9  C   UNK d   0      12.094 -16.999   1.488  0.00  0.00     0.067 A 
ATOM     10  C   UNK d   0      11.130 -17.713   2.217  0.00  0.00     0.062 C 
ATOM     11  N   UNK d   0      12.612 -15.904   2.083  0.00  0.00    -0.248 NA
ATOM     12  C   UNK d   0      10.831 -17.586   3.578  0.00  0.00     0.041 A 
ATOM     13  N   UNK d   0      10.694 -16.496   4.357  0.00  0.00    -0.355 N 
ATOM     14  C   UNK d   0      10.686 -18.750   4.354  0.00  0.00    -0.022 A 
ATOM     15  C   UNK d   0      10.472 -16.939   5.609  0.00  0.00     0.042 A 
ATOM     16  H   UNK d   0      10.733 -15.436   4.025  0.00  0.00     0.166 HD
ATOM     17  C   UNK d   0      10.259 -16.226   6.806  0.00  0.00     0.062 C 
ATOM     18  C   UNK d   0      10.461 -18.347   5.647  0.00  0.00    -0.013 A 
ATOM     19  C   UNK d   0      10.934 -15.135   7.291  0.00  0.00     0.067 A 
ATOM     20  N   UNK d   0      11.779 -14.525   6.455  0.00  0.00    -0.248 NA
ATOM     21  C   UNK d   0      10.995 -14.422   8.556  0.00  0.00    -0.011 A 
ATOM     22  C   UNK d   0      12.388 -13.466   7.083  0.00  0.00     0.066 A 
ATOM     23  C   UNK d   0      13.268 -12.718   6.314  0.00  0.00     0.062 C 
ATOM     24  C   UNK d   0      11.851 -13.449   8.429  0.00  0.00    -0.020 A 
ATOM     25  C   UNK d   0      13.544 -12.854   4.945  0.00  0.00     0.041 A 
ATOM     26  N   UNK d   0      13.696 -13.937   4.173  0.00  0.00    -0.355 N 
ATOM     27  C   UNK d   0      13.686 -11.685   4.165  0.00  0.00    -0.022 A 
ATOM     28  C   UNK d   0      13.925 -13.498   2.926  0.00  0.00     0.042 A 
ATOM     29  H   UNK d   0      13.667 -15.002   4.510  0.00  0.00     0.166 HD
ATOM     30  C   UNK d   0      14.148 -14.196   1.728  0.00  0.00     0.062 C 
ATOM     31  C   UNK d   0      13.926 -12.084   2.886  0.00  0.00    -0.013 A 
ATOM     32  C   UNK d   0      13.521 -15.349   1.281  0.00  0.00     0.066 A 
BRANCH   8  33
ATOM     33  C   UNK d   0      12.463 -18.194  -0.792  0.00  0.00     0.151 C 
BRANCH  33  34
ATOM     34  C   UNK d   0      11.201 -17.979  -1.522  0.00  0.00     0.143 C 
ATOM     35  O   UNK d   0      10.540 -18.937  -1.948  0.00  0.00    -0.650 OA
BRANCH  34  36
ATOM     36  O   UNK d   0      10.753 -16.695  -1.733  0.00  0.00    -0.776 OA
ATOM     37  H   UNK d   0      10.409 -16.394  -2.654  0.00  0.00     0.167 HD
ENDBRANCH  34  36
ENDBRANCH  33  34
ENDBRANCH   8  33
BRANCH  31  38
ATOM     38  C   UNK d   0      14.132 -11.178   1.694  0.00  0.00     0.151 C 
BRANCH  38  39
ATOM     39  C   UNK d   0      12.888 -10.782   1.069  0.00  0.00     0.143 C 
ATOM     40  O   UNK d   0      12.361  -9.675   1.278  0.00  0.00    -0.650 OA
BRANCH  39  41
ATOM     41  O   UNK d   0      12.247 -11.663   0.198  0.00  0.00    -0.776 OA
ATOM     42  H   UNK d   0      11.355 -11.352  -0.199  0.00  0.00     0.167 HD
ENDBRANCH  39  41
ENDBRANCH  38  39
ENDBRANCH  31  38
BRANCH  27  43
ATOM     43  C   UNK d   0      13.604 -10.238   4.584  0.00  0.00     0.052 C 
BRANCH  43  44
ATOM     44  C   UNK d   0      12.207  -9.775   4.840  0.00  0.00     0.115 C 
BRANCH  44  45
ATOM     45  C   UNK d   0      12.239  -9.018   6.118  0.00  0.00     0.139 C 
ATOM     46  O   UNK d   0      13.092  -9.346   6.979  0.00  0.00    -0.650 OA
BRANCH  45  47
ATOM     47  O   UNK d   0      11.380  -7.975   6.391  0.00  0.00    -0.776 OA
ATOM     48  H   UNK d   0      11.386  -7.464   7.289  0.00  0.00     0.167 HD
ENDBRANCH  45  47
ENDBRANCH  44  45
ENDBRANCH  43  44
ENDBRANCH  27  43
BRANCH  24  49
ATOM     49  C   UNK d   0      12.192 -12.452   9.458  0.00  0.00     0.052 C 
BRANCH  49  50
ATOM     50  C   UNK d   0      13.403 -12.896  10.237  0.00  0.00     0.115 C 
BRANCH  50  51
ATOM     51  C   UNK d   0      14.589 -12.054  10.158  0.00  0.00     0.139 C 
ATOM     52  O   UNK d   0      14.822 -11.304   9.181  0.00  0.00    -0.650 OA
BRANCH  51  53
ATOM     53  O   UNK d   0      15.512 -12.070  11.192  0.00  0.00    -0.776 OA
ATOM     54  H   UNK d   0      15.403 -11.403  11.937  0.00  0.00     0.167 HD
ENDBRANCH  51  53
ENDBRANCH  50  51
ENDBRANCH  49  50
ENDBRANCH  24  49
BRANCH  21  55
ATOM     55  C   UNK d   0      10.188 -14.784   9.758  0.00  0.00     0.151 C 
BRANCH  55  56
ATOM     56  C   UNK d   0       8.996 -13.934   9.900  0.00  0.00     0.143 C 
ATOM     57  O   UNK d   0       8.338 -13.526   8.922  0.00  0.00    -0.650 OA
BRANCH  56  58
ATOM     58  O   UNK d   0       8.600 -13.580  11.189  0.00  0.00    -0.776 OA
ATOM     59  H   UNK d   0       7.585 -13.674  11.375  0.00  0.00     0.167 HD
ENDBRANCH  56  58
ENDBRANCH  55  56
ENDBRANCH  21  55
BRANCH  18  60
ATOM     60  C   UNK d   0      10.256 -19.275   6.819  0.00  0.00     0.151 C 
BRANCH  60  61
ATOM     61  C   UNK d   0       8.909 -19.842   6.653  0.00  0.00     0.143 C 
ATOM     62  O   UNK d   0       7.845 -19.224   6.598  0.00  0.00    -0.650 OA
BRANCH  61  63
ATOM     63  O   UNK d   0       8.857 -21.253   6.549  0.00  0.00    -0.776 OA
ATOM     64  H   UNK d   0       9.353 -21.737   5.822  0.00  0.00     0.167 HD
ENDBRANCH  61  63
ENDBRANCH  60  61
ENDBRANCH  18  60
BRANCH  14  65
ATOM     65  C   UNK d   0      10.645 -20.197   3.954  0.00  0.00     0.052 C 
BRANCH  65  66
ATOM     66  C   UNK d   0      11.975 -20.860   4.031  0.00  0.00     0.115 C 
BRANCH  66  67
ATOM     67  C   UNK d   0      12.092 -22.152   4.646  0.00  0.00     0.139 C 
ATOM     68  O   UNK d   0      13.200 -22.793   4.520  0.00  0.00    -0.650 OA
BRANCH  67  69
ATOM     69  O   UNK d   0      11.130 -22.833   5.390  0.00  0.00    -0.776 OA
ATOM     70  H   UNK d   0      10.491 -22.244   5.944  0.00  0.00     0.167 HD
ENDBRANCH  67  69
ENDBRANCH  66  67
ENDBRANCH  65  66
ENDBRANCH  14  65
ENDBRANCH   6   7
ENDBRANCH   5   6
ENDBRANCH   2   5
TORSDOF 28
ENDMDL
MODEL 4
REMARK VINA RESULT:      -6.2     22.089     28.703
REMARK  28 active torsions:
REMARK  status: ('A' for Active; 'I' for Inactive)
REMARK    1  A    between atoms: C_2  and  O_3 
REMARK    2  A    between atoms: C_2  and  C_4 
REMARK    3  A    between atoms: C_4  and  C_5 
REMARK    4  A    between atoms: C_5  and  C_6 
REMARK    5  A    between atoms: C_7  and  C_8 
REMARK    6  A    between atoms: C_8  and  C_9 
REMARK    7  A    between atoms: C_9  and  O_11 
REMARK    8  A    between atoms: C_28  and  C_29 
REMARK    9  A    between atoms: C_29  and  C_30 
REMARK   10  A    between atoms: C_30  and  O_32 
REMARK   11  A    between atoms: C_33  and  C_34 
REMARK   12  A    between atoms: C_34  and  C_35 
REMARK   13  A    between atoms: C_35  and  C_36 
REMARK   14  A    between atoms: C_36  and  O_38 
REMARK   15  A    between atoms: C_39  and  C_40 
REMARK   16  A    between atoms: C_40  and  C_41 
REMARK   17  A    between atoms: C_41  and  C_42 
REMARK   18  A    between atoms: C_42  and  O_44 
REMARK   19  A    between atoms: C_45  and  C_46 
REMARK   20  A    between atoms: C_46  and  C_47 
REMARK   21  A    between atoms: C_47  and  O_49 
REMARK   22  A    between atoms: C_50  and  C_51 
REMARK   23  A    between atoms: C_51  and  C_52 
REMARK   24  A    between atoms: C_52  and  O_54 
REMARK   25  A    between atoms: C_55  and  C_56 
REMARK   26  A    between atoms: C_56  and  C_57 
REMARK   27  A    between atoms: C_57  and  C_58 
REMARK   28  A    between atoms: C_58  and  O_60 
ROOT
ATOM      1  O   UNK d   0     -18.867  -5.582  10.384  0.00  0.00    -0.650 OA
ATOM      2  C   UNK d   0     -17.902  -4.923   9.937  0.00  0.00     0.139 C 
ENDROOT
BRANCH   2   3
ATOM      3  O   UNK d   0     -16.763  -4.798  10.695  0.00  0.00    -0.776 OA
ATOM      4  H   UNK d   0     -16.778  -4.313  11.594  0.00  0.00     0.167 HD
ENDBRANCH   2   3
BRANCH   2   5
ATOM      5  C   UNK d   0     -17.992  -4.280   8.595  0.00  0.00     0.115 C 
BRANCH   5   6
ATOM      6  C   UNK d   0     -16.629  -3.830   8.144  0.00  0.00     0.052 C 
BRANCH   6   7
ATOM      7  C   UNK d   0     -16.099  -4.647   6.990  0.00  0.00    -0.020 A 
ATOM      8  C   UNK d   0     -15.183  -5.580   7.028  0.00  0.00    -0.011 A 
ATOM      9  C   UNK d   0     -14.998  -6.077   5.675  0.00  0.00     0.067 A 
ATOM     10  C   UNK d   0     -14.209  -7.059   5.055  0.00  0.00     0.062 C 
ATOM     11  N   UNK d   0     -15.839  -5.387   4.876  0.00  0.00    -0.248 NA
ATOM     12  C   UNK d   0     -14.370  -7.590   3.771  0.00  0.00     0.041 A 
ATOM     13  N   UNK d   0     -14.653  -6.996   2.595  0.00  0.00    -0.355 N 
ATOM     14  C   UNK d   0     -14.293  -8.983   3.596  0.00  0.00    -0.022 A 
ATOM     15  C   UNK d   0     -14.765  -7.978   1.681  0.00  0.00     0.042 A 
ATOM     16  H   UNK d   0     -14.752  -5.904   2.412  0.00  0.00     0.166 HD
ATOM     17  C   UNK d   0     -15.047  -7.914   0.302  0.00  0.00     0.062 C 
ATOM     18  C   UNK d   0     -14.546  -9.238   2.271  0.00  0.00    -0.013 A 
ATOM     19  C   UNK d   0     -16.001  -7.174  -0.350  0.00  0.00     0.067 A 
ATOM     20  N   UNK d   0     -16.629  -6.236   0.363  0.00  0.00    -0.248 NA
ATOM     21  C   UNK d   0     -16.561  -7.141  -1.690  0.00  0.00    -0.011 A 
ATOM     22  C   UNK d   0     -17.560  -5.592  -0.414  0.00  0.00     0.066 A 
ATOM     23  C   UNK d   0     -18.263  -4.562   0.193  0.00  0.00     0.062 C 
ATOM     24  C   UNK d   0     -17.476  -6.215  -1.720  0.00  0.00    -0.020 A 
ATOM     25  C   UNK d   0     -18.077  -4.035   1.481  0.00  0.00     0.041 A 
ATOM     26  N   UNK d   0     -17.811  -4.626   2.652  0.00  0.00    -0.355 N 
ATOM     27  C   UNK d   0     -18.150  -2.636   1.655  0.00  0.00    -0.022 A 
ATOM     28  C   UNK d   0     -17.708  -3.649   3.567  0.00  0.00     0.042 A 
ATOM     29  H   UNK d   0     -17.722  -5.725   2.837  0.00  0.00     0.166 HD
ATOM     30  C   UNK d   0     -17.436  -3.699   4.943  0.00  0.00     0.062 C 
ATOM     31  C   UNK d   0     -17.917  -2.383   2.971  0.00  0.00    -0.013 A 
ATOM     32  C   UNK d   0     -16.530  -4.511   5.607  0.00  0.00     0.066 A 
BRANCH   8  33
ATOM     33  C   UNK d   0     -14.451  -6.055   8.217  0.00  0.00     0.151 C 
BRANCH  33  34
ATOM     34  C   UNK d   0     -15.193  -7.079   8.973  0.00  0.00     0.143 C 
ATOM     35  O   UNK d   0     -16.024  -7.808   8.411  0.00  0.00    -0.650 OA
BRANCH  34  36
ATOM     36  O   UNK d   0     -14.960  -7.226  10.321  0.00  0.00    -0.776 OA
ATOM     37  H   UNK d   0     -14.632  -6.437  10.895  0.00  0.00     0.167 HD
ENDBRANCH  34  36
ENDBRANCH  33  34
ENDBRANCH   8  33
BRANCH  31  38
ATOM     38  C   UNK d   0     -17.882  -1.021   3.625  0.00  0.00     0.151 C 
BRANCH  38  39
ATOM     39  C   UNK d   0     -19.181  -0.590   4.095  0.00  0.00     0.143 C 
ATOM     40  O   UNK d   0     -19.974   0.042   3.373  0.00  0.00    -0.650 OA
BRANCH  39  41
ATOM     41  O   UNK d   0     -19.573  -0.886   5.400  0.00  0.00    -0.776 OA
ATOM     42  H   UNK d   0     -19.236  -0.258   6.137  0.00  0.00     0.167 HD
ENDBRANCH  39  41
ENDBRANCH  38  39
ENDBRANCH  31  38
BRANCH  27  43
ATOM     43  C   UNK d   0     -18.430  -1.557   0.638  0.00  0.00     0.052 C 
BRANCH  43  44
ATOM     44  C   UNK d   0     -17.240  -1.208  -0.196  0.00  0.00     0.115 C 
BRANCH  44  45
ATOM     45  C   UNK d   0     -17.375   0.229  -0.548  0.00  0.00     0.139 C 
ATOM     46  O   UNK d   0     -18.034   0.968   0.224  0.00  0.00    -0.650 OA
BRANCH  45  47
ATOM     47  O   UNK d   0     -16.805   0.779  -1.676  0.00  0.00    -0.776 OA
ATOM     48  H   UNK d   0     -16.591   1.786  -1.762  0.00  0.00     0.167 HD
ENDBRANCH  45  47
ENDBRANCH  44  45
ENDBRANCH  43  44
ENDBRANCH  27  43
BRANCH  24  49
ATOM     49  C   UNK d   0     -18.271  -5.817  -2.895  0.00  0.00     0.052 C 
BRANCH  49  50
ATOM     50  C   UNK d   0     -18.016  -4.371  -3.235  0.00  0.00     0.115 C 
BRANCH  50  51
ATOM     51  C   UNK d   0     -17.089  -4.097  -4.324  0.00  0.00     0.139 C 
ATOM     52  O   UNK d   0     -17.136  -3.045  -5.004  0.00  0.00    -0.650 OA
BRANCH  51  53
ATOM     53  O   UNK d   0     -16.109  -5.026  -4.641  0.00  0.00    -0.776 OA
ATOM     54  H   UNK d   0     -15.295  -5.078  -4.053  0.00  0.00     0.167 HD
ENDBRANCH  51  53
ENDBRANCH  50  51
ENDBRANCH  49  50
ENDBRANCH  24  49
BRANCH  21  55
ATOM     55  C   UNK d   0     -16.120  -8.034  -2.802  0.00  0.00     0.151 C 
BRANCH  55  56
ATOM     56  C   UNK d   0     -14.664  -7.984  -3.005  0.00  0.00     0.143 C 
ATOM     57  O   UNK d   0     -13.924  -8.971  -2.826  0.00  0.00    -0.650 OA
BRANCH  56  58
ATOM     58  O   UNK d   0     -14.106  -6.775  -3.415  0.00  0.00    -0.776 OA
ATOM     59  H   UNK d   0     -14.608  -6.303  -4.189  0.00  0.00     0.167 HD
ENDBRANCH  56  58
ENDBRANCH  55  56
ENDBRANCH  21  55
BRANCH  18  60
ATOM     60  C   UNK d   0     -14.572 -10.610   1.644  0.00  0.00     0.151 C 
BRANCH  60  61
ATOM     61  C   UNK d   0     -13.360 -10.699   0.816  0.00  0.00     0.143 C 
ATOM     62  O   UNK d   0     -12.198 -10.512   1.178  0.00  0.00    -0.650 OA
BRANCH  61  63
ATOM     63  O   UNK d   0     -13.581 -11.038  -0.541  0.00  0.00    -0.776 OA
ATOM     64  H   UNK d   0     -14.093 -10.426  -1.151  0.00  0.00     0.167 HD
ENDBRANCH  61  63
ENDBRANCH  60  61
ENDBRANCH  18  60
BRANCH  14  65
ATOM     65  C   UNK d   0     -13.905 -10.072   4.556  0.00  0.00     0.052 C 
BRANCH  65  66
ATOM     66  C   UNK d   0     -12.440 -10.327   4.585  0.00  0.00     0.115 C 
BRANCH  66  67
ATOM     67  C   UNK d   0     -11.949 -11.620   4.972  0.00  0.00     0.139 C 
ATOM     68  O   UNK d   0     -12.749 -12.422   5.580  0.00  0.00    -0.650 OA
BRANCH  67  69
ATOM     69  O   UNK d   0     -10.673 -12.144   4.769  0.00  0.00    -0.776 OA
ATOM     70  H   UNK d   0     -10.047 -12.128   5.588  0.00  0.00     0.167 HD
ENDBRANCH  67  69
ENDBRANCH  66  67
ENDBRANCH  65  66
ENDBRANCH  14  65
ENDBRANCH   6   7
ENDBRANCH   5   6
ENDBRANCH   2   5
TORSDOF 28
ENDMDL
MODEL 5
REMARK VINA RESULT:      -6.2      4.684      9.301
REMARK  28 active torsions:
REMARK  status: ('A' for Active; 'I' for Inactive)
REMARK    1  A    between atoms: C_2  and  O_3 
REMARK    2  A    between atoms: C_2  and  C_4 
REMARK    3  A    between atoms: C_4  and  C_5 
REMARK    4  A    between atoms: C_5  and  C_6 
REMARK    5  A    between atoms: C_7  and  C_8 
REMARK    6  A    between atoms: C_8  and  C_9 
REMARK    7  A    between atoms: C_9  and  O_11 
REMARK    8  A    between atoms: C_28  and  C_29 
REMARK    9  A    between atoms: C_29  and  C_30 
REMARK   10  A    between atoms: C_30  and  O_32 
REMARK   11  A    between atoms: C_33  and  C_34 
REMARK   12  A    between atoms: C_34  and  C_35 
REMARK   13  A    between atoms: C_35  and  C_36 
REMARK   14  A    between atoms: C_36  and  O_38 
REMARK   15  A    between atoms: C_39  and  C_40 
REMARK   16  A    between atoms: C_40  and  C_41 
REMARK   17  A    between atoms: C_41  and  C_42 
REMARK   18  A    between atoms: C_42  and  O_44 
REMARK   19  A    between atoms: C_45  and  C_46 
REMARK   20  A    between atoms: C_46  and  C_47 
REMARK   21  A    between atoms: C_47  and  O_49 
REMARK   22  A    between atoms: C_50  and  C_51 
REMARK   23  A    between atoms: C_51  and  C_52 
REMARK   24  A    between atoms: C_52  and  O_54 
REMARK   25  A    between atoms: C_55  and  C_56 
REMARK   26  A    between atoms: C_56  and  C_57 
REMARK   27  A    between atoms: C_57  and  C_58 
REMARK   28  A    between atoms: C_58  and  O_60 
ROOT
ATOM      1  O   UNK d   0      11.077 -21.109   6.119  0.00  0.00    -0.650 OA
ATOM      2  C   UNK d   0      10.167 -20.289   6.373  0.00  0.00     0.139 C 
ENDROOT
BRANCH   2   3
ATOM      3  O   UNK d   0       8.896 -20.750   6.622  0.00  0.00    -0.776 OA
ATOM      4  H   UNK d   0       8.437 -21.402   5.982  0.00  0.00     0.167 HD
ENDBRANCH   2   3
BRANCH   2   5
ATOM      5  C   UNK d   0      10.462 -18.829   6.405  0.00  0.00     0.115 C 
BRANCH   5   6
ATOM      6  C   UNK d   0      11.947 -18.602   6.470  0.00  0.00     0.052 C 
BRANCH   6   7
ATOM      7  C   UNK d   0      12.435 -17.642   5.411  0.00  0.00    -0.020 A 
ATOM      8  C   UNK d   0      12.857 -17.929   4.206  0.00  0.00    -0.011 A 
ATOM      9  C   UNK d   0      13.230 -16.683   3.557  0.00  0.00     0.067 A 
ATOM     10  C   UNK d   0      13.719 -16.305   2.296  0.00  0.00     0.062 C 
ATOM     11  N   UNK d   0      13.008 -15.688   4.441  0.00  0.00    -0.248 NA
ATOM     12  C   UNK d   0      13.757 -15.016   1.754  0.00  0.00     0.041 A 
ATOM     13  N   UNK d   0      14.096 -13.834   2.302  0.00  0.00    -0.355 N 
ATOM     14  C   UNK d   0      13.332 -14.823   0.427  0.00  0.00    -0.022 A 
ATOM     15  C   UNK d   0      13.890 -12.895   1.359  0.00  0.00     0.042 A 
ATOM     16  H   UNK d   0      14.492 -13.668   3.328  0.00  0.00     0.166 HD
ATOM     17  C   UNK d   0      14.084 -11.500   1.402  0.00  0.00     0.062 C 
ATOM     18  C   UNK d   0      13.410 -13.477   0.170  0.00  0.00    -0.013 A 
ATOM     19  C   UNK d   0      13.739 -10.611   2.388  0.00  0.00     0.067 A 
ATOM     20  N   UNK d   0      13.346 -11.126   3.556  0.00  0.00    -0.248 NA
ATOM     21  C   UNK d   0      13.668  -9.165   2.513  0.00  0.00    -0.011 A 
ATOM     22  C   UNK d   0      13.021 -10.121   4.434  0.00  0.00     0.066 A 
ATOM     23  C   UNK d   0      12.629 -10.517   5.705  0.00  0.00     0.062 C 
ATOM     24  C   UNK d   0      13.243  -8.885   3.711  0.00  0.00    -0.020 A 
ATOM     25  C   UNK d   0      12.611 -11.816   6.234  0.00  0.00     0.041 A 
ATOM     26  N   UNK d   0      12.259 -12.990   5.694  0.00  0.00    -0.355 N 
ATOM     27  C   UNK d   0      13.042 -12.010   7.565  0.00  0.00    -0.022 A 
ATOM     28  C   UNK d   0      12.455 -13.926   6.635  0.00  0.00     0.042 A 
ATOM     29  H   UNK d   0      11.851 -13.153   4.666  0.00  0.00     0.166 HD
ATOM     30  C   UNK d   0      12.258 -15.316   6.610  0.00  0.00     0.062 C 
ATOM     31  C   UNK d   0      12.947 -13.342   7.827  0.00  0.00    -0.013 A 
ATOM     32  C   UNK d   0      12.530 -16.199   5.577  0.00  0.00     0.066 A 
BRANCH   8  33
ATOM     33  C   UNK d   0      12.951 -19.269   3.597  0.00  0.00     0.151 C 
BRANCH  33  34
ATOM     34  C   UNK d   0      11.707 -19.675   2.918  0.00  0.00     0.143 C 
ATOM     35  O   UNK d   0      11.111 -18.895   2.161  0.00  0.00    -0.650 OA
BRANCH  34  36
ATOM     36  O   UNK d   0      11.204 -20.937   3.129  0.00  0.00    -0.776 OA
ATOM     37  H   UNK d   0      11.512 -21.738   2.561  0.00  0.00     0.167 HD
ENDBRANCH  34  36
ENDBRANCH  33  34
ENDBRANCH   8  33
BRANCH  31  38
ATOM     38  C   UNK d   0      13.314 -14.023   9.124  0.00  0.00     0.151 C 
BRANCH  38  39
ATOM     39  C   UNK d   0      12.261 -13.949  10.114  0.00  0.00     0.143 C 
ATOM     40  O   UNK d   0      11.075 -14.206   9.845  0.00  0.00    -0.650 OA
BRANCH  39  41
ATOM     41  O   UNK d   0      12.574 -13.579  11.422  0.00  0.00    -0.776 OA
ATOM     42  H   UNK d   0      11.819 -13.165  11.978  0.00  0.00     0.167 HD
ENDBRANCH  39  41
ENDBRANCH  38  39
ENDBRANCH  31  38
BRANCH  27  43
ATOM     43  C   UNK d   0      13.526 -10.997   8.572  0.00  0.00     0.052 C 
BRANCH  43  44
ATOM     44  C   UNK d   0      14.963 -10.627   8.394  0.00  0.00     0.115 C 
BRANCH  44  45
ATOM     45  C   UNK d   0      14.980  -9.287   7.752  0.00  0.00     0.139 C 
ATOM     46  O   UNK d   0      15.744  -9.111   6.771  0.00  0.00    -0.650 OA
BRANCH  45  47
ATOM     47  O   UNK d   0      14.194  -8.241   8.184  0.00  0.00    -0.776 OA
ATOM     48  H   UNK d   0      14.385  -7.718   9.054  0.00  0.00     0.167 HD
ENDBRANCH  45  47
ENDBRANCH  44  45
ENDBRANCH  43  44
ENDBRANCH  27  43
BRANCH  24  49
ATOM     49  C   UNK d   0      13.060  -7.536   4.275  0.00  0.00     0.052 C 
BRANCH  49  50
ATOM     50  C   UNK d   0      14.394  -6.937   4.642  0.00  0.00     0.115 C 
BRANCH  50  51
ATOM     51  C   UNK d   0      14.402  -5.931   5.696  0.00  0.00     0.139 C 
ATOM     52  O   UNK d   0      13.547  -5.018   5.766  0.00  0.00    -0.650 OA
BRANCH  51  53
ATOM     53  O   UNK d   0      15.390  -5.965   6.669  0.00  0.00    -0.776 OA
ATOM     54  H   UNK d   0      16.225  -5.427   6.517  0.00  0.00     0.167 HD
ENDBRANCH  51  53
ENDBRANCH  50  51
ENDBRANCH  49  50
ENDBRANCH  24  49
BRANCH  21  55
ATOM     55  C   UNK d   0      14.037  -8.213   1.423  0.00  0.00     0.151 C 
BRANCH  55  56
ATOM     56  C   UNK d   0      12.929  -8.001   0.478  0.00  0.00     0.143 C 
ATOM     57  O   UNK d   0      12.932  -8.461  -0.680  0.00  0.00    -0.650 OA
BRANCH  56  58
ATOM     58  O   UNK d   0      11.838  -7.251   0.916  0.00  0.00    -0.776 OA
ATOM     59  H   UNK d   0      11.620  -7.344   1.924  0.00  0.00     0.167 HD
ENDBRANCH  56  58
ENDBRANCH  55  56
ENDBRANCH  21  55
BRANCH  18  60
ATOM     60  C   UNK d   0      13.040 -12.824  -1.138  0.00  0.00     0.151 C 
BRANCH  60  61
ATOM     61  C   UNK d   0      11.624 -12.444  -1.013  0.00  0.00     0.143 C 
ATOM     62  O   UNK d   0      10.645 -13.105  -1.359  0.00  0.00    -0.650 OA
BRANCH  61  63
ATOM     63  O   UNK d   0      11.391 -11.176  -0.429  0.00  0.00    -0.776 OA
ATOM     64  H   UNK d   0      11.277 -11.076   0.565  0.00  0.00     0.167 HD
ENDBRANCH  61  63
ENDBRANCH  60  61
ENDBRANCH  18  60
BRANCH  14  65
ATOM     65  C   UNK d   0      12.955 -15.816  -0.636  0.00  0.00     0.052 C 
BRANCH  65  66
ATOM     66  C   UNK d   0      11.553 -16.296  -0.513  0.00  0.00     0.115 C 
BRANCH  66  67
ATOM     67  C   UNK d   0      10.788 -16.572  -1.696  0.00  0.00     0.139 C 
ATOM     68  O   UNK d   0       9.505 -16.549  -1.617  0.00  0.00    -0.650 OA
BRANCH  67  69
ATOM     69  O   UNK d   0      11.267 -16.875  -2.970  0.00  0.00    -0.776 OA
ATOM     70  H   UNK d   0      12.006 -17.591  -3.013  0.00  0.00     0.167 HD
ENDBRANCH  67  69
ENDBRANCH  66  67
ENDBRANCH  65  66
ENDBRANCH  14  65
ENDBRANCH   6   7
ENDBRANCH   5   6
ENDBRANCH   2   5
TORSDOF 28
ENDMDL
MODEL 6
REMARK VINA RESULT:      -6.2      1.788      4.125
REMARK  28 active torsions:
REMARK  status: ('A' for Active; 'I' for Inactive)
REMARK    1  A    between atoms: C_2  and  O_3 
REMARK    2  A    between atoms: C_2  and  C_4 
REMARK    3  A    between atoms: C_4  and  C_5 
REMARK    4  A    between atoms: C_5  and  C_6 
REMARK    5  A    between atoms: C_7  and  C_8 
REMARK    6  A    between atoms: C_8  and  C_9 
REMARK    7  A    between atoms: C_9  and  O_11 
REMARK    8  A    between atoms: C_28  and  C_29 
REMARK    9  A    between atoms: C_29  and  C_30 
REMARK   10  A    between atoms: C_30  and  O_32 
REMARK   11  A    between atoms: C_33  and  C_34 
REMARK   12  A    between atoms: C_34  and  C_35 
REMARK   13  A    between atoms: C_35  and  C_36 
REMARK   14  A    between atoms: C_36  and  O_38 
REMARK   15  A    between atoms: C_39  and  C_40 
REMARK   16  A    between atoms: C_40  and  C_41 
REMARK   17  A    between atoms: C_41  and  C_42 
REMARK   18  A    between atoms: C_42  and  O_44 
REMARK   19  A    between atoms: C_45  and  C_46 
REMARK   20  A    between atoms: C_46  and  C_47 
REMARK   21  A    between atoms: C_47  and  O_49 
REMARK   22  A    between atoms: C_50  and  C_51 
REMARK   23  A    between atoms: C_51  and  C_52 
REMARK   24  A    between atoms: C_52  and  O_54 
REMARK   25  A    between atoms: C_55  and  C_56 
REMARK   26  A    between atoms: C_56  and  C_57 
REMARK   27  A    between atoms: C_57  and  C_58 
REMARK   28  A    between atoms: C_58  and  O_60 
ROOT
ATOM      1  O   UNK d   0       6.529 -21.842   1.979  0.00  0.00    -0.650 OA
ATOM      2  C   UNK d   0       6.216 -21.234   3.027  0.00  0.00     0.139 C 
ENDROOT
BRANCH   2   3
ATOM      3  O   UNK d   0       6.481 -21.811   4.245  0.00  0.00    -0.776 OA
ATOM      4  H   UNK d   0       6.585 -22.824   4.338  0.00  0.00     0.167 HD
ENDBRANCH   2   3
BRANCH   2   5
ATOM      5  C   UNK d   0       5.562 -19.897   2.949  0.00  0.00     0.115 C 
BRANCH   5   6
ATOM      6  C   UNK d   0       6.542 -18.869   2.451  0.00  0.00     0.052 C 
BRANCH   6   7
ATOM      7  C   UNK d   0       7.569 -18.493   3.491  0.00  0.00    -0.020 A 
ATOM      8  C   UNK d   0       8.782 -18.967   3.623  0.00  0.00    -0.011 A 
ATOM      9  C   UNK d   0       9.393 -18.314   4.769  0.00  0.00     0.067 A 
ATOM     10  C   UNK d   0      10.640 -18.354   5.411  0.00  0.00     0.062 C 
ATOM     11  N   UNK d   0       8.478 -17.463   5.279  0.00  0.00    -0.248 NA
ATOM     12  C   UNK d   0      11.143 -17.440   6.344  0.00  0.00     0.041 A 
ATOM     13  N   UNK d   0      10.559 -16.835   7.395  0.00  0.00    -0.355 N 
ATOM     14  C   UNK d   0      12.464 -16.979   6.200  0.00  0.00    -0.022 A 
ATOM     15  C   UNK d   0      11.472 -15.996   7.918  0.00  0.00     0.042 A 
ATOM     16  H   UNK d   0       9.527 -17.013   7.773  0.00  0.00     0.166 HD
ATOM     17  C   UNK d   0      11.387 -15.126   9.023  0.00  0.00     0.062 C 
ATOM     18  C   UNK d   0      12.679 -16.058   7.195  0.00  0.00    -0.013 A 
ATOM     19  C   UNK d   0      10.374 -14.268   9.369  0.00  0.00     0.067 A 
ATOM     20  N   UNK d   0       9.223 -14.391   8.703  0.00  0.00    -0.248 NA
ATOM     21  C   UNK d   0      10.205 -13.179  10.317  0.00  0.00    -0.011 A 
ATOM     22  C   UNK d   0       8.315 -13.461   9.145  0.00  0.00     0.066 A 
ATOM     23  C   UNK d   0       7.057 -13.501   8.561  0.00  0.00     0.062 C 
ATOM     24  C   UNK d   0       9.000 -12.708  10.178  0.00  0.00    -0.020 A 
ATOM     25  C   UNK d   0       6.568 -14.436   7.635  0.00  0.00     0.041 A 
ATOM     26  N   UNK d   0       7.144 -15.026   6.581  0.00  0.00    -0.355 N 
ATOM     27  C   UNK d   0       5.244 -14.902   7.783  0.00  0.00    -0.022 A 
ATOM     28  C   UNK d   0       6.232 -15.857   6.053  0.00  0.00     0.042 A 
ATOM     29  H   UNK d   0       8.177 -14.838   6.197  0.00  0.00     0.166 HD
ATOM     30  C   UNK d   0       6.300 -16.721   4.948  0.00  0.00     0.062 C 
ATOM     31  C   UNK d   0       5.023 -15.802   6.786  0.00  0.00    -0.013 A 
ATOM     32  C   UNK d   0       7.360 -17.523   4.555  0.00  0.00     0.066 A 
BRANCH   8  33
ATOM     33  C   UNK d   0       9.432 -19.984   2.776  0.00  0.00     0.151 C 
BRANCH  33  34
ATOM     34  C   UNK d   0      10.534 -19.434   1.966  0.00  0.00     0.143 C 
ATOM     35  O   UNK d   0      11.563 -20.092   1.760  0.00  0.00    -0.650 OA
BRANCH  34  36
ATOM     36  O   UNK d   0      10.415 -18.170   1.435  0.00  0.00    -0.776 OA
ATOM     37  H   UNK d   0      10.943 -17.376   1.822  0.00  0.00     0.167 HD
ENDBRANCH  34  36
ENDBRANCH  33  34
ENDBRANCH   8  33
BRANCH  31  38
ATOM     38  C   UNK d   0       3.746 -16.575   6.550  0.00  0.00     0.151 C 
BRANCH  38  39
ATOM     39  C   UNK d   0       3.528 -17.613   7.534  0.00  0.00     0.143 C 
ATOM     40  O   UNK d   0       2.401 -17.868   7.993  0.00  0.00    -0.650 OA
BRANCH  39  41
ATOM     41  O   UNK d   0       4.611 -18.363   7.991  0.00  0.00    -0.776 OA
ATOM     42  H   UNK d   0       5.506 -18.222   7.512  0.00  0.00     0.167 HD
ENDBRANCH  39  41
ENDBRANCH  38  39
ENDBRANCH  31  38
BRANCH  27  43
ATOM     43  C   UNK d   0       4.205 -14.529   8.811  0.00  0.00     0.052 C 
BRANCH  43  44
ATOM     44  C   UNK d   0       3.164 -13.594   8.288  0.00  0.00     0.115 C 
BRANCH  44  45
ATOM     45  C   UNK d   0       1.871 -14.024   8.881  0.00  0.00     0.139 C 
ATOM     46  O   UNK d   0       1.315 -13.257   9.706  0.00  0.00    -0.650 OA
BRANCH  45  47
ATOM     47  O   UNK d   0       1.262 -15.217   8.561  0.00  0.00    -0.776 OA
ATOM     48  H   UNK d   0       1.482 -15.746   7.701  0.00  0.00     0.167 HD
ENDBRANCH  45  47
ENDBRANCH  44  45
ENDBRANCH  43  44
ENDBRANCH  27  43
BRANCH  24  49
ATOM     49  C   UNK d   0       8.395 -11.622  10.968  0.00  0.00     0.052 C 
BRANCH  49  50
ATOM     50  C   UNK d   0       7.402 -12.182  11.955  0.00  0.00     0.115 C 
BRANCH  50  51
ATOM     51  C   UNK d   0       7.936 -12.932  13.083  0.00  0.00     0.139 C 
ATOM     52  O   UNK d   0       8.799 -12.460  13.861  0.00  0.00    -0.650 OA
BRANCH  51  53
ATOM     53  O   UNK d   0       7.489 -14.222  13.324  0.00  0.00    -0.776 OA
ATOM     54  H   UNK d   0       8.170 -14.931  13.530  0.00  0.00     0.167 HD
ENDBRANCH  51  53
ENDBRANCH  50  51
ENDBRANCH  49  50
ENDBRANCH  24  49
BRANCH  21  55
ATOM     55  C   UNK d   0      11.265 -12.726  11.266  0.00  0.00     0.151 C 
BRANCH  55  56
ATOM     56  C   UNK d   0      12.526 -12.414  10.576  0.00  0.00     0.143 C 
ATOM     57  O   UNK d   0      13.644 -12.666  11.066  0.00  0.00    -0.650 OA
BRANCH  56  58
ATOM     58  O   UNK d   0      12.448 -11.811   9.321  0.00  0.00    -0.776 OA
ATOM     59  H   UNK d   0      12.529 -12.461   8.519  0.00  0.00     0.167 HD
ENDBRANCH  56  58
ENDBRANCH  55  56
ENDBRANCH  21  55
BRANCH  18  60
ATOM     60  C   UNK d   0      13.968 -15.302   7.410  0.00  0.00     0.151 C 
BRANCH  60  61
ATOM     61  C   UNK d   0      13.823 -14.039   6.671  0.00  0.00     0.143 C 
ATOM     62  O   UNK d   0      12.855 -13.278   6.685  0.00  0.00    -0.650 OA
BRANCH  61  63
ATOM     63  O   UNK d   0      14.930 -13.682   5.864  0.00  0.00    -0.776 OA
ATOM     64  H   UNK d   0      15.426 -14.373   5.329  0.00  0.00     0.167 HD
ENDBRANCH  61  63
ENDBRANCH  60  61
ENDBRANCH  18  60
BRANCH  14  65
ATOM     65  C   UNK d   0      13.557 -17.410   5.265  0.00  0.00     0.052 C 
BRANCH  65  66
ATOM     66  C   UNK d   0      13.119 -17.465   3.844  0.00  0.00     0.115 C 
BRANCH  66  67
ATOM     67  C   UNK d   0      13.182 -16.282   3.033  0.00  0.00     0.139 C 
ATOM     68  O   UNK d   0      13.823 -15.263   3.484  0.00  0.00    -0.650 OA
BRANCH  67  69
ATOM     69  O   UNK d   0      12.619 -16.081   1.773  0.00  0.00    -0.776 OA
ATOM     70  H   UNK d   0      11.908 -16.768   1.485  0.00  0.00     0.167 HD
ENDBRANCH  67  69
ENDBRANCH  66  67
ENDBRANCH  65  66
ENDBRANCH  14  65
ENDBRANCH   6   7
ENDBRANCH   5   6
ENDBRANCH   2   5
TORSDOF 28
ENDMDL
MODEL 7
REMARK VINA RESULT:      -6.2     26.166     30.741
REMARK  28 active torsions:
REMARK  status: ('A' for Active; 'I' for Inactive)
REMARK    1  A    between atoms: C_2  and  O_3 
REMARK    2  A    between atoms: C_2  and  C_4 
REMARK    3  A    between atoms: C_4  and  C_5 
REMARK    4  A    between atoms: C_5  and  C_6 
REMARK    5  A    between atoms: C_7  and  C_8 
REMARK    6  A    between atoms: C_8  and  C_9 
REMARK    7  A    between atoms: C_9  and  O_11 
REMARK    8  A    between atoms: C_28  and  C_29 
REMARK    9  A    between atoms: C_29  and  C_30 
REMARK   10  A    between atoms: C_30  and  O_32 
REMARK   11  A    between atoms: C_33  and  C_34 
REMARK   12  A    between atoms: C_34  and  C_35 
REMARK   13  A    between atoms: C_35  and  C_36 
REMARK   14  A    between atoms: C_36  and  O_38 
REMARK   15  A    between atoms: C_39  and  C_40 
REMARK   16  A    between atoms: C_40  and  C_41 
REMARK   17  A    between atoms: C_41  and  C_42 
REMARK   18  A    between atoms: C_42  and  O_44 
REMARK   19  A    between atoms: C_45  and  C_46 
REMARK   20  A    between atoms: C_46  and  C_47 
REMARK   21  A    between atoms: C_47  and  O_49 
REMARK   22  A    between atoms: C_50  and  C_51 
REMARK   23  A    between atoms: C_51  and  C_52 
REMARK   24  A    between atoms: C_52  and  O_54 
REMARK   25  A    between atoms: C_55  and  C_56 
REMARK   26  A    between atoms: C_56  and  C_57 
REMARK   27  A    between atoms: C_57  and  C_58 
REMARK   28  A    between atoms: C_58  and  O_60 
ROOT
ATOM      1  O   UNK d   0      19.957   6.125 -12.104  0.00  0.00    -0.650 OA
ATOM      2  C   UNK d   0      19.007   6.792 -11.636  0.00  0.00     0.139 C 
ENDROOT
BRANCH   2   3
ATOM      3  O   UNK d   0      18.987   7.087 -10.294  0.00  0.00    -0.776 OA
ATOM      4  H   UNK d   0      19.375   7.964  -9.940  0.00  0.00     0.167 HD
ENDBRANCH   2   3
BRANCH   2   5
ATOM      5  C   UNK d   0      17.910   7.261 -12.530  0.00  0.00     0.115 C 
BRANCH   5   6
ATOM      6  C   UNK d   0      18.366   7.239 -13.964  0.00  0.00     0.052 C 
BRANCH   6   7
ATOM      7  C   UNK d   0      17.470   6.404 -14.846  0.00  0.00    -0.020 A 
ATOM      8  C   UNK d   0      16.863   6.773 -15.945  0.00  0.00    -0.011 A 
ATOM      9  C   UNK d   0      16.107   5.635 -16.440  0.00  0.00     0.067 A 
ATOM     10  C   UNK d   0      15.285   5.368 -17.546  0.00  0.00     0.062 C 
ATOM     11  N   UNK d   0      16.306   4.616 -15.577  0.00  0.00    -0.248 NA
ATOM     12  C   UNK d   0      14.863   4.116 -18.006  0.00  0.00     0.041 A 
ATOM     13  N   UNK d   0      14.415   3.033 -17.343  0.00  0.00    -0.355 N 
ATOM     14  C   UNK d   0      14.937   3.836 -19.383  0.00  0.00    -0.022 A 
ATOM     15  C   UNK d   0      14.210   2.071 -18.263  0.00  0.00     0.042 A 
ATOM     16  H   UNK d   0      14.229   2.957 -16.249  0.00  0.00     0.166 HD
ATOM     17  C   UNK d   0      13.746   0.749 -18.113  0.00  0.00     0.062 C 
ATOM     18  C   UNK d   0      14.527   2.537 -19.553  0.00  0.00    -0.013 A 
ATOM     19  C   UNK d   0      14.107  -0.192 -17.183  0.00  0.00     0.067 A 
ATOM     20  N   UNK d   0      14.845   0.229 -16.153  0.00  0.00    -0.248 NA
ATOM     21  C   UNK d   0      13.903  -1.620 -17.008  0.00  0.00    -0.011 A 
ATOM     22  C   UNK d   0      15.140  -0.821 -15.318  0.00  0.00     0.066 A 
ATOM     23  C   UNK d   0      15.874  -0.517 -14.181  0.00  0.00     0.062 C 
ATOM     24  C   UNK d   0      14.513  -1.983 -15.917  0.00  0.00    -0.020 A 
ATOM     25  C   UNK d   0      16.277   0.749 -13.730  0.00  0.00     0.041 A 
ATOM     26  N   UNK d   0      16.737   1.820 -14.387  0.00  0.00    -0.355 N 
ATOM     27  C   UNK d   0      16.199   1.031 -12.349  0.00  0.00    -0.022 A 
ATOM     28  C   UNK d   0      16.950   2.779 -13.472  0.00  0.00     0.042 A 
ATOM     29  H   UNK d   0      16.934   1.892 -15.485  0.00  0.00     0.166 HD
ATOM     30  C   UNK d   0      17.420   4.094 -13.605  0.00  0.00     0.062 C 
ATOM     31  C   UNK d   0      16.622   2.313 -12.176  0.00  0.00    -0.013 A 
ATOM     32  C   UNK d   0      17.117   5.014 -14.596  0.00  0.00     0.066 A 
BRANCH   8  33
ATOM     33  C   UNK d   0      16.917   8.102 -16.582  0.00  0.00     0.151 C 
BRANCH  33  34
ATOM     34  C   UNK d   0      17.758   8.120 -17.793  0.00  0.00     0.143 C 
ATOM     35  O   UNK d   0      18.994   8.139 -17.709  0.00  0.00    -0.650 OA
BRANCH  34  36
ATOM     36  O   UNK d   0      17.159   8.116 -19.032  0.00  0.00    -0.776 OA
ATOM     37  H   UNK d   0      16.576   7.326 -19.341  0.00  0.00     0.167 HD
ENDBRANCH  34  36
ENDBRANCH  33  34
ENDBRANCH   8  33
BRANCH  31  38
ATOM     38  C   UNK d   0      16.698   3.057 -10.864  0.00  0.00     0.151 C 
BRANCH  38  39
ATOM     39  C   UNK d   0      17.993   2.943 -10.228  0.00  0.00     0.143 C 
ATOM     40  O   UNK d   0      18.448   1.855  -9.835  0.00  0.00    -0.650 OA
BRANCH  39  41
ATOM     41  O   UNK d   0      18.770   4.087 -10.044  0.00  0.00    -0.776 OA
ATOM     42  H   UNK d   0      18.871   4.711 -10.850  0.00  0.00     0.167 HD
ENDBRANCH  39  41
ENDBRANCH  38  39
ENDBRANCH  31  38
BRANCH  27  43
ATOM     43  C   UNK d   0      15.748   0.144 -11.214  0.00  0.00     0.052 C 
BRANCH  43  44
ATOM     44  C   UNK d   0      14.287   0.255 -10.922  0.00  0.00     0.115 C 
BRANCH  44  45
ATOM     45  C   UNK d   0      13.726  -1.116 -11.038  0.00  0.00     0.139 C 
ATOM     46  O   UNK d   0      14.492  -2.089 -10.825  0.00  0.00    -0.650 OA
BRANCH  45  47
ATOM     47  O   UNK d   0      12.409  -1.360 -11.361  0.00  0.00    -0.776 OA
ATOM     48  H   UNK d   0      11.968  -2.288 -11.252  0.00  0.00     0.167 HD
ENDBRANCH  45  47
ENDBRANCH  44  45
ENDBRANCH  43  44
ENDBRANCH  27  43
BRANCH  24  49
ATOM     49  C   UNK d   0      14.532  -3.339 -15.342  0.00  0.00     0.052 C 
BRANCH  49  50
ATOM     50  C   UNK d   0      13.747  -3.374 -14.056  0.00  0.00     0.115 C 
BRANCH  50  51
ATOM     51  C   UNK d   0      12.390  -3.901 -14.119  0.00  0.00     0.139 C 
ATOM     52  O   UNK d   0      12.057  -4.820 -14.904  0.00  0.00    -0.650 OA
BRANCH  51  53
ATOM     53  O   UNK d   0      11.412  -3.377 -13.288  0.00  0.00    -0.776 OA
ATOM     54  H   UNK d   0      11.072  -3.948 -12.535  0.00  0.00     0.167 HD
ENDBRANCH  51  53
ENDBRANCH  50  51
ENDBRANCH  49  50
ENDBRANCH  24  49
BRANCH  21  55
ATOM     55  C   UNK d   0      13.115  -2.472 -17.947  0.00  0.00     0.151 C 
BRANCH  55  56
ATOM     56  C   UNK d   0      11.695  -2.541 -17.571  0.00  0.00     0.143 C 
ATOM     57  O   UNK d   0      11.002  -1.525 -17.363  0.00  0.00    -0.650 OA
BRANCH  56  58
ATOM     58  O   UNK d   0      11.116  -3.803 -17.447  0.00  0.00    -0.776 OA
ATOM     59  H   UNK d   0      11.771  -4.597 -17.567  0.00  0.00     0.167 HD
ENDBRANCH  56  58
ENDBRANCH  55  56
ENDBRANCH  21  55
BRANCH  18  60
ATOM     60  C   UNK d   0      14.458   1.819 -20.878  0.00  0.00     0.151 C 
BRANCH  60  61
ATOM     61  C   UNK d   0      15.543   0.827 -20.857  0.00  0.00     0.143 C 
ATOM     62  O   UNK d   0      16.731   1.032 -20.606  0.00  0.00    -0.650 OA
BRANCH  61  63
ATOM     63  O   UNK d   0      15.153  -0.500 -21.160  0.00  0.00    -0.776 OA
ATOM     64  H   UNK d   0      14.244  -0.843 -20.906  0.00  0.00     0.167 HD
ENDBRANCH  61  63
ENDBRANCH  60  61
ENDBRANCH  18  60
BRANCH  14  65
ATOM     65  C   UNK d   0      15.268   4.725 -20.548  0.00  0.00     0.052 C 
BRANCH  65  66
ATOM     66  C   UNK d   0      16.650   4.522 -21.060  0.00  0.00     0.115 C 
BRANCH  66  67
ATOM     67  C   UNK d   0      17.738   4.372 -20.134  0.00  0.00     0.139 C 
ATOM     68  O   UNK d   0      18.277   5.432 -19.645  0.00  0.00    -0.650 OA
BRANCH  67  69
ATOM     69  O   UNK d   0      18.311   3.187 -19.676  0.00  0.00    -0.776 OA
ATOM     70  H   UNK d   0      19.310   3.058 -19.895  0.00  0.00     0.167 HD
ENDBRANCH  67  69
ENDBRANCH  66  67
ENDBRANCH  65  66
ENDBRANCH  14  65
ENDBRANCH   6   7
ENDBRANCH   5   6
ENDBRANCH   2   5
TORSDOF 28
ENDMDL
MODEL 8
REMARK VINA RESULT:      -6.1     24.424     29.405
REMARK  28 active torsions:
REMARK  status: ('A' for Active; 'I' for Inactive)
REMARK    1  A    between atoms: C_2  and  O_3 
REMARK    2  A    between atoms: C_2  and  C_4 
REMARK    3  A    between atoms: C_4  and  C_5 
REMARK    4  A    between atoms: C_5  and  C_6 
REMARK    5  A    between atoms: C_7  and  C_8 
REMARK    6  A    between atoms: C_8  and  C_9 
REMARK    7  A    between atoms: C_9  and  O_11 
REMARK    8  A    between atoms: C_28  and  C_29 
REMARK    9  A    between atoms: C_29  and  C_30 
REMARK   10  A    between atoms: C_30  and  O_32 
REMARK   11  A    between atoms: C_33  and  C_34 
REMARK   12  A    between atoms: C_34  and  C_35 
REMARK   13  A    between atoms: C_35  and  C_36 
REMARK   14  A    between atoms: C_36  and  O_38 
REMARK   15  A    between atoms: C_39  and  C_40 
REMARK   16  A    between atoms: C_40  and  C_41 
REMARK   17  A    between atoms: C_41  and  C_42 
REMARK   18  A    between atoms: C_42  and  O_44 
REMARK   19  A    between atoms: C_45  and  C_46 
REMARK   20  A    between atoms: C_46  and  C_47 
REMARK   21  A    between atoms: C_47  and  O_49 
REMARK   22  A    between atoms: C_50  and  C_51 
REMARK   23  A    between atoms: C_51  and  C_52 
REMARK   24  A    between atoms: C_52  and  O_54 
REMARK   25  A    between atoms: C_55  and  C_56 
REMARK   26  A    between atoms: C_56  and  C_57 
REMARK   27  A    between atoms: C_57  and  C_58 
REMARK   28  A    between atoms: C_58  and  O_60 
ROOT
ATOM      1  O   UNK d   0     -20.720   1.146  -3.205  0.00  0.00    -0.650 OA
ATOM      2  C   UNK d   0     -19.977   0.140  -3.179  0.00  0.00     0.139 C 
ENDROOT
BRANCH   2   3
ATOM      3  O   UNK d   0     -19.492  -0.370  -4.359  0.00  0.00    -0.776 OA
ATOM      4  H   UNK d   0     -19.239  -1.357  -4.443  0.00  0.00     0.167 HD
ENDBRANCH   2   3
BRANCH   2   5
ATOM      5  C   UNK d   0     -19.625  -0.497  -1.878  0.00  0.00     0.115 C 
BRANCH   5   6
ATOM      6  C   UNK d   0     -18.186  -0.937  -1.890  0.00  0.00     0.052 C 
BRANCH   6   7
ATOM      7  C   UNK d   0     -17.999  -2.325  -1.326  0.00  0.00    -0.020 A 
ATOM      8  C   UNK d   0     -18.109  -3.466  -1.959  0.00  0.00    -0.011 A 
ATOM      9  C   UNK d   0     -17.849  -4.531  -1.004  0.00  0.00     0.067 A 
ATOM     10  C   UNK d   0     -17.790  -5.932  -1.043  0.00  0.00     0.062 C 
ATOM     11  N   UNK d   0     -17.594  -3.948   0.186  0.00  0.00    -0.248 NA
ATOM     12  C   UNK d   0     -17.246  -6.784  -0.075  0.00  0.00     0.041 A 
ATOM     13  N   UNK d   0     -17.334  -6.770   1.269  0.00  0.00    -0.355 N 
ATOM     14  C   UNK d   0     -16.405  -7.834  -0.487  0.00  0.00    -0.022 A 
ATOM     15  C   UNK d   0     -16.564  -7.778   1.720  0.00  0.00     0.042 A 
ATOM     16  H   UNK d   0     -17.944  -6.073   1.885  0.00  0.00     0.166 HD
ATOM     17  C   UNK d   0     -16.302  -8.208   3.036  0.00  0.00     0.062 C 
ATOM     18  C   UNK d   0     -15.965  -8.468   0.648  0.00  0.00    -0.013 A 
ATOM     19  C   UNK d   0     -16.001  -7.459   4.144  0.00  0.00     0.067 A 
ATOM     20  N   UNK d   0     -16.163  -6.137   4.043  0.00  0.00    -0.248 NA
ATOM     21  C   UNK d   0     -15.509  -7.728   5.485  0.00  0.00    -0.011 A 
ATOM     22  C   UNK d   0     -15.810  -5.522   5.219  0.00  0.00     0.066 A 
ATOM     23  C   UNK d   0     -15.966  -4.145   5.265  0.00  0.00     0.062 C 
ATOM     24  C   UNK d   0     -15.395  -6.590   6.108  0.00  0.00    -0.020 A 
ATOM     25  C   UNK d   0     -16.526  -3.309   4.287  0.00  0.00     0.041 A 
ATOM     26  N   UNK d   0     -16.427  -3.314   2.952  0.00  0.00    -0.355 N 
ATOM     27  C   UNK d   0     -17.374  -2.258   4.701  0.00  0.00    -0.022 A 
ATOM     28  C   UNK d   0     -17.186  -2.304   2.500  0.00  0.00     0.042 A 
ATOM     29  H   UNK d   0     -15.805  -4.009   2.335  0.00  0.00     0.166 HD
ATOM     30  C   UNK d   0     -17.449  -1.859   1.195  0.00  0.00     0.062 C 
ATOM     31  C   UNK d   0     -17.796  -1.618   3.577  0.00  0.00    -0.013 A 
ATOM     32  C   UNK d   0     -17.668  -2.623   0.059  0.00  0.00     0.066 A 
BRANCH   8  33
ATOM     33  C   UNK d   0     -18.443  -3.660  -3.382  0.00  0.00     0.151 C 
BRANCH  33  34
ATOM     34  C   UNK d   0     -17.288  -3.448  -4.273  0.00  0.00     0.143 C 
ATOM     35  O   UNK d   0     -17.246  -2.476  -5.041  0.00  0.00    -0.650 OA
BRANCH  34  36
ATOM     36  O   UNK d   0     -16.244  -4.344  -4.250  0.00  0.00    -0.776 OA
ATOM     37  H   UNK d   0     -15.391  -4.156  -3.706  0.00  0.00     0.167 HD
ENDBRANCH  34  36
ENDBRANCH  33  34
ENDBRANCH   8  33
BRANCH  31  38
ATOM     38  C   UNK d   0     -18.733  -0.434   3.525  0.00  0.00     0.151 C 
BRANCH  38  39
ATOM     39  C   UNK d   0     -18.039   0.835   3.589  0.00  0.00     0.143 C 
ATOM     40  O   UNK d   0     -18.642   1.920   3.666  0.00  0.00    -0.650 OA
BRANCH  39  41
ATOM     41  O   UNK d   0     -16.645   0.856   3.566  0.00  0.00    -0.776 OA
ATOM     42  H   UNK d   0     -16.165   0.575   4.427  0.00  0.00     0.167 HD
ENDBRANCH  39  41
ENDBRANCH  38  39
ENDBRANCH  31  38
BRANCH  27  43
ATOM     43  C   UNK d   0     -17.784  -1.851   6.094  0.00  0.00     0.052 C 
BRANCH  43  44
ATOM     44  C   UNK d   0     -16.762  -1.010   6.789  0.00  0.00     0.115 C 
BRANCH  44  45
ATOM     45  C   UNK d   0     -17.354   0.346   6.931  0.00  0.00     0.139 C 
ATOM     46  O   UNK d   0     -16.602   1.339   6.772  0.00  0.00    -0.650 OA
BRANCH  45  47
ATOM     47  O   UNK d   0     -18.684   0.553   7.223  0.00  0.00    -0.776 OA
ATOM     48  H   UNK d   0     -19.364   0.898   6.526  0.00  0.00     0.167 HD
ENDBRANCH  45  47
ENDBRANCH  44  45
ENDBRANCH  43  44
ENDBRANCH  27  43
BRANCH  24  49
ATOM     49  C   UNK d   0     -14.966  -6.403   7.504  0.00  0.00     0.052 C 
BRANCH  49  50
ATOM     50  C   UNK d   0     -16.151  -6.482   8.432  0.00  0.00     0.115 C 
BRANCH  50  51
ATOM     51  C   UNK d   0     -16.526  -5.262   9.136  0.00  0.00     0.139 C 
ATOM     52  O   UNK d   0     -17.247  -4.377   8.618  0.00  0.00    -0.650 OA
BRANCH  51  53
ATOM     53  O   UNK d   0     -16.077  -5.051  10.430  0.00  0.00    -0.776 OA
ATOM     54  H   UNK d   0     -15.090  -5.118  10.608  0.00  0.00     0.167 HD
ENDBRANCH  51  53
ENDBRANCH  50  51
ENDBRANCH  49  50
ENDBRANCH  24  49
BRANCH  21  55
ATOM     55  C   UNK d   0     -15.208  -9.094   6.006  0.00  0.00     0.151 C 
BRANCH  55  56
ATOM     56  C   UNK d   0     -13.975  -9.647   5.423  0.00  0.00     0.143 C 
ATOM     57  O   UNK d   0     -13.759 -10.871   5.338  0.00  0.00    -0.650 OA
BRANCH  56  58
ATOM     58  O   UNK d   0     -13.020  -8.747   4.953  0.00  0.00    -0.776 OA
ATOM     59  H   UNK d   0     -13.386  -7.809   4.710  0.00  0.00     0.167 HD
ENDBRANCH  56  58
ENDBRANCH  55  56
ENDBRANCH  21  55
BRANCH  18  60
ATOM     60  C   UNK d   0     -15.031  -9.652   0.670  0.00  0.00     0.151 C 
BRANCH  60  61
ATOM     61  C   UNK d   0     -13.671  -9.092   0.691  0.00  0.00     0.143 C 
ATOM     62  O   UNK d   0     -12.867  -9.062  -0.241  0.00  0.00    -0.650 OA
BRANCH  61  63
ATOM     63  O   UNK d   0     -13.268  -8.535   1.928  0.00  0.00    -0.776 OA
ATOM     64  H   UNK d   0     -13.821  -8.658   2.757  0.00  0.00     0.167 HD
ENDBRANCH  61  63
ENDBRANCH  60  61
ENDBRANCH  18  60
BRANCH  14  65
ATOM     65  C   UNK d   0     -16.068  -8.339  -1.861  0.00  0.00     0.052 C 
BRANCH  65  66
ATOM     66  C   UNK d   0     -15.404  -7.314  -2.711  0.00  0.00     0.115 C 
BRANCH  66  67
ATOM     67  C   UNK d   0     -14.340  -6.519  -2.166  0.00  0.00     0.139 C 
ATOM     68  O   UNK d   0     -14.601  -5.317  -1.793  0.00  0.00    -0.650 OA
BRANCH  67  69
ATOM     69  O   UNK d   0     -13.008  -6.889  -1.979  0.00  0.00    -0.776 OA
ATOM     70  H   UNK d   0     -12.795  -7.886  -2.128  0.00  0.00     0.167 HD
ENDBRANCH  67  69
ENDBRANCH  66  67
ENDBRANCH  65  66
ENDBRANCH  14  65
ENDBRANCH   6   7
ENDBRANCH   5   6
ENDBRANCH   2   5
TORSDOF 28
ENDMDL
MODEL 9
REMARK VINA RESULT:      -6.1      4.718     10.978
REMARK  28 active torsions:
REMARK  status: ('A' for Active; 'I' for Inactive)
REMARK    1  A    between atoms: C_2  and  O_3 
REMARK    2  A    between atoms: C_2  and  C_4 
REMARK    3  A    between atoms: C_4  and  C_5 
REMARK    4  A    between atoms: C_5  and  C_6 
REMARK    5  A    between atoms: C_7  and  C_8 
REMARK    6  A    between atoms: C_8  and  C_9 
REMARK    7  A    between atoms: C_9  and  O_11 
REMARK    8  A    between atoms: C_28  and  C_29 
REMARK    9  A    between atoms: C_29  and  C_30 
REMARK   10  A    between atoms: C_30  and  O_32 
REMARK   11  A    between atoms: C_33  and  C_34 
REMARK   12  A    between atoms: C_34  and  C_35 
REMARK   13  A    between atoms: C_35  and  C_36 
REMARK   14  A    between atoms: C_36  and  O_38 
REMARK   15  A    between atoms: C_39  and  C_40 
REMARK   16  A    between atoms: C_40  and  C_41 
REMARK   17  A    between atoms: C_41  and  C_42 
REMARK   18  A    between atoms: C_42  and  O_44 
REMARK   19  A    between atoms: C_45  and  C_46 
REMARK   20  A    between atoms: C_46  and  C_47 
REMARK   21  A    between atoms: C_47  and  O_49 
REMARK   22  A    between atoms: C_50  and  C_51 
REMARK   23  A    between atoms: C_51  and  C_52 
REMARK   24  A    between atoms: C_52  and  O_54 
REMARK   25  A    between atoms: C_55  and  C_56 
REMARK   26  A    between atoms: C_56  and  C_57 
REMARK   27  A    between atoms: C_57  and  C_58 
REMARK   28  A    between atoms: C_58  and  O_60 
ROOT
ATOM      1  O   UNK d   0      14.873 -11.709  10.885  0.00  0.00    -0.650 OA
ATOM      2  C   UNK d   0      14.483 -11.720   9.696  0.00  0.00     0.139 C 
ENDROOT
BRANCH   2   3
ATOM      3  O   UNK d   0      15.229 -11.081   8.736  0.00  0.00    -0.776 OA
ATOM      4  H   UNK d   0      15.397 -11.512   7.824  0.00  0.00     0.167 HD
ENDBRANCH   2   3
BRANCH   2   5
ATOM      5  C   UNK d   0      13.219 -12.420   9.330  0.00  0.00     0.115 C 
BRANCH   5   6
ATOM      6  C   UNK d   0      12.231 -11.440   8.757  0.00  0.00     0.052 C 
BRANCH   6   7
ATOM      7  C   UNK d   0      12.496 -11.131   7.303  0.00  0.00    -0.020 A 
ATOM      8  C   UNK d   0      12.533  -9.955   6.731  0.00  0.00    -0.011 A 
ATOM      9  C   UNK d   0      12.813 -10.156   5.319  0.00  0.00     0.067 A 
ATOM     10  C   UNK d   0      12.997  -9.334   4.196  0.00  0.00     0.062 C 
ATOM     11  N   UNK d   0      12.926 -11.486   5.118  0.00  0.00    -0.248 NA
ATOM     12  C   UNK d   0      13.538  -9.698   2.959  0.00  0.00     0.041 A 
ATOM     13  N   UNK d   0      13.349 -10.792   2.196  0.00  0.00    -0.355 N 
ATOM     14  C   UNK d   0      14.496  -8.859   2.361  0.00  0.00    -0.022 A 
ATOM     15  C   UNK d   0      14.167 -10.672   1.134  0.00  0.00     0.042 A 
ATOM     16  H   UNK d   0      12.636 -11.623   2.394  0.00  0.00     0.166 HD
ATOM     17  C   UNK d   0      14.367 -11.529   0.033  0.00  0.00     0.062 C 
ATOM     18  C   UNK d   0      14.903  -9.473   1.202  0.00  0.00    -0.013 A 
ATOM     19  C   UNK d   0      14.517 -12.892   0.017  0.00  0.00     0.067 A 
ATOM     20  N   UNK d   0      14.249 -13.543   1.152  0.00  0.00    -0.248 NA
ATOM     21  C   UNK d   0      14.929 -13.886  -0.959  0.00  0.00    -0.011 A 
ATOM     22  C   UNK d   0      14.458 -14.890   0.989  0.00  0.00     0.066 A 
ATOM     23  C   UNK d   0      14.179 -15.694   2.085  0.00  0.00     0.062 C 
ATOM     24  C   UNK d   0      14.896 -15.053  -0.383  0.00  0.00    -0.020 A 
ATOM     25  C   UNK d   0      13.624 -15.310   3.315  0.00  0.00     0.041 A 
ATOM     26  N   UNK d   0      13.823 -14.230   4.080  0.00  0.00    -0.355 N 
ATOM     27  C   UNK d   0      12.659 -16.151   3.912  0.00  0.00    -0.022 A 
ATOM     28  C   UNK d   0      13.014 -14.352   5.145  0.00  0.00     0.042 A 
ATOM     29  H   UNK d   0      14.547 -13.401   3.884  0.00  0.00     0.166 HD
ATOM     30  C   UNK d   0      12.812 -13.512   6.251  0.00  0.00     0.062 C 
ATOM     31  C   UNK d   0      12.268 -15.552   5.070  0.00  0.00    -0.013 A 
ATOM     32  C   UNK d   0      12.746 -12.128   6.273  0.00  0.00     0.066 A 
BRANCH   8  33
ATOM     33  C   UNK d   0      12.325  -8.648   7.381  0.00  0.00     0.151 C 
BRANCH  33  34
ATOM     34  C   UNK d   0      13.554  -7.836   7.436  0.00  0.00     0.143 C 
ATOM     35  O   UNK d   0      13.565  -6.668   7.022  0.00  0.00    -0.650 OA
BRANCH  34  36
ATOM     36  O   UNK d   0      14.704  -8.386   7.952  0.00  0.00    -0.776 OA
ATOM     37  H   UNK d   0      15.586  -8.379   7.421  0.00  0.00     0.167 HD
ENDBRANCH  34  36
ENDBRANCH  33  34
ENDBRANCH   8  33
BRANCH  31  38
ATOM     38  C   UNK d   0      11.238 -16.078   6.041  0.00  0.00     0.151 C 
BRANCH  38  39
ATOM     39  C   UNK d   0       9.914 -15.546   5.800  0.00  0.00     0.143 C 
ATOM     40  O   UNK d   0       9.451 -14.592   6.450  0.00  0.00    -0.650 OA
BRANCH  39  41
ATOM     41  O   UNK d   0       9.118 -16.112   4.805  0.00  0.00    -0.776 OA
ATOM     42  H   UNK d   0       8.903 -17.110   4.897  0.00  0.00     0.167 HD
ENDBRANCH  39  41
ENDBRANCH  38  39
ENDBRANCH  31  38
BRANCH  27  43
ATOM     43  C   UNK d   0      12.112 -17.472   3.433  0.00  0.00     0.052 C 
BRANCH  43  44
ATOM     44  C   UNK d   0      12.725 -18.649   4.120  0.00  0.00     0.115 C 
BRANCH  44  45
ATOM     45  C   UNK d   0      13.767 -19.180   3.204  0.00  0.00     0.139 C 
ATOM     46  O   UNK d   0      14.811 -19.662   3.711  0.00  0.00    -0.650 OA
BRANCH  45  47
ATOM     47  O   UNK d   0      13.633 -19.170   1.833  0.00  0.00    -0.776 OA
ATOM     48  H   UNK d   0      13.858 -18.344   1.254  0.00  0.00     0.167 HD
ENDBRANCH  45  47
ENDBRANCH  44  45
ENDBRANCH  43  44
ENDBRANCH  27  43
BRANCH  24  49
ATOM     49  C   UNK d   0      15.202 -16.345  -1.021  0.00  0.00     0.052 C 
BRANCH  49  50
ATOM     50  C   UNK d   0      16.619 -16.758  -0.716  0.00  0.00     0.115 C 
BRANCH  50  51
ATOM     51  C   UNK d   0      16.815 -18.071  -0.116  0.00  0.00     0.139 C 
ATOM     52  O   UNK d   0      16.362 -18.372   1.014  0.00  0.00    -0.650 OA
BRANCH  51  53
ATOM     53  O   UNK d   0      17.528 -19.041  -0.803  0.00  0.00    -0.776 OA
ATOM     54  H   UNK d   0      17.285 -20.004  -0.655  0.00  0.00     0.167 HD
ENDBRANCH  51  53
ENDBRANCH  50  51
ENDBRANCH  49  50
ENDBRANCH  24  49
BRANCH  21  55
ATOM     55  C   UNK d   0      15.309 -13.567  -2.367  0.00  0.00     0.151 C 
BRANCH  55  56
ATOM     56  C   UNK d   0      16.650 -12.969  -2.455  0.00  0.00     0.143 C 
ATOM     57  O   UNK d   0      16.888 -11.941  -3.118  0.00  0.00    -0.650 OA
BRANCH  56  58
ATOM     58  O   UNK d   0      17.685 -13.594  -1.762  0.00  0.00    -0.776 OA
ATOM     59  H   UNK d   0      18.596 -13.605  -2.255  0.00  0.00     0.167 HD
ENDBRANCH  56  58
ENDBRANCH  55  56
ENDBRANCH  21  55
BRANCH  18  60
ATOM     60  C   UNK d   0      15.933  -8.921   0.248  0.00  0.00     0.151 C 
BRANCH  60  61
ATOM     61  C   UNK d   0      15.199  -8.040  -0.673  0.00  0.00     0.143 C 
ATOM     62  O   UNK d   0      14.341  -8.372  -1.492  0.00  0.00    -0.650 OA
BRANCH  61  63
ATOM     63  O   UNK d   0      15.533  -6.667  -0.589  0.00  0.00    -0.776 OA
ATOM     64  H   UNK d   0      16.225  -6.342   0.063  0.00  0.00     0.167 HD
ENDBRANCH  61  63
ENDBRANCH  60  61
ENDBRANCH  18  60
BRANCH  14  65
ATOM     65  C   UNK d   0      14.977  -7.490   2.747  0.00  0.00     0.052 C 
BRANCH  65  66
ATOM     66  C   UNK d   0      16.275  -7.513   3.475  0.00  0.00     0.115 C 
BRANCH  66  67
ATOM     67  C   UNK d   0      16.286  -7.636   4.905  0.00  0.00     0.139 C 
ATOM     68  O   UNK d   0      16.300  -8.814   5.420  0.00  0.00    -0.650 OA
BRANCH  67  69
ATOM     69  O   UNK d   0      16.284  -6.610   5.850  0.00  0.00    -0.776 OA
ATOM     70  H   UNK d   0      16.493  -6.892   6.818  0.00  0.00     0.167 HD
ENDBRANCH  67  69
ENDBRANCH  66  67
ENDBRANCH  65  66
ENDBRANCH  14  65
ENDBRANCH   6   7
ENDBRANCH   5   6
ENDBRANCH   2   5
TORSDOF 28
ENDMDL
MODEL 10
REMARK VINA RESULT:      -6.1     13.510     18.614
REMARK  28 active torsions:
REMARK  status: ('A' for Active; 'I' for Inactive)
REMARK    1  A    between atoms: C_2  and  O_3 
REMARK    2  A    between atoms: C_2  and  C_4 
REMARK    3  A    between atoms: C_4  and  C_5 
REMARK    4  A    between atoms: C_5  and  C_6 
REMARK    5  A    between atoms: C_7  and  C_8 
REMARK    6  A    between atoms: C_8  and  C_9 
REMARK    7  A    between atoms: C_9  and  O_11 
REMARK    8  A    between atoms: C_28  and  C_29 
REMARK    9  A    between atoms: C_29  and  C_30 
REMARK   10  A    between atoms: C_30  and  O_32 
REMARK   11  A    between atoms: C_33  and  C_34 
REMARK   12  A    between atoms: C_34  and  C_35 
REMARK   13  A    between atoms: C_35  and  C_36 
REMARK   14  A    between atoms: C_36  and  O_38 
REMARK   15  A    between atoms: C_39  and  C_40 
REMARK   16  A    between atoms: C_40  and  C_41 
REMARK   17  A    between atoms: C_41  and  C_42 
REMARK   18  A    between atoms: C_42  and  O_44 
REMARK   19  A    between atoms: C_45  and  C_46 
REMARK   20  A    between atoms: C_46  and  C_47 
REMARK   21  A    between atoms: C_47  and  O_49 
REMARK   22  A    between atoms: C_50  and  C_51 
REMARK   23  A    between atoms: C_51  and  C_52 
REMARK   24  A    between atoms: C_52  and  O_54 
REMARK   25  A    between atoms: C_55  and  C_56 
REMARK   26  A    between atoms: C_56  and  C_57 
REMARK   27  A    between atoms: C_57  and  C_58 
REMARK   28  A    between atoms: C_58  and  O_60 
ROOT
ATOM      1  O   UNK d   0      15.235  -0.726   3.628  0.00  0.00    -0.650 OA
ATOM      2  C   UNK d   0      15.499  -1.840   4.132  0.00  0.00     0.139 C 
ENDROOT
BRANCH   2   3
ATOM      3  O   UNK d   0      15.633  -1.947   5.496  0.00  0.00    -0.776 OA
ATOM      4  H   UNK d   0      14.828  -2.155   6.090  0.00  0.00     0.167 HD
ENDBRANCH   2   3
BRANCH   2   5
ATOM      5  C   UNK d   0      15.666  -3.036   3.259  0.00  0.00     0.115 C 
BRANCH   5   6
ATOM      6  C   UNK d   0      14.355  -3.762   3.119  0.00  0.00     0.052 C 
BRANCH   6   7
ATOM      7  C   UNK d   0      13.987  -4.023   1.678  0.00  0.00    -0.020 A 
ATOM      8  C   UNK d   0      14.097  -5.146   1.017  0.00  0.00    -0.011 A 
ATOM      9  C   UNK d   0      13.627  -4.913  -0.339  0.00  0.00     0.067 A 
ATOM     10  C   UNK d   0      13.467  -5.683  -1.502  0.00  0.00     0.062 C 
ATOM     11  N   UNK d   0      13.256  -3.618  -0.417  0.00  0.00    -0.248 NA
ATOM     12  C   UNK d   0      12.732  -5.349  -2.645  0.00  0.00     0.041 A 
ATOM     13  N   UNK d   0      12.635  -4.193  -3.329  0.00  0.00    -0.355 N 
ATOM     14  C   UNK d   0      11.879  -6.313  -3.211  0.00  0.00    -0.022 A 
ATOM     15  C   UNK d   0      11.736  -4.397  -4.311  0.00  0.00     0.042 A 
ATOM     16  H   UNK d   0      13.205  -3.258  -3.135  0.00  0.00     0.166 HD
ATOM     17  C   UNK d   0      11.263  -3.525  -5.312  0.00  0.00     0.062 C 
ATOM     18  C   UNK d   0      11.240  -5.714  -4.268  0.00  0.00    -0.013 A 
ATOM     19  C   UNK d   0      10.871  -2.216  -5.200  0.00  0.00     0.067 A 
ATOM     20  N   UNK d   0      11.145  -1.599  -4.047  0.00  0.00    -0.248 NA
ATOM     21  C   UNK d   0      10.179  -1.257  -6.045  0.00  0.00    -0.011 A 
ATOM     22  C   UNK d   0      10.681  -0.306  -4.077  0.00  0.00     0.066 A 
ATOM     23  C   UNK d   0      10.934   0.465  -2.952  0.00  0.00     0.062 C 
ATOM     24  C   UNK d   0      10.068  -0.143  -5.380  0.00  0.00    -0.020 A 
ATOM     25  C   UNK d   0      11.685   0.114  -1.819  0.00  0.00     0.041 A 
ATOM     26  N   UNK d   0      11.770  -1.029  -1.130  0.00  0.00    -0.355 N 
ATOM     27  C   UNK d   0      12.545   1.081  -1.254  0.00  0.00    -0.022 A 
ATOM     28  C   UNK d   0      12.659  -0.826  -0.145  0.00  0.00     0.042 A 
ATOM     29  H   UNK d   0      11.189  -1.965  -1.320  0.00  0.00     0.166 HD
ATOM     30  C   UNK d   0      13.133  -1.681   0.863  0.00  0.00     0.062 C 
ATOM     31  C   UNK d   0      13.166   0.495  -0.195  0.00  0.00    -0.013 A 
ATOM     32  C   UNK d   0      13.447  -3.027   0.764  0.00  0.00     0.066 A 
BRANCH   8  33
ATOM     33  C   UNK d   0      14.607  -6.430   1.532  0.00  0.00     0.151 C 
BRANCH  33  34
ATOM     34  C   UNK d   0      13.547  -7.440   1.701  0.00  0.00     0.143 C 
ATOM     35  O   UNK d   0      12.574  -7.224   2.438  0.00  0.00    -0.650 OA
BRANCH  34  36
ATOM     36  O   UNK d   0      13.642  -8.638   1.032  0.00  0.00    -0.776 OA
ATOM     37  H   UNK d   0      13.047  -8.844   0.218  0.00  0.00     0.167 HD
ENDBRANCH  34  36
ENDBRANCH  33  34
ENDBRANCH   8  33
BRANCH  31  38
ATOM     38  C   UNK d   0      14.188   1.142   0.709  0.00  0.00     0.151 C 
BRANCH  38  39
ATOM     39  C   UNK d   0      13.588   1.851   1.819  0.00  0.00     0.143 C 
ATOM     40  O   UNK d   0      12.488   1.526   2.300  0.00  0.00    -0.650 OA
BRANCH  39  41
ATOM     41  O   UNK d   0      14.255   2.940   2.380  0.00  0.00    -0.776 OA
ATOM     42  H   UNK d   0      14.046   3.863   1.985  0.00  0.00     0.167 HD
ENDBRANCH  39  41
ENDBRANCH  38  39
ENDBRANCH  31  38
BRANCH  27  43
ATOM     43  C   UNK d   0      12.789   2.509  -1.674  0.00  0.00     0.052 C 
BRANCH  43  44
ATOM     44  C   UNK d   0      14.082   2.699  -2.398  0.00  0.00     0.115 C 
BRANCH  44  45
ATOM     45  C   UNK d   0      13.767   2.659  -3.849  0.00  0.00     0.139 C 
ATOM     46  O   UNK d   0      13.465   3.736  -4.419  0.00  0.00    -0.650 OA
BRANCH  45  47
ATOM     47  O   UNK d   0      13.798   1.496  -4.589  0.00  0.00    -0.776 OA
ATOM     48  H   UNK d   0      14.675   1.000  -4.816  0.00  0.00     0.167 HD
ENDBRANCH  45  47
ENDBRANCH  44  45
ENDBRANCH  43  44
ENDBRANCH  27  43
BRANCH  24  49
ATOM     49  C   UNK d   0       9.466   1.107  -5.875  0.00  0.00     0.052 C 
BRANCH  49  50
ATOM     50  C   UNK d   0      10.539   2.116  -6.195  0.00  0.00     0.115 C 
BRANCH  50  51
ATOM     51  C   UNK d   0      11.404   1.829  -7.331  0.00  0.00     0.139 C 
ATOM     52  O   UNK d   0      12.639   1.646  -7.212  0.00  0.00    -0.650 OA
BRANCH  51  53
ATOM     53  O   UNK d   0      10.862   1.752  -8.604  0.00  0.00    -0.776 OA
ATOM     54  H   UNK d   0      11.268   2.317  -9.329  0.00  0.00     0.167 HD
ENDBRANCH  51  53
ENDBRANCH  50  51
ENDBRANCH  49  50
ENDBRANCH  24  49
BRANCH  21  55
ATOM     55  C   UNK d   0       9.706  -1.552  -7.429  0.00  0.00     0.151 C 
BRANCH  55  56
ATOM     56  C   UNK d   0      10.809  -1.958  -8.314  0.00  0.00     0.143 C 
ATOM     57  O   UNK d   0      10.833  -3.057  -8.902  0.00  0.00    -0.650 OA
BRANCH  56  58
ATOM     58  O   UNK d   0      11.862  -1.062  -8.491  0.00  0.00    -0.776 OA
ATOM     59  H   UNK d   0      12.418  -0.869  -7.638  0.00  0.00     0.167 HD
ENDBRANCH  56  58
ENDBRANCH  55  56
ENDBRANCH  21  55
BRANCH  18  60
ATOM     60  C   UNK d   0      10.224  -6.388  -5.157  0.00  0.00     0.151 C 
BRANCH  60  61
ATOM     61  C   UNK d   0       8.907  -5.948  -4.671  0.00  0.00     0.143 C 
ATOM     62  O   UNK d   0       8.640  -5.498  -3.556  0.00  0.00    -0.650 OA
BRANCH  61  63
ATOM     63  O   UNK d   0       7.850  -6.064  -5.605  0.00  0.00    -0.776 OA
ATOM     64  H   UNK d   0       6.930  -5.723  -5.392  0.00  0.00     0.167 HD
ENDBRANCH  61  63
ENDBRANCH  60  61
ENDBRANCH  18  60
BRANCH  14  65
ATOM     65  C   UNK d   0      11.697  -7.770  -2.893  0.00  0.00     0.052 C 
BRANCH  65  66
ATOM     66  C   UNK d   0      10.493  -8.038  -2.061  0.00  0.00     0.115 C 
BRANCH  66  67
ATOM     67  C   UNK d   0      10.609  -8.067  -0.630  0.00  0.00     0.139 C 
ATOM     68  O   UNK d   0      11.008  -9.153  -0.069  0.00  0.00    -0.650 OA
BRANCH  67  69
ATOM     69  O   UNK d   0      10.335  -7.037   0.269  0.00  0.00    -0.776 OA
ATOM     70  H   UNK d   0      11.153  -6.518   0.618  0.00  0.00     0.167 HD
ENDBRANCH  67  69
ENDBRANCH  66  67
ENDBRANCH  65  66
ENDBRANCH  14  65
ENDBRANCH   6   7
ENDBRANCH   5   6
ENDBRANCH   2   5
TORSDOF 28
ENDMDL
MODEL 11
REMARK VINA RESULT:      -6.1     20.344     24.530
REMARK  28 active torsions:
REMARK  status: ('A' for Active; 'I' for Inactive)
REMARK    1  A    between atoms: C_2  and  O_3 
REMARK    2  A    between atoms: C_2  and  C_4 
REMARK    3  A    between atoms: C_4  and  C_5 
REMARK    4  A    between atoms: C_5  and  C_6 
REMARK    5  A    between atoms: C_7  and  C_8 
REMARK    6  A    between atoms: C_8  and  C_9 
REMARK    7  A    between atoms: C_9  and  O_11 
REMARK    8  A    between atoms: C_28  and  C_29 
REMARK    9  A    between atoms: C_29  and  C_30 
REMARK   10  A    between atoms: C_30  and  O_32 
REMARK   11  A    between atoms: C_33  and  C_34 
REMARK   12  A    between atoms: C_34  and  C_35 
REMARK   13  A    between atoms: C_35  and  C_36 
REMARK   14  A    between atoms: C_36  and  O_38 
REMARK   15  A    between atoms: C_39  and  C_40 
REMARK   16  A    between atoms: C_40  and  C_41 
REMARK   17  A    between atoms: C_41  and  C_42 
REMARK   18  A    between atoms: C_42  and  O_44 
REMARK   19  A    between atoms: C_45  and  C_46 
REMARK   20  A    between atoms: C_46  and  C_47 
REMARK   21  A    between atoms: C_47  and  O_49 
REMARK   22  A    between atoms: C_50  and  C_51 
REMARK   23  A    between atoms: C_51  and  C_52 
REMARK   24  A    between atoms: C_52  and  O_54 
REMARK   25  A    between atoms: C_55  and  C_56 
REMARK   26  A    between atoms: C_56  and  C_57 
REMARK   27  A    between atoms: C_57  and  C_58 
REMARK   28  A    between atoms: C_58  and  O_60 
ROOT
ATOM      1  O   UNK d   0      15.577  -0.369 -11.409  0.00  0.00    -0.650 OA
ATOM      2  C   UNK d   0      15.620   0.436 -12.365  0.00  0.00     0.139 C 
ENDROOT
BRANCH   2   3
ATOM      3  O   UNK d   0      14.478   0.685 -13.087  0.00  0.00    -0.776 OA
ATOM      4  H   UNK d   0      14.355   0.305 -14.028  0.00  0.00     0.167 HD
ENDBRANCH   2   3
BRANCH   2   5
ATOM      5  C   UNK d   0      16.900   1.115 -12.716  0.00  0.00     0.115 C 
BRANCH   5   6
ATOM      6  C   UNK d   0      16.871   2.545 -12.250  0.00  0.00     0.052 C 
BRANCH   6   7
ATOM      7  C   UNK d   0      17.355   2.704 -10.829  0.00  0.00    -0.020 A 
ATOM      8  C   UNK d   0      18.587   2.862 -10.418  0.00  0.00    -0.011 A 
ATOM      9  C   UNK d   0      18.563   2.962  -8.968  0.00  0.00     0.067 A 
ATOM     10  C   UNK d   0      19.510   3.154  -7.950  0.00  0.00     0.062 C 
ATOM     11  N   UNK d   0      17.275   2.848  -8.580  0.00  0.00    -0.248 NA
ATOM     12  C   UNK d   0      19.264   3.503  -6.618  0.00  0.00     0.041 A 
ATOM     13  N   UNK d   0      18.333   3.071  -5.746  0.00  0.00    -0.355 N 
ATOM     14  C   UNK d   0      20.044   4.512  -6.024  0.00  0.00    -0.022 A 
ATOM     15  C   UNK d   0      18.497   3.785  -4.616  0.00  0.00     0.042 A 
ATOM     16  H   UNK d   0      17.588   2.263  -5.919  0.00  0.00     0.166 HD
ATOM     17  C   UNK d   0      17.795   3.737  -3.395  0.00  0.00     0.062 C 
ATOM     18  C   UNK d   0      19.560   4.699  -4.753  0.00  0.00    -0.013 A 
ATOM     19  C   UNK d   0      16.442   3.673  -3.180  0.00  0.00     0.067 A 
ATOM     20  N   UNK d   0      15.672   3.426  -4.243  0.00  0.00    -0.248 NA
ATOM     21  C   UNK d   0      15.558   3.826  -2.037  0.00  0.00    -0.011 A 
ATOM     22  C   UNK d   0      14.348   3.408  -3.878  0.00  0.00     0.066 A 
ATOM     23  C   UNK d   0      13.436   3.123  -4.883  0.00  0.00     0.062 C 
ATOM     24  C   UNK d   0      14.334   3.673  -2.452  0.00  0.00    -0.020 A 
ATOM     25  C   UNK d   0      13.704   2.762  -6.212  0.00  0.00     0.041 A 
ATOM     26  N   UNK d   0      14.620   3.202  -7.084  0.00  0.00    -0.355 N 
ATOM     27  C   UNK d   0      12.924   1.746  -6.806  0.00  0.00    -0.022 A 
ATOM     28  C   UNK d   0      14.452   2.498  -8.214  0.00  0.00     0.042 A 
ATOM     29  H   UNK d   0      15.361   4.021  -6.912  0.00  0.00     0.166 HD
ATOM     30  C   UNK d   0      15.137   2.541  -9.439  0.00  0.00     0.062 C 
ATOM     31  C   UNK d   0      13.391   1.572  -8.073  0.00  0.00    -0.013 A 
ATOM     32  C   UNK d   0      16.498   2.691  -9.652  0.00  0.00     0.066 A 
BRANCH   8  33
ATOM     33  C   UNK d   0      19.798   2.925 -11.256  0.00  0.00     0.151 C 
BRANCH  33  34
ATOM     34  C   UNK d   0      19.810   4.094 -12.155  0.00  0.00     0.143 C 
ATOM     35  O   UNK d   0      19.696   5.243 -11.706  0.00  0.00    -0.650 OA
BRANCH  34  36
ATOM     36  O   UNK d   0      19.947   3.902 -13.510  0.00  0.00    -0.776 OA
ATOM     37  H   UNK d   0      20.319   4.643 -14.120  0.00  0.00     0.167 HD
ENDBRANCH  34  36
ENDBRANCH  33  34
ENDBRANCH   8  33
BRANCH  31  38
ATOM     38  C   UNK d   0      12.872   0.578  -9.086  0.00  0.00     0.151 C 
BRANCH  38  39
ATOM     39  C   UNK d   0      11.927   1.164 -10.013  0.00  0.00     0.143 C 
ATOM     40  O   UNK d   0      12.232   1.439 -11.187  0.00  0.00    -0.650 OA
BRANCH  39  41
ATOM     41  O   UNK d   0      10.626   1.433  -9.590  0.00  0.00    -0.776 OA
ATOM     42  H   UNK d   0       9.900   0.772  -9.881  0.00  0.00     0.167 HD
ENDBRANCH  39  41
ENDBRANCH  38  39
ENDBRANCH  31  38
BRANCH  27  43
ATOM     43  C   UNK d   0      11.777   0.956  -6.227  0.00  0.00     0.052 C 
BRANCH  43  44
ATOM     44  C   UNK d   0      10.493   1.720  -6.191  0.00  0.00     0.115 C 
BRANCH  44  45
ATOM     45  C   UNK d   0       9.406   0.734  -6.427  0.00  0.00     0.139 C 
ATOM     46  O   UNK d   0       9.139  -0.083  -5.511  0.00  0.00    -0.650 OA
BRANCH  45  47
ATOM     47  O   UNK d   0       8.683   0.684  -7.599  0.00  0.00    -0.776 OA
ATOM     48  H   UNK d   0       9.117   0.790  -8.530  0.00  0.00     0.167 HD
ENDBRANCH  45  47
ENDBRANCH  44  45
ENDBRANCH  43  44
ENDBRANCH  27  43
BRANCH  24  49
ATOM     49  C   UNK d   0      13.122   3.710  -1.616  0.00  0.00     0.052 C 
BRANCH  49  50
ATOM     50  C   UNK d   0      12.682   2.311  -1.269  0.00  0.00     0.115 C 
BRANCH  50  51
ATOM     51  C   UNK d   0      12.905   1.864   0.100  0.00  0.00     0.139 C 
ATOM     52  O   UNK d   0      13.907   1.190   0.436  0.00  0.00    -0.650 OA
BRANCH  51  53
ATOM     53  O   UNK d   0      11.983   2.184   1.085  0.00  0.00    -0.776 OA
ATOM     54  H   UNK d   0      11.264   2.851   0.865  0.00  0.00     0.167 HD
ENDBRANCH  51  53
ENDBRANCH  50  51
ENDBRANCH  49  50
ENDBRANCH  24  49
BRANCH  21  55
ATOM     55  C   UNK d   0      16.029   4.103  -0.648  0.00  0.00     0.151 C 
BRANCH  55  56
ATOM     56  C   UNK d   0      15.893   5.524  -0.293  0.00  0.00     0.143 C 
ATOM     57  O   UNK d   0      14.864   5.993   0.233  0.00  0.00    -0.650 OA
BRANCH  56  58
ATOM     58  O   UNK d   0      16.969   6.367  -0.564  0.00  0.00    -0.776 OA
ATOM     59  H   UNK d   0      17.657   6.458   0.206  0.00  0.00     0.167 HD
ENDBRANCH  56  58
ENDBRANCH  55  56
ENDBRANCH  21  55
BRANCH  18  60
ATOM     60  C   UNK d   0      20.101   5.698  -3.760  0.00  0.00     0.151 C 
BRANCH  60  61
ATOM     61  C   UNK d   0      19.236   6.882  -3.867  0.00  0.00     0.143 C 
ATOM     62  O   UNK d   0      19.277   7.757  -4.733  0.00  0.00    -0.650 OA
BRANCH  61  63
ATOM     63  O   UNK d   0      18.257   7.006  -2.851  0.00  0.00    -0.776 OA
ATOM     64  H   UNK d   0      18.034   6.234  -2.249  0.00  0.00     0.167 HD
ENDBRANCH  61  63
ENDBRANCH  60  61
ENDBRANCH  18  60
BRANCH  14  65
ATOM     65  C   UNK d   0      21.261   5.235  -6.526  0.00  0.00     0.052 C 
BRANCH  65  66
ATOM     66  C   UNK d   0      20.960   6.606  -7.020  0.00  0.00     0.115 C 
BRANCH  66  67
ATOM     67  C   UNK d   0      20.766   6.830  -8.424  0.00  0.00     0.139 C 
ATOM     68  O   UNK d   0      21.614   7.564  -9.052  0.00  0.00    -0.650 OA
BRANCH  67  69
ATOM     69  O   UNK d   0      19.740   6.341  -9.233  0.00  0.00    -0.776 OA
ATOM     70  H   UNK d   0      20.034   5.737 -10.014  0.00  0.00     0.167 HD
ENDBRANCH  67  69
ENDBRANCH  66  67
ENDBRANCH  65  66
ENDBRANCH  14  65
ENDBRANCH   6   7
ENDBRANCH   5   6
ENDBRANCH   2   5
TORSDOF 28
ENDMDL
MODEL 12
REMARK VINA RESULT:      -6.1     34.633     39.688
REMARK  28 active torsions:
REMARK  status: ('A' for Active; 'I' for Inactive)
REMARK    1  A    between atoms: C_2  and  O_3 
REMARK    2  A    between atoms: C_2  and  C_4 
REMARK    3  A    between atoms: C_4  and  C_5 
REMARK    4  A    between atoms: C_5  and  C_6 
REMARK    5  A    between atoms: C_7  and  C_8 
REMARK    6  A    between atoms: C_8  and  C_9 
REMARK    7  A    between atoms: C_9  and  O_11 
REMARK    8  A    between atoms: C_28  and  C_29 
REMARK    9  A    between atoms: C_29  and  C_30 
REMARK   10  A    between atoms: C_30  and  O_32 
REMARK   11  A    between atoms: C_33  and  C_34 
REMARK   12  A    between atoms: C_34  and  C_35 
REMARK   13  A    between atoms: C_35  and  C_36 
REMARK   14  A    between atoms: C_36  and  O_38 
REMARK   15  A    between atoms: C_39  and  C_40 
REMARK   16  A    between atoms: C_40  and  C_41 
REMARK   17  A    between atoms: C_41  and  C_42 
REMARK   18  A    between atoms: C_42  and  O_44 
REMARK   19  A    between atoms: C_45  and  C_46 
REMARK   20  A    between atoms: C_46  and  C_47 
REMARK   21  A    between atoms: C_47  and  O_49 
REMARK   22  A    between atoms: C_50  and  C_51 
REMARK   23  A    between atoms: C_51  and  C_52 
REMARK   24  A    between atoms: C_52  and  O_54 
REMARK   25  A    between atoms: C_55  and  C_56 
REMARK   26  A    between atoms: C_56  and  C_57 
REMARK   27  A    between atoms: C_57  and  C_58 
REMARK   28  A    between atoms: C_58  and  O_60 
ROOT
ATOM      1  O   UNK d   0      16.161   9.275 -17.321  0.00  0.00    -0.650 OA
ATOM      2  C   UNK d   0      16.427   8.338 -16.537  0.00  0.00     0.139 C 
ENDROOT
BRANCH   2   3
ATOM      3  O   UNK d   0      16.948   8.623 -15.298  0.00  0.00    -0.776 OA
ATOM      4  H   UNK d   0      17.041   7.897 -14.585  0.00  0.00     0.167 HD
ENDBRANCH   2   3
BRANCH   2   5
ATOM      5  C   UNK d   0      16.181   6.926 -16.947  0.00  0.00     0.115 C 
BRANCH   5   6
ATOM      6  C   UNK d   0      15.268   6.887 -18.143  0.00  0.00     0.052 C 
BRANCH   6   7
ATOM      7  C   UNK d   0      15.912   6.235 -19.344  0.00  0.00    -0.020 A 
ATOM      8  C   UNK d   0      15.626   5.071 -19.868  0.00  0.00    -0.011 A 
ATOM      9  C   UNK d   0      16.511   4.864 -21.002  0.00  0.00     0.067 A 
ATOM     10  C   UNK d   0      16.701   3.866 -21.971  0.00  0.00     0.062 C 
ATOM     11  N   UNK d   0      17.307   5.950 -21.092  0.00  0.00    -0.248 NA
ATOM     12  C   UNK d   0      17.424   3.969 -23.164  0.00  0.00     0.041 A 
ATOM     13  N   UNK d   0      18.618   4.533 -23.431  0.00  0.00    -0.355 N 
ATOM     14  C   UNK d   0      16.855   3.472 -24.350  0.00  0.00    -0.022 A 
ATOM     15  C   UNK d   0      18.817   4.412 -24.757  0.00  0.00     0.042 A 
ATOM     16  H   UNK d   0      19.315   4.989 -22.694  0.00  0.00     0.166 HD
ATOM     17  C   UNK d   0      19.898   4.827 -25.560  0.00  0.00     0.062 C 
ATOM     18  C   UNK d   0      17.732   3.752 -25.367  0.00  0.00    -0.013 A 
ATOM     19  C   UNK d   0      20.572   6.021 -25.549  0.00  0.00     0.067 A 
ATOM     20  N   UNK d   0      20.325   6.845 -24.528  0.00  0.00    -0.248 NA
ATOM     21  C   UNK d   0      21.535   6.685 -26.411  0.00  0.00    -0.011 A 
ATOM     22  C   UNK d   0      21.056   8.001 -24.660  0.00  0.00     0.066 A 
ATOM     23  C   UNK d   0      20.924   8.934 -23.643  0.00  0.00     0.062 C 
ATOM     24  C   UNK d   0      21.811   7.845 -25.888  0.00  0.00    -0.020 A 
ATOM     25  C   UNK d   0      20.202   8.805 -22.446  0.00  0.00     0.041 A 
ATOM     26  N   UNK d   0      19.009   8.259 -22.183  0.00  0.00    -0.355 N 
ATOM     27  C   UNK d   0      20.777   9.301 -21.255  0.00  0.00    -0.022 A 
ATOM     28  C   UNK d   0      18.805   8.386 -20.862  0.00  0.00     0.042 A 
ATOM     29  H   UNK d   0      18.305   7.810 -22.926  0.00  0.00     0.166 HD
ATOM     30  C   UNK d   0      17.730   7.986 -20.052  0.00  0.00     0.062 C 
ATOM     31  C   UNK d   0      19.899   9.039 -20.248  0.00  0.00    -0.013 A 
ATOM     32  C   UNK d   0      16.997   6.812 -20.123  0.00  0.00     0.066 A 
BRANCH   8  33
ATOM     33  C   UNK d   0      14.598   4.119 -19.406  0.00  0.00     0.151 C 
BRANCH  33  34
ATOM     34  C   UNK d   0      15.070   3.260 -18.305  0.00  0.00     0.143 C 
ATOM     35  O   UNK d   0      15.807   2.288 -18.527  0.00  0.00    -0.650 OA
BRANCH  34  36
ATOM     36  O   UNK d   0      14.685   3.542 -17.015  0.00  0.00    -0.776 OA
ATOM     37  H   UNK d   0      13.933   3.012 -16.554  0.00  0.00     0.167 HD
ENDBRANCH  34  36
ENDBRANCH  33  34
ENDBRANCH   8  33
BRANCH  31  38
ATOM     38  C   UNK d   0      20.092   9.376 -18.788  0.00  0.00     0.151 C 
BRANCH  38  39
ATOM     39  C   UNK d   0      20.729   8.309 -18.045  0.00  0.00     0.143 C 
ATOM     40  O   UNK d   0      20.269   7.154 -18.012  0.00  0.00    -0.650 OA
BRANCH  39  41
ATOM     41  O   UNK d   0      21.901   8.572 -17.336  0.00  0.00    -0.776 OA
ATOM     42  H   UNK d   0      21.934   8.251 -16.363  0.00  0.00     0.167 HD
ENDBRANCH  39  41
ENDBRANCH  38  39
ENDBRANCH  31  38
BRANCH  27  43
ATOM     43  C   UNK d   0      22.097  10.000 -21.046  0.00  0.00     0.052 C 
BRANCH  43  44
ATOM     44  C   UNK d   0      23.233   9.059 -20.810  0.00  0.00     0.115 C 
BRANCH  44  45
ATOM     45  C   UNK d   0      24.070   9.664 -19.741  0.00  0.00     0.139 C 
ATOM     46  O   UNK d   0      25.315   9.506 -19.804  0.00  0.00    -0.650 OA
BRANCH  45  47
ATOM     47  O   UNK d   0      23.539  10.389 -18.697  0.00  0.00    -0.776 OA
ATOM     48  H   UNK d   0      24.020  11.201 -18.277  0.00  0.00     0.167 HD
ENDBRANCH  45  47
ENDBRANCH  44  45
ENDBRANCH  43  44
ENDBRANCH  27  43
BRANCH  24  49
ATOM     49  C   UNK d   0      22.771   8.829 -26.416  0.00  0.00     0.052 C 
BRANCH  49  50
ATOM     50  C   UNK d   0      22.070  10.123 -26.743  0.00  0.00     0.115 C 
BRANCH  50  51
ATOM     51  C   UNK d   0      21.028  10.075 -27.760  0.00  0.00     0.139 C 
ATOM     52  O   UNK d   0      21.283  10.015 -28.986  0.00  0.00    -0.650 OA
BRANCH  51  53
ATOM     53  O   UNK d   0      19.695  10.098 -27.379  0.00  0.00    -0.776 OA
ATOM     54  H   UNK d   0      19.235  10.989 -27.312  0.00  0.00     0.167 HD
ENDBRANCH  51  53
ENDBRANCH  50  51
ENDBRANCH  49  50
ENDBRANCH  24  49
BRANCH  21  55
ATOM     55  C   UNK d   0      22.082   6.090 -27.666  0.00  0.00     0.151 C 
BRANCH  55  56
ATOM     56  C   UNK d   0      21.358   6.555 -28.859  0.00  0.00     0.143 C 
ATOM     57  O   UNK d   0      20.146   6.329 -29.044  0.00  0.00    -0.650 OA
BRANCH  56  58
ATOM     58  O   UNK d   0      22.074   7.279 -29.811  0.00  0.00    -0.776 OA
ATOM     59  H   UNK d   0      21.591   7.401 -30.720  0.00  0.00     0.167 HD
ENDBRANCH  56  58
ENDBRANCH  55  56
ENDBRANCH  21  55
BRANCH  18  60
ATOM     60  C   UNK d   0      17.515   3.401 -26.818  0.00  0.00     0.151 C 
BRANCH  60  61
ATOM     61  C   UNK d   0      16.819   4.552 -27.413  0.00  0.00     0.143 C 
ATOM     62  O   UNK d   0      15.606   4.763 -27.421  0.00  0.00    -0.650 OA
BRANCH  61  63
ATOM     63  O   UNK d   0      17.659   5.507 -28.036  0.00  0.00    -0.776 OA
ATOM     64  H   UNK d   0      17.604   5.678 -29.024  0.00  0.00     0.167 HD
ENDBRANCH  61  63
ENDBRANCH  60  61
ENDBRANCH  18  60
BRANCH  14  65
ATOM     65  C   UNK d   0      15.603   2.672 -24.577  0.00  0.00     0.052 C 
BRANCH  65  66
ATOM     66  C   UNK d   0      14.363   3.482 -24.438  0.00  0.00     0.115 C 
BRANCH  66  67
ATOM     67  C   UNK d   0      13.277   2.988 -23.638  0.00  0.00     0.139 C 
ATOM     68  O   UNK d   0      13.518   2.640 -22.424  0.00  0.00    -0.650 OA
BRANCH  67  69
ATOM     69  O   UNK d   0      11.944   2.828 -24.015  0.00  0.00    -0.776 OA
ATOM     70  H   UNK d   0      11.607   3.464 -24.752  0.00  0.00     0.167 HD
ENDBRANCH  67  69
ENDBRANCH  66  67
ENDBRANCH  65  66
ENDBRANCH  14  65
ENDBRANCH   6   7
ENDBRANCH   5   6
ENDBRANCH   2   5
TORSDOF 28
ENDMDL
MODEL 13
REMARK VINA RESULT:      -6.1      4.167     10.215
REMARK  28 active torsions:
REMARK  status: ('A' for Active; 'I' for Inactive)
REMARK    1  A    between atoms: C_2  and  O_3 
REMARK    2  A    between atoms: C_2  and  C_4 
REMARK    3  A    between atoms: C_4  and  C_5 
REMARK    4  A    between atoms: C_5  and  C_6 
REMARK    5  A    between atoms: C_7  and  C_8 
REMARK    6  A    between atoms: C_8  and  C_9 
REMARK    7  A    between atoms: C_9  and  O_11 
REMARK    8  A    between atoms: C_28  and  C_29 
REMARK    9  A    between atoms: C_29  and  C_30 
REMARK   10  A    between atoms: C_30  and  O_32 
REMARK   11  A    between atoms: C_33  and  C_34 
REMARK   12  A    between atoms: C_34  and  C_35 
REMARK   13  A    between atoms: C_35  and  C_36 
REMARK   14  A    between atoms: C_36  and  O_38 
REMARK   15  A    between atoms: C_39  and  C_40 
REMARK   16  A    between atoms: C_40  and  C_41 
REMARK   17  A    between atoms: C_41  and  C_42 
REMARK   18  A    between atoms: C_42  and  O_44 
REMARK   19  A    between atoms: C_45  and  C_46 
REMARK   20  A    between atoms: C_46  and  C_47 
REMARK   21  A    between atoms: C_47  and  O_49 
REMARK   22  A    between atoms: C_50  and  C_51 
REMARK   23  A    between atoms: C_51  and  C_52 
REMARK   24  A    between atoms: C_52  and  O_54 
REMARK   25  A    between atoms: C_55  and  C_56 
REMARK   26  A    between atoms: C_56  and  C_57 
REMARK   27  A    between atoms: C_57  and  C_58 
REMARK   28  A    between atoms: C_58  and  O_60 
ROOT
ATOM      1  O   UNK d   0      12.603  -6.077   6.984  0.00  0.00    -0.650 OA
ATOM      2  C   UNK d   0      12.499  -7.324   6.986  0.00  0.00     0.139 C 
ENDROOT
BRANCH   2   3
ATOM      3  O   UNK d   0      11.309  -7.900   6.611  0.00  0.00    -0.776 OA
ATOM      4  H   UNK d   0      11.083  -8.862   6.873  0.00  0.00     0.167 HD
ENDBRANCH   2   3
BRANCH   2   5
ATOM      5  C   UNK d   0      13.655  -8.171   7.393  0.00  0.00     0.115 C 
BRANCH   5   6
ATOM      6  C   UNK d   0      14.707  -8.162   6.317  0.00  0.00     0.052 C 
BRANCH   6   7
ATOM      7  C   UNK d   0      14.389  -9.110   5.185  0.00  0.00    -0.020 A 
ATOM      8  C   UNK d   0      14.342  -8.839   3.906  0.00  0.00    -0.011 A 
ATOM      9  C   UNK d   0      13.988 -10.061   3.205  0.00  0.00     0.067 A 
ATOM     10  C   UNK d   0      13.801 -10.443   1.867  0.00  0.00     0.062 C 
ATOM     11  N   UNK d   0      13.833 -11.027   4.135  0.00  0.00    -0.248 NA
ATOM     12  C   UNK d   0      13.733 -11.745   1.359  0.00  0.00     0.041 A 
ATOM     13  N   UNK d   0      13.106 -12.845   1.819  0.00  0.00    -0.355 N 
ATOM     14  C   UNK d   0      14.462 -12.062   0.198  0.00  0.00    -0.022 A 
ATOM     15  C   UNK d   0      13.424 -13.852   0.984  0.00  0.00     0.042 A 
ATOM     16  H   UNK d   0      12.436 -12.903   2.705  0.00  0.00     0.166 HD
ATOM     17  C   UNK d   0      13.040 -15.208   1.000  0.00  0.00     0.062 C 
ATOM     18  C   UNK d   0      14.273 -13.400  -0.044  0.00  0.00    -0.013 A 
ATOM     19  C   UNK d   0      12.990 -16.077   2.060  0.00  0.00     0.067 A 
ATOM     20  N   UNK d   0      13.129 -15.553   3.280  0.00  0.00    -0.248 NA
ATOM     21  C   UNK d   0      12.831 -17.512   2.227  0.00  0.00    -0.011 A 
ATOM     22  C   UNK d   0      13.074 -16.541   4.232  0.00  0.00     0.066 A 
ATOM     23  C   UNK d   0      13.167 -16.129   5.554  0.00  0.00     0.062 C 
ATOM     24  C   UNK d   0      12.885 -17.777   3.500  0.00  0.00    -0.020 A 
ATOM     25  C   UNK d   0      13.221 -14.815   6.043  0.00  0.00     0.041 A 
ATOM     26  N   UNK d   0      13.857 -13.726   5.595  0.00  0.00    -0.355 N 
ATOM     27  C   UNK d   0      12.486 -14.497   7.206  0.00  0.00    -0.022 A 
ATOM     28  C   UNK d   0      13.548 -12.722   6.431  0.00  0.00     0.042 A 
ATOM     29  H   UNK d   0      14.539 -13.671   4.711  0.00  0.00     0.166 HD
ATOM     30  C   UNK d   0      13.931 -11.371   6.432  0.00  0.00     0.062 C 
ATOM     31  C   UNK d   0      12.687 -13.175   7.458  0.00  0.00    -0.013 A 
ATOM     32  C   UNK d   0      14.062 -10.519   5.347  0.00  0.00     0.066 A 
BRANCH   8  33
ATOM     33  C   UNK d   0      14.593  -7.533   3.269  0.00  0.00     0.151 C 
BRANCH  33  34
ATOM     34  C   UNK d   0      13.370  -6.721   3.132  0.00  0.00     0.143 C 
ATOM     35  O   UNK d   0      12.598  -6.889   2.177  0.00  0.00    -0.650 OA
BRANCH  34  36
ATOM     36  O   UNK d   0      13.086  -5.762   4.077  0.00  0.00    -0.776 OA
ATOM     37  H   UNK d   0      12.328  -5.081   3.936  0.00  0.00     0.167 HD
ENDBRANCH  34  36
ENDBRANCH  33  34
ENDBRANCH   8  33
BRANCH  31  38
ATOM     38  C   UNK d   0      12.087 -12.383   8.597  0.00  0.00     0.151 C 
BRANCH  38  39
ATOM     39  C   UNK d   0      12.822 -12.536   9.835  0.00  0.00     0.143 C 
ATOM     40  O   UNK d   0      12.266 -12.847  10.904  0.00  0.00    -0.650 OA
BRANCH  39  41
ATOM     41  O   UNK d   0      14.201 -12.333   9.844  0.00  0.00    -0.776 OA
ATOM     42  H   UNK d   0      14.616 -11.946   8.991  0.00  0.00     0.167 HD
ENDBRANCH  39  41
ENDBRANCH  38  39
ENDBRANCH  31  38
BRANCH  27  43
ATOM     43  C   UNK d   0      11.622 -15.385   8.067  0.00  0.00     0.052 C 
BRANCH  43  44
ATOM     44  C   UNK d   0      10.430 -15.926   7.347  0.00  0.00     0.115 C 
BRANCH  44  45
ATOM     45  C   UNK d   0       9.408 -14.847   7.348  0.00  0.00     0.139 C 
ATOM     46  O   UNK d   0       9.129 -14.298   8.442  0.00  0.00    -0.650 OA
BRANCH  45  47
ATOM     47  O   UNK d   0       8.765 -14.426   6.204  0.00  0.00    -0.776 OA
ATOM     48  H   UNK d   0       9.258 -13.971   5.419  0.00  0.00     0.167 HD
ENDBRANCH  45  47
ENDBRANCH  44  45
ENDBRANCH  43  44
ENDBRANCH  27  43
BRANCH  24  49
ATOM     49  C   UNK d   0      12.729 -19.105   4.118  0.00  0.00     0.052 C 
BRANCH  49  50
ATOM     50  C   UNK d   0      11.369 -19.232   4.755  0.00  0.00     0.115 C 
BRANCH  50  51
ATOM     51  C   UNK d   0      11.142 -20.386   5.614  0.00  0.00     0.139 C 
ATOM     52  O   UNK d   0      10.186 -20.449   6.423  0.00  0.00    -0.650 OA
BRANCH  51  53
ATOM     53  O   UNK d   0      12.007 -21.467   5.554  0.00  0.00    -0.776 OA
ATOM     54  H   UNK d   0      11.673 -22.361   5.870  0.00  0.00     0.167 HD
ENDBRANCH  51  53
ENDBRANCH  50  51
ENDBRANCH  49  50
ENDBRANCH  24  49
BRANCH  21  55
ATOM     55  C   UNK d   0      12.637 -18.468   1.096  0.00  0.00     0.151 C 
BRANCH  55  56
ATOM     56  C   UNK d   0      11.233 -18.531   0.662  0.00  0.00     0.143 C 
ATOM     57  O   UNK d   0      10.351 -19.128   1.311  0.00  0.00    -0.650 OA
BRANCH  56  58
ATOM     58  O   UNK d   0      10.892 -17.889  -0.528  0.00  0.00    -0.776 OA
ATOM     59  H   UNK d   0      10.050 -18.264  -1.000  0.00  0.00     0.167 HD
ENDBRANCH  56  58
ENDBRANCH  55  56
ENDBRANCH  21  55
BRANCH  18  60
ATOM     60  C   UNK d   0      14.883 -14.164  -1.193  0.00  0.00     0.151 C 
BRANCH  60  61
ATOM     61  C   UNK d   0      16.150 -14.712  -0.686  0.00  0.00     0.143 C 
ATOM     62  O   UNK d   0      16.293 -15.671   0.073  0.00  0.00    -0.650 OA
BRANCH  61  63
ATOM     63  O   UNK d   0      17.316 -14.047  -1.135  0.00  0.00    -0.776 OA
ATOM     64  H   UNK d   0      18.168 -14.079  -0.604  0.00  0.00     0.167 HD
ENDBRANCH  61  63
ENDBRANCH  60  61
ENDBRANCH  18  60
BRANCH  14  65
ATOM     65  C   UNK d   0      15.235 -11.184  -0.744  0.00  0.00     0.052 C 
BRANCH  65  66
ATOM     66  C   UNK d   0      14.361 -10.333  -1.596  0.00  0.00     0.115 C 
BRANCH  66  67
ATOM     67  C   UNK d   0      13.200 -10.906  -2.219  0.00  0.00     0.139 C 
ATOM     68  O   UNK d   0      13.356 -11.584  -3.300  0.00  0.00    -0.650 OA
BRANCH  67  69
ATOM     69  O   UNK d   0      11.875 -10.821  -1.794  0.00  0.00    -0.776 OA
ATOM     70  H   UNK d   0      11.172 -11.209  -2.440  0.00  0.00     0.167 HD
ENDBRANCH  67  69
ENDBRANCH  66  67
ENDBRANCH  65  66
ENDBRANCH  14  65
ENDBRANCH   6   7
ENDBRANCH   5   6
ENDBRANCH   2   5
TORSDOF 28
ENDMDL
MODEL 14
REMARK VINA RESULT:      -6.1     33.349     37.870
REMARK  28 active torsions:
REMARK  status: ('A' for Active; 'I' for Inactive)
REMARK    1  A    between atoms: C_2  and  O_3 
REMARK    2  A    between atoms: C_2  and  C_4 
REMARK    3  A    between atoms: C_4  and  C_5 
REMARK    4  A    between atoms: C_5  and  C_6 
REMARK    5  A    between atoms: C_7  and  C_8 
REMARK    6  A    between atoms: C_8  and  C_9 
REMARK    7  A    between atoms: C_9  and  O_11 
REMARK    8  A    between atoms: C_28  and  C_29 
REMARK    9  A    between atoms: C_29  and  C_30 
REMARK   10  A    between atoms: C_30  and  O_32 
REMARK   11  A    between atoms: C_33  and  C_34 
REMARK   12  A    between atoms: C_34  and  C_35 
REMARK   13  A    between atoms: C_35  and  C_36 
REMARK   14  A    between atoms: C_36  and  O_38 
REMARK   15  A    between atoms: C_39  and  C_40 
REMARK   16  A    between atoms: C_40  and  C_41 
REMARK   17  A    between atoms: C_41  and  C_42 
REMARK   18  A    between atoms: C_42  and  O_44 
REMARK   19  A    between atoms: C_45  and  C_46 
REMARK   20  A    between atoms: C_46  and  C_47 
REMARK   21  A    between atoms: C_47  and  O_49 
REMARK   22  A    between atoms: C_50  and  C_51 
REMARK   23  A    between atoms: C_51  and  C_52 
REMARK   24  A    between atoms: C_52  and  O_54 
REMARK   25  A    between atoms: C_55  and  C_56 
REMARK   26  A    between atoms: C_56  and  C_57 
REMARK   27  A    between atoms: C_57  and  C_58 
REMARK   28  A    between atoms: C_58  and  O_60 
ROOT
ATOM      1  O   UNK d   0      17.332  -1.556 -20.477  0.00  0.00    -0.650 OA
ATOM      2  C   UNK d   0      16.467  -0.709 -20.790  0.00  0.00     0.139 C 
ENDROOT
BRANCH   2   3
ATOM      3  O   UNK d   0      16.021  -0.649 -22.088  0.00  0.00    -0.776 OA
ATOM      4  H   UNK d   0      16.617  -0.945 -22.865  0.00  0.00     0.167 HD
ENDBRANCH   2   3
BRANCH   2   5
ATOM      5  C   UNK d   0      15.928   0.226 -19.761  0.00  0.00     0.115 C 
BRANCH   5   6
ATOM      6  C   UNK d   0      14.852   1.091 -20.360  0.00  0.00     0.052 C 
BRANCH   6   7
ATOM      7  C   UNK d   0      15.203   2.559 -20.331  0.00  0.00    -0.020 A 
ATOM      8  C   UNK d   0      14.687   3.488 -19.569  0.00  0.00    -0.011 A 
ATOM      9  C   UNK d   0      15.331   4.747 -19.903  0.00  0.00     0.067 A 
ATOM     10  C   UNK d   0      15.253   6.075 -19.455  0.00  0.00     0.062 C 
ATOM     11  N   UNK d   0      16.224   4.493 -20.883  0.00  0.00    -0.248 NA
ATOM     12  C   UNK d   0      16.161   7.110 -19.709  0.00  0.00     0.041 A 
ATOM     13  N   UNK d   0      16.802   7.470 -20.837  0.00  0.00    -0.355 N 
ATOM     14  C   UNK d   0      16.570   7.932 -18.644  0.00  0.00    -0.022 A 
ATOM     15  C   UNK d   0      17.613   8.494 -20.514  0.00  0.00     0.042 A 
ATOM     16  H   UNK d   0      16.668   7.021 -21.847  0.00  0.00     0.166 HD
ATOM     17  C   UNK d   0      18.501   9.243 -21.311  0.00  0.00     0.062 C 
ATOM     18  C   UNK d   0      17.496   8.812 -19.147  0.00  0.00    -0.013 A 
ATOM     19  C   UNK d   0      19.401   8.802 -22.247  0.00  0.00     0.067 A 
ATOM     20  N   UNK d   0      19.312   7.521 -22.615  0.00  0.00    -0.248 NA
ATOM     21  C   UNK d   0      20.508   9.384 -22.987  0.00  0.00    -0.011 A 
ATOM     22  C   UNK d   0      20.282   7.223 -23.541  0.00  0.00     0.066 A 
ATOM     23  C   UNK d   0      20.281   5.929 -24.039  0.00  0.00     0.062 C 
ATOM     24  C   UNK d   0      21.022   8.454 -23.739  0.00  0.00    -0.020 A 
ATOM     25  C   UNK d   0      19.353   4.908 -23.782  0.00  0.00     0.041 A 
ATOM     26  N   UNK d   0      18.727   4.541 -22.657  0.00  0.00    -0.355 N 
ATOM     27  C   UNK d   0      18.939   4.086 -24.852  0.00  0.00    -0.022 A 
ATOM     28  C   UNK d   0      17.924   3.514 -22.975  0.00  0.00     0.042 A 
ATOM     29  H   UNK d   0      18.870   4.985 -21.641  0.00  0.00     0.166 HD
ATOM     30  C   UNK d   0      17.043   2.753 -22.190  0.00  0.00     0.062 C 
ATOM     31  C   UNK d   0      18.034   3.202 -24.351  0.00  0.00    -0.013 A 
ATOM     32  C   UNK d   0      16.196   3.194 -21.186  0.00  0.00     0.066 A 
BRANCH   8  33
ATOM     33  C   UNK d   0      13.634   3.314 -18.551  0.00  0.00     0.151 C 
BRANCH  33  34
ATOM     34  C   UNK d   0      14.174   2.949 -17.229  0.00  0.00     0.143 C 
ATOM     35  O   UNK d   0      13.733   1.971 -16.610  0.00  0.00    -0.650 OA
BRANCH  34  36
ATOM     36  O   UNK d   0      15.179   3.709 -16.677  0.00  0.00    -0.776 OA
ATOM     37  H   UNK d   0      15.553   4.535 -17.164  0.00  0.00     0.167 HD
ENDBRANCH  34  36
ENDBRANCH  33  34
ENDBRANCH   8  33
BRANCH  31  38
ATOM     38  C   UNK d   0      17.307   2.132 -25.132  0.00  0.00     0.151 C 
BRANCH  38  39
ATOM     39  C   UNK d   0      16.136   2.636 -25.818  0.00  0.00     0.143 C 
ATOM     40  O   UNK d   0      15.197   3.185 -25.216  0.00  0.00    -0.650 OA
BRANCH  39  41
ATOM     41  O   UNK d   0      16.045   2.508 -27.204  0.00  0.00    -0.776 OA
ATOM     42  H   UNK d   0      15.613   3.287 -27.712  0.00  0.00     0.167 HD
ENDBRANCH  39  41
ENDBRANCH  38  39
ENDBRANCH  31  38
BRANCH  27  43
ATOM     43  C   UNK d   0      19.365   4.110 -26.299  0.00  0.00     0.052 C 
BRANCH  43  44
ATOM     44  C   UNK d   0      18.650   5.144 -27.108  0.00  0.00     0.115 C 
BRANCH  44  45
ATOM     45  C   UNK d   0      19.685   6.095 -27.591  0.00  0.00     0.139 C 
ATOM     46  O   UNK d   0      20.542   5.673 -28.406  0.00  0.00    -0.650 OA
BRANCH  45  47
ATOM     47  O   UNK d   0      19.736   7.411 -27.187  0.00  0.00    -0.776 OA
ATOM     48  H   UNK d   0      19.853   8.196 -27.849  0.00  0.00     0.167 HD
ENDBRANCH  45  47
ENDBRANCH  44  45
ENDBRANCH  43  44
ENDBRANCH  27  43
BRANCH  24  49
ATOM     49  C   UNK d   0      22.141   8.619 -24.683  0.00  0.00     0.052 C 
BRANCH  49  50
ATOM     50  C   UNK d   0      23.459   8.516 -23.958  0.00  0.00     0.115 C 
BRANCH  50  51
ATOM     51  C   UNK d   0      24.287   9.714 -23.911  0.00  0.00     0.139 C 
ATOM     52  O   UNK d   0      24.548  10.396 -24.930  0.00  0.00    -0.650 OA
BRANCH  51  53
ATOM     53  O   UNK d   0      24.821  10.132 -22.702  0.00  0.00    -0.776 OA
ATOM     54  H   UNK d   0      24.628  11.069 -22.395  0.00  0.00     0.167 HD
ENDBRANCH  51  53
ENDBRANCH  50  51
ENDBRANCH  49  50
ENDBRANCH  24  49
BRANCH  21  55
ATOM     55  C   UNK d   0      20.934  10.810 -22.869  0.00  0.00     0.151 C 
BRANCH  55  56
ATOM     56  C   UNK d   0      21.574  11.089 -21.574  0.00  0.00     0.143 C 
ATOM     57  O   UNK d   0      22.371  10.298 -21.031  0.00  0.00    -0.650 OA
BRANCH  56  58
ATOM     58  O   UNK d   0      21.265  12.292 -20.943  0.00  0.00    -0.776 OA
ATOM     59  H   UNK d   0      21.637  12.388 -19.981  0.00  0.00     0.167 HD
ENDBRANCH  56  58
ENDBRANCH  55  56
ENDBRANCH  21  55
BRANCH  18  60
ATOM     60  C   UNK d   0      18.205   9.874 -18.343  0.00  0.00     0.151 C 
BRANCH  60  61
ATOM     61  C   UNK d   0      19.593   9.409 -18.195  0.00  0.00     0.143 C 
ATOM     62  O   UNK d   0      19.967   8.302 -17.808  0.00  0.00    -0.650 OA
BRANCH  61  63
ATOM     63  O   UNK d   0      20.586  10.356 -18.544  0.00  0.00    -0.776 OA
ATOM     64  H   UNK d   0      20.440  11.338 -18.393  0.00  0.00     0.167 HD
ENDBRANCH  61  63
ENDBRANCH  60  61
ENDBRANCH  18  60
BRANCH  14  65
ATOM     65  C   UNK d   0      16.086   8.012 -17.224  0.00  0.00     0.052 C 
BRANCH  65  66
ATOM     66  C   UNK d   0      16.941   7.252 -16.274  0.00  0.00     0.115 C 
BRANCH  66  67
ATOM     67  C   UNK d   0      17.558   7.934 -15.171  0.00  0.00     0.139 C 
ATOM     68  O   UNK d   0      16.805   8.398 -14.237  0.00  0.00    -0.650 OA
BRANCH  67  69
ATOM     69  O   UNK d   0      18.917   8.170 -14.966  0.00  0.00    -0.776 OA
ATOM     70  H   UNK d   0      19.173   8.539 -14.039  0.00  0.00     0.167 HD
ENDBRANCH  67  69
ENDBRANCH  66  67
ENDBRANCH  65  66
ENDBRANCH  14  65
ENDBRANCH   6   7
ENDBRANCH   5   6
ENDBRANCH   2   5
TORSDOF 28
ENDMDL
MODEL 15
REMARK VINA RESULT:      -6.1      4.764      9.017
REMARK  28 active torsions:
REMARK  status: ('A' for Active; 'I' for Inactive)
REMARK    1  A    between atoms: C_2  and  O_3 
REMARK    2  A    between atoms: C_2  and  C_4 
REMARK    3  A    between atoms: C_4  and  C_5 
REMARK    4  A    between atoms: C_5  and  C_6 
REMARK    5  A    between atoms: C_7  and  C_8 
REMARK    6  A    between atoms: C_8  and  C_9 
REMARK    7  A    between atoms: C_9  and  O_11 
REMARK    8  A    between atoms: C_28  and  C_29 
REMARK    9  A    between atoms: C_29  and  C_30 
REMARK   10  A    between atoms: C_30  and  O_32 
REMARK   11  A    between atoms: C_33  and  C_34 
REMARK   12  A    between atoms: C_34  and  C_35 
REMARK   13  A    between atoms: C_35  and  C_36 
REMARK   14  A    between atoms: C_36  and  O_38 
REMARK   15  A    between atoms: C_39  and  C_40 
REMARK   16  A    between atoms: C_40  and  C_41 
REMARK   17  A    between atoms: C_41  and  C_42 
REMARK   18  A    between atoms: C_42  and  O_44 
REMARK   19  A    between atoms: C_45  and  C_46 
REMARK   20  A    between atoms: C_46  and  C_47 
REMARK   21  A    between atoms: C_47  and  O_49 
REMARK   22  A    between atoms: C_50  and  C_51 
REMARK   23  A    between atoms: C_51  and  C_52 
REMARK   24  A    between atoms: C_52  and  O_54 
REMARK   25  A    between atoms: C_55  and  C_56 
REMARK   26  A    between atoms: C_56  and  C_57 
REMARK   27  A    between atoms: C_57  and  C_58 
REMARK   28  A    between atoms: C_58  and  O_60 
ROOT
ATOM      1  O   UNK d   0      10.677 -20.900   5.976  0.00  0.00    -0.650 OA
ATOM      2  C   UNK d   0      10.127 -19.862   6.406  0.00  0.00     0.139 C 
ENDROOT
BRANCH   2   3
ATOM      3  O   UNK d   0       9.138 -19.967   7.354  0.00  0.00    -0.776 OA
ATOM      4  H   UNK d   0       9.163 -20.702   8.063  0.00  0.00     0.167 HD
ENDBRANCH   2   3
BRANCH   2   5
ATOM      5  C   UNK d   0      10.543 -18.527   5.891  0.00  0.00     0.115 C 
BRANCH   5   6
ATOM      6  C   UNK d   0      12.043 -18.448   5.810  0.00  0.00     0.052 C 
BRANCH   6   7
ATOM      7  C   UNK d   0      12.519 -17.291   4.963  0.00  0.00    -0.020 A 
ATOM      8  C   UNK d   0      12.955 -17.331   3.730  0.00  0.00    -0.011 A 
ATOM      9  C   UNK d   0      13.307 -15.976   3.339  0.00  0.00     0.067 A 
ATOM     10  C   UNK d   0      13.798 -15.351   2.182  0.00  0.00     0.062 C 
ATOM     11  N   UNK d   0      13.060 -15.176   4.398  0.00  0.00    -0.248 NA
ATOM     12  C   UNK d   0      13.814 -13.981   1.901  0.00  0.00     0.041 A 
ATOM     13  N   UNK d   0      14.125 -12.921   2.672  0.00  0.00    -0.355 N 
ATOM     14  C   UNK d   0      13.394 -13.541   0.632  0.00  0.00    -0.022 A 
ATOM     15  C   UNK d   0      13.907 -11.821   1.927  0.00  0.00     0.042 A 
ATOM     16  H   UNK d   0      14.511 -12.952   3.715  0.00  0.00     0.166 HD
ATOM     17  C   UNK d   0      14.072 -10.457   2.243  0.00  0.00     0.062 C 
ATOM     18  C   UNK d   0      13.447 -12.169   0.643  0.00  0.00    -0.013 A 
ATOM     19  C   UNK d   0      13.703  -9.784   3.379  0.00  0.00     0.067 A 
ATOM     20  N   UNK d   0      13.312 -10.523   4.420  0.00  0.00    -0.248 NA
ATOM     21  C   UNK d   0      13.602  -8.391   3.782  0.00  0.00    -0.011 A 
ATOM     22  C   UNK d   0      12.961  -9.715   5.473  0.00  0.00     0.066 A 
ATOM     23  C   UNK d   0      12.569 -10.357   6.639  0.00  0.00     0.062 C 
ATOM     24  C   UNK d   0      13.163  -8.357   5.007  0.00  0.00    -0.020 A 
ATOM     25  C   UNK d   0      12.572 -11.735   6.905  0.00  0.00     0.041 A 
ATOM     26  N   UNK d   0      12.248 -12.787   6.144  0.00  0.00    -0.355 N 
ATOM     27  C   UNK d   0      12.997 -12.176   8.177  0.00  0.00    -0.022 A 
ATOM     28  C   UNK d   0      12.456 -13.885   6.887  0.00  0.00     0.042 A 
ATOM     29  H   UNK d   0      11.850 -12.754   5.099  0.00  0.00     0.166 HD
ATOM     30  C   UNK d   0      12.287 -15.247   6.589  0.00  0.00     0.062 C 
ATOM     31  C   UNK d   0      12.928 -13.535   8.174  0.00  0.00    -0.013 A 
ATOM     32  C   UNK d   0      12.583 -15.907   5.407  0.00  0.00     0.066 A 
BRANCH   8  33
ATOM     33  C   UNK d   0      13.080 -18.524   2.874  0.00  0.00     0.151 C 
BRANCH  33  34
ATOM     34  C   UNK d   0      14.456 -19.049   2.823  0.00  0.00     0.143 C 
ATOM     35  O   UNK d   0      14.897 -19.767   3.732  0.00  0.00    -0.650 OA
BRANCH  34  36
ATOM     36  O   UNK d   0      15.260 -18.735   1.752  0.00  0.00    -0.776 OA
ATOM     37  H   UNK d   0      16.219 -18.386   1.888  0.00  0.00     0.167 HD
ENDBRANCH  34  36
ENDBRANCH  33  34
ENDBRANCH   8  33
BRANCH  31  38
ATOM     38  C   UNK d   0      13.299 -14.449   9.318  0.00  0.00     0.151 C 
BRANCH  38  39
ATOM     39  C   UNK d   0      12.460 -14.260  10.483  0.00  0.00     0.143 C 
ATOM     40  O   UNK d   0      11.219 -14.252  10.414  0.00  0.00    -0.650 OA
BRANCH  39  41
ATOM     41  O   UNK d   0      13.052 -14.081  11.733  0.00  0.00    -0.776 OA
ATOM     42  H   UNK d   0      13.537 -13.192  11.890  0.00  0.00     0.167 HD
ENDBRANCH  39  41
ENDBRANCH  38  39
ENDBRANCH  31  38
BRANCH  27  43
ATOM     43  C   UNK d   0      13.454 -11.369   9.367  0.00  0.00     0.052 C 
BRANCH  43  44
ATOM     44  C   UNK d   0      14.925 -11.465   9.616  0.00  0.00     0.115 C 
BRANCH  44  45
ATOM     45  C   UNK d   0      15.088 -11.895  11.029  0.00  0.00     0.139 C 
ATOM     46  O   UNK d   0      14.463 -11.263  11.917  0.00  0.00    -0.650 OA
BRANCH  45  47
ATOM     47  O   UNK d   0      15.888 -12.954  11.400  0.00  0.00    -0.776 OA
ATOM     48  H   UNK d   0      15.988 -13.264  12.380  0.00  0.00     0.167 HD
ENDBRANCH  45  47
ENDBRANCH  44  45
ENDBRANCH  43  44
ENDBRANCH  27  43
BRANCH  24  49
ATOM     49  C   UNK d   0      12.950  -7.148   5.820  0.00  0.00     0.052 C 
BRANCH  49  50
ATOM     50  C   UNK d   0      14.129  -6.913   6.729  0.00  0.00     0.115 C 
BRANCH  50  51
ATOM     51  C   UNK d   0      14.642  -5.552   6.813  0.00  0.00     0.139 C 
ATOM     52  O   UNK d   0      14.410  -4.686   5.937  0.00  0.00    -0.650 OA
BRANCH  51  53
ATOM     53  O   UNK d   0      15.424  -5.179   7.896  0.00  0.00    -0.776 OA
ATOM     54  H   UNK d   0      15.266  -4.276   8.307  0.00  0.00     0.167 HD
ENDBRANCH  51  53
ENDBRANCH  50  51
ENDBRANCH  49  50
ENDBRANCH  24  49
BRANCH  21  55
ATOM     55  C   UNK d   0      13.959  -7.239   2.901  0.00  0.00     0.151 C 
BRANCH  55  56
ATOM     56  C   UNK d   0      15.360  -6.826   3.075  0.00  0.00     0.143 C 
ATOM     57  O   UNK d   0      16.318  -7.612   2.937  0.00  0.00    -0.650 OA
BRANCH  56  58
ATOM     58  O   UNK d   0      15.608  -5.495   3.408  0.00  0.00    -0.776 OA
ATOM     59  H   UNK d   0      16.214  -5.358   4.237  0.00  0.00     0.167 HD
ENDBRANCH  56  58
ENDBRANCH  55  56
ENDBRANCH  21  55
BRANCH  18  60
ATOM     60  C   UNK d   0      13.073 -11.281  -0.518  0.00  0.00     0.151 C 
BRANCH  60  61
ATOM     61  C   UNK d   0      11.615 -11.102  -0.435  0.00  0.00     0.143 C 
ATOM     62  O   UNK d   0      10.771 -11.513  -1.232  0.00  0.00    -0.650 OA
BRANCH  61  63
ATOM     63  O   UNK d   0      11.160 -10.376   0.691  0.00  0.00    -0.776 OA
ATOM     64  H   UNK d   0      10.447 -10.747   1.294  0.00  0.00     0.167 HD
ENDBRANCH  61  63
ENDBRANCH  60  61
ENDBRANCH  18  60
BRANCH  14  65
ATOM     65  C   UNK d   0      13.045 -14.314  -0.608  0.00  0.00     0.052 C 
BRANCH  65  66
ATOM     66  C   UNK d   0      11.649 -14.829  -0.598  0.00  0.00     0.115 C 
BRANCH  66  67
ATOM     67  C   UNK d   0      10.889 -14.849  -1.816  0.00  0.00     0.139 C 
ATOM     68  O   UNK d   0      11.349 -15.516  -2.815  0.00  0.00    -0.650 OA
BRANCH  67  69
ATOM     69  O   UNK d   0       9.673 -14.218  -2.073  0.00  0.00    -0.776 OA
ATOM     70  H   UNK d   0       9.598 -13.242  -1.754  0.00  0.00     0.167 HD
ENDBRANCH  67  69
ENDBRANCH  66  67
ENDBRANCH  65  66
ENDBRANCH  14  65
ENDBRANCH   6   7
ENDBRANCH   5   6
ENDBRANCH   2   5
TORSDOF 28
ENDMDL
MODEL 16
REMARK VINA RESULT:      -6.0      4.484      9.950
REMARK  28 active torsions:
REMARK  status: ('A' for Active; 'I' for Inactive)
REMARK    1  A    between atoms: C_2  and  O_3 
REMARK    2  A    between atoms: C_2  and  C_4 
REMARK    3  A    between atoms: C_4  and  C_5 
REMARK    4  A    between atoms: C_5  and  C_6 
REMARK    5  A    between atoms: C_7  and  C_8 
REMARK    6  A    between atoms: C_8  and  C_9 
REMARK    7  A    between atoms: C_9  and  O_11 
REMARK    8  A    between atoms: C_28  and  C_29 
REMARK    9  A    between atoms: C_29  and  C_30 
REMARK   10  A    between atoms: C_30  and  O_32 
REMARK   11  A    between atoms: C_33  and  C_34 
REMARK   12  A    between atoms: C_34  and  C_35 
REMARK   13  A    between atoms: C_35  and  C_36 
REMARK   14  A    between atoms: C_36  and  O_38 
REMARK   15  A    between atoms: C_39  and  C_40 
REMARK   16  A    between atoms: C_40  and  C_41 
REMARK   17  A    between atoms: C_41  and  C_42 
REMARK   18  A    between atoms: C_42  and  O_44 
REMARK   19  A    between atoms: C_45  and  C_46 
REMARK   20  A    between atoms: C_46  and  C_47 
REMARK   21  A    between atoms: C_47  and  O_49 
REMARK   22  A    between atoms: C_50  and  C_51 
REMARK   23  A    between atoms: C_51  and  C_52 
REMARK   24  A    between atoms: C_52  and  O_54 
REMARK   25  A    between atoms: C_55  and  C_56 
REMARK   26  A    between atoms: C_56  and  C_57 
REMARK   27  A    between atoms: C_57  and  C_58 
REMARK   28  A    between atoms: C_58  and  O_60 
ROOT
ATOM      1  O   UNK d   0      14.968 -12.867  11.451  0.00  0.00    -0.650 OA
ATOM      2  C   UNK d   0      14.091 -13.058  10.579  0.00  0.00     0.139 C 
ENDROOT
BRANCH   2   3
ATOM      3  O   UNK d   0      13.583 -14.322  10.401  0.00  0.00    -0.776 OA
ATOM      4  H   UNK d   0      12.861 -14.507   9.701  0.00  0.00     0.167 HD
ENDBRANCH   2   3
BRANCH   2   5
ATOM      5  C   UNK d   0      13.607 -11.923   9.743  0.00  0.00     0.115 C 
BRANCH   5   6
ATOM      6  C   UNK d   0      14.758 -11.292   9.008  0.00  0.00     0.052 C 
BRANCH   6   7
ATOM      7  C   UNK d   0      14.457 -11.060   7.547  0.00  0.00    -0.020 A 
ATOM      8  C   UNK d   0      14.433  -9.918   6.909  0.00  0.00    -0.011 A 
ATOM      9  C   UNK d   0      14.088 -10.190   5.523  0.00  0.00     0.067 A 
ATOM     10  C   UNK d   0      13.923  -9.432   4.354  0.00  0.00     0.062 C 
ATOM     11  N   UNK d   0      13.914 -11.523   5.408  0.00  0.00    -0.248 NA
ATOM     12  C   UNK d   0      13.861  -9.906   3.039  0.00  0.00     0.041 A 
ATOM     13  N   UNK d   0      13.222 -10.966   2.508  0.00  0.00    -0.355 N 
ATOM     14  C   UNK d   0      14.609  -9.252   2.043  0.00  0.00    -0.022 A 
ATOM     15  C   UNK d   0      13.551 -11.005   1.203  0.00  0.00     0.042 A 
ATOM     16  H   UNK d   0      12.536 -11.660   3.041  0.00  0.00     0.166 HD
ATOM     17  C   UNK d   0      13.162 -11.904   0.190  0.00  0.00     0.062 C 
ATOM     18  C   UNK d   0      14.420  -9.947   0.875  0.00  0.00    -0.013 A 
ATOM     19  C   UNK d   0      13.091 -13.273   0.232  0.00  0.00     0.067 A 
ATOM     20  N   UNK d   0      13.210 -13.848   1.432  0.00  0.00    -0.248 NA
ATOM     21  C   UNK d   0      12.924 -14.341  -0.739  0.00  0.00    -0.011 A 
ATOM     22  C   UNK d   0      13.134 -15.214   1.315  0.00  0.00     0.066 A 
ATOM     23  C   UNK d   0      13.206 -15.939   2.495  0.00  0.00     0.062 C 
ATOM     24  C   UNK d   0      12.954 -15.475  -0.100  0.00  0.00    -0.020 A 
ATOM     25  C   UNK d   0      13.256 -15.443   3.807  0.00  0.00     0.041 A 
ATOM     26  N   UNK d   0      13.903 -14.399   4.338  0.00  0.00    -0.355 N 
ATOM     27  C   UNK d   0      12.501 -16.098   4.805  0.00  0.00    -0.022 A 
ATOM     28  C   UNK d   0      13.582 -14.362   5.641  0.00  0.00     0.042 A 
ATOM     29  H   UNK d   0      14.600 -13.708   3.803  0.00  0.00     0.166 HD
ATOM     30  C   UNK d   0      13.969 -13.480   6.662  0.00  0.00     0.062 C 
ATOM     31  C   UNK d   0      12.701 -15.420   5.968  0.00  0.00    -0.013 A 
ATOM     32  C   UNK d   0      14.122 -12.104   6.590  0.00  0.00     0.066 A 
BRANCH   8  33
ATOM     33  C   UNK d   0      14.700  -8.582   7.474  0.00  0.00     0.151 C 
BRANCH  33  34
ATOM     34  C   UNK d   0      15.877  -7.932   6.871  0.00  0.00     0.143 C 
ATOM     35  O   UNK d   0      15.912  -6.703   6.709  0.00  0.00    -0.650 OA
BRANCH  34  36
ATOM     36  O   UNK d   0      16.948  -8.701   6.481  0.00  0.00    -0.776 OA
ATOM     37  H   UNK d   0      17.463  -9.281   7.158  0.00  0.00     0.167 HD
ENDBRANCH  34  36
ENDBRANCH  33  34
ENDBRANCH   8  33
BRANCH  31  38
ATOM     38  C   UNK d   0      12.084 -15.747   7.308  0.00  0.00     0.151 C 
BRANCH  38  39
ATOM     39  C   UNK d   0      11.021 -14.835   7.674  0.00  0.00     0.143 C 
ATOM     40  O   UNK d   0      10.220 -14.379   6.840  0.00  0.00    -0.650 OA
BRANCH  39  41
ATOM     41  O   UNK d   0      10.879 -14.446   9.006  0.00  0.00    -0.776 OA
ATOM     42  H   UNK d   0      10.921 -13.441   9.200  0.00  0.00     0.167 HD
ENDBRANCH  39  41
ENDBRANCH  38  39
ENDBRANCH  31  38
BRANCH  27  43
ATOM     43  C   UNK d   0      11.619 -17.317   4.695  0.00  0.00     0.052 C 
BRANCH  43  44
ATOM     44  C   UNK d   0      10.211 -16.994   4.314  0.00  0.00     0.115 C 
BRANCH  44  45
ATOM     45  C   UNK d   0       9.355 -17.426   5.449  0.00  0.00     0.139 C 
ATOM     46  O   UNK d   0       8.190 -16.962   5.522  0.00  0.00    -0.650 OA
BRANCH  45  47
ATOM     47  O   UNK d   0       9.783 -18.312   6.414  0.00  0.00    -0.776 OA
ATOM     48  H   UNK d   0      10.766 -18.621   6.494  0.00  0.00     0.167 HD
ENDBRANCH  45  47
ENDBRANCH  44  45
ENDBRANCH  43  44
ENDBRANCH  27  43
BRANCH  24  49
ATOM     49  C   UNK d   0      12.784 -16.812  -0.694  0.00  0.00     0.052 C 
BRANCH  49  50
ATOM     50  C   UNK d   0      11.370 -17.296  -0.499  0.00  0.00     0.115 C 
BRANCH  50  51
ATOM     51  C   UNK d   0      11.144 -18.287   0.544  0.00  0.00     0.139 C 
ATOM     52  O   UNK d   0      12.073 -18.962   1.047  0.00  0.00    -0.650 OA
BRANCH  51  53
ATOM     53  O   UNK d   0       9.858 -18.509   1.013  0.00  0.00    -0.776 OA
ATOM     54  H   UNK d   0       9.716 -19.249   1.678  0.00  0.00     0.167 HD
ENDBRANCH  51  53
ENDBRANCH  50  51
ENDBRANCH  49  50
ENDBRANCH  24  49
BRANCH  21  55
ATOM     55  C   UNK d   0      12.747 -14.117  -2.205  0.00  0.00     0.151 C 
BRANCH  55  56
ATOM     56  C   UNK d   0      11.354 -13.791  -2.548  0.00  0.00     0.143 C 
ATOM     57  O   UNK d   0      10.909 -12.627  -2.526  0.00  0.00    -0.650 OA
BRANCH  56  58
ATOM     58  O   UNK d   0      10.513 -14.840  -2.912  0.00  0.00    -0.776 OA
ATOM     59  H   UNK d   0       9.957 -15.243  -2.136  0.00  0.00     0.167 HD
ENDBRANCH  56  58
ENDBRANCH  55  56
ENDBRANCH  21  55
BRANCH  18  60
ATOM     60  C   UNK d   0      15.047  -9.595  -0.452  0.00  0.00     0.151 C 
BRANCH  60  61
ATOM     61  C   UNK d   0      14.159  -8.598  -1.067  0.00  0.00     0.143 C 
ATOM     62  O   UNK d   0      12.952  -8.712  -1.284  0.00  0.00    -0.650 OA
BRANCH  61  63
ATOM     63  O   UNK d   0      14.783  -7.383  -1.441  0.00  0.00    -0.776 OA
ATOM     64  H   UNK d   0      15.781  -7.278  -1.395  0.00  0.00     0.167 HD
ENDBRANCH  61  63
ENDBRANCH  60  61
ENDBRANCH  18  60
BRANCH  14  65
ATOM     65  C   UNK d   0      15.401  -7.976   2.091  0.00  0.00     0.052 C 
BRANCH  65  66
ATOM     66  C   UNK d   0      14.577  -6.792   2.454  0.00  0.00     0.115 C 
BRANCH  66  67
ATOM     67  C   UNK d   0      13.407  -6.476   1.683  0.00  0.00     0.139 C 
ATOM     68  O   UNK d   0      13.516  -5.627   0.724  0.00  0.00    -0.650 OA
BRANCH  67  69
ATOM     69  O   UNK d   0      12.119  -6.985   1.840  0.00  0.00    -0.776 OA
ATOM     70  H   UNK d   0      11.900  -7.828   1.290  0.00  0.00     0.167 HD
ENDBRANCH  67  69
ENDBRANCH  66  67
ENDBRANCH  65  66
ENDBRANCH  14  65
ENDBRANCH   6   7
ENDBRANCH   5   6
ENDBRANCH   2   5
TORSDOF 28
ENDMDL
MODEL 17
REMARK VINA RESULT:      -6.0     24.369     29.484
REMARK  28 active torsions:
REMARK  status: ('A' for Active; 'I' for Inactive)
REMARK    1  A    between atoms: C_2  and  O_3 
REMARK    2  A    between atoms: C_2  and  C_4 
REMARK    3  A    between atoms: C_4  and  C_5 
REMARK    4  A    between atoms: C_5  and  C_6 
REMARK    5  A    between atoms: C_7  and  C_8 
REMARK    6  A    between atoms: C_8  and  C_9 
REMARK    7  A    between atoms: C_9  and  O_11 
REMARK    8  A    between atoms: C_28  and  C_29 
REMARK    9  A    between atoms: C_29  and  C_30 
REMARK   10  A    between atoms: C_30  and  O_32 
REMARK   11  A    between atoms: C_33  and  C_34 
REMARK   12  A    between atoms: C_34  and  C_35 
REMARK   13  A    between atoms: C_35  and  C_36 
REMARK   14  A    between atoms: C_36  and  O_38 
REMARK   15  A    between atoms: C_39  and  C_40 
REMARK   16  A    between atoms: C_40  and  C_41 
REMARK   17  A    between atoms: C_41  and  C_42 
REMARK   18  A    between atoms: C_42  and  O_44 
REMARK   19  A    between atoms: C_45  and  C_46 
REMARK   20  A    between atoms: C_46  and  C_47 
REMARK   21  A    between atoms: C_47  and  O_49 
REMARK   22  A    between atoms: C_50  and  C_51 
REMARK   23  A    between atoms: C_51  and  C_52 
REMARK   24  A    between atoms: C_52  and  O_54 
REMARK   25  A    between atoms: C_55  and  C_56 
REMARK   26  A    between atoms: C_56  and  C_57 
REMARK   27  A    between atoms: C_57  and  C_58 
REMARK   28  A    between atoms: C_58  and  O_60 
ROOT
ATOM      1  O   UNK d   0     -19.325   1.588  -3.867  0.00  0.00    -0.650 OA
ATOM      2  C   UNK d   0     -18.142   1.181  -3.900  0.00  0.00     0.139 C 
ENDROOT
BRANCH   2   3
ATOM      3  O   UNK d   0     -17.439   1.252  -5.079  0.00  0.00    -0.776 OA
ATOM      4  H   UNK d   0     -17.747   1.858  -5.842  0.00  0.00     0.167 HD
ENDBRANCH   2   3
BRANCH   2   5
ATOM      5  C   UNK d   0     -17.507   0.625  -2.672  0.00  0.00     0.115 C 
BRANCH   5   6
ATOM      6  C   UNK d   0     -18.521  -0.140  -1.866  0.00  0.00     0.052 C 
BRANCH   6   7
ATOM      7  C   UNK d   0     -18.121  -1.579  -1.643  0.00  0.00    -0.020 A 
ATOM      8  C   UNK d   0     -18.227  -2.576  -2.484  0.00  0.00    -0.011 A 
ATOM      9  C   UNK d   0     -17.721  -3.769  -1.825  0.00  0.00     0.067 A 
ATOM     10  C   UNK d   0     -17.542  -5.118  -2.170  0.00  0.00     0.062 C 
ATOM     11  N   UNK d   0     -17.334  -3.407  -0.583  0.00  0.00    -0.248 NA
ATOM     12  C   UNK d   0     -16.776  -6.071  -1.491  0.00  0.00     0.041 A 
ATOM     13  N   UNK d   0     -16.649  -6.334  -0.176  0.00  0.00    -0.355 N 
ATOM     14  C   UNK d   0     -15.920  -6.908  -2.230  0.00  0.00    -0.022 A 
ATOM     15  C   UNK d   0     -15.728  -7.310  -0.061  0.00  0.00     0.042 A 
ATOM     16  H   UNK d   0     -17.213  -5.852   0.653  0.00  0.00     0.166 HD
ATOM     17  C   UNK d   0     -15.221  -7.957   1.083  0.00  0.00     0.062 C 
ATOM     18  C   UNK d   0     -15.248  -7.695  -1.328  0.00  0.00    -0.013 A 
ATOM     19  C   UNK d   0     -14.816  -7.410   2.274  0.00  0.00     0.067 A 
ATOM     20  N   UNK d   0     -15.112  -6.124   2.481  0.00  0.00    -0.248 NA
ATOM     21  C   UNK d   0     -14.094  -7.877   3.446  0.00  0.00    -0.011 A 
ATOM     22  C   UNK d   0     -14.633  -5.716   3.702  0.00  0.00     0.066 A 
ATOM     23  C   UNK d   0     -14.904  -4.404   4.063  0.00  0.00     0.062 C 
ATOM     24  C   UNK d   0     -13.986  -6.880   4.275  0.00  0.00    -0.020 A 
ATOM     25  C   UNK d   0     -15.687  -3.466   3.372  0.00  0.00     0.041 A 
ATOM     26  N   UNK d   0     -15.802  -3.195   2.067  0.00  0.00    -0.355 N 
ATOM     27  C   UNK d   0     -16.549  -2.630   4.114  0.00  0.00    -0.022 A 
ATOM     28  C   UNK d   0     -16.713  -2.216   1.950  0.00  0.00     0.042 A 
ATOM     29  H   UNK d   0     -15.227  -3.673   1.236  0.00  0.00     0.166 HD
ATOM     30  C   UNK d   0     -17.220  -1.557   0.819  0.00  0.00     0.062 C 
ATOM     31  C   UNK d   0     -17.202  -1.836   3.222  0.00  0.00    -0.013 A 
ATOM     32  C   UNK d   0     -17.547  -2.102  -0.412  0.00  0.00     0.066 A 
BRANCH   8  33
ATOM     33  C   UNK d   0     -18.764  -2.524  -3.856  0.00  0.00     0.151 C 
BRANCH  33  34
ATOM     34  C   UNK d   0     -17.719  -2.672  -4.884  0.00  0.00     0.143 C 
ATOM     35  O   UNK d   0     -17.045  -3.709  -4.962  0.00  0.00    -0.650 OA
BRANCH  34  36
ATOM     36  O   UNK d   0     -17.490  -1.642  -5.767  0.00  0.00    -0.776 OA
ATOM     37  H   UNK d   0     -16.681  -1.654  -6.404  0.00  0.00     0.167 HD
ENDBRANCH  34  36
ENDBRANCH  33  34
ENDBRANCH   8  33
BRANCH  31  38
ATOM     38  C   UNK d   0     -18.239  -0.789   3.554  0.00  0.00     0.151 C 
BRANCH  38  39
ATOM     39  C   UNK d   0     -17.658   0.439   4.053  0.00  0.00     0.143 C 
ATOM     40  O   UNK d   0     -18.042   0.978   5.106  0.00  0.00    -0.650 OA
BRANCH  39  41
ATOM     41  O   UNK d   0     -16.628   1.051   3.339  0.00  0.00    -0.776 OA
ATOM     42  H   UNK d   0     -16.158   1.841   3.792  0.00  0.00     0.167 HD
ENDBRANCH  39  41
ENDBRANCH  38  39
ENDBRANCH  31  38
BRANCH  27  43
ATOM     43  C   UNK d   0     -16.766  -2.559   5.605  0.00  0.00     0.052 C 
BRANCH  43  44
ATOM     44  C   UNK d   0     -17.832  -3.487   6.092  0.00  0.00     0.115 C 
BRANCH  44  45
ATOM     45  C   UNK d   0     -18.065  -3.153   7.521  0.00  0.00     0.139 C 
ATOM     46  O   UNK d   0     -18.901  -2.255   7.790  0.00  0.00    -0.650 OA
BRANCH  45  47
ATOM     47  O   UNK d   0     -17.411  -3.789   8.553  0.00  0.00    -0.776 OA
ATOM     48  H   UNK d   0     -16.873  -4.661   8.423  0.00  0.00     0.167 HD
ENDBRANCH  45  47
ENDBRANCH  44  45
ENDBRANCH  43  44
ENDBRANCH  27  43
BRANCH  24  49
ATOM     49  C   UNK d   0     -13.357  -6.922   5.607  0.00  0.00     0.052 C 
BRANCH  49  50
ATOM     50  C   UNK d   0     -14.225  -6.217   6.619  0.00  0.00     0.115 C 
BRANCH  50  51
ATOM     51  C   UNK d   0     -15.380  -6.945   7.126  0.00  0.00     0.139 C 
ATOM     52  O   UNK d   0     -16.409  -6.369   7.552  0.00  0.00    -0.650 OA
BRANCH  51  53
ATOM     53  O   UNK d   0     -15.362  -8.332   7.148  0.00  0.00    -0.776 OA
ATOM     54  H   UNK d   0     -15.359  -8.821   6.271  0.00  0.00     0.167 HD
ENDBRANCH  51  53
ENDBRANCH  50  51
ENDBRANCH  49  50
ENDBRANCH  24  49
BRANCH  21  55
ATOM     55  C   UNK d   0     -13.590  -9.272   3.615  0.00  0.00     0.151 C 
BRANCH  55  56
ATOM     56  C   UNK d   0     -14.541 -10.116   4.355  0.00  0.00     0.143 C 
ATOM     57  O   UNK d   0     -14.366 -10.448   5.544  0.00  0.00    -0.650 OA
BRANCH  56  58
ATOM     58  O   UNK d   0     -15.681 -10.552   3.682  0.00  0.00    -0.776 OA
ATOM     59  H   UNK d   0     -16.550 -10.038   3.916  0.00  0.00     0.167 HD
ENDBRANCH  56  58
ENDBRANCH  55  56
ENDBRANCH  21  55
BRANCH  18  60
ATOM     60  C   UNK d   0     -14.218  -8.737  -1.689  0.00  0.00     0.151 C 
BRANCH  60  61
ATOM     61  C   UNK d   0     -12.914  -8.063  -1.600  0.00  0.00     0.143 C 
ATOM     62  O   UNK d   0     -12.487  -7.174  -2.337  0.00  0.00    -0.650 OA
BRANCH  61  63
ATOM     63  O   UNK d   0     -12.078  -8.503  -0.546  0.00  0.00    -0.776 OA
ATOM     64  H   UNK d   0     -11.122  -8.760  -0.715  0.00  0.00     0.167 HD
ENDBRANCH  61  63
ENDBRANCH  60  61
ENDBRANCH  18  60
BRANCH  14  65
ATOM     65  C   UNK d   0     -15.762  -7.086  -3.713  0.00  0.00     0.052 C 
BRANCH  65  66
ATOM     66  C   UNK d   0     -16.903  -7.808  -4.337  0.00  0.00     0.115 C 
BRANCH  66  67
ATOM     67  C   UNK d   0     -17.621  -7.202  -5.423  0.00  0.00     0.139 C 
ATOM     68  O   UNK d   0     -17.392  -7.619  -6.618  0.00  0.00    -0.650 OA
BRANCH  67  69
ATOM     69  O   UNK d   0     -18.570  -6.183  -5.355  0.00  0.00    -0.776 OA
ATOM     70  H   UNK d   0     -18.226  -5.273  -5.014  0.00  0.00     0.167 HD
ENDBRANCH  67  69
ENDBRANCH  66  67
ENDBRANCH  65  66
ENDBRANCH  14  65
ENDBRANCH   6   7
ENDBRANCH   5   6
ENDBRANCH   2   5
TORSDOF 28
ENDMDL
MODEL 18
REMARK VINA RESULT:      -6.0     28.498     33.378
REMARK  28 active torsions:
REMARK  status: ('A' for Active; 'I' for Inactive)
REMARK    1  A    between atoms: C_2  and  O_3 
REMARK    2  A    between atoms: C_2  and  C_4 
REMARK    3  A    between atoms: C_4  and  C_5 
REMARK    4  A    between atoms: C_5  and  C_6 
REMARK    5  A    between atoms: C_7  and  C_8 
REMARK    6  A    between atoms: C_8  and  C_9 
REMARK    7  A    between atoms: C_9  and  O_11 
REMARK    8  A    between atoms: C_28  and  C_29 
REMARK    9  A    between atoms: C_29  and  C_30 
REMARK   10  A    between atoms: C_30  and  O_32 
REMARK   11  A    between atoms: C_33  and  C_34 
REMARK   12  A    between atoms: C_34  and  C_35 
REMARK   13  A    between atoms: C_35  and  C_36 
REMARK   14  A    between atoms: C_36  and  O_38 
REMARK   15  A    between atoms: C_39  and  C_40 
REMARK   16  A    between atoms: C_40  and  C_41 
REMARK   17  A    between atoms: C_41  and  C_42 
REMARK   18  A    between atoms: C_42  and  O_44 
REMARK   19  A    between atoms: C_45  and  C_46 
REMARK   20  A    between atoms: C_46  and  C_47 
REMARK   21  A    between atoms: C_47  and  O_49 
REMARK   22  A    between atoms: C_50  and  C_51 
REMARK   23  A    between atoms: C_51  and  C_52 
REMARK   24  A    between atoms: C_52  and  O_54 
REMARK   25  A    between atoms: C_55  and  C_56 
REMARK   26  A    between atoms: C_56  and  C_57 
REMARK   27  A    between atoms: C_57  and  C_58 
REMARK   28  A    between atoms: C_58  and  O_60 
ROOT
ATOM      1  O   UNK d   0      18.888   7.502 -10.607  0.00  0.00    -0.650 OA
ATOM      2  C   UNK d   0      19.426   6.687 -11.389  0.00  0.00     0.139 C 
ENDROOT
BRANCH   2   3
ATOM      3  O   UNK d   0      20.490   5.935 -10.950  0.00  0.00    -0.776 OA
ATOM      4  H   UNK d   0      21.435   6.102 -11.302  0.00  0.00     0.167 HD
ENDBRANCH   2   3
BRANCH   2   5
ATOM      5  C   UNK d   0      18.917   6.537 -12.781  0.00  0.00     0.115 C 
BRANCH   5   6
ATOM      6  C   UNK d   0      17.487   6.070 -12.762  0.00  0.00     0.052 C 
BRANCH   6   7
ATOM      7  C   UNK d   0      17.255   4.874 -13.654  0.00  0.00    -0.020 A 
ATOM      8  C   UNK d   0      17.384   3.609 -13.343  0.00  0.00    -0.011 A 
ATOM      9  C   UNK d   0      17.062   2.826 -14.524  0.00  0.00     0.067 A 
ATOM     10  C   UNK d   0      16.988   1.461 -14.844  0.00  0.00     0.062 C 
ATOM     11  N   UNK d   0      16.754   3.694 -15.509  0.00  0.00    -0.248 NA
ATOM     12  C   UNK d   0      16.386   0.886 -15.969  0.00  0.00     0.041 A 
ATOM     13  N   UNK d   0      16.406   1.246 -17.266  0.00  0.00    -0.355 N 
ATOM     14  C   UNK d   0      15.555  -0.236 -15.797  0.00  0.00    -0.022 A 
ATOM     15  C   UNK d   0      15.602   0.387 -17.920  0.00  0.00     0.042 A 
ATOM     16  H   UNK d   0      16.992   2.079 -17.713  0.00  0.00     0.166 HD
ATOM     17  C   UNK d   0      15.268   0.309 -19.287  0.00  0.00     0.062 C 
ATOM     18  C   UNK d   0      15.050  -0.557 -17.032  0.00  0.00    -0.013 A 
ATOM     19  C   UNK d   0      14.921   1.318 -20.149  0.00  0.00     0.067 A 
ATOM     20  N   UNK d   0      15.103   2.570 -19.719  0.00  0.00    -0.248 NA
ATOM     21  C   UNK d   0      14.357   1.403 -21.486  0.00  0.00    -0.011 A 
ATOM     22  C   UNK d   0      14.698   3.466 -20.678  0.00  0.00     0.066 A 
ATOM     23  C   UNK d   0      14.868   4.809 -20.376  0.00  0.00     0.062 C 
ATOM     24  C   UNK d   0      14.226   2.662 -21.788  0.00  0.00    -0.020 A 
ATOM     25  C   UNK d   0      15.487   5.366 -19.246  0.00  0.00     0.041 A 
ATOM     26  N   UNK d   0      15.455   5.017 -17.955  0.00  0.00    -0.355 N 
ATOM     27  C   UNK d   0      16.325   6.489 -19.420  0.00  0.00    -0.022 A 
ATOM     28  C   UNK d   0      16.249   5.878 -17.298  0.00  0.00     0.042 A 
ATOM     29  H   UNK d   0      14.858   4.186 -17.505  0.00  0.00     0.166 HD
ATOM     30  C   UNK d   0      16.583   5.973 -15.938  0.00  0.00     0.062 C 
ATOM     31  C   UNK d   0      16.812   6.819 -18.193  0.00  0.00    -0.013 A 
ATOM     32  C   UNK d   0      16.851   4.943 -15.050  0.00  0.00     0.066 A 
BRANCH   8  33
ATOM     33  C   UNK d   0      17.787   3.056 -12.037  0.00  0.00     0.151 C 
BRANCH  33  34
ATOM     34  C   UNK d   0      19.156   2.511 -12.046  0.00  0.00     0.143 C 
ATOM     35  O   UNK d   0      20.141   3.264 -12.069  0.00  0.00    -0.650 OA
BRANCH  34  36
ATOM     36  O   UNK d   0      19.341   1.148 -12.031  0.00  0.00    -0.776 OA
ATOM     37  H   UNK d   0      19.287   0.611 -11.155  0.00  0.00     0.167 HD
ENDBRANCH  34  36
ENDBRANCH  33  34
ENDBRANCH   8  33
BRANCH  31  38
ATOM     38  C   UNK d   0      17.764   7.952 -17.887  0.00  0.00     0.151 C 
BRANCH  38  39
ATOM     39  C   UNK d   0      17.090   9.220 -17.706  0.00  0.00     0.143 C 
ATOM     40  O   UNK d   0      16.061   9.334 -17.018  0.00  0.00    -0.650 OA
BRANCH  39  41
ATOM     41  O   UNK d   0      17.602  10.362 -18.320  0.00  0.00    -0.776 OA
ATOM     42  H   UNK d   0      17.506  11.244 -17.807  0.00  0.00     0.167 HD
ENDBRANCH  39  41
ENDBRANCH  38  39
ENDBRANCH  31  38
BRANCH  27  43
ATOM     43  C   UNK d   0      16.668   7.243 -20.681  0.00  0.00     0.052 C 
BRANCH  43  44
ATOM     44  C   UNK d   0      18.046   6.956 -21.184  0.00  0.00     0.115 C 
BRANCH  44  45
ATOM     45  C   UNK d   0      18.609   8.253 -21.641  0.00  0.00     0.139 C 
ATOM     46  O   UNK d   0      19.365   8.249 -22.643  0.00  0.00    -0.650 OA
BRANCH  45  47
ATOM     47  O   UNK d   0      18.332   9.450 -21.016  0.00  0.00    -0.776 OA
ATOM     48  H   UNK d   0      17.538  10.052 -21.286  0.00  0.00     0.167 HD
ENDBRANCH  45  47
ENDBRANCH  44  45
ENDBRANCH  43  44
ENDBRANCH  27  43
BRANCH  24  49
ATOM     49  C   UNK d   0      13.728   3.202 -23.065  0.00  0.00     0.052 C 
BRANCH  49  50
ATOM     50  C   UNK d   0      14.844   3.271 -24.075  0.00  0.00     0.115 C 
BRANCH  50  51
ATOM     51  C   UNK d   0      14.662   2.534 -25.318  0.00  0.00     0.139 C 
ATOM     52  O   UNK d   0      15.432   1.611 -25.676  0.00  0.00    -0.650 OA
BRANCH  51  53
ATOM     53  O   UNK d   0      13.604   2.851 -26.156  0.00  0.00    -0.776 OA
ATOM     54  H   UNK d   0      12.947   3.547 -25.850  0.00  0.00     0.167 HD
ENDBRANCH  51  53
ENDBRANCH  50  51
ENDBRANCH  49  50
ENDBRANCH  24  49
BRANCH  21  55
ATOM     55  C   UNK d   0      14.013   0.216 -22.324  0.00  0.00     0.151 C 
BRANCH  55  56
ATOM     56  C   UNK d   0      15.202  -0.580 -22.666  0.00  0.00     0.143 C 
ATOM     57  O   UNK d   0      15.326  -1.779 -22.348  0.00  0.00    -0.650 OA
BRANCH  56  58
ATOM     58  O   UNK d   0      16.222   0.050 -23.377  0.00  0.00    -0.776 OA
ATOM     59  H   UNK d   0      17.130  -0.450 -23.372  0.00  0.00     0.167 HD
ENDBRANCH  56  58
ENDBRANCH  55  56
ENDBRANCH  21  55
BRANCH  18  60
ATOM     60  C   UNK d   0      14.102  -1.697 -17.309  0.00  0.00     0.151 C 
BRANCH  60  61
ATOM     61  C   UNK d   0      12.748  -1.145 -17.144  0.00  0.00     0.143 C 
ATOM     62  O   UNK d   0      12.379   0.003 -17.393  0.00  0.00    -0.650 OA
BRANCH  61  63
ATOM     63  O   UNK d   0      11.785  -2.053 -16.643  0.00  0.00    -0.776 OA
ATOM     64  H   UNK d   0      10.833  -1.768 -16.493  0.00  0.00     0.167 HD
ENDBRANCH  61  63
ENDBRANCH  60  61
ENDBRANCH  18  60
BRANCH  14  65
ATOM     65  C   UNK d   0      15.282  -1.078 -14.583  0.00  0.00     0.052 C 
BRANCH  65  66
ATOM     66  C   UNK d   0      16.344  -2.087 -14.325  0.00  0.00     0.115 C 
BRANCH  66  67
ATOM     67  C   UNK d   0      17.222  -1.925 -13.200  0.00  0.00     0.139 C 
ATOM     68  O   UNK d   0      17.064  -0.898 -12.442  0.00  0.00    -0.650 OA
BRANCH  67  69
ATOM     69  O   UNK d   0      18.263  -2.763 -12.802  0.00  0.00    -0.776 OA
ATOM     70  H   UNK d   0      18.026  -3.460 -12.081  0.00  0.00     0.167 HD
ENDBRANCH  67  69
ENDBRANCH  66  67
ENDBRANCH  65  66
ENDBRANCH  14  65
ENDBRANCH   6   7
ENDBRANCH   5   6
ENDBRANCH   2   5
TORSDOF 28
ENDMDL
MODEL 19
REMARK VINA RESULT:      -6.0     13.185     17.840
REMARK  28 active torsions:
REMARK  status: ('A' for Active; 'I' for Inactive)
REMARK    1  A    between atoms: C_2  and  O_3 
REMARK    2  A    between atoms: C_2  and  C_4 
REMARK    3  A    between atoms: C_4  and  C_5 
REMARK    4  A    between atoms: C_5  and  C_6 
REMARK    5  A    between atoms: C_7  and  C_8 
REMARK    6  A    between atoms: C_8  and  C_9 
REMARK    7  A    between atoms: C_9  and  O_11 
REMARK    8  A    between atoms: C_28  and  C_29 
REMARK    9  A    between atoms: C_29  and  C_30 
REMARK   10  A    between atoms: C_30  and  O_32 
REMARK   11  A    between atoms: C_33  and  C_34 
REMARK   12  A    between atoms: C_34  and  C_35 
REMARK   13  A    between atoms: C_35  and  C_36 
REMARK   14  A    between atoms: C_36  and  O_38 
REMARK   15  A    between atoms: C_39  and  C_40 
REMARK   16  A    between atoms: C_40  and  C_41 
REMARK   17  A    between atoms: C_41  and  C_42 
REMARK   18  A    between atoms: C_42  and  O_44 
REMARK   19  A    between atoms: C_45  and  C_46 
REMARK   20  A    between atoms: C_46  and  C_47 
REMARK   21  A    between atoms: C_47  and  O_49 
REMARK   22  A    between atoms: C_50  and  C_51 
REMARK   23  A    between atoms: C_51  and  C_52 
REMARK   24  A    between atoms: C_52  and  O_54 
REMARK   25  A    between atoms: C_55  and  C_56 
REMARK   26  A    between atoms: C_56  and  C_57 
REMARK   27  A    between atoms: C_57  and  C_58 
REMARK   28  A    between atoms: C_58  and  O_60 
ROOT
ATOM      1  O   UNK d   0      -7.975  -5.275  -2.044  0.00  0.00    -0.650 OA
ATOM      2  C   UNK d   0      -6.913  -4.716  -1.689  0.00  0.00     0.139 C 
ENDROOT
BRANCH   2   3
ATOM      3  O   UNK d   0      -6.850  -3.343  -1.664  0.00  0.00    -0.776 OA
ATOM      4  H   UNK d   0      -6.465  -2.819  -2.452  0.00  0.00     0.167 HD
ENDBRANCH   2   3
BRANCH   2   5
ATOM      5  C   UNK d   0      -5.731  -5.535  -1.298  0.00  0.00     0.115 C 
BRANCH   5   6
ATOM      6  C   UNK d   0      -5.978  -6.985  -1.615  0.00  0.00     0.052 C 
BRANCH   6   7
ATOM      7  C   UNK d   0      -4.913  -7.573  -2.510  0.00  0.00    -0.020 A 
ATOM      8  C   UNK d   0      -4.827  -7.487  -3.812  0.00  0.00    -0.011 A 
ATOM      9  C   UNK d   0      -3.641  -8.216  -4.230  0.00  0.00     0.067 A 
ATOM     10  C   UNK d   0      -2.992  -8.482  -5.445  0.00  0.00     0.062 C 
ATOM     11  N   UNK d   0      -3.068  -8.719  -3.117  0.00  0.00    -0.248 NA
ATOM     12  C   UNK d   0      -1.695  -8.975  -5.623  0.00  0.00     0.041 A 
ATOM     13  N   UNK d   0      -1.024  -9.954  -4.986  0.00  0.00    -0.355 N 
ATOM     14  C   UNK d   0      -0.858  -8.364  -6.574  0.00  0.00    -0.022 A 
ATOM     15  C   UNK d   0       0.219  -9.975  -5.504  0.00  0.00     0.042 A 
ATOM     16  H   UNK d   0      -1.427 -10.631  -4.200  0.00  0.00     0.166 HD
ATOM     17  C   UNK d   0       1.320 -10.800  -5.202  0.00  0.00     0.062 C 
ATOM     18  C   UNK d   0       0.360  -8.992  -6.503  0.00  0.00    -0.013 A 
ATOM     19  C   UNK d   0       1.806 -11.176  -3.976  0.00  0.00     0.067 A 
ATOM     20  N   UNK d   0       1.043 -10.903  -2.914  0.00  0.00    -0.248 NA
ATOM     21  C   UNK d   0       3.011 -11.821  -3.483  0.00  0.00    -0.011 A 
ATOM     22  C   UNK d   0       1.663 -11.321  -1.762  0.00  0.00     0.066 A 
ATOM     23  C   UNK d   0       0.961 -11.133  -0.581  0.00  0.00     0.062 C 
ATOM     24  C   UNK d   0       2.923 -11.900  -2.186  0.00  0.00    -0.020 A 
ATOM     25  C   UNK d   0      -0.347 -10.647  -0.426  0.00  0.00     0.041 A 
ATOM     26  N   UNK d   0      -1.008  -9.664  -1.048  0.00  0.00    -0.355 N 
ATOM     27  C   UNK d   0      -1.187 -11.264   0.527  0.00  0.00    -0.022 A 
ATOM     28  C   UNK d   0      -2.245  -9.636  -0.527  0.00  0.00     0.042 A 
ATOM     29  H   UNK d   0      -0.599  -8.979  -1.830  0.00  0.00     0.166 HD
ATOM     30  C   UNK d   0      -3.348  -8.815  -0.811  0.00  0.00     0.062 C 
ATOM     31  C   UNK d   0      -2.390 -10.631   0.469  0.00  0.00    -0.013 A 
ATOM     32  C   UNK d   0      -3.785  -8.368  -2.048  0.00  0.00     0.066 A 
BRANCH   8  33
ATOM     33  C   UNK d   0      -5.758  -6.785  -4.716  0.00  0.00     0.151 C 
BRANCH  33  34
ATOM     34  C   UNK d   0      -5.218  -5.506  -5.210  0.00  0.00     0.143 C 
ATOM     35  O   UNK d   0      -4.777  -4.655  -4.425  0.00  0.00    -0.650 OA
BRANCH  34  36
ATOM     36  O   UNK d   0      -5.208  -5.255  -6.563  0.00  0.00    -0.776 OA
ATOM     37  H   UNK d   0      -4.745  -4.420  -6.948  0.00  0.00     0.167 HD
ENDBRANCH  34  36
ENDBRANCH  33  34
ENDBRANCH   8  33
BRANCH  31  38
ATOM     38  C   UNK d   0      -3.610 -10.958   1.298  0.00  0.00     0.151 C 
BRANCH  38  39
ATOM     39  C   UNK d   0      -3.587 -10.330   2.603  0.00  0.00     0.143 C 
ATOM     40  O   UNK d   0      -3.435  -9.105   2.749  0.00  0.00    -0.650 OA
BRANCH  39  41
ATOM     41  O   UNK d   0      -3.739 -11.116   3.745  0.00  0.00    -0.776 OA
ATOM     42  H   UNK d   0      -3.020 -11.826   3.916  0.00  0.00     0.167 HD
ENDBRANCH  39  41
ENDBRANCH  38  39
ENDBRANCH  31  38
BRANCH  27  43
ATOM     43  C   UNK d   0      -0.892 -12.405   1.468  0.00  0.00     0.052 C 
BRANCH  43  44
ATOM     44  C   UNK d   0      -1.139 -13.749   0.864  0.00  0.00     0.115 C 
BRANCH  44  45
ATOM     45  C   UNK d   0       0.001 -14.612   1.269  0.00  0.00     0.139 C 
ATOM     46  O   UNK d   0       1.059 -14.054   1.652  0.00  0.00    -0.650 OA
BRANCH  45  47
ATOM     47  O   UNK d   0      -0.059 -15.989   1.246  0.00  0.00    -0.776 OA
ATOM     48  H   UNK d   0      -0.176 -16.559   2.099  0.00  0.00     0.167 HD
ENDBRANCH  45  47
ENDBRANCH  44  45
ENDBRANCH  43  44
ENDBRANCH  27  43
BRANCH  24  49
ATOM     49  C   UNK d   0       3.910 -12.518  -1.285  0.00  0.00     0.052 C 
BRANCH  49  50
ATOM     50  C   UNK d   0       5.077 -11.589  -1.068  0.00  0.00     0.115 C 
BRANCH  50  51
ATOM     51  C   UNK d   0       5.013 -10.698   0.082  0.00  0.00     0.139 C 
ATOM     52  O   UNK d   0       5.869  -9.808   0.297  0.00  0.00    -0.650 OA
BRANCH  51  53
ATOM     53  O   UNK d   0       3.972 -10.823   0.990  0.00  0.00    -0.776 OA
ATOM     54  H   UNK d   0       4.200 -10.947   1.960  0.00  0.00     0.167 HD
ENDBRANCH  51  53
ENDBRANCH  50  51
ENDBRANCH  49  50
ENDBRANCH  24  49
BRANCH  21  55
ATOM     55  C   UNK d   0       4.122 -12.296  -4.359  0.00  0.00     0.151 C 
BRANCH  55  56
ATOM     56  C   UNK d   0       5.119 -11.243  -4.605  0.00  0.00     0.143 C 
ATOM     57  O   UNK d   0       6.283 -11.489  -4.978  0.00  0.00    -0.650 OA
BRANCH  56  58
ATOM     58  O   UNK d   0       4.727  -9.920  -4.408  0.00  0.00    -0.776 OA
ATOM     59  H   UNK d   0       4.848  -9.569  -3.440  0.00  0.00     0.167 HD
ENDBRANCH  56  58
ENDBRANCH  55  56
ENDBRANCH  21  55
BRANCH  18  60
ATOM     60  C   UNK d   0       1.562  -8.646  -7.347  0.00  0.00     0.151 C 
BRANCH  60  61
ATOM     61  C   UNK d   0       2.416  -7.795  -6.504  0.00  0.00     0.143 C 
ATOM     62  O   UNK d   0       2.062  -6.837  -5.817  0.00  0.00    -0.650 OA
BRANCH  61  63
ATOM     63  O   UNK d   0       3.790  -8.137  -6.501  0.00  0.00    -0.776 OA
ATOM     64  H   UNK d   0       4.468  -7.561  -6.968  0.00  0.00     0.167 HD
ENDBRANCH  61  63
ENDBRANCH  60  61
ENDBRANCH  18  60
BRANCH  14  65
ATOM     65  C   UNK d   0      -1.151  -7.310  -7.604  0.00  0.00     0.052 C 
BRANCH  65  66
ATOM     66  C   UNK d   0      -2.093  -7.771  -8.658  0.00  0.00     0.115 C 
BRANCH  66  67
ATOM     67  C   UNK d   0      -3.326  -7.067  -8.869  0.00  0.00     0.139 C 
ATOM     68  O   UNK d   0      -4.379  -7.745  -9.160  0.00  0.00    -0.650 OA
BRANCH  67  69
ATOM     69  O   UNK d   0      -3.546  -5.692  -8.798  0.00  0.00    -0.776 OA
ATOM     70  H   UNK d   0      -4.403  -5.351  -9.258  0.00  0.00     0.167 HD
ENDBRANCH  67  69
ENDBRANCH  66  67
ENDBRANCH  65  66
ENDBRANCH  14  65
ENDBRANCH   6   7
ENDBRANCH   5   6
ENDBRANCH   2   5
TORSDOF 28
ENDMDL
MODEL 20
REMARK VINA RESULT:      -6.0      5.821     10.723
REMARK  28 active torsions:
REMARK  status: ('A' for Active; 'I' for Inactive)
REMARK    1  A    between atoms: C_2  and  O_3 
REMARK    2  A    between atoms: C_2  and  C_4 
REMARK    3  A    between atoms: C_4  and  C_5 
REMARK    4  A    between atoms: C_5  and  C_6 
REMARK    5  A    between atoms: C_7  and  C_8 
REMARK    6  A    between atoms: C_8  and  C_9 
REMARK    7  A    between atoms: C_9  and  O_11 
REMARK    8  A    between atoms: C_28  and  C_29 
REMARK    9  A    between atoms: C_29  and  C_30 
REMARK   10  A    between atoms: C_30  and  O_32 
REMARK   11  A    between atoms: C_33  and  C_34 
REMARK   12  A    between atoms: C_34  and  C_35 
REMARK   13  A    between atoms: C_35  and  C_36 
REMARK   14  A    between atoms: C_36  and  O_38 
REMARK   15  A    between atoms: C_39  and  C_40 
REMARK   16  A    between atoms: C_40  and  C_41 
REMARK   17  A    between atoms: C_41  and  C_42 
REMARK   18  A    between atoms: C_42  and  O_44 
REMARK   19  A    between atoms: C_45  and  C_46 
REMARK   20  A    between atoms: C_46  and  C_47 
REMARK   21  A    between atoms: C_47  and  O_49 
REMARK   22  A    between atoms: C_50  and  C_51 
REMARK   23  A    between atoms: C_51  and  C_52 
REMARK   24  A    between atoms: C_52  and  O_54 
REMARK   25  A    between atoms: C_55  and  C_56 
REMARK   26  A    between atoms: C_56  and  C_57 
REMARK   27  A    between atoms: C_57  and  C_58 
REMARK   28  A    between atoms: C_58  and  O_60 
ROOT
ATOM      1  O   UNK d   0      15.267 -16.238   7.388  0.00  0.00    -0.650 OA
ATOM      2  C   UNK d   0      14.059 -16.303   7.705  0.00  0.00     0.139 C 
ENDROOT
BRANCH   2   3
ATOM      3  O   UNK d   0      13.565 -15.446   8.659  0.00  0.00    -0.776 OA
ATOM      4  H   UNK d   0      14.186 -14.991   9.332  0.00  0.00     0.167 HD
ENDBRANCH   2   3
BRANCH   2   5
ATOM      5  C   UNK d   0      13.167 -17.304   7.053  0.00  0.00     0.115 C 
BRANCH   5   6
ATOM      6  C   UNK d   0      12.082 -16.605   6.281  0.00  0.00     0.052 C 
BRANCH   6   7
ATOM      7  C   UNK d   0      12.597 -15.937   5.029  0.00  0.00    -0.020 A 
ATOM      8  C   UNK d   0      12.816 -16.488   3.863  0.00  0.00    -0.011 A 
ATOM      9  C   UNK d   0      13.317 -15.456   2.970  0.00  0.00     0.067 A 
ATOM     10  C   UNK d   0      13.710 -15.384   1.624  0.00  0.00     0.062 C 
ATOM     11  N   UNK d   0      13.376 -14.308   3.678  0.00  0.00    -0.248 NA
ATOM     12  C   UNK d   0      13.903 -14.230   0.858  0.00  0.00     0.041 A 
ATOM     13  N   UNK d   0      14.502 -13.060   1.153  0.00  0.00    -0.355 N 
ATOM     14  C   UNK d   0      13.362 -14.175  -0.439  0.00  0.00    -0.022 A 
ATOM     15  C   UNK d   0      14.348 -12.263   0.079  0.00  0.00     0.042 A 
ATOM     16  H   UNK d   0      15.040 -12.810   2.094  0.00  0.00     0.166 HD
ATOM     17  C   UNK d   0      14.781 -10.941  -0.147  0.00  0.00     0.062 C 
ATOM     18  C   UNK d   0      13.638 -12.927  -0.940  0.00  0.00    -0.013 A 
ATOM     19  C   UNK d   0      14.714  -9.857   0.690  0.00  0.00     0.067 A 
ATOM     20  N   UNK d   0      14.380 -10.094   1.961  0.00  0.00    -0.248 NA
ATOM     21  C   UNK d   0      14.906  -8.422   0.559  0.00  0.00    -0.011 A 
ATOM     22  C   UNK d   0      14.339  -8.918   2.670  0.00  0.00     0.066 A 
ATOM     23  C   UNK d   0      14.040  -9.023   4.021  0.00  0.00     0.062 C 
ATOM     24  C   UNK d   0      14.681  -7.878   1.720  0.00  0.00    -0.020 A 
ATOM     25  C   UNK d   0      13.862 -10.194   4.774  0.00  0.00     0.041 A 
ATOM     26  N   UNK d   0      13.253 -11.351   4.487  0.00  0.00    -0.355 N 
ATOM     27  C   UNK d   0      14.409 -10.249   6.075  0.00  0.00    -0.022 A 
ATOM     28  C   UNK d   0      13.397 -12.145   5.560  0.00  0.00     0.042 A 
ATOM     29  H   UNK d   0      12.704 -11.597   3.545  0.00  0.00     0.166 HD
ATOM     30  C   UNK d   0      12.964 -13.458   5.801  0.00  0.00     0.062 C 
ATOM     31  C   UNK d   0      14.120 -11.480   6.579  0.00  0.00    -0.013 A 
ATOM     32  C   UNK d   0      12.955 -14.530   4.924  0.00  0.00     0.066 A 
BRANCH   8  33
ATOM     33  C   UNK d   0      12.607 -17.901   3.498  0.00  0.00     0.151 C 
BRANCH  33  34
ATOM     34  C   UNK d   0      13.869 -18.654   3.382  0.00  0.00     0.143 C 
ATOM     35  O   UNK d   0      14.444 -18.767   2.290  0.00  0.00    -0.650 OA
BRANCH  34  36
ATOM     36  O   UNK d   0      14.412 -19.239   4.502  0.00  0.00    -0.776 OA
ATOM     37  H   UNK d   0      15.220 -19.873   4.435  0.00  0.00     0.167 HD
ENDBRANCH  34  36
ENDBRANCH  33  34
ENDBRANCH   8  33
BRANCH  31  38
ATOM     38  C   UNK d   0      14.517 -12.001   7.940  0.00  0.00     0.151 C 
BRANCH  38  39
ATOM     39  C   UNK d   0      13.517 -11.742   8.954  0.00  0.00     0.143 C 
ATOM     40  O   UNK d   0      12.387 -11.304   8.677  0.00  0.00    -0.650 OA
BRANCH  39  41
ATOM     41  O   UNK d   0      13.819 -11.987  10.294  0.00  0.00    -0.776 OA
ATOM     42  H   UNK d   0      13.110 -11.718  10.983  0.00  0.00     0.167 HD
ENDBRANCH  39  41
ENDBRANCH  38  39
ENDBRANCH  31  38
BRANCH  27  43
ATOM     43  C   UNK d   0      15.176  -9.198   6.837  0.00  0.00     0.052 C 
BRANCH  43  44
ATOM     44  C   UNK d   0      14.303  -8.321   7.675  0.00  0.00     0.115 C 
BRANCH  44  45
ATOM     45  C   UNK d   0      14.437  -6.944   7.131  0.00  0.00     0.139 C 
ATOM     46  O   UNK d   0      13.501  -6.493   6.425  0.00  0.00    -0.650 OA
BRANCH  45  47
ATOM     47  O   UNK d   0      15.535  -6.148   7.374  0.00  0.00    -0.776 OA
ATOM     48  H   UNK d   0      15.458  -5.162   7.671  0.00  0.00     0.167 HD
ENDBRANCH  45  47
ENDBRANCH  44  45
ENDBRANCH  43  44
ENDBRANCH  27  43
BRANCH  24  49
ATOM     49  C   UNK d   0      14.800  -6.447   2.047  0.00  0.00     0.052 C 
BRANCH  49  50
ATOM     50  C   UNK d   0      16.181  -6.141   2.568  0.00  0.00     0.115 C 
BRANCH  50  51
ATOM     51  C   UNK d   0      16.326  -5.973   4.007  0.00  0.00     0.139 C 
ATOM     52  O   UNK d   0      15.914  -4.956   4.615  0.00  0.00    -0.650 OA
BRANCH  51  53
ATOM     53  O   UNK d   0      16.944  -6.964   4.755  0.00  0.00    -0.776 OA
ATOM     54  H   UNK d   0      17.124  -7.849   4.315  0.00  0.00     0.167 HD
ENDBRANCH  51  53
ENDBRANCH  50  51
ENDBRANCH  49  50
ENDBRANCH  24  49
BRANCH  21  55
ATOM     55  C   UNK d   0      15.299  -7.745  -0.712  0.00  0.00     0.151 C 
BRANCH  55  56
ATOM     56  C   UNK d   0      14.143  -7.152  -1.402  0.00  0.00     0.143 C 
ATOM     57  O   UNK d   0      13.275  -7.839  -1.976  0.00  0.00    -0.650 OA
BRANCH  56  58
ATOM     58  O   UNK d   0      14.030  -5.763  -1.403  0.00  0.00    -0.776 OA
ATOM     59  H   UNK d   0      14.457  -5.291  -2.220  0.00  0.00     0.167 HD
ENDBRANCH  56  58
ENDBRANCH  55  56
ENDBRANCH  21  55
BRANCH  18  60
ATOM     60  C   UNK d   0      13.231 -12.435  -2.306  0.00  0.00     0.151 C 
BRANCH  60  61
ATOM     61  C   UNK d   0      12.028 -11.615  -2.098  0.00  0.00     0.143 C 
ATOM     62  O   UNK d   0      10.951 -11.983  -1.627  0.00  0.00    -0.650 OA
BRANCH  61  63
ATOM     63  O   UNK d   0      12.147 -10.259  -2.490  0.00  0.00    -0.776 OA
ATOM     64  H   UNK d   0      11.395  -9.787  -2.959  0.00  0.00     0.167 HD
ENDBRANCH  61  63
ENDBRANCH  60  61
ENDBRANCH  18  60
BRANCH  14  65
ATOM     65  C   UNK d   0      12.697 -15.236  -1.270  0.00  0.00     0.052 C 
BRANCH  65  66
ATOM     66  C   UNK d   0      11.236 -15.346  -1.012  0.00  0.00     0.115 C 
BRANCH  66  67
ATOM     67  C   UNK d   0      10.730 -16.451  -0.247  0.00  0.00     0.139 C 
ATOM     68  O   UNK d   0      11.505 -17.454  -0.030  0.00  0.00    -0.650 OA
BRANCH  67  69
ATOM     69  O   UNK d   0       9.461 -16.590   0.315  0.00  0.00    -0.776 OA
ATOM     70  H   UNK d   0       8.747 -15.928  -0.022  0.00  0.00     0.167 HD
ENDBRANCH  67  69
ENDBRANCH  66  67
ENDBRANCH  65  66
ENDBRANCH  14  65
ENDBRANCH   6   7
ENDBRANCH   5   6
ENDBRANCH   2   5
TORSDOF 28
ENDMDL
