MODEL 1
REMARK VINA RESULT:      -9.9      0.000      0.000
REMARK  16 active torsions:
REMARK  status: ('A' for Active; 'I' for Inactive)
REMARK    1  A    between atoms: C_6  and  C_7 
REMARK    2  A    between atoms: C_7  and  C_8 
REMARK    3  A    between atoms: C_8  and  C_9 
REMARK    4  A    between atoms: C_9  and  O_11 
REMARK    5  A    between atoms: C_16  and  C_17 
REMARK    6  A    between atoms: C_17  and  C_18 
REMARK    7  A    between atoms: C_18  and  C_19 
REMARK    8  A    between atoms: C_19  and  O_21 
REMARK    9  A    between atoms: C_28  and  C_29 
REMARK   10  A    between atoms: C_29  and  C_30 
REMARK   11  A    between atoms: C_30  and  C_31 
REMARK   12  A    between atoms: C_31  and  O_33 
REMARK   13  A    between atoms: C_42  and  C_43 
REMARK   14  A    between atoms: C_43  and  C_44 
REMARK   15  A    between atoms: C_44  and  C_45 
REMARK   16  A    between atoms: C_45  and  O_47 
ROOT
HETATM    1  C   UNK     0     -19.247 -24.182  26.091  0.00  0.00     0.051 C 
HETATM    2  C   UNK     0     -19.632 -22.882  25.415  0.00  0.00    -0.031 A 
HETATM    3  C   UNK     0     -19.855 -22.621  24.072  0.00  0.00     0.021 A 
HETATM    4  N   UNK     0     -20.146 -21.307  23.921  0.00  0.00    -0.361 N 
HETATM    5  C   UNK     0     -20.122 -20.727  25.139  0.00  0.00     0.022 A 
HETATM    6  C   UNK     0     -19.800 -21.683  26.096  0.00  0.00    -0.027 A 
HETATM    7  C   UNK     0     -20.462 -19.323  25.532  0.00  0.00     0.115 C 
HETATM    8  C   UNK     0     -21.693 -18.713  24.885  0.00  0.00     0.021 A 
HETATM    9  N   UNK     0     -22.846 -19.313  24.551  0.00  0.00    -0.361 N 
HETATM   10  C   UNK     0     -23.621 -18.408  23.918  0.00  0.00     0.022 A 
HETATM   11  C   UNK     0     -22.953 -17.189  23.849  0.00  0.00    -0.027 A 
HETATM   12  C   UNK     0     -21.737 -17.375  24.457  0.00  0.00    -0.031 A 
HETATM   13  C   UNK     0     -20.672 -16.314  24.622  0.00  0.00     0.051 C 
HETATM   14  C   UNK     0     -24.995 -18.668  23.307  0.00  0.00     0.115 C 
HETATM   15  C   UNK     0     -24.990 -19.714  22.203  0.00  0.00     0.021 A 
HETATM   16  N   UNK     0     -24.590 -20.996  22.289  0.00  0.00    -0.361 N 
HETATM   17  C   UNK     0     -24.676 -21.564  21.083  0.00  0.00     0.022 A 
HETATM   18  C   UNK     0     -25.165 -20.608  20.171  0.00  0.00    -0.027 A 
HETATM   19  C   UNK     0     -25.359 -19.454  20.885  0.00  0.00    -0.031 A 
HETATM   20  C   UNK     0     -25.917 -18.176  20.287  0.00  0.00     0.051 C 
HETATM   21  C   UNK     0     -24.282 -22.952  20.633  0.00  0.00     0.115 C 
HETATM   22  C   UNK     0     -23.085 -23.589  21.299  0.00  0.00     0.022 A 
HETATM   23  N   UNK     0     -21.925 -23.015  21.647  0.00  0.00    -0.361 N 
HETATM   24  C   UNK     0     -21.201 -23.913  22.345  0.00  0.00     0.021 A 
HETATM   25  C   UNK     0     -21.907 -25.097  22.441  0.00  0.00    -0.031 A 
HETATM   26  C   UNK     0     -21.496 -26.402  23.090  0.00  0.00     0.051 C 
HETATM   27  C   UNK     0     -23.116 -24.914  21.779  0.00  0.00    -0.027 A 
HETATM   28  C   UNK     0     -19.860 -23.698  23.025  0.00  0.00     0.115 C 
HETATM   29  H   UNK     0     -20.328 -20.790  22.950  0.00  0.00     0.165 HD
HETATM   30  H   UNK     0     -23.136 -20.362  24.807  0.00  0.00     0.165 HD
HETATM   31  H   UNK     0     -24.285 -21.527  23.228  0.00  0.00     0.165 HD
HETATM   32  H   UNK     0     -21.589 -21.984  21.364  0.00  0.00     0.165 HD
ENDROOT
BRANCH   6  33
HETATM   33  C   UNK     0     -19.640 -21.546  27.589  0.00  0.00     0.051 C 
BRANCH  33  34
HETATM   34  C   UNK     0     -18.622 -20.481  27.923  0.00  0.00     0.114 C 
BRANCH  34  35
HETATM   35  C   UNK     0     -17.429 -21.169  28.496  0.00  0.00     0.139 C 
HETATM   36  O   UNK     0     -17.030 -20.885  29.663  0.00  0.00    -0.650 OA
BRANCH  35  37
HETATM   37  O   UNK     0     -16.713 -22.134  27.798  0.00  0.00    -0.776 OA
HETATM   38  H   UNK     0     -15.706 -22.141  27.777  0.00  0.00     0.167 HD
ENDBRANCH  35  37
ENDBRANCH  34  35
ENDBRANCH  33  34
ENDBRANCH   6  33
BRANCH  27  39
HETATM   39  C   UNK     0     -24.119 -26.000  21.609  0.00  0.00     0.051 C 
BRANCH  39  40
HETATM   40  C   UNK     0     -25.289 -26.007  22.486  0.00  0.00     0.114 C 
BRANCH  40  41
HETATM   41  C   UNK     0     -26.401 -25.103  22.295  0.00  0.00     0.139 C 
HETATM   42  O   UNK     0     -26.644 -24.150  23.047  0.00  0.00    -0.650 OA
BRANCH  41  43
HETATM   43  O   UNK     0     -27.275 -25.306  21.189  0.00  0.00    -0.776 OA
HETATM   44  H   UNK     0     -28.219 -24.969  21.333  0.00  0.00     0.167 HD
ENDBRANCH  41  43
ENDBRANCH  40  41
ENDBRANCH  39  40
ENDBRANCH  27  39
BRANCH  11  45
HETATM   45  C   UNK     0     -23.419 -15.892  23.245  0.00  0.00     0.051 C 
BRANCH  45  46
HETATM   46  C   UNK     0     -24.607 -15.303  23.916  0.00  0.00     0.114 C 
BRANCH  46  47
HETATM   47  C   UNK     0     -24.138 -14.706  25.199  0.00  0.00     0.139 C 
HETATM   48  O   UNK     0     -23.230 -13.864  25.164  0.00  0.00    -0.650 OA
BRANCH  47  49
HETATM   49  O   UNK     0     -24.698 -15.081  26.394  0.00  0.00    -0.776 OA
HETATM   50  H   UNK     0     -24.863 -14.410  27.153  0.00  0.00     0.167 HD
ENDBRANCH  47  49
ENDBRANCH  46  47
ENDBRANCH  45  46
ENDBRANCH  11  45
BRANCH  18  51
HETATM   51  C   UNK     0     -25.452 -20.791  18.703  0.00  0.00     0.051 C 
BRANCH  51  52
HETATM   52  C   UNK     0     -24.235 -20.257  17.962  0.00  0.00     0.114 C 
BRANCH  52  53
HETATM   53  C   UNK     0     -23.451 -21.342  17.340  0.00  0.00     0.139 C 
HETATM   54  O   UNK     0     -23.990 -22.430  17.083  0.00  0.00    -0.650 OA
BRANCH  53  55
HETATM   55  O   UNK     0     -22.123 -21.140  17.051  0.00  0.00    -0.776 OA
HETATM   56  H   UNK     0     -21.764 -20.602  16.298  0.00  0.00     0.167 HD
ENDBRANCH  53  55
ENDBRANCH  52  53
ENDBRANCH  51  52
ENDBRANCH  18  51
TORSDOF 16
ENDMDL
MODEL 2
REMARK VINA RESULT:      -9.7      2.720      8.098
REMARK  16 active torsions:
REMARK  status: ('A' for Active; 'I' for Inactive)
REMARK    1  A    between atoms: C_6  and  C_7 
REMARK    2  A    between atoms: C_7  and  C_8 
REMARK    3  A    between atoms: C_8  and  C_9 
REMARK    4  A    between atoms: C_9  and  O_11 
REMARK    5  A    between atoms: C_16  and  C_17 
REMARK    6  A    between atoms: C_17  and  C_18 
REMARK    7  A    between atoms: C_18  and  C_19 
REMARK    8  A    between atoms: C_19  and  O_21 
REMARK    9  A    between atoms: C_28  and  C_29 
REMARK   10  A    between atoms: C_29  and  C_30 
REMARK   11  A    between atoms: C_30  and  C_31 
REMARK   12  A    between atoms: C_31  and  O_33 
REMARK   13  A    between atoms: C_42  and  C_43 
REMARK   14  A    between atoms: C_43  and  C_44 
REMARK   15  A    between atoms: C_44  and  C_45 
REMARK   16  A    between atoms: C_45  and  O_47 
ROOT
HETATM    1  C   UNK     0     -16.176 -24.243  28.011  0.00  0.00     0.051 C 
HETATM    2  C   UNK     0     -17.487 -24.282  27.252  0.00  0.00    -0.031 A 
HETATM    3  C   UNK     0     -18.643 -23.544  27.454  0.00  0.00     0.021 A 
HETATM    4  N   UNK     0     -19.578 -23.934  26.556  0.00  0.00    -0.361 N 
HETATM    5  C   UNK     0     -19.040 -24.897  25.779  0.00  0.00     0.022 A 
HETATM    6  C   UNK     0     -17.733 -25.141  26.189  0.00  0.00    -0.027 A 
HETATM    7  C   UNK     0     -19.618 -25.591  24.585  0.00  0.00     0.115 C 
HETATM    8  C   UNK     0     -20.367 -24.723  23.589  0.00  0.00     0.021 A 
HETATM    9  N   UNK     0     -20.103 -23.461  23.215  0.00  0.00    -0.361 N 
HETATM   10  C   UNK     0     -21.083 -23.058  22.379  0.00  0.00     0.022 A 
HETATM   11  C   UNK     0     -21.998 -24.091  22.202  0.00  0.00    -0.027 A 
HETATM   12  C   UNK     0     -21.553 -25.143  22.962  0.00  0.00    -0.031 A 
HETATM   13  C   UNK     0     -22.233 -26.489  23.075  0.00  0.00     0.051 C 
HETATM   14  C   UNK     0     -21.224 -21.671  21.757  0.00  0.00     0.115 C 
HETATM   15  C   UNK     0     -21.376 -20.553  22.776  0.00  0.00     0.021 A 
HETATM   16  N   UNK     0     -20.523 -20.218  23.762  0.00  0.00    -0.361 N 
HETATM   17  C   UNK     0     -21.053 -19.227  24.482  0.00  0.00     0.022 A 
HETATM   18  C   UNK     0     -22.307 -18.893  23.933  0.00  0.00    -0.027 A 
HETATM   19  C   UNK     0     -22.497 -19.730  22.864  0.00  0.00    -0.031 A 
HETATM   20  C   UNK     0     -23.717 -19.683  21.962  0.00  0.00     0.051 C 
HETATM   21  C   UNK     0     -20.534 -18.547  25.729  0.00  0.00     0.115 C 
HETATM   22  C   UNK     0     -19.750 -19.388  26.707  0.00  0.00     0.022 A 
HETATM   23  N   UNK     0     -19.987 -20.648  27.096  0.00  0.00    -0.361 N 
HETATM   24  C   UNK     0     -18.958 -21.055  27.866  0.00  0.00     0.021 A 
HETATM   25  C   UNK     0     -18.040 -20.029  27.984  0.00  0.00    -0.031 A 
HETATM   26  C   UNK     0     -16.749 -19.992  28.775  0.00  0.00     0.051 C 
HETATM   27  C   UNK     0     -18.525 -18.951  27.252  0.00  0.00    -0.027 A 
HETATM   28  C   UNK     0     -18.732 -22.433  28.462  0.00  0.00     0.115 C 
HETATM   29  H   UNK     0     -20.624 -23.553  26.502  0.00  0.00     0.165 HD
HETATM   30  H   UNK     0     -19.198 -22.870  23.499  0.00  0.00     0.165 HD
HETATM   31  H   UNK     0     -19.505 -20.658  23.925  0.00  0.00     0.165 HD
HETATM   32  H   UNK     0     -20.906 -21.248  26.865  0.00  0.00     0.165 HD
ENDROOT
BRANCH   6  33
HETATM   33  C   UNK     0     -16.716 -26.118  25.656  0.00  0.00     0.051 C 
BRANCH  33  34
HETATM   34  C   UNK     0     -16.710 -27.385  26.478  0.00  0.00     0.114 C 
BRANCH  34  35
HETATM   35  C   UNK     0     -17.562 -28.382  25.768  0.00  0.00     0.139 C 
HETATM   36  O   UNK     0     -17.653 -28.359  24.506  0.00  0.00    -0.650 OA
BRANCH  35  37
HETATM   37  O   UNK     0     -18.281 -29.365  26.438  0.00  0.00    -0.776 OA
HETATM   38  H   UNK     0     -18.964 -29.140  27.143  0.00  0.00     0.167 HD
ENDBRANCH  35  37
ENDBRANCH  34  35
ENDBRANCH  33  34
ENDBRANCH   6  33
BRANCH  27  39
HETATM   39  C   UNK     0     -17.839 -17.632  27.201  0.00  0.00     0.051 C 
BRANCH  39  40
HETATM   40  C   UNK     0     -18.090 -16.677  28.280  0.00  0.00     0.114 C 
BRANCH  40  41
HETATM   41  C   UNK     0     -18.891 -15.489  28.087  0.00  0.00     0.139 C 
HETATM   42  O   UNK     0     -18.510 -14.351  28.393  0.00  0.00    -0.650 OA
BRANCH  41  43
HETATM   43  O   UNK     0     -20.189 -15.616  27.516  0.00  0.00    -0.776 OA
HETATM   44  H   UNK     0     -20.563 -16.557  27.532  0.00  0.00     0.167 HD
ENDBRANCH  41  43
ENDBRANCH  40  41
ENDBRANCH  39  40
ENDBRANCH  27  39
BRANCH  11  45
HETATM   45  C   UNK     0     -23.244 -24.112  21.358  0.00  0.00     0.051 C 
BRANCH  45  46
HETATM   46  C   UNK     0     -24.414 -23.447  21.987  0.00  0.00     0.114 C 
BRANCH  46  47
HETATM   47  C   UNK     0     -25.379 -24.518  22.368  0.00  0.00     0.139 C 
HETATM   48  O   UNK     0     -25.488 -24.819  23.564  0.00  0.00    -0.650 OA
BRANCH  47  49
HETATM   49  O   UNK     0     -26.129 -25.158  21.414  0.00  0.00    -0.776 OA
HETATM   50  H   UNK     0     -27.112 -24.915  21.239  0.00  0.00     0.167 HD
ENDBRANCH  47  49
ENDBRANCH  46  47
ENDBRANCH  45  46
ENDBRANCH  11  45
BRANCH  18  51
HETATM   51  C   UNK     0     -23.262 -17.821  24.389  0.00  0.00     0.051 C 
BRANCH  51  52
HETATM   52  C   UNK     0     -22.723 -16.508  23.840  0.00  0.00     0.114 C 
BRANCH  52  53
HETATM   53  C   UNK     0     -22.820 -15.418  24.830  0.00  0.00     0.139 C 
HETATM   54  O   UNK     0     -22.769 -15.674  26.044  0.00  0.00    -0.650 OA
BRANCH  53  55
HETATM   55  O   UNK     0     -22.971 -14.122  24.400  0.00  0.00    -0.776 OA
HETATM   56  H   UNK     0     -23.785 -13.736  23.983  0.00  0.00     0.167 HD
ENDBRANCH  53  55
ENDBRANCH  52  53
ENDBRANCH  51  52
ENDBRANCH  18  51
TORSDOF 16
ENDMDL
MODEL 3
REMARK VINA RESULT:      -9.6      2.187      7.095
REMARK  16 active torsions:
REMARK  status: ('A' for Active; 'I' for Inactive)
REMARK    1  A    between atoms: C_6  and  C_7 
REMARK    2  A    between atoms: C_7  and  C_8 
REMARK    3  A    between atoms: C_8  and  C_9 
REMARK    4  A    between atoms: C_9  and  O_11 
REMARK    5  A    between atoms: C_16  and  C_17 
REMARK    6  A    between atoms: C_17  and  C_18 
REMARK    7  A    between atoms: C_18  and  C_19 
REMARK    8  A    between atoms: C_19  and  O_21 
REMARK    9  A    between atoms: C_28  and  C_29 
REMARK   10  A    between atoms: C_29  and  C_30 
REMARK   11  A    between atoms: C_30  and  C_31 
REMARK   12  A    between atoms: C_31  and  O_33 
REMARK   13  A    between atoms: C_42  and  C_43 
REMARK   14  A    between atoms: C_43  and  C_44 
REMARK   15  A    between atoms: C_44  and  C_45 
REMARK   16  A    between atoms: C_45  and  O_47 
ROOT
HETATM    1  C   UNK     0     -20.279 -16.212  26.942  0.00  0.00     0.051 C 
HETATM    2  C   UNK     0     -20.967 -16.709  25.687  0.00  0.00    -0.031 A 
HETATM    3  C   UNK     0     -20.542 -17.654  24.767  0.00  0.00     0.021 A 
HETATM    4  N   UNK     0     -21.466 -17.759  23.782  0.00  0.00    -0.361 N 
HETATM    5  C   UNK     0     -22.475 -16.907  24.060  0.00  0.00     0.022 A 
HETATM    6  C   UNK     0     -22.194 -16.232  25.243  0.00  0.00    -0.027 A 
HETATM    7  C   UNK     0     -23.774 -16.705  23.344  0.00  0.00     0.115 C 
HETATM    8  C   UNK     0     -24.498 -17.956  22.879  0.00  0.00     0.021 A 
HETATM    9  N   UNK     0     -24.568 -19.154  23.480  0.00  0.00    -0.361 N 
HETATM   10  C   UNK     0     -25.238 -19.994  22.664  0.00  0.00     0.022 A 
HETATM   11  C   UNK     0     -25.618 -19.317  21.509  0.00  0.00    -0.027 A 
HETATM   12  C   UNK     0     -25.155 -18.033  21.638  0.00  0.00    -0.031 A 
HETATM   13  C   UNK     0     -25.339 -16.930  20.619  0.00  0.00     0.051 C 
HETATM   14  C   UNK     0     -25.500 -21.477  22.914  0.00  0.00     0.115 C 
HETATM   15  C   UNK     0     -24.236 -22.312  23.044  0.00  0.00     0.021 A 
HETATM   16  N   UNK     0     -23.237 -22.157  23.933  0.00  0.00    -0.361 N 
HETATM   17  C   UNK     0     -22.277 -23.047  23.672  0.00  0.00     0.022 A 
HETATM   18  C   UNK     0     -22.674 -23.825  22.566  0.00  0.00    -0.027 A 
HETATM   19  C   UNK     0     -23.903 -23.356  22.183  0.00  0.00    -0.031 A 
HETATM   20  C   UNK     0     -24.713 -23.944  21.042  0.00  0.00     0.051 C 
HETATM   21  C   UNK     0     -20.927 -23.239  24.325  0.00  0.00     0.115 C 
HETATM   22  C   UNK     0     -20.215 -22.007  24.833  0.00  0.00     0.022 A 
HETATM   23  N   UNK     0     -20.132 -20.801  24.257  0.00  0.00    -0.361 N 
HETATM   24  C   UNK     0     -19.529 -19.960  25.121  0.00  0.00     0.021 A 
HETATM   25  C   UNK     0     -19.207 -20.644  26.278  0.00  0.00    -0.031 A 
HETATM   26  C   UNK     0     -18.488 -20.143  27.513  0.00  0.00     0.051 C 
HETATM   27  C   UNK     0     -19.636 -21.956  26.117  0.00  0.00    -0.027 A 
HETATM   28  C   UNK     0     -19.293 -18.468  24.956  0.00  0.00     0.115 C 
HETATM   29  H   UNK     0     -21.381 -18.405  22.878  0.00  0.00     0.165 HD
HETATM   30  H   UNK     0     -24.189 -19.396  24.503  0.00  0.00     0.165 HD
HETATM   31  H   UNK     0     -23.230 -21.437  24.792  0.00  0.00     0.165 HD
HETATM   32  H   UNK     0     -20.460 -20.542  23.217  0.00  0.00     0.165 HD
ENDROOT
BRANCH   6  33
HETATM   33  C   UNK     0     -22.990 -15.181  25.973  0.00  0.00     0.051 C 
BRANCH  33  34
HETATM   34  C   UNK     0     -23.427 -14.088  25.026  0.00  0.00     0.114 C 
BRANCH  34  35
HETATM   35  C   UNK     0     -24.644 -13.452  25.609  0.00  0.00     0.139 C 
HETATM   36  O   UNK     0     -25.796 -13.848  25.267  0.00  0.00    -0.650 OA
BRANCH  35  37
HETATM   37  O   UNK     0     -24.578 -12.420  26.537  0.00  0.00    -0.776 OA
HETATM   38  H   UNK     0     -23.749 -11.860  26.657  0.00  0.00     0.167 HD
ENDBRANCH  35  37
ENDBRANCH  34  35
ENDBRANCH  33  34
ENDBRANCH   6  33
BRANCH  27  39
HETATM   39  C   UNK     0     -19.398 -23.017  27.133  0.00  0.00     0.051 C 
BRANCH  39  40
HETATM   40  C   UNK     0     -20.410 -23.227  28.168  0.00  0.00     0.114 C 
BRANCH  40  41
HETATM   41  C   UNK     0     -20.064 -23.615  29.517  0.00  0.00     0.139 C 
HETATM   42  O   UNK     0     -20.125 -22.847  30.486  0.00  0.00    -0.650 OA
BRANCH  41  43
HETATM   43  O   UNK     0     -19.629 -24.949  29.761  0.00  0.00    -0.776 OA
HETATM   44  H   UNK     0     -20.295 -25.663  29.493  0.00  0.00     0.167 HD
ENDBRANCH  41  43
ENDBRANCH  40  41
ENDBRANCH  39  40
ENDBRANCH  27  39
BRANCH  11  45
HETATM   45  C   UNK     0     -26.387 -19.835  20.323  0.00  0.00     0.051 C 
BRANCH  45  46
HETATM   46  C   UNK     0     -25.647 -19.751  19.038  0.00  0.00     0.114 C 
BRANCH  46  47
HETATM   47  C   UNK     0     -24.965 -21.061  18.834  0.00  0.00     0.139 C 
HETATM   48  O   UNK     0     -25.617 -22.002  18.360  0.00  0.00    -0.650 OA
BRANCH  47  49
HETATM   49  O   UNK     0     -23.643 -21.224  19.166  0.00  0.00    -0.776 OA
HETATM   50  H   UNK     0     -22.933 -21.475  18.468  0.00  0.00     0.167 HD
ENDBRANCH  47  49
ENDBRANCH  46  47
ENDBRANCH  45  46
ENDBRANCH  11  45
BRANCH  18  51
HETATM   51  C   UNK     0     -21.931 -24.968  21.924  0.00  0.00     0.051 C 
BRANCH  51  52
HETATM   52  C   UNK     0     -22.317 -26.218  22.700  0.00  0.00     0.114 C 
BRANCH  52  53
HETATM   53  C   UNK     0     -21.146 -26.857  23.331  0.00  0.00     0.139 C 
HETATM   54  O   UNK     0     -20.005 -26.422  23.106  0.00  0.00    -0.650 OA
BRANCH  53  55
HETATM   55  O   UNK     0     -21.326 -27.936  24.162  0.00  0.00    -0.776 OA
HETATM   56  H   UNK     0     -21.243 -27.931  25.151  0.00  0.00     0.167 HD
ENDBRANCH  53  55
ENDBRANCH  52  53
ENDBRANCH  51  52
ENDBRANCH  18  51
TORSDOF 16
ENDMDL
MODEL 4
REMARK VINA RESULT:      -9.5      4.225     10.927
REMARK  16 active torsions:
REMARK  status: ('A' for Active; 'I' for Inactive)
REMARK    1  A    between atoms: C_6  and  C_7 
REMARK    2  A    between atoms: C_7  and  C_8 
REMARK    3  A    between atoms: C_8  and  C_9 
REMARK    4  A    between atoms: C_9  and  O_11 
REMARK    5  A    between atoms: C_16  and  C_17 
REMARK    6  A    between atoms: C_17  and  C_18 
REMARK    7  A    between atoms: C_18  and  C_19 
REMARK    8  A    between atoms: C_19  and  O_21 
REMARK    9  A    between atoms: C_28  and  C_29 
REMARK   10  A    between atoms: C_29  and  C_30 
REMARK   11  A    between atoms: C_30  and  C_31 
REMARK   12  A    between atoms: C_31  and  O_33 
REMARK   13  A    between atoms: C_42  and  C_43 
REMARK   14  A    between atoms: C_43  and  C_44 
REMARK   15  A    between atoms: C_44  and  C_45 
REMARK   16  A    between atoms: C_45  and  O_47 
ROOT
HETATM    1  C   UNK     0     -25.112 -20.785  17.255  0.00  0.00     0.051 C 
HETATM    2  C   UNK     0     -24.182 -21.981  17.263  0.00  0.00    -0.031 A 
HETATM    3  C   UNK     0     -23.107 -22.254  18.094  0.00  0.00     0.021 A 
HETATM    4  N   UNK     0     -22.544 -23.426  17.716  0.00  0.00    -0.361 N 
HETATM    5  C   UNK     0     -23.242 -23.911  16.669  0.00  0.00     0.022 A 
HETATM    6  C   UNK     0     -24.272 -23.030  16.357  0.00  0.00    -0.027 A 
HETATM    7  C   UNK     0     -23.091 -25.212  15.944  0.00  0.00     0.115 C 
HETATM    8  C   UNK     0     -22.851 -26.444  16.798  0.00  0.00     0.021 A 
HETATM    9  N   UNK     0     -23.350 -26.731  18.010  0.00  0.00    -0.361 N 
HETATM   10  C   UNK     0     -22.795 -27.888  18.429  0.00  0.00     0.022 A 
HETATM   11  C   UNK     0     -21.921 -28.364  17.455  0.00  0.00    -0.027 A 
HETATM   12  C   UNK     0     -21.952 -27.459  16.425  0.00  0.00    -0.031 A 
HETATM   13  C   UNK     0     -21.158 -27.568  15.142  0.00  0.00     0.051 C 
HETATM   14  C   UNK     0     -23.024 -28.561  19.779  0.00  0.00     0.115 C 
HETATM   15  C   UNK     0     -22.605 -27.712  20.969  0.00  0.00     0.021 A 
HETATM   16  N   UNK     0     -23.054 -26.488  21.303  0.00  0.00    -0.361 N 
HETATM   17  C   UNK     0     -22.387 -26.054  22.375  0.00  0.00     0.022 A 
HETATM   18  C   UNK     0     -21.465 -27.047  22.763  0.00  0.00    -0.027 A 
HETATM   19  C   UNK     0     -21.613 -28.080  21.875  0.00  0.00    -0.031 A 
HETATM   20  C   UNK     0     -20.828 -29.378  21.953  0.00  0.00     0.051 C 
HETATM   21  C   UNK     0     -22.463 -24.727  23.094  0.00  0.00     0.115 C 
HETATM   22  C   UNK     0     -22.744 -23.497  22.263  0.00  0.00     0.022 A 
HETATM   23  N   UNK     0     -22.265 -23.187  21.051  0.00  0.00    -0.361 N 
HETATM   24  C   UNK     0     -22.890 -22.073  20.621  0.00  0.00     0.021 A 
HETATM   25  C   UNK     0     -23.787 -21.649  21.583  0.00  0.00    -0.031 A 
HETATM   26  C   UNK     0     -24.687 -20.431  21.577  0.00  0.00     0.051 C 
HETATM   27  C   UNK     0     -23.711 -22.545  22.644  0.00  0.00    -0.027 A 
HETATM   28  C   UNK     0     -22.750 -21.391  19.271  0.00  0.00     0.115 C 
HETATM   29  H   UNK     0     -21.633 -23.884  18.168  0.00  0.00     0.165 HD
HETATM   30  H   UNK     0     -24.133 -26.146  18.551  0.00  0.00     0.165 HD
HETATM   31  H   UNK     0     -23.893 -25.938  20.802  0.00  0.00     0.165 HD
HETATM   32  H   UNK     0     -21.448 -23.728  20.506  0.00  0.00     0.165 HD
ENDROOT
BRANCH   6  33
HETATM   33  C   UNK     0     -25.321 -23.107  15.276  0.00  0.00     0.051 C 
BRANCH  33  34
HETATM   34  C   UNK     0     -25.053 -22.086  14.197  0.00  0.00     0.114 C 
BRANCH  34  35
HETATM   35  C   UNK     0     -23.729 -22.412  13.592  0.00  0.00     0.139 C 
HETATM   36  O   UNK     0     -22.729 -21.669  13.810  0.00  0.00    -0.650 OA
BRANCH  35  37
HETATM   37  O   UNK     0     -23.529 -23.522  12.781  0.00  0.00    -0.776 OA
HETATM   38  H   UNK     0     -24.264 -23.905  12.207  0.00  0.00     0.167 HD
ENDBRANCH  35  37
ENDBRANCH  34  35
ENDBRANCH  33  34
ENDBRANCH   6  33
BRANCH  27  39
HETATM   39  C   UNK     0     -24.485 -22.376  23.904  0.00  0.00     0.051 C 
BRANCH  39  40
HETATM   40  C   UNK     0     -25.526 -23.355  24.215  0.00  0.00     0.114 C 
BRANCH  40  41
HETATM   41  C   UNK     0     -26.558 -23.710  23.267  0.00  0.00     0.139 C 
HETATM   42  O   UNK     0     -26.478 -24.682  22.503  0.00  0.00    -0.650 OA
BRANCH  41  43
HETATM   43  O   UNK     0     -27.735 -22.912  23.194  0.00  0.00    -0.776 OA
HETATM   44  H   UNK     0     -28.556 -23.405  22.864  0.00  0.00     0.167 HD
ENDBRANCH  41  43
ENDBRANCH  40  41
ENDBRANCH  39  40
ENDBRANCH  27  39
BRANCH  11  45
HETATM   45  C   UNK     0     -21.084 -29.615  17.471  0.00  0.00     0.051 C 
BRANCH  45  46
HETATM   46  C   UNK     0     -21.751 -30.798  16.869  0.00  0.00     0.114 C 
BRANCH  46  47
HETATM   47  C   UNK     0     -20.897 -31.984  17.165  0.00  0.00     0.139 C 
HETATM   48  O   UNK     0     -19.830 -31.810  17.769  0.00  0.00    -0.650 OA
BRANCH  47  49
HETATM   49  O   UNK     0     -21.283 -33.242  16.776  0.00  0.00    -0.776 OA
HETATM   50  H   UNK     0     -21.340 -33.513  15.787  0.00  0.00     0.167 HD
ENDBRANCH  47  49
ENDBRANCH  46  47
ENDBRANCH  45  46
ENDBRANCH  11  45
BRANCH  18  51
HETATM   51  C   UNK     0     -20.512 -27.020  23.929  0.00  0.00     0.051 C 
BRANCH  51  52
HETATM   52  C   UNK     0     -19.208 -26.440  23.400  0.00  0.00     0.114 C 
BRANCH  52  53
HETATM   53  C   UNK     0     -18.183 -26.338  24.457  0.00  0.00     0.139 C 
HETATM   54  O   UNK     0     -18.520 -26.108  25.629  0.00  0.00    -0.650 OA
BRANCH  53  55
HETATM   55  O   UNK     0     -16.857 -26.496  24.134  0.00  0.00    -0.776 OA
HETATM   56  H   UNK     0     -16.093 -26.025  24.559  0.00  0.00     0.167 HD
ENDBRANCH  53  55
ENDBRANCH  52  53
ENDBRANCH  51  52
ENDBRANCH  18  51
TORSDOF 16
ENDMDL
MODEL 5
REMARK VINA RESULT:      -9.4      2.760      9.800
REMARK  16 active torsions:
REMARK  status: ('A' for Active; 'I' for Inactive)
REMARK    1  A    between atoms: C_6  and  C_7 
REMARK    2  A    between atoms: C_7  and  C_8 
REMARK    3  A    between atoms: C_8  and  C_9 
REMARK    4  A    between atoms: C_9  and  O_11 
REMARK    5  A    between atoms: C_16  and  C_17 
REMARK    6  A    between atoms: C_17  and  C_18 
REMARK    7  A    between atoms: C_18  and  C_19 
REMARK    8  A    between atoms: C_19  and  O_21 
REMARK    9  A    between atoms: C_28  and  C_29 
REMARK   10  A    between atoms: C_29  and  C_30 
REMARK   11  A    between atoms: C_30  and  C_31 
REMARK   12  A    between atoms: C_31  and  O_33 
REMARK   13  A    between atoms: C_42  and  C_43 
REMARK   14  A    between atoms: C_43  and  C_44 
REMARK   15  A    between atoms: C_44  and  C_45 
REMARK   16  A    between atoms: C_45  and  O_47 
ROOT
HETATM    1  C   UNK     0     -23.538 -23.272  21.306  0.00  0.00     0.051 C 
HETATM    2  C   UNK     0     -22.229 -23.485  22.041  0.00  0.00    -0.031 A 
HETATM    3  C   UNK     0     -21.177 -22.604  22.236  0.00  0.00     0.021 A 
HETATM    4  N   UNK     0     -20.196 -23.234  22.925  0.00  0.00    -0.361 N 
HETATM    5  C   UNK     0     -20.604 -24.494  23.181  0.00  0.00     0.022 A 
HETATM    6  C   UNK     0     -21.871 -24.686  22.639  0.00  0.00    -0.027 A 
HETATM    7  C   UNK     0     -19.938 -25.566  23.986  0.00  0.00     0.115 C 
HETATM    8  C   UNK     0     -19.301 -25.137  25.296  0.00  0.00     0.021 A 
HETATM    9  N   UNK     0     -19.721 -24.204  26.164  0.00  0.00    -0.361 N 
HETATM   10  C   UNK     0     -18.796 -24.094  27.142  0.00  0.00     0.022 A 
HETATM   11  C   UNK     0     -17.756 -24.987  26.901  0.00  0.00    -0.027 A 
HETATM   12  C   UNK     0     -18.068 -25.648  25.740  0.00  0.00    -0.031 A 
HETATM   13  C   UNK     0     -17.223 -26.721  25.092  0.00  0.00     0.051 C 
HETATM   14  C   UNK     0     -18.830 -23.110  28.307  0.00  0.00     0.115 C 
HETATM   15  C   UNK     0     -18.825 -21.650  27.881  0.00  0.00     0.021 A 
HETATM   16  N   UNK     0     -19.718 -21.021  27.094  0.00  0.00    -0.361 N 
HETATM   17  C   UNK     0     -19.321 -19.762  26.901  0.00  0.00     0.022 A 
HETATM   18  C   UNK     0     -18.117 -19.557  27.604  0.00  0.00    -0.027 A 
HETATM   19  C   UNK     0     -17.818 -20.747  28.214  0.00  0.00    -0.031 A 
HETATM   20  C   UNK     0     -16.610 -20.955  29.110  0.00  0.00     0.051 C 
HETATM   21  C   UNK     0     -19.927 -18.672  26.045  0.00  0.00     0.115 C 
HETATM   22  C   UNK     0     -20.603 -19.089  24.760  0.00  0.00     0.022 A 
HETATM   23  N   UNK     0     -20.209 -20.018  23.879  0.00  0.00    -0.361 N 
HETATM   24  C   UNK     0     -21.182 -20.166  22.957  0.00  0.00     0.021 A 
HETATM   25  C   UNK     0     -22.223 -19.304  23.246  0.00  0.00    -0.031 A 
HETATM   26  C   UNK     0     -23.512 -19.077  22.484  0.00  0.00     0.051 C 
HETATM   27  C   UNK     0     -21.876 -18.605  24.396  0.00  0.00    -0.027 A 
HETATM   28  C   UNK     0     -21.234 -21.163  21.813  0.00  0.00     0.115 C 
HETATM   29  H   UNK     0     -19.207 -22.796  23.192  0.00  0.00     0.165 HD
HETATM   30  H   UNK     0     -20.695 -23.657  26.117  0.00  0.00     0.165 HD
HETATM   31  H   UNK     0     -20.673 -21.461  26.704  0.00  0.00     0.165 HD
HETATM   32  H   UNK     0     -19.221 -20.547  23.875  0.00  0.00     0.165 HD
ENDROOT
BRANCH   6  33
HETATM   33  C   UNK     0     -22.754 -25.908  22.644  0.00  0.00     0.051 C 
BRANCH  33  34
HETATM   34  C   UNK     0     -23.808 -25.802  23.721  0.00  0.00     0.114 C 
BRANCH  34  35
HETATM   35  C   UNK     0     -25.044 -26.454  23.201  0.00  0.00     0.139 C 
HETATM   36  O   UNK     0     -25.519 -26.116  22.078  0.00  0.00    -0.650 OA
BRANCH  35  37
HETATM   37  O   UNK     0     -25.721 -27.444  23.904  0.00  0.00    -0.776 OA
HETATM   38  H   UNK     0     -25.522 -27.644  24.871  0.00  0.00     0.167 HD
ENDBRANCH  35  37
ENDBRANCH  34  35
ENDBRANCH  33  34
ENDBRANCH   6  33
BRANCH  27  39
HETATM   39  C   UNK     0     -22.723 -17.528  24.977  0.00  0.00     0.051 C 
BRANCH  39  40
HETATM   40  C   UNK     0     -22.591 -16.174  24.439  0.00  0.00     0.114 C 
BRANCH  40  41
HETATM   41  C   UNK     0     -23.191 -15.028  25.084  0.00  0.00     0.139 C 
HETATM   42  O   UNK     0     -23.695 -15.065  26.214  0.00  0.00    -0.650 OA
BRANCH  41  43
HETATM   43  O   UNK     0     -23.212 -13.781  24.396  0.00  0.00    -0.776 OA
HETATM   44  H   UNK     0     -22.577 -13.726  23.609  0.00  0.00     0.167 HD
ENDBRANCH  41  43
ENDBRANCH  40  41
ENDBRANCH  39  40
ENDBRANCH  27  39
BRANCH  11  45
HETATM   45  C   UNK     0     -16.514 -25.228  27.716  0.00  0.00     0.051 C 
BRANCH  45  46
HETATM   46  C   UNK     0     -16.603 -26.400  28.625  0.00  0.00     0.114 C 
BRANCH  46  47
HETATM   47  C   UNK     0     -15.306 -27.129  28.532  0.00  0.00     0.139 C 
HETATM   48  O   UNK     0     -14.435 -26.899  29.383  0.00  0.00    -0.650 OA
BRANCH  47  49
HETATM   49  O   UNK     0     -15.080 -28.035  27.527  0.00  0.00    -0.776 OA
HETATM   50  H   UNK     0     -15.756 -28.191  26.770  0.00  0.00     0.167 HD
ENDBRANCH  47  49
ENDBRANCH  46  47
ENDBRANCH  45  46
ENDBRANCH  11  45
BRANCH  18  51
HETATM   51  C   UNK     0     -17.308 -18.290  27.705  0.00  0.00     0.051 C 
BRANCH  51  52
HETATM   52  C   UNK     0     -18.189 -17.278  28.423  0.00  0.00     0.114 C 
BRANCH  52  53
HETATM   53  C   UNK     0     -18.117 -15.945  27.795  0.00  0.00     0.139 C 
HETATM   54  O   UNK     0     -18.540 -14.948  28.402  0.00  0.00    -0.650 OA
BRANCH  53  55
HETATM   55  O   UNK     0     -17.585 -15.814  26.535  0.00  0.00    -0.776 OA
HETATM   56  H   UNK     0     -17.436 -14.961  26.049  0.00  0.00     0.167 HD
ENDBRANCH  53  55
ENDBRANCH  52  53
ENDBRANCH  51  52
ENDBRANCH  18  51
TORSDOF 16
ENDMDL
MODEL 6
REMARK VINA RESULT:      -9.3      1.727      6.896
REMARK  16 active torsions:
REMARK  status: ('A' for Active; 'I' for Inactive)
REMARK    1  A    between atoms: C_6  and  C_7 
REMARK    2  A    between atoms: C_7  and  C_8 
REMARK    3  A    between atoms: C_8  and  C_9 
REMARK    4  A    between atoms: C_9  and  O_11 
REMARK    5  A    between atoms: C_16  and  C_17 
REMARK    6  A    between atoms: C_17  and  C_18 
REMARK    7  A    between atoms: C_18  and  C_19 
REMARK    8  A    between atoms: C_19  and  O_21 
REMARK    9  A    between atoms: C_28  and  C_29 
REMARK   10  A    between atoms: C_29  and  C_30 
REMARK   11  A    between atoms: C_30  and  C_31 
REMARK   12  A    between atoms: C_31  and  O_33 
REMARK   13  A    between atoms: C_42  and  C_43 
REMARK   14  A    between atoms: C_43  and  C_44 
REMARK   15  A    between atoms: C_44  and  C_45 
REMARK   16  A    between atoms: C_45  and  O_47 
ROOT
HETATM    1  C   UNK     0     -22.759 -16.014  23.579  0.00  0.00     0.051 C 
HETATM    2  C   UNK     0     -22.488 -17.386  24.162  0.00  0.00    -0.031 A 
HETATM    3  C   UNK     0     -23.310 -18.501  24.206  0.00  0.00     0.021 A 
HETATM    4  N   UNK     0     -22.664 -19.501  24.851  0.00  0.00    -0.361 N 
HETATM    5  C   UNK     0     -21.444 -19.050  25.212  0.00  0.00     0.022 A 
HETATM    6  C   UNK     0     -21.302 -17.730  24.799  0.00  0.00    -0.027 A 
HETATM    7  C   UNK     0     -20.313 -19.783  25.863  0.00  0.00     0.115 C 
HETATM    8  C   UNK     0     -20.025 -21.184  25.353  0.00  0.00     0.021 A 
HETATM    9  N   UNK     0     -20.122 -21.654  24.100  0.00  0.00    -0.361 N 
HETATM   10  C   UNK     0     -19.859 -22.978  24.127  0.00  0.00     0.022 A 
HETATM   11  C   UNK     0     -19.576 -23.369  25.432  0.00  0.00    -0.027 A 
HETATM   12  C   UNK     0     -19.678 -22.244  26.210  0.00  0.00    -0.031 A 
HETATM   13  C   UNK     0     -19.449 -22.189  27.704  0.00  0.00     0.051 C 
HETATM   14  C   UNK     0     -19.916 -23.933  22.938  0.00  0.00     0.115 C 
HETATM   15  C   UNK     0     -21.288 -24.029  22.291  0.00  0.00     0.021 A 
HETATM   16  N   UNK     0     -22.013 -23.032  21.751  0.00  0.00    -0.361 N 
HETATM   17  C   UNK     0     -23.193 -23.514  21.352  0.00  0.00     0.022 A 
HETATM   18  C   UNK     0     -23.234 -24.894  21.637  0.00  0.00    -0.027 A 
HETATM   19  C   UNK     0     -22.034 -25.204  22.224  0.00  0.00    -0.031 A 
HETATM   20  C   UNK     0     -21.646 -26.605  22.659  0.00  0.00     0.051 C 
HETATM   21  C   UNK     0     -24.383 -22.799  20.754  0.00  0.00     0.115 C 
HETATM   22  C   UNK     0     -24.655 -21.388  21.220  0.00  0.00     0.022 A 
HETATM   23  N   UNK     0     -24.563 -20.891  22.460  0.00  0.00    -0.361 N 
HETATM   24  C   UNK     0     -24.752 -19.557  22.397  0.00  0.00     0.021 A 
HETATM   25  C   UNK     0     -24.982 -19.188  21.086  0.00  0.00    -0.031 A 
HETATM   26  C   UNK     0     -25.286 -17.816  20.521  0.00  0.00     0.051 C 
HETATM   27  C   UNK     0     -24.925 -20.343  20.313  0.00  0.00    -0.027 A 
HETATM   28  C   UNK     0     -24.651 -18.550  23.529  0.00  0.00     0.115 C 
HETATM   29  H   UNK     0     -23.088 -20.505  25.082  0.00  0.00     0.165 HD
HETATM   30  H   UNK     0     -20.327 -21.044  23.186  0.00  0.00     0.165 HD
HETATM   31  H   UNK     0     -21.669 -21.976  21.605  0.00  0.00     0.165 HD
HETATM   32  H   UNK     0     -24.406 -21.483  23.398  0.00  0.00     0.165 HD
ENDROOT
BRANCH   6  33
HETATM   33  C   UNK     0     -20.142 -16.781  24.963  0.00  0.00     0.051 C 
BRANCH  33  34
HETATM   34  C   UNK     0     -19.984 -16.374  26.409  0.00  0.00     0.114 C 
BRANCH  34  35
HETATM   35  C   UNK     0     -18.580 -16.678  26.807  0.00  0.00     0.139 C 
HETATM   36  O   UNK     0     -18.333 -17.648  27.583  0.00  0.00    -0.650 OA
BRANCH  35  37
HETATM   37  O   UNK     0     -17.496 -15.934  26.358  0.00  0.00    -0.776 OA
HETATM   38  H   UNK     0     -17.606 -15.155  25.729  0.00  0.00     0.167 HD
ENDBRANCH  35  37
ENDBRANCH  34  35
ENDBRANCH  33  34
ENDBRANCH   6  33
BRANCH  27  39
HETATM   39  C   UNK     0     -25.195 -20.353  18.850  0.00  0.00     0.051 C 
BRANCH  39  40
HETATM   40  C   UNK     0     -24.161 -19.844  17.949  0.00  0.00     0.114 C 
BRANCH  40  41
HETATM   41  C   UNK     0     -22.974 -20.605  17.631  0.00  0.00     0.139 C 
HETATM   42  O   UNK     0     -22.362 -21.295  18.457  0.00  0.00    -0.650 OA
BRANCH  41  43
HETATM   43  O   UNK     0     -22.467 -20.571  16.300  0.00  0.00    -0.776 OA
HETATM   44  H   UNK     0     -22.853 -21.278  15.687  0.00  0.00     0.167 HD
ENDBRANCH  41  43
ENDBRANCH  40  41
ENDBRANCH  39  40
ENDBRANCH  27  39
BRANCH  11  45
HETATM   45  C   UNK     0     -19.218 -24.737  25.949  0.00  0.00     0.051 C 
BRANCH  45  46
HETATM   46  C   UNK     0     -17.821 -25.148  25.659  0.00  0.00     0.114 C 
BRANCH  46  47
HETATM   47  C   UNK     0     -16.980 -24.695  26.803  0.00  0.00     0.139 C 
HETATM   48  O   UNK     0     -17.223 -25.146  27.932  0.00  0.00    -0.650 OA
BRANCH  47  49
HETATM   49  O   UNK     0     -15.960 -23.798  26.614  0.00  0.00    -0.776 OA
HETATM   50  H   UNK     0     -15.195 -23.691  27.291  0.00  0.00     0.167 HD
ENDBRANCH  47  49
ENDBRANCH  46  47
ENDBRANCH  45  46
ENDBRANCH  11  45
BRANCH  18  51
HETATM   51  C   UNK     0     -24.347 -25.867  21.346  0.00  0.00     0.051 C 
BRANCH  51  52
HETATM   52  C   UNK     0     -25.277 -25.821  22.549  0.00  0.00     0.114 C 
BRANCH  52  53
HETATM   53  C   UNK     0     -26.479 -25.006  22.283  0.00  0.00     0.139 C 
HETATM   54  O   UNK     0     -26.783 -24.079  23.050  0.00  0.00    -0.650 OA
BRANCH  53  55
HETATM   55  O   UNK     0     -27.259 -25.283  21.187  0.00  0.00    -0.776 OA
HETATM   56  H   UNK     0     -27.230 -26.114  20.644  0.00  0.00     0.167 HD
ENDBRANCH  53  55
ENDBRANCH  52  53
ENDBRANCH  51  52
ENDBRANCH  18  51
TORSDOF 16
ENDMDL
MODEL 7
REMARK VINA RESULT:      -9.2      4.010      8.757
REMARK  16 active torsions:
REMARK  status: ('A' for Active; 'I' for Inactive)
REMARK    1  A    between atoms: C_6  and  C_7 
REMARK    2  A    between atoms: C_7  and  C_8 
REMARK    3  A    between atoms: C_8  and  C_9 
REMARK    4  A    between atoms: C_9  and  O_11 
REMARK    5  A    between atoms: C_16  and  C_17 
REMARK    6  A    between atoms: C_17  and  C_18 
REMARK    7  A    between atoms: C_18  and  C_19 
REMARK    8  A    between atoms: C_19  and  O_21 
REMARK    9  A    between atoms: C_28  and  C_29 
REMARK   10  A    between atoms: C_29  and  C_30 
REMARK   11  A    between atoms: C_30  and  C_31 
REMARK   12  A    between atoms: C_31  and  O_33 
REMARK   13  A    between atoms: C_42  and  C_43 
REMARK   14  A    between atoms: C_43  and  C_44 
REMARK   15  A    between atoms: C_44  and  C_45 
REMARK   16  A    between atoms: C_45  and  O_47 
ROOT
HETATM    1  C   UNK     0     -21.286 -29.047  16.530  0.00  0.00     0.051 C 
HETATM    2  C   UNK     0     -22.131 -27.814  16.779  0.00  0.00    -0.031 A 
HETATM    3  C   UNK     0     -23.003 -27.542  17.822  0.00  0.00     0.021 A 
HETATM    4  N   UNK     0     -23.567 -26.327  17.619  0.00  0.00    -0.361 N 
HETATM    5  C   UNK     0     -23.067 -25.817  16.475  0.00  0.00     0.022 A 
HETATM    6  C   UNK     0     -22.168 -26.722  15.922  0.00  0.00    -0.027 A 
HETATM    7  C   UNK     0     -23.291 -24.473  15.854  0.00  0.00     0.115 C 
HETATM    8  C   UNK     0     -23.289 -23.280  16.794  0.00  0.00     0.021 A 
HETATM    9  N   UNK     0     -22.544 -23.081  17.892  0.00  0.00    -0.361 N 
HETATM   10  C   UNK     0     -22.943 -21.926  18.466  0.00  0.00     0.022 A 
HETATM   11  C   UNK     0     -23.967 -21.361  17.712  0.00  0.00    -0.027 A 
HETATM   12  C   UNK     0     -24.190 -22.208  16.657  0.00  0.00    -0.031 A 
HETATM   13  C   UNK     0     -25.217 -21.996  15.567  0.00  0.00     0.051 C 
HETATM   14  C   UNK     0     -22.414 -21.339  19.771  0.00  0.00     0.115 C 
HETATM   15  C   UNK     0     -22.631 -22.233  20.982  0.00  0.00     0.021 A 
HETATM   16  N   UNK     0     -22.189 -23.491  21.163  0.00  0.00    -0.361 N 
HETATM   17  C   UNK     0     -22.651 -23.955  22.327  0.00  0.00     0.022 A 
HETATM   18  C   UNK     0     -23.423 -22.946  22.937  0.00  0.00    -0.027 A 
HETATM   19  C   UNK     0     -23.402 -21.873  22.085  0.00  0.00    -0.031 A 
HETATM   20  C   UNK     0     -24.085 -20.549  22.378  0.00  0.00     0.051 C 
HETATM   21  C   UNK     0     -22.504 -25.322  22.955  0.00  0.00     0.115 C 
HETATM   22  C   UNK     0     -22.460 -26.514  22.029  0.00  0.00     0.022 A 
HETATM   23  N   UNK     0     -23.187 -26.737  20.927  0.00  0.00    -0.361 N 
HETATM   24  C   UNK     0     -22.720 -27.852  20.330  0.00  0.00     0.021 A 
HETATM   25  C   UNK     0     -21.673 -28.365  21.071  0.00  0.00    -0.031 A 
HETATM   26  C   UNK     0     -20.858 -29.619  20.828  0.00  0.00     0.051 C 
HETATM   27  C   UNK     0     -21.488 -27.527  22.164  0.00  0.00    -0.027 A 
HETATM   28  C   UNK     0     -23.163 -28.452  19.006  0.00  0.00     0.115 C 
HETATM   29  H   UNK     0     -24.344 -25.857  18.265  0.00  0.00     0.165 HD
HETATM   30  H   UNK     0     -21.701 -23.729  18.237  0.00  0.00     0.165 HD
HETATM   31  H   UNK     0     -21.498 -24.048  20.479  0.00  0.00     0.165 HD
HETATM   32  H   UNK     0     -24.066 -26.132  20.583  0.00  0.00     0.165 HD
ENDROOT
BRANCH   6  33
HETATM   33  C   UNK     0     -21.353 -26.631  14.656  0.00  0.00     0.051 C 
BRANCH  33  34
HETATM   34  C   UNK     0     -22.242 -26.733  13.440  0.00  0.00     0.114 C 
BRANCH  34  35
HETATM   35  C   UNK     0     -21.821 -25.664  12.489  0.00  0.00     0.139 C 
HETATM   36  O   UNK     0     -20.793 -25.821  11.768  0.00  0.00    -0.650 OA
BRANCH  35  37
HETATM   37  O   UNK     0     -22.520 -24.471  12.346  0.00  0.00    -0.776 OA
HETATM   38  H   UNK     0     -23.420 -24.429  11.895  0.00  0.00     0.167 HD
ENDBRANCH  35  37
ENDBRANCH  34  35
ENDBRANCH  33  34
ENDBRANCH   6  33
BRANCH  27  39
HETATM   39  C   UNK     0     -20.489 -27.797  23.233  0.00  0.00     0.051 C 
BRANCH  39  40
HETATM   40  C   UNK     0     -19.185 -27.140  23.146  0.00  0.00     0.114 C 
BRANCH  40  41
HETATM   41  C   UNK     0     -18.899 -25.901  23.834  0.00  0.00     0.139 C 
HETATM   42  O   UNK     0     -18.077 -25.069  23.429  0.00  0.00    -0.650 OA
BRANCH  41  43
HETATM   43  O   UNK     0     -19.590 -25.607  25.044  0.00  0.00    -0.776 OA
HETATM   44  H   UNK     0     -20.234 -24.828  24.980  0.00  0.00     0.167 HD
ENDBRANCH  41  43
ENDBRANCH  40  41
ENDBRANCH  39  40
ENDBRANCH  27  39
BRANCH  11  45
HETATM   45  C   UNK     0     -24.716 -20.078  17.953  0.00  0.00     0.051 C 
BRANCH  45  46
HETATM   46  C   UNK     0     -25.865 -20.213  18.884  0.00  0.00     0.114 C 
BRANCH  46  47
HETATM   47  C   UNK     0     -26.214 -18.842  19.356  0.00  0.00     0.139 C 
HETATM   48  O   UNK     0     -25.296 -18.039  19.575  0.00  0.00    -0.650 OA
BRANCH  47  49
HETATM   49  O   UNK     0     -27.522 -18.476  19.547  0.00  0.00    -0.776 OA
HETATM   50  H   UNK     0     -27.781 -17.587  19.992  0.00  0.00     0.167 HD
ENDBRANCH  47  49
ENDBRANCH  46  47
ENDBRANCH  45  46
ENDBRANCH  11  45
BRANCH  18  51
HETATM   51  C   UNK     0     -24.126 -22.996  24.269  0.00  0.00     0.051 C 
BRANCH  51  52
HETATM   52  C   UNK     0     -25.471 -23.661  24.017  0.00  0.00     0.114 C 
BRANCH  52  53
HETATM   53  C   UNK     0     -26.572 -22.679  23.985  0.00  0.00     0.139 C 
HETATM   54  O   UNK     0     -26.487 -21.628  24.640  0.00  0.00    -0.650 OA
BRANCH  53  55
HETATM   55  O   UNK     0     -27.689 -22.937  23.229  0.00  0.00    -0.776 OA
HETATM   56  H   UNK     0     -28.512 -23.396  23.541  0.00  0.00     0.167 HD
ENDBRANCH  53  55
ENDBRANCH  52  53
ENDBRANCH  51  52
ENDBRANCH  18  51
TORSDOF 16
ENDMDL
MODEL 8
REMARK VINA RESULT:      -8.9      2.213      8.234
REMARK  16 active torsions:
REMARK  status: ('A' for Active; 'I' for Inactive)
REMARK    1  A    between atoms: C_6  and  C_7 
REMARK    2  A    between atoms: C_7  and  C_8 
REMARK    3  A    between atoms: C_8  and  C_9 
REMARK    4  A    between atoms: C_9  and  O_11 
REMARK    5  A    between atoms: C_16  and  C_17 
REMARK    6  A    between atoms: C_17  and  C_18 
REMARK    7  A    between atoms: C_18  and  C_19 
REMARK    8  A    between atoms: C_19  and  O_21 
REMARK    9  A    between atoms: C_28  and  C_29 
REMARK   10  A    between atoms: C_29  and  C_30 
REMARK   11  A    between atoms: C_30  and  C_31 
REMARK   12  A    between atoms: C_31  and  O_33 
REMARK   13  A    between atoms: C_42  and  C_43 
REMARK   14  A    between atoms: C_43  and  C_44 
REMARK   15  A    between atoms: C_44  and  C_45 
REMARK   16  A    between atoms: C_45  and  O_47 
ROOT
HETATM    1  C   UNK     0     -21.684 -17.473  25.996  0.00  0.00     0.051 C 
HETATM    2  C   UNK     0     -21.853 -18.357  24.778  0.00  0.00    -0.031 A 
HETATM    3  C   UNK     0     -20.971 -19.273  24.226  0.00  0.00     0.021 A 
HETATM    4  N   UNK     0     -21.532 -19.813  23.118  0.00  0.00    -0.361 N 
HETATM    5  C   UNK     0     -22.755 -19.268  22.956  0.00  0.00     0.022 A 
HETATM    6  C   UNK     0     -22.987 -18.350  23.976  0.00  0.00    -0.027 A 
HETATM    7  C   UNK     0     -23.814 -19.587  21.947  0.00  0.00     0.115 C 
HETATM    8  C   UNK     0     -24.049 -21.057  21.649  0.00  0.00     0.021 A 
HETATM    9  N   UNK     0     -23.987 -22.102  22.489  0.00  0.00    -0.361 N 
HETATM   10  C   UNK     0     -24.177 -23.229  21.771  0.00  0.00     0.022 A 
HETATM   11  C   UNK     0     -24.376 -22.901  20.433  0.00  0.00    -0.027 A 
HETATM   12  C   UNK     0     -24.298 -21.534  20.349  0.00  0.00    -0.031 A 
HETATM   13  C   UNK     0     -24.459 -20.726  19.081  0.00  0.00     0.051 C 
HETATM   14  C   UNK     0     -24.125 -24.658  22.306  0.00  0.00     0.115 C 
HETATM   15  C   UNK     0     -22.781 -25.042  22.904  0.00  0.00     0.021 A 
HETATM   16  N   UNK     0     -22.137 -24.448  23.926  0.00  0.00    -0.361 N 
HETATM   17  C   UNK     0     -20.954 -25.041  24.102  0.00  0.00     0.022 A 
HETATM   18  C   UNK     0     -20.825 -26.077  23.156  0.00  0.00    -0.027 A 
HETATM   19  C   UNK     0     -21.977 -26.068  22.413  0.00  0.00    -0.031 A 
HETATM   20  C   UNK     0     -22.269 -27.055  21.297  0.00  0.00     0.051 C 
HETATM   21  C   UNK     0     -19.833 -24.708  25.061  0.00  0.00     0.115 C 
HETATM   22  C   UNK     0     -19.616 -23.253  25.402  0.00  0.00     0.022 A 
HETATM   23  N   UNK     0     -19.676 -22.192  24.587  0.00  0.00    -0.361 N 
HETATM   24  C   UNK     0     -19.562 -21.076  25.335  0.00  0.00     0.021 A 
HETATM   25  C   UNK     0     -19.414 -21.427  26.663  0.00  0.00    -0.031 A 
HETATM   26  C   UNK     0     -19.211 -20.533  27.869  0.00  0.00     0.051 C 
HETATM   27  C   UNK     0     -19.445 -22.815  26.731  0.00  0.00    -0.027 A 
HETATM   28  C   UNK     0     -19.663 -19.632  24.873  0.00  0.00     0.115 C 
HETATM   29  H   UNK     0     -21.043 -20.547  22.436  0.00  0.00     0.165 HD
HETATM   30  H   UNK     0     -23.858 -22.044  23.598  0.00  0.00     0.165 HD
HETATM   31  H   UNK     0     -22.545 -23.625  24.568  0.00  0.00     0.165 HD
HETATM   32  H   UNK     0     -19.756 -22.222  23.469  0.00  0.00     0.165 HD
ENDROOT
BRANCH   6  33
HETATM   33  C   UNK     0     -24.188 -17.478  24.240  0.00  0.00     0.051 C 
BRANCH  33  34
HETATM   34  C   UNK     0     -24.052 -16.151  23.531  0.00  0.00     0.114 C 
BRANCH  34  35
HETATM   35  C   UNK     0     -23.842 -15.107  24.574  0.00  0.00     0.139 C 
HETATM   36  O   UNK     0     -24.379 -15.227  25.713  0.00  0.00    -0.650 OA
BRANCH  35  37
HETATM   37  O   UNK     0     -23.064 -13.976  24.356  0.00  0.00    -0.776 OA
HETATM   38  H   UNK     0     -23.239 -13.107  24.833  0.00  0.00     0.167 HD
ENDBRANCH  35  37
ENDBRANCH  34  35
ENDBRANCH  33  34
ENDBRANCH   6  33
BRANCH  27  39
HETATM   39  C   UNK     0     -19.245 -23.569  27.998  0.00  0.00     0.051 C 
BRANCH  39  40
HETATM   40  C   UNK     0     -17.892 -24.012  28.335  0.00  0.00     0.114 C 
BRANCH  40  41
HETATM   41  C   UNK     0     -16.861 -24.170  27.334  0.00  0.00     0.139 C 
HETATM   42  O   UNK     0     -16.050 -23.281  27.042  0.00  0.00    -0.650 OA
BRANCH  41  43
HETATM   43  O   UNK     0     -16.758 -25.408  26.638  0.00  0.00    -0.776 OA
HETATM   44  H   UNK     0     -15.909 -25.514  26.095  0.00  0.00     0.167 HD
ENDBRANCH  41  43
ENDBRANCH  40  41
ENDBRANCH  39  40
ENDBRANCH  27  39
BRANCH  11  45
HETATM   45  C   UNK     0     -24.635 -23.817  19.268  0.00  0.00     0.051 C 
BRANCH  45  46
HETATM   46  C   UNK     0     -23.406 -24.402  18.672  0.00  0.00     0.114 C 
BRANCH  46  47
HETATM   47  C   UNK     0     -23.339 -23.940  17.256  0.00  0.00     0.139 C 
HETATM   48  O   UNK     0     -24.259 -23.236  16.818  0.00  0.00    -0.650 OA
BRANCH  47  49
HETATM   49  O   UNK     0     -22.282 -24.288  16.454  0.00  0.00    -0.776 OA
HETATM   50  H   UNK     0     -21.901 -23.648  15.746  0.00  0.00     0.167 HD
ENDBRANCH  47  49
ENDBRANCH  46  47
ENDBRANCH  45  46
ENDBRANCH  11  45
BRANCH  18  51
HETATM   51  C   UNK     0     -19.676 -27.037  22.984  0.00  0.00     0.051 C 
BRANCH  51  52
HETATM   52  C   UNK     0     -19.857 -28.113  24.044  0.00  0.00     0.114 C 
BRANCH  52  53
HETATM   53  C   UNK     0     -18.576 -28.483  24.676  0.00  0.00     0.139 C 
HETATM   54  O   UNK     0     -17.895 -29.407  24.204  0.00  0.00    -0.650 OA
BRANCH  53  55
HETATM   55  O   UNK     0     -18.145 -27.802  25.789  0.00  0.00    -0.776 OA
HETATM   56  H   UNK     0     -18.381 -28.013  26.730  0.00  0.00     0.167 HD
ENDBRANCH  53  55
ENDBRANCH  52  53
ENDBRANCH  51  52
ENDBRANCH  18  51
TORSDOF 16
ENDMDL
MODEL 9
REMARK VINA RESULT:      -8.7      5.270     10.382
REMARK  16 active torsions:
REMARK  status: ('A' for Active; 'I' for Inactive)
REMARK    1  A    between atoms: C_6  and  C_7 
REMARK    2  A    between atoms: C_7  and  C_8 
REMARK    3  A    between atoms: C_8  and  C_9 
REMARK    4  A    between atoms: C_9  and  O_11 
REMARK    5  A    between atoms: C_16  and  C_17 
REMARK    6  A    between atoms: C_17  and  C_18 
REMARK    7  A    between atoms: C_18  and  C_19 
REMARK    8  A    between atoms: C_19  and  O_21 
REMARK    9  A    between atoms: C_28  and  C_29 
REMARK   10  A    between atoms: C_29  and  C_30 
REMARK   11  A    between atoms: C_30  and  C_31 
REMARK   12  A    between atoms: C_31  and  O_33 
REMARK   13  A    between atoms: C_42  and  C_43 
REMARK   14  A    between atoms: C_43  and  C_44 
REMARK   15  A    between atoms: C_44  and  C_45 
REMARK   16  A    between atoms: C_45  and  O_47 
ROOT
HETATM    1  C   UNK     0     -20.599 -29.495  20.698  0.00  0.00     0.051 C 
HETATM    2  C   UNK     0     -21.508 -29.097  19.553  0.00  0.00    -0.031 A 
HETATM    3  C   UNK     0     -22.695 -28.382  19.580  0.00  0.00     0.021 A 
HETATM    4  N   UNK     0     -23.184 -28.290  18.320  0.00  0.00    -0.361 N 
HETATM    5  C   UNK     0     -22.329 -28.923  17.490  0.00  0.00     0.022 A 
HETATM    6  C   UNK     0     -21.271 -29.442  18.229  0.00  0.00    -0.027 A 
HETATM    7  C   UNK     0     -22.356 -29.030  15.997  0.00  0.00     0.115 C 
HETATM    8  C   UNK     0     -22.712 -27.769  15.230  0.00  0.00     0.021 A 
HETATM    9  N   UNK     0     -22.402 -26.496  15.522  0.00  0.00    -0.361 N 
HETATM   10  C   UNK     0     -23.004 -25.699  14.614  0.00  0.00     0.022 A 
HETATM   11  C   UNK     0     -23.715 -26.480  13.708  0.00  0.00    -0.027 A 
HETATM   12  C   UNK     0     -23.535 -27.785  14.089  0.00  0.00    -0.031 A 
HETATM   13  C   UNK     0     -24.122 -28.990  13.388  0.00  0.00     0.051 C 
HETATM   14  C   UNK     0     -22.979 -24.173  14.597  0.00  0.00     0.115 C 
HETATM   15  C   UNK     0     -23.582 -23.533  15.837  0.00  0.00     0.021 A 
HETATM   16  N   UNK     0     -23.200 -23.701  17.117  0.00  0.00    -0.361 N 
HETATM   17  C   UNK     0     -24.027 -23.022  17.914  0.00  0.00     0.022 A 
HETATM   18  C   UNK     0     -24.988 -22.372  17.115  0.00  0.00    -0.027 A 
HETATM   19  C   UNK     0     -24.698 -22.699  15.816  0.00  0.00    -0.031 A 
HETATM   20  C   UNK     0     -25.473 -22.176  14.621  0.00  0.00     0.051 C 
HETATM   21  C   UNK     0     -24.074 -22.941  19.423  0.00  0.00     0.115 C 
HETATM   22  C   UNK     0     -23.679 -24.175  20.200  0.00  0.00     0.022 A 
HETATM   23  N   UNK     0     -23.971 -25.454  19.931  0.00  0.00    -0.361 N 
HETATM   24  C   UNK     0     -23.297 -26.234  20.800  0.00  0.00     0.021 A 
HETATM   25  C   UNK     0     -22.562 -25.438  21.657  0.00  0.00    -0.031 A 
HETATM   26  C   UNK     0     -21.683 -25.847  22.820  0.00  0.00     0.051 C 
HETATM   27  C   UNK     0     -22.791 -24.116  21.293  0.00  0.00    -0.027 A 
HETATM   28  C   UNK     0     -23.236 -27.752  20.832  0.00  0.00     0.115 C 
HETATM   29  H   UNK     0     -24.149 -27.812  18.032  0.00  0.00     0.165 HD
HETATM   30  H   UNK     0     -21.716 -26.160  16.338  0.00  0.00     0.165 HD
HETATM   31  H   UNK     0     -22.299 -24.273  17.462  0.00  0.00     0.165 HD
HETATM   32  H   UNK     0     -24.690 -25.817  19.151  0.00  0.00     0.165 HD
ENDROOT
BRANCH   6  33
HETATM   33  C   UNK     0     -20.069 -30.232  17.778  0.00  0.00     0.051 C 
BRANCH  33  34
HETATM   34  C   UNK     0     -20.395 -31.705  17.702  0.00  0.00     0.114 C 
BRANCH  34  35
HETATM   35  C   UNK     0     -20.329 -32.104  16.267  0.00  0.00     0.139 C 
HETATM   36  O   UNK     0     -20.837 -33.199  15.886  0.00  0.00    -0.650 OA
BRANCH  35  37
HETATM   37  O   UNK     0     -19.724 -31.315  15.297  0.00  0.00    -0.776 OA
HETATM   38  H   UNK     0     -19.636 -30.317  15.399  0.00  0.00     0.167 HD
ENDBRANCH  35  37
ENDBRANCH  34  35
ENDBRANCH  33  34
ENDBRANCH   6  33
BRANCH  27  39
HETATM   39  C   UNK     0     -22.220 -22.960  22.037  0.00  0.00     0.051 C 
BRANCH  39  40
HETATM   40  C   UNK     0     -23.143 -21.990  22.626  0.00  0.00     0.114 C 
BRANCH  40  41
HETATM   41  C   UNK     0     -24.359 -22.392  23.297  0.00  0.00     0.139 C 
HETATM   42  O   UNK     0     -25.476 -22.363  22.764  0.00  0.00    -0.650 OA
BRANCH  41  43
HETATM   43  O   UNK     0     -24.286 -22.847  24.644  0.00  0.00    -0.776 OA
HETATM   44  H   UNK     0     -23.432 -23.343  24.874  0.00  0.00     0.167 HD
ENDBRANCH  41  43
ENDBRANCH  40  41
ENDBRANCH  39  40
ENDBRANCH  27  39
BRANCH  11  45
HETATM   45  C   UNK     0     -24.533 -26.039  12.523  0.00  0.00     0.051 C 
BRANCH  45  46
HETATM   46  C   UNK     0     -25.913 -25.609  12.866  0.00  0.00     0.114 C 
BRANCH  46  47
HETATM   47  C   UNK     0     -26.836 -26.693  12.424  0.00  0.00     0.139 C 
HETATM   48  O   UNK     0     -26.677 -27.183  11.298  0.00  0.00    -0.650 OA
BRANCH  47  49
HETATM   49  O   UNK     0     -27.841 -27.138  13.245  0.00  0.00    -0.776 OA
HETATM   50  H   UNK     0     -28.571 -27.780  12.914  0.00  0.00     0.167 HD
ENDBRANCH  47  49
ENDBRANCH  46  47
ENDBRANCH  45  46
ENDBRANCH  11  45
BRANCH  18  51
HETATM   51  C   UNK     0     -26.109 -21.470  17.564  0.00  0.00     0.051 C 
BRANCH  51  52
HETATM   52  C   UNK     0     -25.454 -20.188  18.056  0.00  0.00     0.114 C 
BRANCH  52  53
HETATM   53  C   UNK     0     -26.076 -19.697  19.301  0.00  0.00     0.139 C 
HETATM   54  O   UNK     0     -26.912 -18.781  19.258  0.00  0.00    -0.650 OA
BRANCH  53  55
HETATM   55  O   UNK     0     -25.721 -20.256  20.504  0.00  0.00    -0.776 OA
HETATM   56  H   UNK     0     -26.279 -20.280  21.325  0.00  0.00     0.167 HD
ENDBRANCH  53  55
ENDBRANCH  52  53
ENDBRANCH  51  52
ENDBRANCH  18  51
TORSDOF 16
ENDMDL
MODEL 10
REMARK VINA RESULT:      -8.7      2.791      9.178
REMARK  16 active torsions:
REMARK  status: ('A' for Active; 'I' for Inactive)
REMARK    1  A    between atoms: C_6  and  C_7 
REMARK    2  A    between atoms: C_7  and  C_8 
REMARK    3  A    between atoms: C_8  and  C_9 
REMARK    4  A    between atoms: C_9  and  O_11 
REMARK    5  A    between atoms: C_16  and  C_17 
REMARK    6  A    between atoms: C_17  and  C_18 
REMARK    7  A    between atoms: C_18  and  C_19 
REMARK    8  A    between atoms: C_19  and  O_21 
REMARK    9  A    between atoms: C_28  and  C_29 
REMARK   10  A    between atoms: C_29  and  C_30 
REMARK   11  A    between atoms: C_30  and  C_31 
REMARK   12  A    between atoms: C_31  and  O_33 
REMARK   13  A    between atoms: C_42  and  C_43 
REMARK   14  A    between atoms: C_43  and  C_44 
REMARK   15  A    between atoms: C_44  and  C_45 
REMARK   16  A    between atoms: C_45  and  O_47 
ROOT
HETATM    1  C   UNK     0     -22.662 -18.361  24.816  0.00  0.00     0.051 C 
HETATM    2  C   UNK     0     -22.638 -19.430  23.742  0.00  0.00    -0.031 A 
HETATM    3  C   UNK     0     -21.589 -20.233  23.324  0.00  0.00     0.021 A 
HETATM    4  N   UNK     0     -22.016 -21.026  22.312  0.00  0.00    -0.361 N 
HETATM    5  C   UNK     0     -23.316 -20.751  22.083  0.00  0.00     0.022 A 
HETATM    6  C   UNK     0     -23.737 -19.755  22.958  0.00  0.00    -0.027 A 
HETATM    7  C   UNK     0     -24.276 -21.408  21.141  0.00  0.00     0.115 C 
HETATM    8  C   UNK     0     -24.225 -22.924  21.063  0.00  0.00     0.021 A 
HETATM    9  N   UNK     0     -23.984 -23.804  22.048  0.00  0.00    -0.361 N 
HETATM   10  C   UNK     0     -23.944 -25.039  21.505  0.00  0.00     0.022 A 
HETATM   11  C   UNK     0     -24.176 -24.954  20.135  0.00  0.00    -0.027 A 
HETATM   12  C   UNK     0     -24.354 -23.624  19.850  0.00  0.00    -0.031 A 
HETATM   13  C   UNK     0     -24.639 -23.055  18.479  0.00  0.00     0.051 C 
HETATM   14  C   UNK     0     -23.635 -26.338  22.244  0.00  0.00     0.115 C 
HETATM   15  C   UNK     0     -22.255 -26.371  22.881  0.00  0.00     0.021 A 
HETATM   16  N   UNK     0     -21.754 -25.523  23.799  0.00  0.00    -0.361 N 
HETATM   17  C   UNK     0     -20.484 -25.849  24.050  0.00  0.00     0.022 A 
HETATM   18  C   UNK     0     -20.145 -26.969  23.265  0.00  0.00    -0.027 A 
HETATM   19  C   UNK     0     -21.263 -27.287  22.539  0.00  0.00    -0.031 A 
HETATM   20  C   UNK     0     -21.342 -28.463  21.583  0.00  0.00     0.051 C 
HETATM   21  C   UNK     0     -19.465 -25.174  24.940  0.00  0.00     0.115 C 
HETATM   22  C   UNK     0     -19.532 -23.670  25.061  0.00  0.00     0.022 A 
HETATM   23  N   UNK     0     -19.775 -22.770  24.099  0.00  0.00    -0.361 N 
HETATM   24  C   UNK     0     -19.887 -21.556  24.674  0.00  0.00     0.021 A 
HETATM   25  C   UNK     0     -19.702 -21.675  26.038  0.00  0.00    -0.031 A 
HETATM   26  C   UNK     0     -19.695 -20.592  27.097  0.00  0.00     0.051 C 
HETATM   27  C   UNK     0     -19.473 -23.019  26.310  0.00  0.00    -0.027 A 
HETATM   28  C   UNK     0     -20.250 -20.241  24.005  0.00  0.00     0.115 C 
HETATM   29  H   UNK     0     -21.385 -21.746  21.741  0.00  0.00     0.165 HD
HETATM   30  H   UNK     0     -23.890 -23.561  23.134  0.00  0.00     0.165 HD
HETATM   31  H   UNK     0     -22.322 -24.706  24.316  0.00  0.00     0.165 HD
HETATM   32  H   UNK     0     -19.826 -22.978  22.998  0.00  0.00     0.165 HD
ENDROOT
BRANCH   6  33
HETATM   33  C   UNK     0     -25.085 -19.096  23.101  0.00  0.00     0.051 C 
BRANCH  33  34
HETATM   34  C   UNK     0     -25.972 -19.888  24.032  0.00  0.00     0.114 C 
BRANCH  34  35
HETATM   35  C   UNK     0     -27.137 -20.371  23.237  0.00  0.00     0.139 C 
HETATM   36  O   UNK     0     -27.662 -19.624  22.360  0.00  0.00    -0.650 OA
BRANCH  35  37
HETATM   37  O   UNK     0     -27.692 -21.633  23.410  0.00  0.00    -0.776 OA
HETATM   38  H   UNK     0     -28.649 -21.834  23.169  0.00  0.00     0.167 HD
ENDBRANCH  35  37
ENDBRANCH  34  35
ENDBRANCH  33  34
ENDBRANCH   6  33
BRANCH  27  39
HETATM   39  C   UNK     0     -19.159 -23.528  27.672  0.00  0.00     0.051 C 
BRANCH  39  40
HETATM   40  C   UNK     0     -17.755 -23.610  28.076  0.00  0.00     0.114 C 
BRANCH  40  41
HETATM   41  C   UNK     0     -16.944 -24.777  27.812  0.00  0.00     0.139 C 
HETATM   42  O   UNK     0     -17.404 -25.924  27.727  0.00  0.00    -0.650 OA
BRANCH  41  43
HETATM   43  O   UNK     0     -15.540 -24.617  27.638  0.00  0.00    -0.776 OA
HETATM   44  H   UNK     0     -15.265 -24.298  26.717  0.00  0.00     0.167 HD
ENDBRANCH  41  43
ENDBRANCH  40  41
ENDBRANCH  39  40
ENDBRANCH  27  39
BRANCH  11  45
HETATM   45  C   UNK     0     -24.235 -26.063  19.119  0.00  0.00     0.051 C 
BRANCH  45  46
HETATM   46  C   UNK     0     -22.914 -26.663  18.801  0.00  0.00     0.114 C 
BRANCH  46  47
HETATM   47  C   UNK     0     -22.830 -26.783  17.317  0.00  0.00     0.139 C 
HETATM   48  O   UNK     0     -22.823 -27.915  16.813  0.00  0.00    -0.650 OA
BRANCH  47  49
HETATM   49  O   UNK     0     -22.760 -25.665  16.524  0.00  0.00    -0.776 OA
HETATM   50  H   UNK     0     -23.466 -25.461  15.807  0.00  0.00     0.167 HD
ENDBRANCH  47  49
ENDBRANCH  46  47
ENDBRANCH  45  46
ENDBRANCH  11  45
BRANCH  18  51
HETATM   51  C   UNK     0     -18.833 -27.709  23.226  0.00  0.00     0.051 C 
BRANCH  51  52
HETATM   52  C   UNK     0     -18.990 -28.904  24.155  0.00  0.00     0.114 C 
BRANCH  52  53
HETATM   53  C   UNK     0     -18.019 -28.868  25.266  0.00  0.00     0.139 C 
HETATM   54  O   UNK     0     -17.900 -29.847  26.019  0.00  0.00    -0.650 OA
BRANCH  53  55
HETATM   55  O   UNK     0     -17.252 -27.745  25.462  0.00  0.00    -0.776 OA
HETATM   56  H   UNK     0     -16.734 -27.528  26.280  0.00  0.00     0.167 HD
ENDBRANCH  53  55
ENDBRANCH  52  53
ENDBRANCH  51  52
ENDBRANCH  18  51
TORSDOF 16
ENDMDL
MODEL 11
REMARK VINA RESULT:      -8.6      2.095      8.231
REMARK  16 active torsions:
REMARK  status: ('A' for Active; 'I' for Inactive)
REMARK    1  A    between atoms: C_6  and  C_7 
REMARK    2  A    between atoms: C_7  and  C_8 
REMARK    3  A    between atoms: C_8  and  C_9 
REMARK    4  A    between atoms: C_9  and  O_11 
REMARK    5  A    between atoms: C_16  and  C_17 
REMARK    6  A    between atoms: C_17  and  C_18 
REMARK    7  A    between atoms: C_18  and  C_19 
REMARK    8  A    between atoms: C_19  and  O_21 
REMARK    9  A    between atoms: C_28  and  C_29 
REMARK   10  A    between atoms: C_29  and  C_30 
REMARK   11  A    between atoms: C_30  and  C_31 
REMARK   12  A    between atoms: C_31  and  O_33 
REMARK   13  A    between atoms: C_42  and  C_43 
REMARK   14  A    between atoms: C_43  and  C_44 
REMARK   15  A    between atoms: C_44  and  C_45 
REMARK   16  A    between atoms: C_45  and  O_47 
ROOT
HETATM    1  C   UNK     0     -21.921 -16.216  25.957  0.00  0.00     0.051 C 
HETATM    2  C   UNK     0     -22.114 -17.249  24.866  0.00  0.00    -0.031 A 
HETATM    3  C   UNK     0     -21.188 -18.105  24.291  0.00  0.00     0.021 A 
HETATM    4  N   UNK     0     -21.800 -18.835  23.329  0.00  0.00    -0.361 N 
HETATM    5  C   UNK     0     -23.098 -18.469  23.284  0.00  0.00     0.022 A 
HETATM    6  C   UNK     0     -23.328 -17.476  24.230  0.00  0.00    -0.027 A 
HETATM    7  C   UNK     0     -24.218 -19.032  22.466  0.00  0.00     0.115 C 
HETATM    8  C   UNK     0     -24.282 -20.545  22.348  0.00  0.00     0.021 A 
HETATM    9  N   UNK     0     -23.972 -21.469  23.270  0.00  0.00    -0.361 N 
HETATM   10  C   UNK     0     -24.091 -22.687  22.699  0.00  0.00     0.022 A 
HETATM   11  C   UNK     0     -24.497 -22.543  21.376  0.00  0.00    -0.027 A 
HETATM   12  C   UNK     0     -24.620 -21.196  21.148  0.00  0.00    -0.031 A 
HETATM   13  C   UNK     0     -25.046 -20.566  19.841  0.00  0.00     0.051 C 
HETATM   14  C   UNK     0     -23.776 -24.026  23.359  0.00  0.00     0.115 C 
HETATM   15  C   UNK     0     -22.329 -24.169  23.802  0.00  0.00     0.021 A 
HETATM   16  N   UNK     0     -21.652 -23.385  24.663  0.00  0.00    -0.361 N 
HETATM   17  C   UNK     0     -20.386 -23.801  24.732  0.00  0.00     0.022 A 
HETATM   18  C   UNK     0     -20.232 -24.915  23.883  0.00  0.00    -0.027 A 
HETATM   19  C   UNK     0     -21.456 -25.136  23.308  0.00  0.00    -0.031 A 
HETATM   20  C   UNK     0     -21.743 -26.274  22.345  0.00  0.00     0.051 C 
HETATM   21  C   UNK     0     -19.213 -23.223  25.491  0.00  0.00     0.115 C 
HETATM   22  C   UNK     0     -19.159 -21.722  25.654  0.00  0.00     0.022 A 
HETATM   23  N   UNK     0     -19.466 -20.778  24.755  0.00  0.00    -0.361 N 
HETATM   24  C   UNK     0     -19.417 -19.578  25.367  0.00  0.00     0.021 A 
HETATM   25  C   UNK     0     -19.059 -19.753  26.690  0.00  0.00    -0.031 A 
HETATM   26  C   UNK     0     -18.836 -18.707  27.763  0.00  0.00     0.051 C 
HETATM   27  C   UNK     0     -18.889 -21.117  26.898  0.00  0.00    -0.027 A 
HETATM   28  C   UNK     0     -19.774 -18.221  24.784  0.00  0.00     0.115 C 
HETATM   29  H   UNK     0     -21.302 -19.576  22.661  0.00  0.00     0.165 HD
HETATM   30  H   UNK     0     -23.718 -21.268  24.339  0.00  0.00     0.165 HD
HETATM   31  H   UNK     0     -22.088 -22.550  25.271  0.00  0.00     0.165 HD
HETATM   32  H   UNK     0     -19.678 -20.947  23.667  0.00  0.00     0.165 HD
ENDROOT
BRANCH   6  33
HETATM   33  C   UNK     0     -24.596 -16.736  24.571  0.00  0.00     0.051 C 
BRANCH  33  34
HETATM   34  C   UNK     0     -24.384 -15.243  24.485  0.00  0.00     0.114 C 
BRANCH  34  35
HETATM   35  C   UNK     0     -25.172 -14.616  25.584  0.00  0.00     0.139 C 
HETATM   36  O   UNK     0     -24.583 -14.135  26.596  0.00  0.00    -0.650 OA
BRANCH  35  37
HETATM   37  O   UNK     0     -26.558 -14.526  25.556  0.00  0.00    -0.776 OA
HETATM   38  H   UNK     0     -27.057 -13.802  26.048  0.00  0.00     0.167 HD
ENDBRANCH  35  37
ENDBRANCH  34  35
ENDBRANCH  33  34
ENDBRANCH   6  33
BRANCH  27  39
HETATM   39  C   UNK     0     -18.431 -21.689  28.193  0.00  0.00     0.051 C 
BRANCH  39  40
HETATM   40  C   UNK     0     -19.438 -22.216  29.113  0.00  0.00     0.114 C 
BRANCH  40  41
HETATM   41  C   UNK     0     -19.946 -23.566  29.008  0.00  0.00     0.139 C 
HETATM   42  O   UNK     0     -19.220 -24.563  28.896  0.00  0.00    -0.650 OA
BRANCH  41  43
HETATM   43  O   UNK     0     -21.354 -23.778  29.034  0.00  0.00    -0.776 OA
HETATM   44  H   UNK     0     -21.904 -22.976  28.752  0.00  0.00     0.167 HD
ENDBRANCH  41  43
ENDBRANCH  40  41
ENDBRANCH  39  40
ENDBRANCH  27  39
BRANCH  11  45
HETATM   45  C   UNK     0     -24.768 -23.612  20.352  0.00  0.00     0.051 C 
BRANCH  45  46
HETATM   46  C   UNK     0     -23.550 -24.319  19.878  0.00  0.00     0.114 C 
BRANCH  46  47
HETATM   47  C   UNK     0     -23.211 -23.762  18.537  0.00  0.00     0.139 C 
HETATM   48  O   UNK     0     -22.620 -22.675  18.479  0.00  0.00    -0.650 OA
BRANCH  47  49
HETATM   49  O   UNK     0     -23.546 -24.437  17.390  0.00  0.00    -0.776 OA
HETATM   50  H   UNK     0     -23.237 -25.401  17.215  0.00  0.00     0.167 HD
ENDBRANCH  47  49
ENDBRANCH  46  47
ENDBRANCH  45  46
ENDBRANCH  11  45
BRANCH  18  51
HETATM   51  C   UNK     0     -18.991 -25.738  23.650  0.00  0.00     0.051 C 
BRANCH  51  52
HETATM   52  C   UNK     0     -18.946 -26.768  24.768  0.00  0.00     0.114 C 
BRANCH  52  53
HETATM   53  C   UNK     0     -17.640 -26.779  25.453  0.00  0.00     0.139 C 
HETATM   54  O   UNK     0     -17.560 -27.156  26.634  0.00  0.00    -0.650 OA
BRANCH  53  55
HETATM   55  O   UNK     0     -16.515 -26.367  24.780  0.00  0.00    -0.776 OA
HETATM   56  H   UNK     0     -16.137 -26.787  23.964  0.00  0.00     0.167 HD
ENDBRANCH  53  55
ENDBRANCH  52  53
ENDBRANCH  51  52
ENDBRANCH  18  51
TORSDOF 16
ENDMDL
MODEL 12
REMARK VINA RESULT:      -8.6      4.551     11.392
REMARK  16 active torsions:
REMARK  status: ('A' for Active; 'I' for Inactive)
REMARK    1  A    between atoms: C_6  and  C_7 
REMARK    2  A    between atoms: C_7  and  C_8 
REMARK    3  A    between atoms: C_8  and  C_9 
REMARK    4  A    between atoms: C_9  and  O_11 
REMARK    5  A    between atoms: C_16  and  C_17 
REMARK    6  A    between atoms: C_17  and  C_18 
REMARK    7  A    between atoms: C_18  and  C_19 
REMARK    8  A    between atoms: C_19  and  O_21 
REMARK    9  A    between atoms: C_28  and  C_29 
REMARK   10  A    between atoms: C_29  and  C_30 
REMARK   11  A    between atoms: C_30  and  C_31 
REMARK   12  A    between atoms: C_31  and  O_33 
REMARK   13  A    between atoms: C_42  and  C_43 
REMARK   14  A    between atoms: C_43  and  C_44 
REMARK   15  A    between atoms: C_44  and  C_45 
REMARK   16  A    between atoms: C_45  and  O_47 
ROOT
HETATM    1  C   UNK     0     -24.932 -20.911  15.810  0.00  0.00     0.051 C 
HETATM    2  C   UNK     0     -24.032 -22.104  16.055  0.00  0.00    -0.031 A 
HETATM    3  C   UNK     0     -23.064 -22.290  17.030  0.00  0.00     0.021 A 
HETATM    4  N   UNK     0     -22.483 -23.500  16.850  0.00  0.00    -0.361 N 
HETATM    5  C   UNK     0     -23.065 -24.092  15.786  0.00  0.00     0.022 A 
HETATM    6  C   UNK     0     -24.036 -23.245  15.263  0.00  0.00    -0.027 A 
HETATM    7  C   UNK     0     -22.855 -25.466  15.228  0.00  0.00     0.115 C 
HETATM    8  C   UNK     0     -22.738 -26.599  16.233  0.00  0.00     0.021 A 
HETATM    9  N   UNK     0     -23.379 -26.749  17.402  0.00  0.00    -0.361 N 
HETATM   10  C   UNK     0     -22.896 -27.856  18.005  0.00  0.00     0.022 A 
HETATM   11  C   UNK     0     -21.925 -28.440  17.198  0.00  0.00    -0.027 A 
HETATM   12  C   UNK     0     -21.820 -27.653  16.079  0.00  0.00    -0.031 A 
HETATM   13  C   UNK     0     -20.887 -27.906  14.917  0.00  0.00     0.051 C 
HETATM   14  C   UNK     0     -23.291 -28.376  19.384  0.00  0.00     0.115 C 
HETATM   15  C   UNK     0     -22.997 -27.405  20.516  0.00  0.00     0.021 A 
HETATM   16  N   UNK     0     -23.460 -26.149  20.662  0.00  0.00    -0.361 N 
HETATM   17  C   UNK     0     -22.913 -25.604  21.751  0.00  0.00     0.022 A 
HETATM   18  C   UNK     0     -22.060 -26.553  22.349  0.00  0.00    -0.027 A 
HETATM   19  C   UNK     0     -22.123 -27.677  21.566  0.00  0.00    -0.031 A 
HETATM   20  C   UNK     0     -21.377 -28.962  21.874  0.00  0.00     0.051 C 
HETATM   21  C   UNK     0     -23.046 -24.205  22.309  0.00  0.00     0.115 C 
HETATM   22  C   UNK     0     -23.208 -23.073  21.323  0.00  0.00     0.022 A 
HETATM   23  N   UNK     0     -22.586 -22.899  20.149  0.00  0.00    -0.361 N 
HETATM   24  C   UNK     0     -23.137 -21.835  19.531  0.00  0.00     0.021 A 
HETATM   25  C   UNK     0     -24.131 -21.304  20.331  0.00  0.00    -0.031 A 
HETATM   26  C   UNK     0     -25.002 -20.089  20.088  0.00  0.00     0.051 C 
HETATM   27  C   UNK     0     -24.195 -22.079  21.483  0.00  0.00    -0.027 A 
HETATM   28  C   UNK     0     -22.830 -21.306  18.141  0.00  0.00     0.115 C 
HETATM   29  H   UNK     0     -21.639 -23.911  17.451  0.00  0.00     0.165 HD
HETATM   30  H   UNK     0     -24.208 -26.103  17.782  0.00  0.00     0.165 HD
HETATM   31  H   UNK     0     -24.225 -25.652  20.010  0.00  0.00     0.165 HD
HETATM   32  H   UNK     0     -21.722 -23.501  19.765  0.00  0.00     0.165 HD
ENDROOT
BRANCH   6  33
HETATM   33  C   UNK     0     -24.954 -23.434  14.083  0.00  0.00     0.051 C 
BRANCH  33  34
HETATM   34  C   UNK     0     -26.359 -23.747  14.542  0.00  0.00     0.114 C 
BRANCH  34  35
HETATM   35  C   UNK     0     -27.016 -24.537  13.462  0.00  0.00     0.139 C 
HETATM   36  O   UNK     0     -28.016 -25.267  13.725  0.00  0.00    -0.650 OA
BRANCH  35  37
HETATM   37  O   UNK     0     -26.579 -24.513  12.143  0.00  0.00    -0.776 OA
HETATM   38  H   UNK     0     -26.064 -23.734  11.765  0.00  0.00     0.167 HD
ENDBRANCH  35  37
ENDBRANCH  34  35
ENDBRANCH  33  34
ENDBRANCH   6  33
BRANCH  27  39
HETATM   39  C   UNK     0     -25.105 -21.769  22.619  0.00  0.00     0.051 C 
BRANCH  39  40
HETATM   40  C   UNK     0     -24.587 -20.962  23.723  0.00  0.00     0.114 C 
BRANCH  40  41
HETATM   41  C   UNK     0     -23.370 -20.189  23.608  0.00  0.00     0.139 C 
HETATM   42  O   UNK     0     -23.334 -19.034  23.164  0.00  0.00    -0.650 OA
BRANCH  41  43
HETATM   43  O   UNK     0     -22.139 -20.772  24.024  0.00  0.00    -0.776 OA
HETATM   44  H   UNK     0     -21.406 -20.744  23.326  0.00  0.00     0.167 HD
ENDBRANCH  41  43
ENDBRANCH  40  41
ENDBRANCH  39  40
ENDBRANCH  27  39
BRANCH  11  45
HETATM   45  C   UNK     0     -21.119 -29.687  17.446  0.00  0.00     0.051 C 
BRANCH  45  46
HETATM   46  C   UNK     0     -21.569 -30.866  16.663  0.00  0.00     0.114 C 
BRANCH  46  47
HETATM   47  C   UNK     0     -20.867 -32.058  17.217  0.00  0.00     0.139 C 
HETATM   48  O   UNK     0     -20.019 -31.887  18.105  0.00  0.00    -0.650 OA
BRANCH  47  49
HETATM   49  O   UNK     0     -21.151 -33.319  16.755  0.00  0.00    -0.776 OA
HETATM   50  H   UNK     0     -21.894 -33.895  17.166  0.00  0.00     0.167 HD
ENDBRANCH  47  49
ENDBRANCH  46  47
ENDBRANCH  45  46
ENDBRANCH  11  45
BRANCH  18  51
HETATM   51  C   UNK     0     -21.247 -26.404  23.608  0.00  0.00     0.051 C 
BRANCH  51  52
HETATM   52  C   UNK     0     -19.805 -26.209  23.163  0.00  0.00     0.114 C 
BRANCH  52  53
HETATM   53  C   UNK     0     -19.042 -25.382  24.119  0.00  0.00     0.139 C 
HETATM   54  O   UNK     0     -17.882 -25.032  23.850  0.00  0.00    -0.650 OA
BRANCH  53  55
HETATM   55  O   UNK     0     -19.622 -25.007  25.306  0.00  0.00    -0.776 OA
HETATM   56  H   UNK     0     -20.003 -25.618  25.989  0.00  0.00     0.167 HD
ENDBRANCH  53  55
ENDBRANCH  52  53
ENDBRANCH  51  52
ENDBRANCH  18  51
TORSDOF 16
ENDMDL
MODEL 13
REMARK VINA RESULT:      -8.3      5.128      9.942
REMARK  16 active torsions:
REMARK  status: ('A' for Active; 'I' for Inactive)
REMARK    1  A    between atoms: C_6  and  C_7 
REMARK    2  A    between atoms: C_7  and  C_8 
REMARK    3  A    between atoms: C_8  and  C_9 
REMARK    4  A    between atoms: C_9  and  O_11 
REMARK    5  A    between atoms: C_16  and  C_17 
REMARK    6  A    between atoms: C_17  and  C_18 
REMARK    7  A    between atoms: C_18  and  C_19 
REMARK    8  A    between atoms: C_19  and  O_21 
REMARK    9  A    between atoms: C_28  and  C_29 
REMARK   10  A    between atoms: C_29  and  C_30 
REMARK   11  A    between atoms: C_30  and  C_31 
REMARK   12  A    between atoms: C_31  and  O_33 
REMARK   13  A    between atoms: C_42  and  C_43 
REMARK   14  A    between atoms: C_43  and  C_44 
REMARK   15  A    between atoms: C_44  and  C_45 
REMARK   16  A    between atoms: C_45  and  O_47 
ROOT
HETATM    1  C   UNK     0     -20.440 -29.293  21.200  0.00  0.00     0.051 C 
HETATM    2  C   UNK     0     -21.328 -28.975  20.014  0.00  0.00    -0.031 A 
HETATM    3  C   UNK     0     -22.534 -28.293  19.976  0.00  0.00     0.021 A 
HETATM    4  N   UNK     0     -22.990 -28.273  18.701  0.00  0.00    -0.361 N 
HETATM    5  C   UNK     0     -22.096 -28.920  17.924  0.00  0.00     0.022 A 
HETATM    6  C   UNK     0     -21.045 -29.374  18.714  0.00  0.00    -0.027 A 
HETATM    7  C   UNK     0     -22.079 -29.097  16.438  0.00  0.00     0.115 C 
HETATM    8  C   UNK     0     -22.447 -27.884  15.602  0.00  0.00     0.021 A 
HETATM    9  N   UNK     0     -22.179 -26.591  15.842  0.00  0.00    -0.361 N 
HETATM   10  C   UNK     0     -22.778 -25.854  14.882  0.00  0.00     0.022 A 
HETATM   11  C   UNK     0     -23.442 -26.696  13.995  0.00  0.00    -0.027 A 
HETATM   12  C   UNK     0     -23.238 -27.976  14.443  0.00  0.00    -0.031 A 
HETATM   13  C   UNK     0     -23.772 -29.228  13.784  0.00  0.00     0.051 C 
HETATM   14  C   UNK     0     -22.793 -24.330  14.794  0.00  0.00     0.115 C 
HETATM   15  C   UNK     0     -23.447 -23.651  15.986  0.00  0.00     0.021 A 
HETATM   16  N   UNK     0     -23.096 -23.748  17.282  0.00  0.00    -0.361 N 
HETATM   17  C   UNK     0     -23.963 -23.056  18.024  0.00  0.00     0.022 A 
HETATM   18  C   UNK     0     -24.919 -22.471  17.170  0.00  0.00    -0.027 A 
HETATM   19  C   UNK     0     -24.584 -22.850  15.896  0.00  0.00    -0.031 A 
HETATM   20  C   UNK     0     -25.340 -22.406  14.657  0.00  0.00     0.051 C 
HETATM   21  C   UNK     0     -24.054 -22.906  19.526  0.00  0.00     0.115 C 
HETATM   22  C   UNK     0     -23.648 -24.091  20.370  0.00  0.00     0.022 A 
HETATM   23  N   UNK     0     -23.898 -25.389  20.154  0.00  0.00    -0.361 N 
HETATM   24  C   UNK     0     -23.227 -26.109  21.077  0.00  0.00     0.021 A 
HETATM   25  C   UNK     0     -22.538 -25.253  21.914  0.00  0.00    -0.031 A 
HETATM   26  C   UNK     0     -21.680 -25.582  23.118  0.00  0.00     0.051 C 
HETATM   27  C   UNK     0     -22.792 -23.956  21.482  0.00  0.00    -0.027 A 
HETATM   28  C   UNK     0     -23.126 -27.621  21.182  0.00  0.00     0.115 C 
HETATM   29  H   UNK     0     -23.959 -27.837  18.365  0.00  0.00     0.165 HD
HETATM   30  H   UNK     0     -21.526 -26.198  16.659  0.00  0.00     0.165 HD
HETATM   31  H   UNK     0     -22.191 -24.277  17.677  0.00  0.00     0.165 HD
HETATM   32  H   UNK     0     -24.585 -25.808  19.374  0.00  0.00     0.165 HD
ENDROOT
BRANCH   6  33
HETATM   33  C   UNK     0     -19.810 -30.150  18.333  0.00  0.00     0.051 C 
BRANCH  33  34
HETATM   34  C   UNK     0     -20.063 -31.637  18.423  0.00  0.00     0.114 C 
BRANCH  34  35
HETATM   35  C   UNK     0     -19.103 -32.193  19.419  0.00  0.00     0.139 C 
HETATM   36  O   UNK     0     -19.509 -32.556  20.562  0.00  0.00    -0.650 OA
BRANCH  35  37
HETATM   37  O   UNK     0     -17.747 -32.341  19.152  0.00  0.00    -0.776 OA
HETATM   38  H   UNK     0     -17.413 -32.761  18.300  0.00  0.00     0.167 HD
ENDBRANCH  35  37
ENDBRANCH  34  35
ENDBRANCH  33  34
ENDBRANCH   6  33
BRANCH  27  39
HETATM   39  C   UNK     0     -22.274 -22.751  22.185  0.00  0.00     0.051 C 
BRANCH  39  40
HETATM   40  C   UNK     0     -23.238 -21.773  22.689  0.00  0.00     0.114 C 
BRANCH  40  41
HETATM   41  C   UNK     0     -24.468 -22.167  23.337  0.00  0.00     0.139 C 
HETATM   42  O   UNK     0     -24.525 -22.571  24.507  0.00  0.00    -0.650 OA
BRANCH  41  43
HETATM   43  O   UNK     0     -25.689 -22.094  22.607  0.00  0.00    -0.776 OA
HETATM   44  H   UNK     0     -26.521 -22.068  23.184  0.00  0.00     0.167 HD
ENDBRANCH  41  43
ENDBRANCH  40  41
ENDBRANCH  39  40
ENDBRANCH  27  39
BRANCH  11  45
HETATM   45  C   UNK     0     -24.239 -26.334  12.770  0.00  0.00     0.051 C 
BRANCH  45  46
HETATM   46  C   UNK     0     -25.577 -25.761  13.065  0.00  0.00     0.114 C 
BRANCH  46  47
HETATM   47  C   UNK     0     -26.231 -25.470  11.757  0.00  0.00     0.139 C 
HETATM   48  O   UNK     0     -26.833 -26.386  11.180  0.00  0.00    -0.650 OA
BRANCH  47  49
HETATM   49  O   UNK     0     -26.166 -24.217  11.203  0.00  0.00    -0.776 OA
HETATM   50  H   UNK     0     -26.969 -23.790  10.726  0.00  0.00     0.167 HD
ENDBRANCH  47  49
ENDBRANCH  46  47
ENDBRANCH  45  46
ENDBRANCH  11  45
BRANCH  18  51
HETATM   51  C   UNK     0     -26.076 -21.582  17.546  0.00  0.00     0.051 C 
BRANCH  51  52
HETATM   52  C   UNK     0     -25.475 -20.234  17.914  0.00  0.00     0.114 C 
BRANCH  52  53
HETATM   53  C   UNK     0     -26.057 -19.695  19.159  0.00  0.00     0.139 C 
HETATM   54  O   UNK     0     -25.731 -20.176  20.256  0.00  0.00    -0.650 OA
BRANCH  53  55
HETATM   55  O   UNK     0     -26.961 -18.663  19.096  0.00  0.00    -0.776 OA
HETATM   56  H   UNK     0     -26.787 -17.755  18.731  0.00  0.00     0.167 HD
ENDBRANCH  53  55
ENDBRANCH  52  53
ENDBRANCH  51  52
ENDBRANCH  18  51
TORSDOF 16
ENDMDL
MODEL 14
REMARK VINA RESULT:      -8.2      2.993      9.082
REMARK  16 active torsions:
REMARK  status: ('A' for Active; 'I' for Inactive)
REMARK    1  A    between atoms: C_6  and  C_7 
REMARK    2  A    between atoms: C_7  and  C_8 
REMARK    3  A    between atoms: C_8  and  C_9 
REMARK    4  A    between atoms: C_9  and  O_11 
REMARK    5  A    between atoms: C_16  and  C_17 
REMARK    6  A    between atoms: C_17  and  C_18 
REMARK    7  A    between atoms: C_18  and  C_19 
REMARK    8  A    between atoms: C_19  and  O_21 
REMARK    9  A    between atoms: C_28  and  C_29 
REMARK   10  A    between atoms: C_29  and  C_30 
REMARK   11  A    between atoms: C_30  and  C_31 
REMARK   12  A    between atoms: C_31  and  O_33 
REMARK   13  A    between atoms: C_42  and  C_43 
REMARK   14  A    between atoms: C_43  and  C_44 
REMARK   15  A    between atoms: C_44  and  C_45 
REMARK   16  A    between atoms: C_45  and  O_47 
ROOT
HETATM    1  C   UNK     0     -23.946 -24.748  21.289  0.00  0.00     0.051 C 
HETATM    2  C   UNK     0     -22.582 -24.552  21.919  0.00  0.00    -0.031 A 
HETATM    3  C   UNK     0     -21.738 -23.453  21.867  0.00  0.00     0.021 A 
HETATM    4  N   UNK     0     -20.605 -23.735  22.552  0.00  0.00    -0.361 N 
HETATM    5  C   UNK     0     -20.710 -24.986  23.046  0.00  0.00     0.022 A 
HETATM    6  C   UNK     0     -21.934 -25.527  22.666  0.00  0.00    -0.027 A 
HETATM    7  C   UNK     0     -19.779 -25.736  23.946  0.00  0.00     0.115 C 
HETATM    8  C   UNK     0     -19.175 -24.959  25.103  0.00  0.00     0.021 A 
HETATM    9  N   UNK     0     -19.738 -23.993  25.845  0.00  0.00    -0.361 N 
HETATM   10  C   UNK     0     -18.804 -23.522  26.698  0.00  0.00     0.022 A 
HETATM   11  C   UNK     0     -17.609 -24.211  26.507  0.00  0.00    -0.027 A 
HETATM   12  C   UNK     0     -17.836 -25.117  25.503  0.00  0.00    -0.031 A 
HETATM   13  C   UNK     0     -16.817 -26.092  24.959  0.00  0.00     0.051 C 
HETATM   14  C   UNK     0     -18.984 -22.374  27.687  0.00  0.00     0.115 C 
HETATM   15  C   UNK     0     -19.324 -21.045  27.033  0.00  0.00     0.021 A 
HETATM   16  N   UNK     0     -20.377 -20.764  26.243  0.00  0.00    -0.361 N 
HETATM   17  C   UNK     0     -20.279 -19.505  25.812  0.00  0.00     0.022 A 
HETATM   18  C   UNK     0     -19.110 -18.935  26.354  0.00  0.00    -0.027 A 
HETATM   19  C   UNK     0     -18.521 -19.909  27.118  0.00  0.00    -0.031 A 
HETATM   20  C   UNK     0     -17.247 -19.702  27.915  0.00  0.00     0.051 C 
HETATM   21  C   UNK     0     -21.158 -18.734  24.854  0.00  0.00     0.115 C 
HETATM   22  C   UNK     0     -21.801 -19.503  23.724  0.00  0.00     0.022 A 
HETATM   23  N   UNK     0     -21.266 -20.472  22.971  0.00  0.00    -0.361 N 
HETATM   24  C   UNK     0     -22.235 -20.980  22.182  0.00  0.00     0.021 A 
HETATM   25  C   UNK     0     -23.421 -20.313  22.427  0.00  0.00    -0.031 A 
HETATM   26  C   UNK     0     -24.771 -20.496  21.765  0.00  0.00     0.051 C 
HETATM   27  C   UNK     0     -23.168 -19.363  23.410  0.00  0.00    -0.027 A 
HETATM   28  C   UNK     0     -22.135 -22.154  21.225  0.00  0.00     0.115 C 
HETATM   29  H   UNK     0     -19.721 -23.063  22.648  0.00  0.00     0.165 HD
HETATM   30  H   UNK     0     -20.809 -23.675  25.804  0.00  0.00     0.165 HD
HETATM   31  H   UNK     0     -21.234 -21.453  26.024  0.00  0.00     0.165 HD
HETATM   32  H   UNK     0     -20.188 -20.779  22.957  0.00  0.00     0.165 HD
ENDROOT
BRANCH   6  33
HETATM   33  C   UNK     0     -22.526 -26.884  22.953  0.00  0.00     0.051 C 
BRANCH  33  34
HETATM   34  C   UNK     0     -21.998 -27.914  21.983  0.00  0.00     0.114 C 
BRANCH  34  35
HETATM   35  C   UNK     0     -21.214 -28.909  22.770  0.00  0.00     0.139 C 
HETATM   36  O   UNK     0     -20.470 -29.745  22.179  0.00  0.00    -0.650 OA
BRANCH  35  37
HETATM   37  O   UNK     0     -21.256 -28.967  24.157  0.00  0.00    -0.776 OA
HETATM   38  H   UNK     0     -20.802 -29.702  24.676  0.00  0.00     0.167 HD
ENDBRANCH  35  37
ENDBRANCH  34  35
ENDBRANCH  33  34
ENDBRANCH   6  33
BRANCH  27  39
HETATM   39  C   UNK     0     -24.195 -18.399  23.888  0.00  0.00     0.051 C 
BRANCH  39  40
HETATM   40  C   UNK     0     -25.152 -17.866  22.918  0.00  0.00     0.114 C 
BRANCH  40  41
HETATM   41  C   UNK     0     -24.954 -16.595  22.258  0.00  0.00     0.139 C 
HETATM   42  O   UNK     0     -24.941 -16.459  21.027  0.00  0.00    -0.650 OA
BRANCH  41  43
HETATM   43  O   UNK     0     -24.761 -15.428  23.050  0.00  0.00    -0.776 OA
HETATM   44  H   UNK     0     -23.930 -14.897  22.819  0.00  0.00     0.167 HD
ENDBRANCH  41  43
ENDBRANCH  40  41
ENDBRANCH  39  40
ENDBRANCH  27  39
BRANCH  11  45
HETATM   45  C   UNK     0     -16.299 -24.041  27.227  0.00  0.00     0.051 C 
BRANCH  45  46
HETATM   46  C   UNK     0     -16.222 -24.763  28.523  0.00  0.00     0.114 C 
BRANCH  46  47
HETATM   47  C   UNK     0     -15.789 -26.159  28.226  0.00  0.00     0.139 C 
HETATM   48  O   UNK     0     -16.633 -27.064  28.278  0.00  0.00    -0.650 OA
BRANCH  47  49
HETATM   49  O   UNK     0     -14.484 -26.436  27.904  0.00  0.00    -0.776 OA
HETATM   50  H   UNK     0     -14.195 -27.351  27.540  0.00  0.00     0.167 HD
ENDBRANCH  47  49
ENDBRANCH  46  47
ENDBRANCH  45  46
ENDBRANCH  11  45
BRANCH  18  51
HETATM   51  C   UNK     0     -18.593 -17.531  26.172  0.00  0.00     0.051 C 
BRANCH  51  52
HETATM   52  C   UNK     0     -19.350 -16.665  27.168  0.00  0.00     0.114 C 
BRANCH  52  53
HETATM   53  C   UNK     0     -18.439 -15.970  28.097  0.00  0.00     0.139 C 
HETATM   54  O   UNK     0     -18.198 -14.762  27.944  0.00  0.00    -0.650 OA
BRANCH  53  55
HETATM   55  O   UNK     0     -17.856 -16.668  29.127  0.00  0.00    -0.776 OA
HETATM   56  H   UNK     0     -18.266 -16.852  30.012  0.00  0.00     0.167 HD
ENDBRANCH  53  55
ENDBRANCH  52  53
ENDBRANCH  51  52
ENDBRANCH  18  51
TORSDOF 16
ENDMDL
MODEL 15
REMARK VINA RESULT:      -8.1      4.636      7.924
REMARK  16 active torsions:
REMARK  status: ('A' for Active; 'I' for Inactive)
REMARK    1  A    between atoms: C_6  and  C_7 
REMARK    2  A    between atoms: C_7  and  C_8 
REMARK    3  A    between atoms: C_8  and  C_9 
REMARK    4  A    between atoms: C_9  and  O_11 
REMARK    5  A    between atoms: C_16  and  C_17 
REMARK    6  A    between atoms: C_17  and  C_18 
REMARK    7  A    between atoms: C_18  and  C_19 
REMARK    8  A    between atoms: C_19  and  O_21 
REMARK    9  A    between atoms: C_28  and  C_29 
REMARK   10  A    between atoms: C_29  and  C_30 
REMARK   11  A    between atoms: C_30  and  C_31 
REMARK   12  A    between atoms: C_31  and  O_33 
REMARK   13  A    between atoms: C_42  and  C_43 
REMARK   14  A    between atoms: C_43  and  C_44 
REMARK   15  A    between atoms: C_44  and  C_45 
REMARK   16  A    between atoms: C_45  and  O_47 
ROOT
HETATM    1  C   UNK     0     -18.028 -24.855  27.102  0.00  0.00     0.051 C 
HETATM    2  C   UNK     0     -18.597 -24.591  25.723  0.00  0.00    -0.031 A 
HETATM    3  C   UNK     0     -18.292 -25.197  24.514  0.00  0.00     0.021 A 
HETATM    4  N   UNK     0     -19.025 -24.619  23.533  0.00  0.00    -0.361 N 
HETATM    5  C   UNK     0     -19.797 -23.664  24.092  0.00  0.00     0.022 A 
HETATM    6  C   UNK     0     -19.553 -23.618  25.460  0.00  0.00    -0.027 A 
HETATM    7  C   UNK     0     -20.849 -22.804  23.465  0.00  0.00     0.115 C 
HETATM    8  C   UNK     0     -21.793 -23.483  22.488  0.00  0.00     0.021 A 
HETATM    9  N   UNK     0     -22.289 -24.730  22.534  0.00  0.00    -0.361 N 
HETATM   10  C   UNK     0     -23.010 -24.936  21.412  0.00  0.00     0.022 A 
HETATM   11  C   UNK     0     -22.986 -23.787  20.626  0.00  0.00    -0.027 A 
HETATM   12  C   UNK     0     -22.222 -22.868  21.299  0.00  0.00    -0.031 A 
HETATM   13  C   UNK     0     -21.922 -21.464  20.822  0.00  0.00     0.051 C 
HETATM   14  C   UNK     0     -23.703 -26.235  21.012  0.00  0.00     0.115 C 
HETATM   15  C   UNK     0     -22.755 -27.411  20.842  0.00  0.00     0.021 A 
HETATM   16  N   UNK     0     -21.920 -27.933  21.761  0.00  0.00    -0.361 N 
HETATM   17  C   UNK     0     -21.207 -28.911  21.200  0.00  0.00     0.022 A 
HETATM   18  C   UNK     0     -21.603 -29.041  19.853  0.00  0.00    -0.027 A 
HETATM   19  C   UNK     0     -22.574 -28.096  19.643  0.00  0.00    -0.031 A 
HETATM   20  C   UNK     0     -23.303 -27.916  18.324  0.00  0.00     0.051 C 
HETATM   21  C   UNK     0     -20.094 -29.756  21.777  0.00  0.00     0.115 C 
HETATM   22  C   UNK     0     -19.174 -29.106  22.783  0.00  0.00     0.022 A 
HETATM   23  N   UNK     0     -18.668 -27.865  22.764  0.00  0.00    -0.361 N 
HETATM   24  C   UNK     0     -18.019 -27.656  23.927  0.00  0.00     0.021 A 
HETATM   25  C   UNK     0     -18.099 -28.792  24.709  0.00  0.00    -0.031 A 
HETATM   26  C   UNK     0     -17.496 -29.056  26.073  0.00  0.00     0.051 C 
HETATM   27  C   UNK     0     -18.833 -29.734  23.997  0.00  0.00    -0.027 A 
HETATM   28  C   UNK     0     -17.362 -26.373  24.407  0.00  0.00     0.115 C 
HETATM   29  H   UNK     0     -18.963 -24.863  22.448  0.00  0.00     0.165 HD
HETATM   30  H   UNK     0     -22.172 -25.450  23.381  0.00  0.00     0.165 HD
HETATM   31  H   UNK     0     -21.866 -27.636  22.841  0.00  0.00     0.165 HD
HETATM   32  H   UNK     0     -18.729 -27.140  21.911  0.00  0.00     0.165 HD
ENDROOT
BRANCH   6  33
HETATM   33  C   UNK     0     -20.148 -22.729  26.522  0.00  0.00     0.051 C 
BRANCH  33  34
HETATM   34  C   UNK     0     -19.393 -21.424  26.613  0.00  0.00     0.114 C 
BRANCH  34  35
HETATM   35  C   UNK     0     -19.021 -21.222  28.043  0.00  0.00     0.139 C 
HETATM   36  O   UNK     0     -19.702 -21.764  28.961  0.00  0.00    -0.650 OA
BRANCH  35  37
HETATM   37  O   UNK     0     -17.934 -20.449  28.432  0.00  0.00    -0.776 OA
HETATM   38  H   UNK     0     -17.133 -20.313  27.835  0.00  0.00     0.167 HD
ENDBRANCH  35  37
ENDBRANCH  34  35
ENDBRANCH  33  34
ENDBRANCH   6  33
BRANCH  27  39
HETATM   39  C   UNK     0     -19.071 -31.118  24.491  0.00  0.00     0.051 C 
BRANCH  39  40
HETATM   40  C   UNK     0     -18.230 -32.195  23.969  0.00  0.00     0.114 C 
BRANCH  40  41
HETATM   41  C   UNK     0     -16.928 -31.946  23.394  0.00  0.00     0.139 C 
HETATM   42  O   UNK     0     -15.902 -31.784  24.068  0.00  0.00    -0.650 OA
BRANCH  41  43
HETATM   43  O   UNK     0     -16.799 -31.879  21.977  0.00  0.00    -0.776 OA
HETATM   44  H   UNK     0     -17.499 -32.405  21.468  0.00  0.00     0.167 HD
ENDBRANCH  41  43
ENDBRANCH  40  41
ENDBRANCH  39  40
ENDBRANCH  27  39
BRANCH  11  45
HETATM   45  C   UNK     0     -23.650 -23.541  19.298  0.00  0.00     0.051 C 
BRANCH  45  46
HETATM   46  C   UNK     0     -23.120 -24.379  18.192  0.00  0.00     0.114 C 
BRANCH  46  47
HETATM   47  C   UNK     0     -22.292 -23.493  17.324  0.00  0.00     0.139 C 
HETATM   48  O   UNK     0     -22.715 -23.206  16.195  0.00  0.00    -0.650 OA
BRANCH  47  49
HETATM   49  O   UNK     0     -21.087 -23.006  17.763  0.00  0.00    -0.776 OA
HETATM   50  H   UNK     0     -20.785 -23.099  18.740  0.00  0.00     0.167 HD
ENDBRANCH  47  49
ENDBRANCH  46  47
ENDBRANCH  45  46
ENDBRANCH  11  45
BRANCH  18  51
HETATM   51  C   UNK     0     -21.098 -30.024  18.830  0.00  0.00     0.051 C 
BRANCH  51  52
HETATM   52  C   UNK     0     -19.579 -29.963  18.892  0.00  0.00     0.114 C 
BRANCH  52  53
HETATM   53  C   UNK     0     -18.963 -31.265  18.576  0.00  0.00     0.139 C 
HETATM   54  O   UNK     0     -19.318 -31.892  17.564  0.00  0.00    -0.650 OA
BRANCH  53  55
HETATM   55  O   UNK     0     -17.998 -31.781  19.407  0.00  0.00    -0.776 OA
HETATM   56  H   UNK     0     -17.058 -31.470  19.474  0.00  0.00     0.167 HD
ENDBRANCH  53  55
ENDBRANCH  52  53
ENDBRANCH  51  52
ENDBRANCH  18  51
TORSDOF 16
ENDMDL
MODEL 16
REMARK VINA RESULT:      -8.1      3.905      6.018
REMARK  16 active torsions:
REMARK  status: ('A' for Active; 'I' for Inactive)
REMARK    1  A    between atoms: C_6  and  C_7 
REMARK    2  A    between atoms: C_7  and  C_8 
REMARK    3  A    between atoms: C_8  and  C_9 
REMARK    4  A    between atoms: C_9  and  O_11 
REMARK    5  A    between atoms: C_16  and  C_17 
REMARK    6  A    between atoms: C_17  and  C_18 
REMARK    7  A    between atoms: C_18  and  C_19 
REMARK    8  A    between atoms: C_19  and  O_21 
REMARK    9  A    between atoms: C_28  and  C_29 
REMARK   10  A    between atoms: C_29  and  C_30 
REMARK   11  A    between atoms: C_30  and  C_31 
REMARK   12  A    between atoms: C_31  and  O_33 
REMARK   13  A    between atoms: C_42  and  C_43 
REMARK   14  A    between atoms: C_43  and  C_44 
REMARK   15  A    between atoms: C_44  and  C_45 
REMARK   16  A    between atoms: C_45  and  O_47 
ROOT
HETATM    1  C   UNK     0     -17.194 -25.618  27.175  0.00  0.00     0.051 C 
HETATM    2  C   UNK     0     -17.988 -24.895  26.106  0.00  0.00    -0.031 A 
HETATM    3  C   UNK     0     -18.159 -25.216  24.769  0.00  0.00     0.021 A 
HETATM    4  N   UNK     0     -18.924 -24.267  24.181  0.00  0.00    -0.361 N 
HETATM    5  C   UNK     0     -19.252 -23.352  25.116  0.00  0.00     0.022 A 
HETATM    6  C   UNK     0     -18.680 -23.712  26.332  0.00  0.00    -0.027 A 
HETATM    7  C   UNK     0     -20.153 -22.161  25.009  0.00  0.00     0.115 C 
HETATM    8  C   UNK     0     -21.452 -22.356  24.247  0.00  0.00     0.021 A 
HETATM    9  N   UNK     0     -22.238 -23.443  24.198  0.00  0.00    -0.361 N 
HETATM   10  C   UNK     0     -23.238 -23.199  23.325  0.00  0.00     0.022 A 
HETATM   11  C   UNK     0     -23.097 -21.916  22.803  0.00  0.00    -0.027 A 
HETATM   12  C   UNK     0     -21.974 -21.379  23.380  0.00  0.00    -0.031 A 
HETATM   13  C   UNK     0     -21.433 -19.993  23.115  0.00  0.00     0.051 C 
HETATM   14  C   UNK     0     -24.330 -24.179  22.908  0.00  0.00     0.115 C 
HETATM   15  C   UNK     0     -23.804 -25.440  22.241  0.00  0.00     0.021 A 
HETATM   16  N   UNK     0     -22.944 -26.341  22.751  0.00  0.00    -0.361 N 
HETATM   17  C   UNK     0     -22.678 -27.266  21.825  0.00  0.00     0.022 A 
HETATM   18  C   UNK     0     -23.407 -26.958  20.660  0.00  0.00    -0.027 A 
HETATM   19  C   UNK     0     -24.109 -25.813  20.934  0.00  0.00    -0.031 A 
HETATM   20  C   UNK     0     -25.060 -25.151  19.952  0.00  0.00     0.051 C 
HETATM   21  C   UNK     0     -21.728 -28.441  21.871  0.00  0.00     0.115 C 
HETATM   22  C   UNK     0     -20.451 -28.276  22.662  0.00  0.00     0.022 A 
HETATM   23  N   UNK     0     -19.651 -27.204  22.732  0.00  0.00    -0.361 N 
HETATM   24  C   UNK     0     -18.708 -27.441  23.666  0.00  0.00     0.021 A 
HETATM   25  C   UNK     0     -18.899 -28.700  24.203  0.00  0.00    -0.031 A 
HETATM   26  C   UNK     0     -18.077 -29.425  25.248  0.00  0.00     0.051 C 
HETATM   27  C   UNK     0     -20.009 -29.254  23.576  0.00  0.00    -0.027 A 
HETATM   28  C   UNK     0     -17.634 -26.489  24.165  0.00  0.00     0.115 C 
HETATM   29  H   UNK     0     -19.195 -24.228  23.100  0.00  0.00     0.165 HD
HETATM   30  H   UNK     0     -22.118 -24.366  24.817  0.00  0.00     0.165 HD
HETATM   31  H   UNK     0     -22.552 -26.352  23.801  0.00  0.00     0.165 HD
HETATM   32  H   UNK     0     -19.719 -26.287  22.092  0.00  0.00     0.165 HD
ENDROOT
BRANCH   6  33
HETATM   33  C   UNK     0     -18.739 -23.027  27.673  0.00  0.00     0.051 C 
BRANCH  33  34
HETATM   34  C   UNK     0     -20.124 -23.132  28.268  0.00  0.00     0.114 C 
BRANCH  34  35
HETATM   35  C   UNK     0     -19.977 -23.688  29.644  0.00  0.00     0.139 C 
HETATM   36  O   UNK     0     -19.669 -24.904  29.811  0.00  0.00    -0.650 OA
BRANCH  35  37
HETATM   37  O   UNK     0     -20.164 -22.919  30.786  0.00  0.00    -0.776 OA
HETATM   38  H   UNK     0     -20.815 -23.183  31.508  0.00  0.00     0.167 HD
ENDBRANCH  35  37
ENDBRANCH  34  35
ENDBRANCH  33  34
ENDBRANCH   6  33
BRANCH  27  39
HETATM   39  C   UNK     0     -20.483 -30.639  23.843  0.00  0.00     0.051 C 
BRANCH  39  40
HETATM   40  C   UNK     0     -20.087 -31.699  22.916  0.00  0.00     0.114 C 
BRANCH  40  41
HETATM   41  C   UNK     0     -18.753 -32.257  22.909  0.00  0.00     0.139 C 
HETATM   42  O   UNK     0     -18.398 -33.191  23.641  0.00  0.00    -0.650 OA
BRANCH  41  43
HETATM   43  O   UNK     0     -17.782 -31.716  22.019  0.00  0.00    -0.776 OA
HETATM   44  H   UNK     0     -17.647 -30.716  22.104  0.00  0.00     0.167 HD
ENDBRANCH  41  43
ENDBRANCH  40  41
ENDBRANCH  39  40
ENDBRANCH  27  39
BRANCH  11  45
HETATM   45  C   UNK     0     -23.971 -21.204  21.806  0.00  0.00     0.051 C 
BRANCH  45  46
HETATM   46  C   UNK     0     -23.621 -21.478  20.389  0.00  0.00     0.114 C 
BRANCH  46  47
HETATM   47  C   UNK     0     -24.652 -20.812  19.542  0.00  0.00     0.139 C 
HETATM   48  O   UNK     0     -25.681 -20.387  20.086  0.00  0.00    -0.650 OA
BRANCH  47  49
HETATM   49  O   UNK     0     -24.467 -20.671  18.190  0.00  0.00    -0.776 OA
HETATM   50  H   UNK     0     -25.204 -20.901  17.513  0.00  0.00     0.167 HD
ENDBRANCH  47  49
ENDBRANCH  46  47
ENDBRANCH  45  46
ENDBRANCH  11  45
BRANCH  18  51
HETATM   51  C   UNK     0     -23.449 -27.725  19.364  0.00  0.00     0.051 C 
BRANCH  51  52
HETATM   52  C   UNK     0     -23.108 -26.727  18.267  0.00  0.00     0.114 C 
BRANCH  52  53
HETATM   53  C   UNK     0     -22.744 -27.400  17.005  0.00  0.00     0.139 C 
HETATM   54  O   UNK     0     -22.933 -28.620  16.875  0.00  0.00    -0.650 OA
BRANCH  53  55
HETATM   55  O   UNK     0     -22.193 -26.670  15.980  0.00  0.00    -0.776 OA
HETATM   56  H   UNK     0     -21.275 -26.293  15.959  0.00  0.00     0.167 HD
ENDBRANCH  53  55
ENDBRANCH  52  53
ENDBRANCH  51  52
ENDBRANCH  18  51
TORSDOF 16
ENDMDL
MODEL 17
REMARK VINA RESULT:      -8.0      6.085     11.140
REMARK  16 active torsions:
REMARK  status: ('A' for Active; 'I' for Inactive)
REMARK    1  A    between atoms: C_6  and  C_7 
REMARK    2  A    between atoms: C_7  and  C_8 
REMARK    3  A    between atoms: C_8  and  C_9 
REMARK    4  A    between atoms: C_9  and  O_11 
REMARK    5  A    between atoms: C_16  and  C_17 
REMARK    6  A    between atoms: C_17  and  C_18 
REMARK    7  A    between atoms: C_18  and  C_19 
REMARK    8  A    between atoms: C_19  and  O_21 
REMARK    9  A    between atoms: C_28  and  C_29 
REMARK   10  A    between atoms: C_29  and  C_30 
REMARK   11  A    between atoms: C_30  and  C_31 
REMARK   12  A    between atoms: C_31  and  O_33 
REMARK   13  A    between atoms: C_42  and  C_43 
REMARK   14  A    between atoms: C_43  and  C_44 
REMARK   15  A    between atoms: C_44  and  C_45 
REMARK   16  A    between atoms: C_45  and  O_47 
ROOT
HETATM    1  C   UNK     0     -20.915 -27.325  23.023  0.00  0.00     0.051 C 
HETATM    2  C   UNK     0     -21.293 -27.994  21.717  0.00  0.00    -0.031 A 
HETATM    3  C   UNK     0     -22.379 -27.757  20.890  0.00  0.00     0.021 A 
HETATM    4  N   UNK     0     -22.331 -28.614  19.842  0.00  0.00    -0.361 N 
HETATM    5  C   UNK     0     -21.233 -29.385  19.979  0.00  0.00     0.022 A 
HETATM    6  C   UNK     0     -20.561 -29.026  21.143  0.00  0.00    -0.027 A 
HETATM    7  C   UNK     0     -20.673 -30.418  19.052  0.00  0.00     0.115 C 
HETATM    8  C   UNK     0     -20.672 -30.076  17.572  0.00  0.00     0.021 A 
HETATM    9  N   UNK     0     -20.474 -28.884  16.990  0.00  0.00    -0.361 N 
HETATM   10  C   UNK     0     -20.654 -29.032  15.660  0.00  0.00     0.022 A 
HETATM   11  C   UNK     0     -20.968 -30.358  15.377  0.00  0.00    -0.027 A 
HETATM   12  C   UNK     0     -20.980 -31.022  16.578  0.00  0.00    -0.031 A 
HETATM   13  C   UNK     0     -21.270 -32.495  16.759  0.00  0.00     0.051 C 
HETATM   14  C   UNK     0     -20.591 -27.923  14.613  0.00  0.00     0.115 C 
HETATM   15  C   UNK     0     -21.619 -26.823  14.819  0.00  0.00     0.021 A 
HETATM   16  N   UNK     0     -21.774 -26.035  15.900  0.00  0.00    -0.361 N 
HETATM   17  C   UNK     0     -22.833 -25.244  15.717  0.00  0.00     0.022 A 
HETATM   18  C   UNK     0     -23.389 -25.522  14.452  0.00  0.00    -0.027 A 
HETATM   19  C   UNK     0     -22.619 -26.511  13.899  0.00  0.00    -0.031 A 
HETATM   20  C   UNK     0     -22.850 -27.087  12.514  0.00  0.00     0.051 C 
HETATM   21  C   UNK     0     -23.468 -24.239  16.651  0.00  0.00     0.115 C 
HETATM   22  C   UNK     0     -23.437 -24.545  18.130  0.00  0.00     0.022 A 
HETATM   23  N   UNK     0     -23.627 -25.723  18.738  0.00  0.00    -0.361 N 
HETATM   24  C   UNK     0     -23.366 -25.569  20.052  0.00  0.00     0.021 A 
HETATM   25  C   UNK     0     -23.010 -24.257  20.297  0.00  0.00    -0.031 A 
HETATM   26  C   UNK     0     -22.667 -23.593  21.615  0.00  0.00     0.051 C 
HETATM   27  C   UNK     0     -23.048 -23.581  19.083  0.00  0.00    -0.027 A 
HETATM   28  C   UNK     0     -23.355 -26.639  21.129  0.00  0.00     0.115 C 
HETATM   29  H   UNK     0     -23.094 -28.694  19.034  0.00  0.00     0.165 HD
HETATM   30  H   UNK     0     -20.157 -27.946  17.508  0.00  0.00     0.165 HD
HETATM   31  H   UNK     0     -21.095 -26.004  16.791  0.00  0.00     0.165 HD
HETATM   32  H   UNK     0     -23.989 -26.666  18.251  0.00  0.00     0.165 HD
ENDROOT
BRANCH   6  33
HETATM   33  C   UNK     0     -19.296 -29.583  21.745  0.00  0.00     0.051 C 
BRANCH  33  34
HETATM   34  C   UNK     0     -19.605 -30.739  22.666  0.00  0.00     0.114 C 
BRANCH  34  35
HETATM   35  C   UNK     0     -19.005 -30.425  23.994  0.00  0.00     0.139 C 
HETATM   36  O   UNK     0     -19.742 -30.060  24.956  0.00  0.00    -0.650 OA
BRANCH  35  37
HETATM   37  O   UNK     0     -17.640 -30.517  24.240  0.00  0.00    -0.776 OA
HETATM   38  H   UNK     0     -17.236 -30.240  25.120  0.00  0.00     0.167 HD
ENDBRANCH  35  37
ENDBRANCH  34  35
ENDBRANCH  33  34
ENDBRANCH   6  33
BRANCH  27  39
HETATM   39  C   UNK     0     -22.792 -22.121  18.959  0.00  0.00     0.051 C 
BRANCH  39  40
HETATM   40  C   UNK     0     -23.649 -21.339  18.068  0.00  0.00     0.114 C 
BRANCH  40  41
HETATM   41  C   UNK     0     -23.109 -20.443  17.070  0.00  0.00     0.139 C 
HETATM   42  O   UNK     0     -23.362 -19.231  17.031  0.00  0.00    -0.650 OA
BRANCH  41  43
HETATM   43  O   UNK     0     -22.238 -20.964  16.072  0.00  0.00    -0.776 OA
HETATM   44  H   UNK     0     -21.935 -21.916  16.236  0.00  0.00     0.167 HD
ENDBRANCH  41  43
ENDBRANCH  40  41
ENDBRANCH  39  40
ENDBRANCH  27  39
BRANCH  11  45
HETATM   45  C   UNK     0     -21.245 -30.997  14.043  0.00  0.00     0.051 C 
BRANCH  45  46
HETATM   46  C   UNK     0     -20.064 -31.657  13.430  0.00  0.00     0.114 C 
BRANCH  46  47
HETATM   47  C   UNK     0     -20.576 -32.693  12.488  0.00  0.00     0.139 C 
HETATM   48  O   UNK     0     -19.758 -33.365  11.845  0.00  0.00    -0.650 OA
BRANCH  47  49
HETATM   49  O   UNK     0     -21.924 -32.897  12.334  0.00  0.00    -0.776 OA
HETATM   50  H   UNK     0     -22.463 -33.489  12.977  0.00  0.00     0.167 HD
ENDBRANCH  47  49
ENDBRANCH  46  47
ENDBRANCH  45  46
ENDBRANCH  11  45
BRANCH  18  51
HETATM   51  C   UNK     0     -24.577 -24.865  13.798  0.00  0.00     0.051 C 
BRANCH  51  52
HETATM   52  C   UNK     0     -24.015 -23.817  12.848  0.00  0.00     0.114 C 
BRANCH  52  53
HETATM   53  C   UNK     0     -23.755 -22.537  13.534  0.00  0.00     0.139 C 
HETATM   54  O   UNK     0     -24.631 -22.027  14.250  0.00  0.00    -0.650 OA
BRANCH  53  55
HETATM   55  O   UNK     0     -22.543 -21.912  13.371  0.00  0.00    -0.776 OA
HETATM   56  H   UNK     0     -21.745 -22.294  12.920  0.00  0.00     0.167 HD
ENDBRANCH  53  55
ENDBRANCH  52  53
ENDBRANCH  51  52
ENDBRANCH  18  51
TORSDOF 16
ENDMDL
MODEL 18
REMARK VINA RESULT:      -8.0      7.225     12.480
REMARK  16 active torsions:
REMARK  status: ('A' for Active; 'I' for Inactive)
REMARK    1  A    between atoms: C_6  and  C_7 
REMARK    2  A    between atoms: C_7  and  C_8 
REMARK    3  A    between atoms: C_8  and  C_9 
REMARK    4  A    between atoms: C_9  and  O_11 
REMARK    5  A    between atoms: C_16  and  C_17 
REMARK    6  A    between atoms: C_17  and  C_18 
REMARK    7  A    between atoms: C_18  and  C_19 
REMARK    8  A    between atoms: C_19  and  O_21 
REMARK    9  A    between atoms: C_28  and  C_29 
REMARK   10  A    between atoms: C_29  and  C_30 
REMARK   11  A    between atoms: C_30  and  C_31 
REMARK   12  A    between atoms: C_31  and  O_33 
REMARK   13  A    between atoms: C_42  and  C_43 
REMARK   14  A    between atoms: C_43  and  C_44 
REMARK   15  A    between atoms: C_44  and  C_45 
REMARK   16  A    between atoms: C_45  and  O_47 
ROOT
HETATM    1  C   UNK     0     -22.903 -28.177   9.275  0.00  0.00     0.051 C 
HETATM    2  C   UNK     0     -23.627 -27.436  10.381  0.00  0.00    -0.031 A 
HETATM    3  C   UNK     0     -24.192 -27.929  11.546  0.00  0.00     0.021 A 
HETATM    4  N   UNK     0     -24.763 -26.906  12.226  0.00  0.00    -0.361 N 
HETATM    5  C   UNK     0     -24.567 -25.772  11.523  0.00  0.00     0.022 A 
HETATM    6  C   UNK     0     -23.862 -26.068  10.362  0.00  0.00    -0.027 A 
HETATM    7  C   UNK     0     -24.915 -24.360  11.878  0.00  0.00     0.115 C 
HETATM    8  C   UNK     0     -24.644 -23.930  13.309  0.00  0.00     0.021 A 
HETATM    9  N   UNK     0     -23.634 -24.295  14.115  0.00  0.00    -0.361 N 
HETATM   10  C   UNK     0     -23.845 -23.742  15.328  0.00  0.00     0.022 A 
HETATM   11  C   UNK     0     -25.018 -22.992  15.300  0.00  0.00    -0.027 A 
HETATM   12  C   UNK     0     -25.526 -23.106  14.031  0.00  0.00    -0.031 A 
HETATM   13  C   UNK     0     -26.795 -22.451  13.536  0.00  0.00     0.051 C 
HETATM   14  C   UNK     0     -22.983 -23.939  16.571  0.00  0.00     0.115 C 
HETATM   15  C   UNK     0     -22.897 -25.384  17.038  0.00  0.00     0.021 A 
HETATM   16  N   UNK     0     -22.451 -26.447  16.343  0.00  0.00    -0.361 N 
HETATM   17  C   UNK     0     -22.604 -27.549  17.080  0.00  0.00     0.022 A 
HETATM   18  C   UNK     0     -23.169 -27.185  18.319  0.00  0.00    -0.027 A 
HETATM   19  C   UNK     0     -23.346 -25.827  18.280  0.00  0.00    -0.031 A 
HETATM   20  C   UNK     0     -23.901 -25.015  19.436  0.00  0.00     0.051 C 
HETATM   21  C   UNK     0     -22.328 -28.995  16.735  0.00  0.00     0.115 C 
HETATM   22  C   UNK     0     -22.552 -29.426  15.305  0.00  0.00     0.022 A 
HETATM   23  N   UNK     0     -23.545 -29.075  14.478  0.00  0.00    -0.361 N 
HETATM   24  C   UNK     0     -23.274 -29.573  13.255  0.00  0.00     0.021 A 
HETATM   25  C   UNK     0     -22.082 -30.270  13.298  0.00  0.00    -0.031 A 
HETATM   26  C   UNK     0     -21.385 -31.037  12.192  0.00  0.00     0.051 C 
HETATM   27  C   UNK     0     -21.601 -30.190  14.599  0.00  0.00    -0.027 A 
HETATM   28  C   UNK     0     -24.058 -29.364  11.971  0.00  0.00     0.115 C 
HETATM   29  H   UNK     0     -25.335 -27.000  13.178  0.00  0.00     0.165 HD
HETATM   30  H   UNK     0     -22.745 -24.902  13.816  0.00  0.00     0.165 HD
HETATM   31  H   UNK     0     -21.973 -26.413  15.329  0.00  0.00     0.165 HD
HETATM   32  H   UNK     0     -24.471 -28.509  14.761  0.00  0.00     0.165 HD
ENDROOT
BRANCH   6  33
HETATM   33  C   UNK     0     -23.402 -25.161   9.248  0.00  0.00     0.051 C 
BRANCH  33  34
HETATM   34  C   UNK     0     -24.500 -24.968   8.228  0.00  0.00     0.114 C 
BRANCH  34  35
HETATM   35  C   UNK     0     -24.556 -23.513   7.903  0.00  0.00     0.139 C 
HETATM   36  O   UNK     0     -24.480 -23.126   6.701  0.00  0.00    -0.650 OA
BRANCH  35  37
HETATM   37  O   UNK     0     -24.693 -22.532   8.877  0.00  0.00    -0.776 OA
HETATM   38  H   UNK     0     -24.167 -22.554   9.736  0.00  0.00     0.167 HD
ENDBRANCH  35  37
ENDBRANCH  34  35
ENDBRANCH  33  34
ENDBRANCH   6  33
BRANCH  27  39
HETATM   39  C   UNK     0     -20.364 -30.884  15.051  0.00  0.00     0.051 C 
BRANCH  39  40
HETATM   40  C   UNK     0     -20.458 -32.294  15.428  0.00  0.00     0.114 C 
BRANCH  40  41
HETATM   41  C   UNK     0     -20.875 -32.713  16.747  0.00  0.00     0.139 C 
HETATM   42  O   UNK     0     -21.627 -33.675  16.953  0.00  0.00    -0.650 OA
BRANCH  41  43
HETATM   43  O   UNK     0     -20.407 -31.991  17.882  0.00  0.00    -0.776 OA
HETATM   44  H   UNK     0     -20.711 -32.366  18.772  0.00  0.00     0.167 HD
ENDBRANCH  41  43
ENDBRANCH  40  41
ENDBRANCH  39  40
ENDBRANCH  27  39
BRANCH  11  45
HETATM   45  C   UNK     0     -25.651 -22.192  16.407  0.00  0.00     0.051 C 
BRANCH  45  46
HETATM   46  C   UNK     0     -24.900 -20.964  16.772  0.00  0.00     0.114 C 
BRANCH  46  47
HETATM   47  C   UNK     0     -25.130 -20.721  18.225  0.00  0.00     0.139 C 
HETATM   48  O   UNK     0     -25.292 -21.698  18.970  0.00  0.00    -0.650 OA
BRANCH  47  49
HETATM   49  O   UNK     0     -25.164 -19.445  18.728  0.00  0.00    -0.776 OA
HETATM   50  H   UNK     0     -24.309 -18.940  18.991  0.00  0.00     0.167 HD
ENDBRANCH  47  49
ENDBRANCH  46  47
ENDBRANCH  45  46
ENDBRANCH  11  45
BRANCH  18  51
HETATM   51  C   UNK     0     -23.502 -28.081  19.483  0.00  0.00     0.051 C 
BRANCH  51  52
HETATM   52  C   UNK     0     -22.211 -28.254  20.270  0.00  0.00     0.114 C 
BRANCH  52  53
HETATM   53  C   UNK     0     -22.387 -27.914  21.696  0.00  0.00     0.139 C 
HETATM   54  O   UNK     0     -22.058 -28.727  22.574  0.00  0.00    -0.650 OA
BRANCH  53  55
HETATM   55  O   UNK     0     -22.918 -26.695  22.043  0.00  0.00    -0.776 OA
HETATM   56  H   UNK     0     -22.670 -26.156  22.839  0.00  0.00     0.167 HD
ENDBRANCH  53  55
ENDBRANCH  52  53
ENDBRANCH  51  52
ENDBRANCH  18  51
TORSDOF 16
ENDMDL
MODEL 19
REMARK VINA RESULT:      -7.9      2.860      8.932
REMARK  16 active torsions:
REMARK  status: ('A' for Active; 'I' for Inactive)
REMARK    1  A    between atoms: C_6  and  C_7 
REMARK    2  A    between atoms: C_7  and  C_8 
REMARK    3  A    between atoms: C_8  and  C_9 
REMARK    4  A    between atoms: C_9  and  O_11 
REMARK    5  A    between atoms: C_16  and  C_17 
REMARK    6  A    between atoms: C_17  and  C_18 
REMARK    7  A    between atoms: C_18  and  C_19 
REMARK    8  A    between atoms: C_19  and  O_21 
REMARK    9  A    between atoms: C_28  and  C_29 
REMARK   10  A    between atoms: C_29  and  C_30 
REMARK   11  A    between atoms: C_30  and  C_31 
REMARK   12  A    between atoms: C_31  and  O_33 
REMARK   13  A    between atoms: C_42  and  C_43 
REMARK   14  A    between atoms: C_43  and  C_44 
REMARK   15  A    between atoms: C_44  and  C_45 
REMARK   16  A    between atoms: C_45  and  O_47 
ROOT
HETATM    1  C   UNK     0     -21.507 -16.933  25.909  0.00  0.00     0.051 C 
HETATM    2  C   UNK     0     -21.429 -18.022  24.858  0.00  0.00    -0.031 A 
HETATM    3  C   UNK     0     -20.361 -18.833  24.509  0.00  0.00     0.021 A 
HETATM    4  N   UNK     0     -20.736 -19.644  23.492  0.00  0.00    -0.361 N 
HETATM    5  C   UNK     0     -22.023 -19.373  23.189  0.00  0.00     0.022 A 
HETATM    6  C   UNK     0     -22.486 -18.361  24.023  0.00  0.00    -0.027 A 
HETATM    7  C   UNK     0     -22.933 -20.047  22.211  0.00  0.00     0.115 C 
HETATM    8  C   UNK     0     -22.880 -21.564  22.164  0.00  0.00     0.021 A 
HETATM    9  N   UNK     0     -22.692 -22.425  23.176  0.00  0.00    -0.361 N 
HETATM   10  C   UNK     0     -22.626 -23.671  22.659  0.00  0.00     0.022 A 
HETATM   11  C   UNK     0     -22.786 -23.610  21.278  0.00  0.00    -0.027 A 
HETATM   12  C   UNK     0     -22.947 -22.286  20.959  0.00  0.00    -0.031 A 
HETATM   13  C   UNK     0     -23.160 -21.741  19.565  0.00  0.00     0.051 C 
HETATM   14  C   UNK     0     -22.357 -24.956  23.436  0.00  0.00     0.115 C 
HETATM   15  C   UNK     0     -21.012 -24.978  24.145  0.00  0.00     0.021 A 
HETATM   16  N   UNK     0     -20.558 -24.113  25.071  0.00  0.00    -0.361 N 
HETATM   17  C   UNK     0     -19.304 -24.435  25.394  0.00  0.00     0.022 A 
HETATM   18  C   UNK     0     -18.925 -25.570  24.649  0.00  0.00    -0.027 A 
HETATM   19  C   UNK     0     -20.005 -25.900  23.871  0.00  0.00    -0.031 A 
HETATM   20  C   UNK     0     -20.036 -27.094  22.935  0.00  0.00     0.051 C 
HETATM   21  C   UNK     0     -18.332 -23.745  26.324  0.00  0.00     0.115 C 
HETATM   22  C   UNK     0     -18.402 -22.239  26.413  0.00  0.00     0.022 A 
HETATM   23  N   UNK     0     -18.593 -21.356  25.424  0.00  0.00    -0.361 N 
HETATM   24  C   UNK     0     -18.734 -20.131  25.970  0.00  0.00     0.021 A 
HETATM   25  C   UNK     0     -18.620 -20.226  27.343  0.00  0.00    -0.031 A 
HETATM   26  C   UNK     0     -18.666 -19.124  28.382  0.00  0.00     0.051 C 
HETATM   27  C   UNK     0     -18.407 -21.565  27.651  0.00  0.00    -0.027 A 
HETATM   28  C   UNK     0     -19.059 -18.829  25.259  0.00  0.00     0.115 C 
HETATM   29  H   UNK     0     -20.077 -20.374  22.967  0.00  0.00     0.165 HD
HETATM   30  H   UNK     0     -22.654 -22.163  24.261  0.00  0.00     0.165 HD
HETATM   31  H   UNK     0     -21.151 -23.287  25.543  0.00  0.00     0.165 HD
HETATM   32  H   UNK     0     -18.588 -21.584  24.326  0.00  0.00     0.165 HD
ENDROOT
BRANCH   6  33
HETATM   33  C   UNK     0     -23.839 -17.698  24.085  0.00  0.00     0.051 C 
BRANCH  33  34
HETATM   34  C   UNK     0     -23.973 -16.653  23.002  0.00  0.00     0.114 C 
BRANCH  34  35
HETATM   35  C   UNK     0     -25.037 -17.115  22.065  0.00  0.00     0.139 C 
HETATM   36  O   UNK     0     -25.342 -16.418  21.054  0.00  0.00    -0.650 OA
BRANCH  35  37
HETATM   37  O   UNK     0     -25.730 -18.305  22.246  0.00  0.00    -0.776 OA
HETATM   38  H   UNK     0     -26.162 -18.795  21.479  0.00  0.00     0.167 HD
ENDBRANCH  35  37
ENDBRANCH  34  35
ENDBRANCH  33  34
ENDBRANCH   6  33
BRANCH  27  39
HETATM   39  C   UNK     0     -18.165 -22.049  29.037  0.00  0.00     0.051 C 
BRANCH  39  40
HETATM   40  C   UNK     0     -19.304 -22.545  29.808  0.00  0.00     0.114 C 
BRANCH  40  41
HETATM   41  C   UNK     0     -20.082 -23.688  29.385  0.00  0.00     0.139 C 
HETATM   42  O   UNK     0     -21.110 -23.599  28.700  0.00  0.00    -0.650 OA
BRANCH  41  43
HETATM   43  O   UNK     0     -19.659 -24.992  29.768  0.00  0.00    -0.776 OA
HETATM   44  H   UNK     0     -19.849 -25.228  30.734  0.00  0.00     0.167 HD
ENDBRANCH  41  43
ENDBRANCH  40  41
ENDBRANCH  39  40
ENDBRANCH  27  39
BRANCH  11  45
HETATM   45  C   UNK     0     -22.793 -24.737  20.280  0.00  0.00     0.051 C 
BRANCH  45  46
HETATM   46  C   UNK     0     -24.049 -25.531  20.272  0.00  0.00     0.114 C 
BRANCH  46  47
HETATM   47  C   UNK     0     -23.668 -26.959  20.075  0.00  0.00     0.139 C 
HETATM   48  O   UNK     0     -23.934 -27.499  18.993  0.00  0.00    -0.650 OA
BRANCH  47  49
HETATM   49  O   UNK     0     -23.037 -27.661  21.071  0.00  0.00    -0.776 OA
HETATM   50  H   UNK     0     -22.117 -27.385  21.434  0.00  0.00     0.167 HD
ENDBRANCH  47  49
ENDBRANCH  46  47
ENDBRANCH  45  46
ENDBRANCH  11  45
BRANCH  18  51
HETATM   51  C   UNK     0     -17.614 -26.311  24.692  0.00  0.00     0.051 C 
BRANCH  51  52
HETATM   52  C   UNK     0     -17.518 -26.927  26.080  0.00  0.00     0.114 C 
BRANCH  52  53
HETATM   53  C   UNK     0     -17.586 -28.401  26.033  0.00  0.00     0.139 C 
HETATM   54  O   UNK     0     -18.629 -28.964  25.664  0.00  0.00    -0.650 OA
BRANCH  53  55
HETATM   55  O   UNK     0     -16.490 -29.143  26.402  0.00  0.00    -0.776 OA
HETATM   56  H   UNK     0     -15.541 -28.860  26.328  0.00  0.00     0.167 HD
ENDBRANCH  53  55
ENDBRANCH  52  53
ENDBRANCH  51  52
ENDBRANCH  18  51
TORSDOF 16
ENDMDL
MODEL 20
REMARK VINA RESULT:      -7.7     28.052     33.979
REMARK  16 active torsions:
REMARK  status: ('A' for Active; 'I' for Inactive)
REMARK    1  A    between atoms: C_6  and  C_7 
REMARK    2  A    between atoms: C_7  and  C_8 
REMARK    3  A    between atoms: C_8  and  C_9 
REMARK    4  A    between atoms: C_9  and  O_11 
REMARK    5  A    between atoms: C_16  and  C_17 
REMARK    6  A    between atoms: C_17  and  C_18 
REMARK    7  A    between atoms: C_18  and  C_19 
REMARK    8  A    between atoms: C_19  and  O_21 
REMARK    9  A    between atoms: C_28  and  C_29 
REMARK   10  A    between atoms: C_29  and  C_30 
REMARK   11  A    between atoms: C_30  and  C_31 
REMARK   12  A    between atoms: C_31  and  O_33 
REMARK   13  A    between atoms: C_42  and  C_43 
REMARK   14  A    between atoms: C_43  and  C_44 
REMARK   15  A    between atoms: C_44  and  C_45 
REMARK   16  A    between atoms: C_45  and  O_47 
ROOT
HETATM    1  C   UNK     0     -13.400  15.042  21.780  0.00  0.00     0.051 C 
HETATM    2  C   UNK     0     -13.629  13.544  21.793  0.00  0.00    -0.031 A 
HETATM    3  C   UNK     0     -12.715  12.514  21.645  0.00  0.00     0.021 A 
HETATM    4  N   UNK     0     -13.372  11.330  21.692  0.00  0.00    -0.361 N 
HETATM    5  C   UNK     0     -14.684  11.585  21.876  0.00  0.00     0.022 A 
HETATM    6  C   UNK     0     -14.880  12.960  21.941  0.00  0.00    -0.027 A 
HETATM    7  C   UNK     0     -15.818  10.631  22.089  0.00  0.00     0.115 C 
HETATM    8  C   UNK     0     -15.559   9.461  23.022  0.00  0.00     0.021 A 
HETATM    9  N   UNK     0     -14.812   9.431  24.137  0.00  0.00    -0.361 N 
HETATM   10  C   UNK     0     -14.791   8.161  24.593  0.00  0.00     0.022 A 
HETATM   11  C   UNK     0     -15.553   7.352  23.754  0.00  0.00    -0.027 A 
HETATM   12  C   UNK     0     -16.040   8.166  22.763  0.00  0.00    -0.031 A 
HETATM   13  C   UNK     0     -16.928   7.719  21.623  0.00  0.00     0.051 C 
HETATM   14  C   UNK     0     -14.013   7.650  25.802  0.00  0.00     0.115 C 
HETATM   15  C   UNK     0     -12.508   7.830  25.686  0.00  0.00     0.021 A 
HETATM   16  N   UNK     0     -11.829   8.980  25.513  0.00  0.00    -0.361 N 
HETATM   17  C   UNK     0     -10.529   8.708  25.389  0.00  0.00     0.022 A 
HETATM   18  C   UNK     0     -10.350   7.314  25.496  0.00  0.00    -0.027 A 
HETATM   19  C   UNK     0     -11.597   6.776  25.683  0.00  0.00    -0.031 A 
HETATM   20  C   UNK     0     -11.855   5.294  25.884  0.00  0.00     0.051 C 
HETATM   21  C   UNK     0      -9.365   9.631  25.109  0.00  0.00     0.115 C 
HETATM   22  C   UNK     0      -9.619  10.823  24.217  0.00  0.00     0.022 A 
HETATM   23  N   UNK     0     -10.361  10.883  23.103  0.00  0.00    -0.361 N 
HETATM   24  C   UNK     0     -10.431  12.171  22.710  0.00  0.00     0.021 A 
HETATM   25  C   UNK     0      -9.709  12.958  23.586  0.00  0.00    -0.031 A 
HETATM   26  C   UNK     0      -9.460  14.451  23.543  0.00  0.00     0.051 C 
HETATM   27  C   UNK     0      -9.179  12.118  24.559  0.00  0.00    -0.027 A 
HETATM   28  C   UNK     0     -11.233  12.748  21.556  0.00  0.00     0.115 C 
HETATM   29  H   UNK     0     -12.909  10.325  21.556  0.00  0.00     0.165 HD
HETATM   30  H   UNK     0     -14.339  10.314  24.633  0.00  0.00     0.165 HD
HETATM   31  H   UNK     0     -12.271  10.011  25.526  0.00  0.00     0.165 HD
HETATM   32  H   UNK     0     -10.806  10.010  22.559  0.00  0.00     0.165 HD
ENDROOT
BRANCH   6  33
HETATM   33  C   UNK     0     -16.151  13.751  22.127  0.00  0.00     0.051 C 
BRANCH  33  34
HETATM   34  C   UNK     0     -16.779  14.077  20.793  0.00  0.00     0.114 C 
BRANCH  34  35
HETATM   35  C   UNK     0     -16.797  15.562  20.659  0.00  0.00     0.139 C 
HETATM   36  O   UNK     0     -17.301  16.277  21.573  0.00  0.00    -0.650 OA
BRANCH  35  37
HETATM   37  O   UNK     0     -16.274  16.221  19.554  0.00  0.00    -0.776 OA
HETATM   38  H   UNK     0     -16.523  15.965  18.612  0.00  0.00     0.167 HD
ENDBRANCH  35  37
ENDBRANCH  34  35
ENDBRANCH  33  34
ENDBRANCH   6  33
BRANCH  27  39
HETATM   39  C   UNK     0      -8.277  12.598  25.641  0.00  0.00     0.051 C 
BRANCH  39  40
HETATM   40  C   UNK     0      -6.886  12.896  25.304  0.00  0.00     0.114 C 
BRANCH  40  41
HETATM   41  C   UNK     0      -6.003  11.907  24.728  0.00  0.00     0.139 C 
HETATM   42  O   UNK     0      -6.053  10.701  25.007  0.00  0.00    -0.650 OA
BRANCH  41  43
HETATM   43  O   UNK     0      -5.018  12.323  23.787  0.00  0.00    -0.776 OA
HETATM   44  H   UNK     0      -4.064  12.243  24.117  0.00  0.00     0.167 HD
ENDBRANCH  41  43
ENDBRANCH  40  41
ENDBRANCH  39  40
ENDBRANCH  27  39
BRANCH  11  45
HETATM   45  C   UNK     0     -15.828   5.877  23.863  0.00  0.00     0.051 C 
BRANCH  45  46
HETATM   46  C   UNK     0     -14.623   5.023  23.704  0.00  0.00     0.114 C 
BRANCH  46  47
HETATM   47  C   UNK     0     -15.066   3.748  23.070  0.00  0.00     0.139 C 
HETATM   48  O   UNK     0     -16.259   3.426  23.158  0.00  0.00    -0.650 OA
BRANCH  47  49
HETATM   49  O   UNK     0     -14.173   2.947  22.404  0.00  0.00    -0.776 OA
HETATM   50  H   UNK     0     -13.628   3.287  21.603  0.00  0.00     0.167 HD
ENDBRANCH  47  49
ENDBRANCH  46  47
ENDBRANCH  45  46
ENDBRANCH  11  45
BRANCH  18  51
HETATM   51  C   UNK     0      -9.058   6.539  25.444  0.00  0.00     0.051 C 
BRANCH  51  52
HETATM   52  C   UNK     0      -8.401   6.714  26.805  0.00  0.00     0.114 C 
BRANCH  52  53
HETATM   53  C   UNK     0      -6.986   7.113  26.685  0.00  0.00     0.139 C 
HETATM   54  O   UNK     0      -6.221   6.990  27.655  0.00  0.00    -0.650 OA
BRANCH  53  55
HETATM   55  O   UNK     0      -6.522   7.623  25.497  0.00  0.00    -0.776 OA
HETATM   56  H   UNK     0      -5.717   8.192  25.380  0.00  0.00     0.167 HD
ENDBRANCH  53  55
ENDBRANCH  52  53
ENDBRANCH  51  52
ENDBRANCH  18  51
TORSDOF 16
ENDMDL
