MODEL 1
REMARK VINA RESULT:      -6.3      0.000      0.000
REMARK  28 active torsions:
REMARK  status: ('A' for Active; 'I' for Inactive)
REMARK    1  A    between atoms: C_2  and  O_3 
REMARK    2  A    between atoms: C_2  and  C_4 
REMARK    3  A    between atoms: C_4  and  C_5 
REMARK    4  A    between atoms: C_5  and  C_6 
REMARK    5  A    between atoms: C_7  and  C_8 
REMARK    6  A    between atoms: C_8  and  C_9 
REMARK    7  A    between atoms: C_9  and  O_11 
REMARK    8  A    between atoms: C_28  and  C_29 
REMARK    9  A    between atoms: C_29  and  C_30 
REMARK   10  A    between atoms: C_30  and  O_32 
REMARK   11  A    between atoms: C_33  and  C_34 
REMARK   12  A    between atoms: C_34  and  C_35 
REMARK   13  A    between atoms: C_35  and  C_36 
REMARK   14  A    between atoms: C_36  and  O_38 
REMARK   15  A    between atoms: C_39  and  C_40 
REMARK   16  A    between atoms: C_40  and  C_41 
REMARK   17  A    between atoms: C_41  and  C_42 
REMARK   18  A    between atoms: C_42  and  O_44 
REMARK   19  A    between atoms: C_45  and  C_46 
REMARK   20  A    between atoms: C_46  and  C_47 
REMARK   21  A    between atoms: C_47  and  O_49 
REMARK   22  A    between atoms: C_50  and  C_51 
REMARK   23  A    between atoms: C_51  and  C_52 
REMARK   24  A    between atoms: C_52  and  O_54 
REMARK   25  A    between atoms: C_55  and  C_56 
REMARK   26  A    between atoms: C_56  and  C_57 
REMARK   27  A    between atoms: C_57  and  C_58 
REMARK   28  A    between atoms: C_58  and  O_60 
ROOT
ATOM      1  O   UNK d   0      -9.946 -34.373  54.287  0.00  0.00    -0.650 OA
ATOM      2  C   UNK d   0     -10.474 -33.560  53.496  0.00  0.00     0.139 C 
ENDROOT
BRANCH   2   3
ATOM      3  O   UNK d   0     -11.395 -34.012  52.582  0.00  0.00    -0.776 OA
ATOM      4  H   UNK d   0     -12.208 -33.447  52.328  0.00  0.00     0.167 HD
ENDBRANCH   2   3
BRANCH   2   5
ATOM      5  C   UNK d   0     -10.105 -32.117  53.549  0.00  0.00     0.115 C 
BRANCH   5   6
ATOM      6  C   UNK d   0      -8.684 -31.929  53.094  0.00  0.00     0.052 C 
BRANCH   6   7
ATOM      7  C   UNK d   0      -8.445 -32.456  51.699  0.00  0.00    -0.020 A 
ATOM      8  C   UNK d   0      -7.587 -33.371  51.327  0.00  0.00    -0.011 A 
ATOM      9  C   UNK d   0      -7.712 -33.541  49.889  0.00  0.00     0.067 A 
ATOM     10  C   UNK d   0      -7.117 -34.351  48.910  0.00  0.00     0.062 C 
ATOM     11  N   UNK d   0      -8.666 -32.685  49.467  0.00  0.00    -0.248 NA
ATOM     12  C   UNK d   0      -7.568 -34.570  47.603  0.00  0.00     0.041 A 
ATOM     13  N   UNK d   0      -8.060 -33.720  46.681  0.00  0.00    -0.355 N 
ATOM     14  C   UNK d   0      -7.596 -35.885  47.104  0.00  0.00    -0.022 A 
ATOM     15  C   UNK d   0      -8.406 -34.463  45.613  0.00  0.00     0.042 A 
ATOM     16  H   UNK d   0      -8.142 -32.615  46.776  0.00  0.00     0.166 HD
ATOM     17  C   UNK d   0      -8.966 -34.082  44.378  0.00  0.00     0.062 C 
ATOM     18  C   UNK d   0      -8.131 -35.826  45.842  0.00  0.00    -0.013 A 
ATOM     19  C   UNK d   0      -9.997 -33.212  44.130  0.00  0.00     0.067 A 
ATOM     20  N   UNK d   0     -10.417 -32.465  45.154  0.00  0.00    -0.248 NA
ATOM     21  C   UNK d   0     -10.821 -32.868  42.983  0.00  0.00    -0.011 A 
ATOM     22  C   UNK d   0     -11.457 -31.659  44.761  0.00  0.00     0.066 A 
ATOM     23  C   UNK d   0     -11.968 -30.798  45.721  0.00  0.00     0.062 C 
ATOM     24  C   UNK d   0     -11.677 -31.962  43.360  0.00  0.00    -0.020 A 
ATOM     25  C   UNK d   0     -11.493 -30.584  47.024  0.00  0.00     0.041 A 
ATOM     26  N   UNK d   0     -11.018 -31.431  47.946  0.00  0.00    -0.355 N 
ATOM     27  C   UNK d   0     -11.461 -29.264  47.523  0.00  0.00    -0.022 A 
ATOM     28  C   UNK d   0     -10.680 -30.693  49.016  0.00  0.00     0.042 A 
ATOM     29  H   UNK d   0     -10.946 -32.542  47.854  0.00  0.00     0.166 HD
ATOM     30  C   UNK d   0     -10.131 -31.060  50.254  0.00  0.00     0.062 C 
ATOM     31  C   UNK d   0     -10.947 -29.323  48.782  0.00  0.00    -0.013 A 
ATOM     32  C   UNK d   0      -9.147 -32.003  50.507  0.00  0.00     0.066 A 
BRANCH   8  33
ATOM     33  C   UNK d   0      -6.648 -34.108  52.194  0.00  0.00     0.151 C 
BRANCH  33  34
ATOM     34  C   UNK d   0      -6.959 -35.546  52.280  0.00  0.00     0.143 C 
ATOM     35  O   UNK d   0      -6.255 -36.385  51.701  0.00  0.00    -0.650 OA
BRANCH  34  36
ATOM     36  O   UNK d   0      -8.049 -35.959  53.012  0.00  0.00    -0.776 OA
ATOM     37  H   UNK d   0      -8.571 -35.303  53.608  0.00  0.00     0.167 HD
ENDBRANCH  34  36
ENDBRANCH  33  34
ENDBRANCH   8  33
BRANCH  31  38
ATOM     38  C   UNK d   0     -10.710 -28.150  49.704  0.00  0.00     0.151 C 
BRANCH  38  39
ATOM     39  C   UNK d   0     -11.932 -27.639  50.288  0.00  0.00     0.143 C 
ATOM     40  O   UNK d   0     -12.754 -28.375  50.862  0.00  0.00    -0.650 OA
BRANCH  39  41
ATOM     41  O   UNK d   0     -12.211 -26.275  50.212  0.00  0.00    -0.776 OA
ATOM     42  H   UNK d   0     -11.935 -25.702  51.015  0.00  0.00     0.167 HD
ENDBRANCH  39  41
ENDBRANCH  38  39
ENDBRANCH  31  38
BRANCH  27  43
ATOM     43  C   UNK d   0     -11.892 -27.979  46.861  0.00  0.00     0.052 C 
BRANCH  43  44
ATOM     44  C   UNK d   0     -10.788 -27.294  46.124  0.00  0.00     0.115 C 
BRANCH  44  45
ATOM     45  C   UNK d   0     -10.678 -25.927  46.697  0.00  0.00     0.139 C 
ATOM     46  O   UNK d   0     -11.614 -25.515  47.427  0.00  0.00    -0.650 OA
BRANCH  45  47
ATOM     47  O   UNK d   0      -9.597 -25.105  46.467  0.00  0.00    -0.776 OA
ATOM     48  H   UNK d   0      -8.957 -25.231  45.666  0.00  0.00     0.167 HD
ENDBRANCH  45  47
ENDBRANCH  44  45
ENDBRANCH  43  44
ENDBRANCH  27  43
BRANCH  24  49
ATOM     49  C   UNK d   0     -12.678 -31.303  42.504  0.00  0.00     0.052 C 
BRANCH  49  50
ATOM     50  C   UNK d   0     -12.233 -29.906  42.157  0.00  0.00     0.115 C 
BRANCH  50  51
ATOM     51  C   UNK d   0     -13.121 -28.813  42.530  0.00  0.00     0.139 C 
ATOM     52  O   UNK d   0     -13.822 -28.837  43.570  0.00  0.00    -0.650 OA
BRANCH  51  53
ATOM     53  O   UNK d   0     -13.212 -27.694  41.717  0.00  0.00    -0.776 OA
ATOM     54  H   UNK d   0     -12.524 -26.970  41.826  0.00  0.00     0.167 HD
ENDBRANCH  51  53
ENDBRANCH  50  51
ENDBRANCH  49  50
ENDBRANCH  24  49
BRANCH  21  55
ATOM     55  C   UNK d   0     -10.665 -33.479  41.630  0.00  0.00     0.151 C 
BRANCH  55  56
ATOM     56  C   UNK d   0      -9.630 -32.801  40.835  0.00  0.00     0.143 C 
ATOM     57  O   UNK d   0      -8.425 -33.120  40.883  0.00  0.00    -0.650 OA
BRANCH  56  58
ATOM     58  O   UNK d   0     -10.030 -31.760  39.999  0.00  0.00    -0.776 OA
ATOM     59  H   UNK d   0      -9.947 -31.957  38.986  0.00  0.00     0.167 HD
ENDBRANCH  56  58
ENDBRANCH  55  56
ENDBRANCH  21  55
BRANCH  18  60
ATOM     60  C   UNK d   0      -8.353 -37.015  44.940  0.00  0.00     0.151 C 
BRANCH  60  61
ATOM     61  C   UNK d   0      -9.678 -37.547  45.293  0.00  0.00     0.143 C 
ATOM     62  O   UNK d   0     -10.769 -37.010  45.098  0.00  0.00    -0.650 OA
BRANCH  61  63
ATOM     63  O   UNK d   0      -9.670 -38.814  45.923  0.00  0.00    -0.776 OA
ATOM     64  H   UNK d   0     -10.505 -39.195  46.332  0.00  0.00     0.167 HD
ENDBRANCH  61  63
ENDBRANCH  60  61
ENDBRANCH  18  60
BRANCH  14  65
ATOM     65  C   UNK d   0      -7.071 -37.166  47.687  0.00  0.00     0.052 C 
BRANCH  65  66
ATOM     66  C   UNK d   0      -5.607 -37.339  47.486  0.00  0.00     0.115 C 
BRANCH  66  67
ATOM     67  C   UNK d   0      -4.810 -37.922  48.529  0.00  0.00     0.139 C 
ATOM     68  O   UNK d   0      -4.367 -39.118  48.366  0.00  0.00    -0.650 OA
BRANCH  67  69
ATOM     69  O   UNK d   0      -4.437 -37.344  49.742  0.00  0.00    -0.776 OA
ATOM     70  H   UNK d   0      -3.594 -36.753  49.716  0.00  0.00     0.167 HD
ENDBRANCH  67  69
ENDBRANCH  66  67
ENDBRANCH  65  66
ENDBRANCH  14  65
ENDBRANCH   6   7
ENDBRANCH   5   6
ENDBRANCH   2   5
TORSDOF 28
ENDMDL
MODEL 2
REMARK VINA RESULT:      -6.3      1.817      4.445
REMARK  28 active torsions:
REMARK  status: ('A' for Active; 'I' for Inactive)
REMARK    1  A    between atoms: C_2  and  O_3 
REMARK    2  A    between atoms: C_2  and  C_4 
REMARK    3  A    between atoms: C_4  and  C_5 
REMARK    4  A    between atoms: C_5  and  C_6 
REMARK    5  A    between atoms: C_7  and  C_8 
REMARK    6  A    between atoms: C_8  and  C_9 
REMARK    7  A    between atoms: C_9  and  O_11 
REMARK    8  A    between atoms: C_28  and  C_29 
REMARK    9  A    between atoms: C_29  and  C_30 
REMARK   10  A    between atoms: C_30  and  O_32 
REMARK   11  A    between atoms: C_33  and  C_34 
REMARK   12  A    between atoms: C_34  and  C_35 
REMARK   13  A    between atoms: C_35  and  C_36 
REMARK   14  A    between atoms: C_36  and  O_38 
REMARK   15  A    between atoms: C_39  and  C_40 
REMARK   16  A    between atoms: C_40  and  C_41 
REMARK   17  A    between atoms: C_41  and  C_42 
REMARK   18  A    between atoms: C_42  and  O_44 
REMARK   19  A    between atoms: C_45  and  C_46 
REMARK   20  A    between atoms: C_46  and  C_47 
REMARK   21  A    between atoms: C_47  and  O_49 
REMARK   22  A    between atoms: C_50  and  C_51 
REMARK   23  A    between atoms: C_51  and  C_52 
REMARK   24  A    between atoms: C_52  and  O_54 
REMARK   25  A    between atoms: C_55  and  C_56 
REMARK   26  A    between atoms: C_56  and  C_57 
REMARK   27  A    between atoms: C_57  and  C_58 
REMARK   28  A    between atoms: C_58  and  O_60 
ROOT
ATOM      1  O   UNK d   0     -13.648 -28.909  50.504  0.00  0.00    -0.650 OA
ATOM      2  C   UNK d   0     -12.528 -28.370  50.644  0.00  0.00     0.139 C 
ENDROOT
BRANCH   2   3
ATOM      3  O   UNK d   0     -12.200 -27.285  49.866  0.00  0.00    -0.776 OA
ATOM      4  H   UNK d   0     -11.764 -27.406  48.950  0.00  0.00     0.167 HD
ENDBRANCH   2   3
BRANCH   2   5
ATOM      5  C   UNK d   0     -11.561 -28.902  51.645  0.00  0.00     0.115 C 
BRANCH   5   6
ATOM      6  C   UNK d   0     -11.630 -30.405  51.684  0.00  0.00     0.052 C 
BRANCH   6   7
ATOM      7  C   UNK d   0     -10.526 -31.058  50.887  0.00  0.00    -0.020 A 
ATOM      8  C   UNK d   0      -9.353 -31.446  51.318  0.00  0.00    -0.011 A 
ATOM      9  C   UNK d   0      -8.629 -32.010  50.191  0.00  0.00     0.067 A 
ATOM     10  C   UNK d   0      -7.373 -32.602  49.988  0.00  0.00     0.062 C 
ATOM     11  N   UNK d   0      -9.435 -31.919  49.112  0.00  0.00    -0.248 NA
ATOM     12  C   UNK d   0      -6.955 -33.344  48.878  0.00  0.00     0.041 A 
ATOM     13  N   UNK d   0      -7.134 -33.141  47.559  0.00  0.00    -0.355 N 
ATOM     14  C   UNK d   0      -6.269 -34.554  49.087  0.00  0.00    -0.022 A 
ATOM     15  C   UNK d   0      -6.585 -34.196  46.926  0.00  0.00     0.042 A 
ATOM     16  H   UNK d   0      -7.621 -32.261  47.084  0.00  0.00     0.166 HD
ATOM     17  C   UNK d   0      -6.492 -34.488  45.550  0.00  0.00     0.062 C 
ATOM     18  C   UNK d   0      -6.033 -35.103  47.851  0.00  0.00    -0.013 A 
ATOM     19  C   UNK d   0      -7.455 -34.383  44.579  0.00  0.00     0.067 A 
ATOM     20  N   UNK d   0      -8.578 -33.738  44.908  0.00  0.00    -0.248 NA
ATOM     21  C   UNK d   0      -7.603 -34.823  43.202  0.00  0.00    -0.011 A 
ATOM     22  C   UNK d   0      -9.449 -33.727  43.846  0.00  0.00     0.066 A 
ATOM     23  C   UNK d   0     -10.647 -33.054  44.039  0.00  0.00     0.062 C 
ATOM     24  C   UNK d   0      -8.773 -34.439  42.780  0.00  0.00    -0.020 A 
ATOM     25  C   UNK d   0     -11.042 -32.304  45.158  0.00  0.00     0.041 A 
ATOM     26  N   UNK d   0     -10.878 -32.513  46.470  0.00  0.00    -0.355 N 
ATOM     27  C   UNK d   0     -11.727 -31.087  44.947  0.00  0.00    -0.022 A 
ATOM     28  C   UNK d   0     -11.432 -31.467  47.104  0.00  0.00     0.042 A 
ATOM     29  H   UNK d   0     -10.398 -33.403  46.946  0.00  0.00     0.166 HD
ATOM     30  C   UNK d   0     -11.539 -31.168  48.471  0.00  0.00     0.062 C 
ATOM     31  C   UNK d   0     -11.977 -30.551  46.173  0.00  0.00    -0.013 A 
ATOM     32  C   UNK d   0     -10.591 -31.356  49.464  0.00  0.00     0.066 A 
BRANCH   8  33
ATOM     33  C   UNK d   0      -8.835 -31.336  52.694  0.00  0.00     0.151 C 
BRANCH  33  34
ATOM     34  C   UNK d   0      -9.254 -32.459  53.553  0.00  0.00     0.143 C 
ATOM     35  O   UNK d   0      -8.762 -33.587  53.410  0.00  0.00    -0.650 OA
BRANCH  34  36
ATOM     36  O   UNK d   0     -10.204 -32.248  54.525  0.00  0.00    -0.776 OA
ATOM     37  H   UNK d   0     -10.247 -32.837  55.367  0.00  0.00     0.167 HD
ENDBRANCH  34  36
ENDBRANCH  33  34
ENDBRANCH   8  33
BRANCH  31  38
ATOM     38  C   UNK d   0     -12.679 -29.241  46.447  0.00  0.00     0.151 C 
BRANCH  38  39
ATOM     39  C   UNK d   0     -11.796 -28.099  46.343  0.00  0.00     0.143 C 
ATOM     40  O   UNK d   0     -11.023 -27.770  47.259  0.00  0.00    -0.650 OA
BRANCH  39  41
ATOM     41  O   UNK d   0     -11.802 -27.331  45.179  0.00  0.00    -0.776 OA
ATOM     42  H   UNK d   0     -11.781 -27.840  44.290  0.00  0.00     0.167 HD
ENDBRANCH  39  41
ENDBRANCH  38  39
ENDBRANCH  31  38
BRANCH  27  43
ATOM     43  C   UNK d   0     -12.144 -30.434  43.653  0.00  0.00     0.052 C 
BRANCH  43  44
ATOM     44  C   UNK d   0     -13.598 -30.599  43.350  0.00  0.00     0.115 C 
BRANCH  44  45
ATOM     45  C   UNK d   0     -14.084 -29.278  42.872  0.00  0.00     0.139 C 
ATOM     46  O   UNK d   0     -15.244 -29.212  42.394  0.00  0.00    -0.650 OA
BRANCH  45  47
ATOM     47  O   UNK d   0     -13.321 -28.133  42.937  0.00  0.00    -0.776 OA
ATOM     48  H   UNK d   0     -13.732 -27.185  42.947  0.00  0.00     0.167 HD
ENDBRANCH  45  47
ENDBRANCH  44  45
ENDBRANCH  43  44
ENDBRANCH  27  43
BRANCH  24  49
ATOM     49  C   UNK d   0      -9.318 -34.643  41.427  0.00  0.00     0.052 C 
BRANCH  49  50
ATOM     50  C   UNK d   0      -9.283 -33.353  40.648  0.00  0.00     0.115 C 
BRANCH  50  51
ATOM     51  C   UNK d   0      -8.032 -33.012  39.983  0.00  0.00     0.139 C 
ATOM     52  O   UNK d   0      -7.284 -33.875  39.467  0.00  0.00    -0.650 OA
BRANCH  51  53
ATOM     53  O   UNK d   0      -7.634 -31.686  39.909  0.00  0.00    -0.776 OA
ATOM     54  H   UNK d   0      -7.113 -31.391  39.102  0.00  0.00     0.167 HD
ENDBRANCH  51  53
ENDBRANCH  50  51
ENDBRANCH  49  50
ENDBRANCH  24  49
BRANCH  21  55
ATOM     55  C   UNK d   0      -6.557 -35.577  42.450  0.00  0.00     0.151 C 
BRANCH  55  56
ATOM     56  C   UNK d   0      -6.226 -36.855  43.097  0.00  0.00     0.143 C 
ATOM     57  O   UNK d   0      -5.055 -37.200  43.351  0.00  0.00    -0.650 OA
BRANCH  56  58
ATOM     58  O   UNK d   0      -7.279 -37.704  43.434  0.00  0.00    -0.776 OA
ATOM     59  H   UNK d   0      -7.001 -38.676  43.661  0.00  0.00     0.167 HD
ENDBRANCH  56  58
ENDBRANCH  55  56
ENDBRANCH  21  55
BRANCH  18  60
ATOM     60  C   UNK d   0      -5.326 -36.413  47.607  0.00  0.00     0.151 C 
BRANCH  60  61
ATOM     61  C   UNK d   0      -6.386 -37.412  47.404  0.00  0.00     0.143 C 
ATOM     62  O   UNK d   0      -7.197 -37.456  46.478  0.00  0.00    -0.650 OA
BRANCH  61  63
ATOM     63  O   UNK d   0      -6.459 -38.423  48.392  0.00  0.00    -0.776 OA
ATOM     64  H   UNK d   0      -7.306 -38.941  48.542  0.00  0.00     0.167 HD
ENDBRANCH  61  63
ENDBRANCH  60  61
ENDBRANCH  18  60
BRANCH  14  65
ATOM     65  C   UNK d   0      -5.738 -35.175  50.347  0.00  0.00     0.052 C 
BRANCH  65  66
ATOM     66  C   UNK d   0      -6.619 -36.247  50.884  0.00  0.00     0.115 C 
BRANCH  66  67
ATOM     67  C   UNK d   0      -8.039 -36.164  50.689  0.00  0.00     0.139 C 
ATOM     68  O   UNK d   0      -8.589 -36.955  49.838  0.00  0.00    -0.650 OA
BRANCH  67  69
ATOM     69  O   UNK d   0      -8.938 -35.308  51.324  0.00  0.00    -0.776 OA
ATOM     70  H   UNK d   0      -9.585 -34.798  50.704  0.00  0.00     0.167 HD
ENDBRANCH  67  69
ENDBRANCH  66  67
ENDBRANCH  65  66
ENDBRANCH  14  65
ENDBRANCH   6   7
ENDBRANCH   5   6
ENDBRANCH   2   5
TORSDOF 28
ENDMDL
MODEL 3
REMARK VINA RESULT:      -6.3      2.034      2.876
REMARK  28 active torsions:
REMARK  status: ('A' for Active; 'I' for Inactive)
REMARK    1  A    between atoms: C_2  and  O_3 
REMARK    2  A    between atoms: C_2  and  C_4 
REMARK    3  A    between atoms: C_4  and  C_5 
REMARK    4  A    between atoms: C_5  and  C_6 
REMARK    5  A    between atoms: C_7  and  C_8 
REMARK    6  A    between atoms: C_8  and  C_9 
REMARK    7  A    between atoms: C_9  and  O_11 
REMARK    8  A    between atoms: C_28  and  C_29 
REMARK    9  A    between atoms: C_29  and  C_30 
REMARK   10  A    between atoms: C_30  and  O_32 
REMARK   11  A    between atoms: C_33  and  C_34 
REMARK   12  A    between atoms: C_34  and  C_35 
REMARK   13  A    between atoms: C_35  and  C_36 
REMARK   14  A    between atoms: C_36  and  O_38 
REMARK   15  A    between atoms: C_39  and  C_40 
REMARK   16  A    between atoms: C_40  and  C_41 
REMARK   17  A    between atoms: C_41  and  C_42 
REMARK   18  A    between atoms: C_42  and  O_44 
REMARK   19  A    between atoms: C_45  and  C_46 
REMARK   20  A    between atoms: C_46  and  C_47 
REMARK   21  A    between atoms: C_47  and  O_49 
REMARK   22  A    between atoms: C_50  and  C_51 
REMARK   23  A    between atoms: C_51  and  C_52 
REMARK   24  A    between atoms: C_52  and  O_54 
REMARK   25  A    between atoms: C_55  and  C_56 
REMARK   26  A    between atoms: C_56  and  C_57 
REMARK   27  A    between atoms: C_57  and  C_58 
REMARK   28  A    between atoms: C_58  and  O_60 
ROOT
ATOM      1  O   UNK d   0     -10.022 -33.379  54.348  0.00  0.00    -0.650 OA
ATOM      2  C   UNK d   0      -9.274 -32.742  53.574  0.00  0.00     0.139 C 
ENDROOT
BRANCH   2   3
ATOM      3  O   UNK d   0      -8.155 -32.123  54.077  0.00  0.00    -0.776 OA
ATOM      4  H   UNK d   0      -8.226 -31.247  54.598  0.00  0.00     0.167 HD
ENDBRANCH   2   3
BRANCH   2   5
ATOM      5  C   UNK d   0      -9.598 -32.657  52.121  0.00  0.00     0.115 C 
BRANCH   5   6
ATOM      6  C   UNK d   0      -8.628 -31.739  51.428  0.00  0.00     0.052 C 
BRANCH   6   7
ATOM      7  C   UNK d   0      -8.156 -32.286  50.102  0.00  0.00    -0.020 A 
ATOM      8  C   UNK d   0      -7.054 -32.948  49.859  0.00  0.00    -0.011 A 
ATOM      9  C   UNK d   0      -7.026 -33.259  48.440  0.00  0.00     0.067 A 
ATOM     10  C   UNK d   0      -6.162 -33.944  47.570  0.00  0.00     0.062 C 
ATOM     11  N   UNK d   0      -8.147 -32.743  47.894  0.00  0.00    -0.248 NA
ATOM     12  C   UNK d   0      -6.442 -34.383  46.272  0.00  0.00     0.041 A 
ATOM     13  N   UNK d   0      -7.083 -33.783  45.251  0.00  0.00    -0.355 N 
ATOM     14  C   UNK d   0      -6.070 -35.688  45.900  0.00  0.00    -0.022 A 
ATOM     15  C   UNK d   0      -7.134 -34.676  44.245  0.00  0.00     0.042 A 
ATOM     16  H   UNK d   0      -7.474 -32.742  45.236  0.00  0.00     0.166 HD
ATOM     17  C   UNK d   0      -7.689 -34.566  42.954  0.00  0.00     0.062 C 
ATOM     18  C   UNK d   0      -6.510 -35.883  44.614  0.00  0.00    -0.013 A 
ATOM     19  C   UNK d   0      -8.901 -34.045  42.578  0.00  0.00     0.067 A 
ATOM     20  N   UNK d   0      -9.582 -33.368  43.505  0.00  0.00    -0.248 NA
ATOM     21  C   UNK d   0      -9.705 -34.040  41.367  0.00  0.00    -0.011 A 
ATOM     22  C   UNK d   0     -10.775 -32.922  42.990  0.00  0.00     0.066 A 
ATOM     23  C   UNK d   0     -11.570 -32.168  43.840  0.00  0.00     0.062 C 
ATOM     24  C   UNK d   0     -10.802 -33.385  41.616  0.00  0.00    -0.020 A 
ATOM     25  C   UNK d   0     -11.266 -31.726  45.136  0.00  0.00     0.041 A 
ATOM     26  N   UNK d   0     -10.641 -32.328  46.156  0.00  0.00    -0.355 N 
ATOM     27  C   UNK d   0     -11.635 -30.415  45.507  0.00  0.00    -0.022 A 
ATOM     28  C   UNK d   0     -10.596 -31.443  47.164  0.00  0.00     0.042 A 
ATOM     29  H   UNK d   0     -10.258 -33.378  46.173  0.00  0.00     0.166 HD
ATOM     30  C   UNK d   0     -10.056 -31.541  48.456  0.00  0.00     0.062 C 
ATOM     31  C   UNK d   0     -11.215 -30.227  46.788  0.00  0.00    -0.013 A 
ATOM     32  C   UNK d   0      -8.870 -32.145  48.842  0.00  0.00     0.066 A 
BRANCH   8  33
ATOM     33  C   UNK d   0      -6.011 -33.319  50.834  0.00  0.00     0.151 C 
BRANCH  33  34
ATOM     34  C   UNK d   0      -6.269 -34.619  51.479  0.00  0.00     0.143 C 
ATOM     35  O   UNK d   0      -6.123 -35.680  50.855  0.00  0.00    -0.650 OA
BRANCH  34  36
ATOM     36  O   UNK d   0      -6.680 -34.652  52.791  0.00  0.00    -0.776 OA
ATOM     37  H   UNK d   0      -6.788 -35.543  53.295  0.00  0.00     0.167 HD
ENDBRANCH  34  36
ENDBRANCH  33  34
ENDBRANCH   8  33
BRANCH  31  38
ATOM     38  C   UNK d   0     -11.378 -28.966  47.604  0.00  0.00     0.151 C 
BRANCH  38  39
ATOM     39  C   UNK d   0     -12.500 -29.028  48.517  0.00  0.00     0.143 C 
ATOM     40  O   UNK d   0     -13.425 -29.848  48.379  0.00  0.00    -0.650 OA
BRANCH  39  41
ATOM     41  O   UNK d   0     -12.557 -28.145  49.594  0.00  0.00    -0.776 OA
ATOM     42  H   UNK d   0     -12.520 -27.145  49.374  0.00  0.00     0.167 HD
ENDBRANCH  39  41
ENDBRANCH  38  39
ENDBRANCH  31  38
BRANCH  27  43
ATOM     43  C   UNK d   0     -12.358 -29.360  44.706  0.00  0.00     0.052 C 
BRANCH  43  44
ATOM     44  C   UNK d   0     -13.843 -29.410  44.868  0.00  0.00     0.115 C 
BRANCH  44  45
ATOM     45  C   UNK d   0     -14.426 -29.016  43.559  0.00  0.00     0.139 C 
ATOM     46  O   UNK d   0     -15.571 -29.442  43.269  0.00  0.00    -0.650 OA
BRANCH  45  47
ATOM     47  O   UNK d   0     -13.767 -28.205  42.661  0.00  0.00    -0.776 OA
ATOM     48  H   UNK d   0     -13.818 -27.174  42.696  0.00  0.00     0.167 HD
ENDBRANCH  45  47
ENDBRANCH  44  45
ENDBRANCH  43  44
ENDBRANCH  27  43
BRANCH  24  49
ATOM     49  C   UNK d   0     -11.884 -33.105  40.656  0.00  0.00     0.052 C 
BRANCH  49  50
ATOM     50  C   UNK d   0     -11.669 -31.766  40.000  0.00  0.00     0.115 C 
BRANCH  50  51
ATOM     51  C   UNK d   0     -12.368 -30.624  40.575  0.00  0.00     0.139 C 
ATOM     52  O   UNK d   0     -13.613 -30.490  40.508  0.00  0.00    -0.650 OA
BRANCH  51  53
ATOM     53  O   UNK d   0     -11.647 -29.633  41.223  0.00  0.00    -0.776 OA
ATOM     54  H   UNK d   0     -11.514 -29.715  42.216  0.00  0.00     0.167 HD
ENDBRANCH  51  53
ENDBRANCH  50  51
ENDBRANCH  49  50
ENDBRANCH  24  49
BRANCH  21  55
ATOM     55  C   UNK d   0      -9.291 -34.687  40.087  0.00  0.00     0.151 C 
BRANCH  55  56
ATOM     56  C   UNK d   0      -8.019 -34.147  39.582  0.00  0.00     0.143 C 
ATOM     57  O   UNK d   0      -6.974 -34.824  39.527  0.00  0.00    -0.650 OA
BRANCH  56  58
ATOM     58  O   UNK d   0      -8.002 -32.821  39.153  0.00  0.00    -0.776 OA
ATOM     59  H   UNK d   0      -8.348 -32.133  39.846  0.00  0.00     0.167 HD
ENDBRANCH  56  58
ENDBRANCH  55  56
ENDBRANCH  21  55
BRANCH  18  60
ATOM     60  C   UNK d   0      -6.330 -37.154  43.822  0.00  0.00     0.151 C 
BRANCH  60  61
ATOM     61  C   UNK d   0      -5.124 -36.953  43.004  0.00  0.00     0.143 C 
ATOM     62  O   UNK d   0      -3.957 -37.155  43.340  0.00  0.00    -0.650 OA
BRANCH  61  63
ATOM     63  O   UNK d   0      -5.358 -36.474  41.693  0.00  0.00    -0.776 OA
ATOM     64  H   UNK d   0      -5.557 -37.106  40.938  0.00  0.00     0.167 HD
ENDBRANCH  61  63
ENDBRANCH  60  61
ENDBRANCH  18  60
BRANCH  14  65
ATOM     65  C   UNK d   0      -5.252 -36.719  46.625  0.00  0.00     0.052 C 
BRANCH  65  66
ATOM     66  C   UNK d   0      -6.067 -37.582  47.522  0.00  0.00     0.115 C 
BRANCH  66  67
ATOM     67  C   UNK d   0      -5.440 -38.258  48.623  0.00  0.00     0.139 C 
ATOM     68  O   UNK d   0      -5.761 -39.480  48.856  0.00  0.00    -0.650 OA
BRANCH  67  69
ATOM     69  O   UNK d   0      -4.491 -37.747  49.509  0.00  0.00    -0.776 OA
ATOM     70  H   UNK d   0      -3.558 -38.180  49.464  0.00  0.00     0.167 HD
ENDBRANCH  67  69
ENDBRANCH  66  67
ENDBRANCH  65  66
ENDBRANCH  14  65
ENDBRANCH   6   7
ENDBRANCH   5   6
ENDBRANCH   2   5
TORSDOF 28
ENDMDL
MODEL 4
REMARK VINA RESULT:      -6.3      1.971      7.775
REMARK  28 active torsions:
REMARK  status: ('A' for Active; 'I' for Inactive)
REMARK    1  A    between atoms: C_2  and  O_3 
REMARK    2  A    between atoms: C_2  and  C_4 
REMARK    3  A    between atoms: C_4  and  C_5 
REMARK    4  A    between atoms: C_5  and  C_6 
REMARK    5  A    between atoms: C_7  and  C_8 
REMARK    6  A    between atoms: C_8  and  C_9 
REMARK    7  A    between atoms: C_9  and  O_11 
REMARK    8  A    between atoms: C_28  and  C_29 
REMARK    9  A    between atoms: C_29  and  C_30 
REMARK   10  A    between atoms: C_30  and  O_32 
REMARK   11  A    between atoms: C_33  and  C_34 
REMARK   12  A    between atoms: C_34  and  C_35 
REMARK   13  A    between atoms: C_35  and  C_36 
REMARK   14  A    between atoms: C_36  and  O_38 
REMARK   15  A    between atoms: C_39  and  C_40 
REMARK   16  A    between atoms: C_40  and  C_41 
REMARK   17  A    between atoms: C_41  and  C_42 
REMARK   18  A    between atoms: C_42  and  O_44 
REMARK   19  A    between atoms: C_45  and  C_46 
REMARK   20  A    between atoms: C_46  and  C_47 
REMARK   21  A    between atoms: C_47  and  O_49 
REMARK   22  A    between atoms: C_50  and  C_51 
REMARK   23  A    between atoms: C_51  and  C_52 
REMARK   24  A    between atoms: C_52  and  O_54 
REMARK   25  A    between atoms: C_55  and  C_56 
REMARK   26  A    between atoms: C_56  and  C_57 
REMARK   27  A    between atoms: C_57  and  C_58 
REMARK   28  A    between atoms: C_58  and  O_60 
ROOT
ATOM      1  O   UNK d   0     -11.174 -33.038  53.687  0.00  0.00    -0.650 OA
ATOM      2  C   UNK d   0     -10.357 -32.100  53.824  0.00  0.00     0.139 C 
ENDROOT
BRANCH   2   3
ATOM      3  O   UNK d   0      -9.040 -32.387  54.087  0.00  0.00    -0.776 OA
ATOM      4  H   UNK d   0      -8.490 -31.807  54.725  0.00  0.00     0.167 HD
ENDBRANCH   2   3
BRANCH   2   5
ATOM      5  C   UNK d   0     -10.814 -30.686  53.703  0.00  0.00     0.115 C 
BRANCH   5   6
ATOM      6  C   UNK d   0     -10.094 -30.005  52.571  0.00  0.00     0.052 C 
BRANCH   6   7
ATOM      7  C   UNK d   0     -10.419 -30.610  51.227  0.00  0.00    -0.020 A 
ATOM      8  C   UNK d   0     -11.546 -30.531  50.568  0.00  0.00    -0.011 A 
ATOM      9  C   UNK d   0     -11.391 -31.276  49.330  0.00  0.00     0.067 A 
ATOM     10  C   UNK d   0     -12.189 -31.556  48.209  0.00  0.00     0.062 C 
ATOM     11  N   UNK d   0     -10.140 -31.782  49.320  0.00  0.00    -0.248 NA
ATOM     12  C   UNK d   0     -11.770 -32.066  46.976  0.00  0.00     0.041 A 
ATOM     13  N   UNK d   0     -10.902 -33.051  46.673  0.00  0.00    -0.355 N 
ATOM     14  C   UNK d   0     -12.247 -31.470  45.795  0.00  0.00    -0.022 A 
ATOM     15  C   UNK d   0     -10.811 -33.089  45.330  0.00  0.00     0.042 A 
ATOM     16  H   UNK d   0     -10.380 -33.718  47.393  0.00  0.00     0.166 HD
ATOM     17  C   UNK d   0     -10.050 -33.926  44.490  0.00  0.00     0.062 C 
ATOM     18  C   UNK d   0     -11.639 -32.112  44.745  0.00  0.00    -0.013 A 
ATOM     19  C   UNK d   0      -8.736 -34.302  44.608  0.00  0.00     0.067 A 
ATOM     20  N   UNK d   0      -8.126 -34.015  45.761  0.00  0.00    -0.248 NA
ATOM     21  C   UNK d   0      -7.757 -34.960  43.758  0.00  0.00    -0.011 A 
ATOM     22  C   UNK d   0      -6.819 -34.436  45.726  0.00  0.00     0.066 A 
ATOM     23  C   UNK d   0      -6.075 -34.233  46.879  0.00  0.00     0.062 C 
ATOM     24  C   UNK d   0      -6.637 -35.031  44.417  0.00  0.00    -0.020 A 
ATOM     25  C   UNK d   0      -6.520 -33.730  48.112  0.00  0.00     0.041 A 
ATOM     26  N   UNK d   0      -7.370 -32.742  48.414  0.00  0.00    -0.355 N 
ATOM     27  C   UNK d   0      -6.043 -34.333  49.297  0.00  0.00    -0.022 A 
ATOM     28  C   UNK d   0      -7.457 -32.696  49.753  0.00  0.00     0.042 A 
ATOM     29  H   UNK d   0      -7.886 -32.065  47.689  0.00  0.00     0.166 HD
ATOM     30  C   UNK d   0      -8.202 -31.863  50.601  0.00  0.00     0.062 C 
ATOM     31  C   UNK d   0      -6.632 -33.685  50.340  0.00  0.00    -0.013 A 
ATOM     32  C   UNK d   0      -9.503 -31.417  50.434  0.00  0.00     0.066 A 
BRANCH   8  33
ATOM     33  C   UNK d   0     -12.770 -29.822  50.988  0.00  0.00     0.151 C 
BRANCH  33  34
ATOM     34  C   UNK d   0     -12.602 -28.358  51.010  0.00  0.00     0.143 C 
ATOM     35  O   UNK d   0     -12.711 -27.720  52.067  0.00  0.00    -0.650 OA
BRANCH  34  36
ATOM     36  O   UNK d   0     -12.322 -27.693  49.838  0.00  0.00    -0.776 OA
ATOM     37  H   UNK d   0     -12.014 -28.199  48.997  0.00  0.00     0.167 HD
ENDBRANCH  34  36
ENDBRANCH  33  34
ENDBRANCH   8  33
BRANCH  31  38
ATOM     38  C   UNK d   0      -6.435 -33.993  51.806  0.00  0.00     0.151 C 
BRANCH  38  39
ATOM     39  C   UNK d   0      -7.334 -35.018  52.290  0.00  0.00     0.143 C 
ATOM     40  O   UNK d   0      -8.558 -34.829  52.406  0.00  0.00    -0.650 OA
BRANCH  39  41
ATOM     41  O   UNK d   0      -6.825 -36.268  52.642  0.00  0.00    -0.776 OA
ATOM     42  H   UNK d   0      -7.098 -37.060  52.053  0.00  0.00     0.167 HD
ENDBRANCH  39  41
ENDBRANCH  38  39
ENDBRANCH  31  38
BRANCH  27  43
ATOM     43  C   UNK d   0      -5.071 -35.473  49.469  0.00  0.00     0.052 C 
BRANCH  43  44
ATOM     44  C   UNK d   0      -5.702 -36.817  49.305  0.00  0.00     0.115 C 
BRANCH  44  45
ATOM     45  C   UNK d   0      -4.795 -37.794  49.962  0.00  0.00     0.139 C 
ATOM     46  O   UNK d   0      -5.010 -38.084  51.165  0.00  0.00    -0.650 OA
BRANCH  45  47
ATOM     47  O   UNK d   0      -3.742 -38.394  49.307  0.00  0.00    -0.776 OA
ATOM     48  H   UNK d   0      -2.762 -38.087  49.422  0.00  0.00     0.167 HD
ENDBRANCH  45  47
ENDBRANCH  44  45
ENDBRANCH  43  44
ENDBRANCH  27  43
BRANCH  24  49
ATOM     49  C   UNK d   0      -5.390 -35.658  43.945  0.00  0.00     0.052 C 
BRANCH  49  50
ATOM     50  C   UNK d   0      -5.202 -37.006  44.592  0.00  0.00     0.115 C 
BRANCH  50  51
ATOM     51  C   UNK d   0      -5.560 -38.177  43.804  0.00  0.00     0.139 C 
ATOM     52  O   UNK d   0      -4.712 -38.852  43.173  0.00  0.00    -0.650 OA
BRANCH  51  53
ATOM     53  O   UNK d   0      -6.885 -38.579  43.734  0.00  0.00    -0.776 OA
ATOM     54  H   UNK d   0      -7.130 -39.478  44.110  0.00  0.00     0.167 HD
ENDBRANCH  51  53
ENDBRANCH  50  51
ENDBRANCH  49  50
ENDBRANCH  24  49
BRANCH  21  55
ATOM     55  C   UNK d   0      -8.046 -35.453  42.379  0.00  0.00     0.151 C 
BRANCH  55  56
ATOM     56  C   UNK d   0      -7.723 -34.447  41.355  0.00  0.00     0.143 C 
ATOM     57  O   UNK d   0      -8.282 -33.334  41.303  0.00  0.00    -0.650 OA
BRANCH  56  58
ATOM     58  O   UNK d   0      -6.747 -34.769  40.414  0.00  0.00    -0.776 OA
ATOM     59  H   UNK d   0      -6.970 -35.587  39.817  0.00  0.00     0.167 HD
ENDBRANCH  56  58
ENDBRANCH  55  56
ENDBRANCH  21  55
BRANCH  18  60
ATOM     60  C   UNK d   0     -11.858 -31.785  43.288  0.00  0.00     0.151 C 
BRANCH  60  61
ATOM     61  C   UNK d   0     -12.860 -32.746  42.804  0.00  0.00     0.143 C 
ATOM     62  O   UNK d   0     -14.043 -32.817  43.140  0.00  0.00    -0.650 OA
BRANCH  61  63
ATOM     63  O   UNK d   0     -12.388 -33.680  41.850  0.00  0.00    -0.776 OA
ATOM     64  H   UNK d   0     -12.131 -33.389  40.924  0.00  0.00     0.167 HD
ENDBRANCH  61  63
ENDBRANCH  60  61
ENDBRANCH  18  60
BRANCH  14  65
ATOM     65  C   UNK d   0     -13.297 -30.416  45.583  0.00  0.00     0.052 C 
BRANCH  65  66
ATOM     66  C   UNK d   0     -12.733 -29.115  45.136  0.00  0.00     0.115 C 
BRANCH  66  67
ATOM     67  C   UNK d   0     -11.764 -28.440  45.954  0.00  0.00     0.139 C 
ATOM     68  O   UNK d   0     -10.539 -28.421  45.565  0.00  0.00    -0.650 OA
BRANCH  67  69
ATOM     69  O   UNK d   0     -11.981 -27.777  47.161  0.00  0.00    -0.776 OA
ATOM     70  H   UNK d   0     -12.966 -27.676  47.447  0.00  0.00     0.167 HD
ENDBRANCH  67  69
ENDBRANCH  66  67
ENDBRANCH  65  66
ENDBRANCH  14  65
ENDBRANCH   6   7
ENDBRANCH   5   6
ENDBRANCH   2   5
TORSDOF 28
ENDMDL
MODEL 5
REMARK VINA RESULT:      -6.2      2.102      7.777
REMARK  28 active torsions:
REMARK  status: ('A' for Active; 'I' for Inactive)
REMARK    1  A    between atoms: C_2  and  O_3 
REMARK    2  A    between atoms: C_2  and  C_4 
REMARK    3  A    between atoms: C_4  and  C_5 
REMARK    4  A    between atoms: C_5  and  C_6 
REMARK    5  A    between atoms: C_7  and  C_8 
REMARK    6  A    between atoms: C_8  and  C_9 
REMARK    7  A    between atoms: C_9  and  O_11 
REMARK    8  A    between atoms: C_28  and  C_29 
REMARK    9  A    between atoms: C_29  and  C_30 
REMARK   10  A    between atoms: C_30  and  O_32 
REMARK   11  A    between atoms: C_33  and  C_34 
REMARK   12  A    between atoms: C_34  and  C_35 
REMARK   13  A    between atoms: C_35  and  C_36 
REMARK   14  A    between atoms: C_36  and  O_38 
REMARK   15  A    between atoms: C_39  and  C_40 
REMARK   16  A    between atoms: C_40  and  C_41 
REMARK   17  A    between atoms: C_41  and  C_42 
REMARK   18  A    between atoms: C_42  and  O_44 
REMARK   19  A    between atoms: C_45  and  C_46 
REMARK   20  A    between atoms: C_46  and  C_47 
REMARK   21  A    between atoms: C_47  and  O_49 
REMARK   22  A    between atoms: C_50  and  C_51 
REMARK   23  A    between atoms: C_51  and  C_52 
REMARK   24  A    between atoms: C_52  and  O_54 
REMARK   25  A    between atoms: C_55  and  C_56 
REMARK   26  A    between atoms: C_56  and  C_57 
REMARK   27  A    between atoms: C_57  and  C_58 
REMARK   28  A    between atoms: C_58  and  O_60 
ROOT
ATOM      1  O   UNK d   0      -7.076 -36.123  50.894  0.00  0.00    -0.650 OA
ATOM      2  C   UNK d   0      -6.431 -35.149  51.342  0.00  0.00     0.139 C 
ENDROOT
BRANCH   2   3
ATOM      3  O   UNK d   0      -6.608 -34.769  52.651  0.00  0.00    -0.776 OA
ATOM      4  H   UNK d   0      -7.514 -34.872  53.113  0.00  0.00     0.167 HD
ENDBRANCH   2   3
BRANCH   2   5
ATOM      5  C   UNK d   0      -5.483 -34.411  50.461  0.00  0.00     0.115 C 
BRANCH   5   6
ATOM      6  C   UNK d   0      -5.885 -32.964  50.364  0.00  0.00     0.052 C 
BRANCH   6   7
ATOM      7  C   UNK d   0      -7.140 -32.763  49.549  0.00  0.00    -0.020 A 
ATOM      8  C   UNK d   0      -8.266 -32.222  49.937  0.00  0.00    -0.011 A 
ATOM      9  C   UNK d   0      -9.186 -32.254  48.812  0.00  0.00     0.067 A 
ATOM     10  C   UNK d   0     -10.501 -31.829  48.567  0.00  0.00     0.062 C 
ATOM     11  N   UNK d   0      -8.539 -32.838  47.782  0.00  0.00    -0.248 NA
ATOM     12  C   UNK d   0     -11.131 -31.696  47.325  0.00  0.00     0.041 A 
ATOM     13  N   UNK d   0     -11.127 -32.492  46.239  0.00  0.00    -0.355 N 
ATOM     14  C   UNK d   0     -11.874 -30.531  47.060  0.00  0.00    -0.022 A 
ATOM     15  C   UNK d   0     -11.842 -31.859  45.290  0.00  0.00     0.042 A 
ATOM     16  H   UNK d   0     -10.645 -33.491  46.152  0.00  0.00     0.166 HD
ATOM     17  C   UNK d   0     -12.154 -32.246  43.971  0.00  0.00     0.062 C 
ATOM     18  C   UNK d   0     -12.326 -30.626  45.768  0.00  0.00    -0.013 A 
ATOM     19  C   UNK d   0     -11.334 -32.791  43.016  0.00  0.00     0.067 A 
ATOM     20  N   UNK d   0     -10.129 -33.203  43.417  0.00  0.00    -0.248 NA
ATOM     21  C   UNK d   0     -11.421 -33.047  41.588  0.00  0.00    -0.011 A 
ATOM     22  C   UNK d   0      -9.420 -33.708  42.354  0.00  0.00     0.066 A 
ATOM     23  C   UNK d   0      -8.158 -34.209  42.638  0.00  0.00     0.062 C 
ATOM     24  C   UNK d   0     -10.296 -33.580  41.206  0.00  0.00    -0.020 A 
ATOM     25  C   UNK d   0      -7.549 -34.346  43.894  0.00  0.00     0.041 A 
ATOM     26  N   UNK d   0      -7.540 -33.547  44.968  0.00  0.00    -0.355 N 
ATOM     27  C   UNK d   0      -6.807 -35.517  44.161  0.00  0.00    -0.022 A 
ATOM     28  C   UNK d   0      -6.820 -34.172  45.913  0.00  0.00     0.042 A 
ATOM     29  H   UNK d   0      -8.016 -32.539  45.051  0.00  0.00     0.166 HD
ATOM     30  C   UNK d   0      -6.495 -33.795  47.226  0.00  0.00     0.062 C 
ATOM     31  C   UNK d   0      -6.343 -35.416  45.436  0.00  0.00    -0.013 A 
ATOM     32  C   UNK d   0      -7.303 -33.167  48.160  0.00  0.00     0.066 A 
BRANCH   8  33
ATOM     33  C   UNK d   0      -8.572 -31.676  51.272  0.00  0.00     0.151 C 
BRANCH  33  34
ATOM     34  C   UNK d   0      -9.591 -32.462  51.990  0.00  0.00     0.143 C 
ATOM     35  O   UNK d   0     -10.637 -31.932  52.393  0.00  0.00    -0.650 OA
BRANCH  34  36
ATOM     36  O   UNK d   0      -9.375 -33.801  52.217  0.00  0.00    -0.776 OA
ATOM     37  H   UNK d   0      -9.910 -34.316  52.930  0.00  0.00     0.167 HD
ENDBRANCH  34  36
ENDBRANCH  33  34
ENDBRANCH   8  33
BRANCH  31  38
ATOM     38  C   UNK d   0      -5.508 -36.443  46.165  0.00  0.00     0.151 C 
BRANCH  38  39
ATOM     39  C   UNK d   0      -6.308 -37.451  46.827  0.00  0.00     0.143 C 
ATOM     40  O   UNK d   0      -6.569 -38.546  46.299  0.00  0.00    -0.650 OA
BRANCH  39  41
ATOM     41  O   UNK d   0      -6.812 -37.198  48.103  0.00  0.00    -0.776 OA
ATOM     42  H   UNK d   0      -6.284 -37.584  48.892  0.00  0.00     0.167 HD
ENDBRANCH  39  41
ENDBRANCH  38  39
ENDBRANCH  31  38
BRANCH  27  43
ATOM     43  C   UNK d   0      -6.528 -36.699  43.266  0.00  0.00     0.052 C 
BRANCH  43  44
ATOM     44  C   UNK d   0      -5.201 -36.625  42.585  0.00  0.00     0.115 C 
BRANCH  44  45
ATOM     45  C   UNK d   0      -4.542 -37.940  42.794  0.00  0.00     0.139 C 
ATOM     46  O   UNK d   0      -3.521 -38.206  42.112  0.00  0.00    -0.650 OA
BRANCH  45  47
ATOM     47  O   UNK d   0      -5.000 -38.869  43.703  0.00  0.00    -0.776 OA
ATOM     48  H   UNK d   0      -5.420 -39.769  43.421  0.00  0.00     0.167 HD
ENDBRANCH  45  47
ENDBRANCH  44  45
ENDBRANCH  43  44
ENDBRANCH  27  43
BRANCH  24  49
ATOM     49  C   UNK d   0      -9.968 -34.033  39.843  0.00  0.00     0.052 C 
BRANCH  49  50
ATOM     50  C   UNK d   0      -9.382 -32.899  39.041  0.00  0.00     0.115 C 
BRANCH  50  51
ATOM     51  C   UNK d   0      -8.040 -32.458  39.394  0.00  0.00     0.139 C 
ATOM     52  O   UNK d   0      -7.810 -31.344  39.920  0.00  0.00    -0.650 OA
BRANCH  51  53
ATOM     53  O   UNK d   0      -6.957 -33.288  39.144  0.00  0.00    -0.776 OA
ATOM     54  H   UNK d   0      -6.716 -33.976  39.835  0.00  0.00     0.167 HD
ENDBRANCH  51  53
ENDBRANCH  50  51
ENDBRANCH  49  50
ENDBRANCH  24  49
BRANCH  21  55
ATOM     55  C   UNK d   0     -12.620 -32.737  40.755  0.00  0.00     0.151 C 
BRANCH  55  56
ATOM     56  C   UNK d   0     -12.736 -31.298  40.469  0.00  0.00     0.143 C 
ATOM     57  O   UNK d   0     -12.078 -30.732  39.575  0.00  0.00    -0.650 OA
BRANCH  56  58
ATOM     58  O   UNK d   0     -13.625 -30.553  41.242  0.00  0.00    -0.776 OA
ATOM     59  H   UNK d   0     -13.627 -30.787  42.252  0.00  0.00     0.167 HD
ENDBRANCH  56  58
ENDBRANCH  55  56
ENDBRANCH  21  55
BRANCH  18  60
ATOM     60  C   UNK d   0     -13.163 -29.585  45.066  0.00  0.00     0.151 C 
BRANCH  60  61
ATOM     61  C   UNK d   0     -12.228 -28.807  44.238  0.00  0.00     0.143 C 
ATOM     62  O   UNK d   0     -11.817 -29.094  43.113  0.00  0.00    -0.650 OA
BRANCH  61  63
ATOM     63  O   UNK d   0     -11.766 -27.602  44.821  0.00  0.00    -0.776 OA
ATOM     64  H   UNK d   0     -12.160 -26.716  44.560  0.00  0.00     0.167 HD
ENDBRANCH  61  63
ENDBRANCH  60  61
ENDBRANCH  18  60
BRANCH  14  65
ATOM     65  C   UNK d   0     -12.267 -29.393  47.959  0.00  0.00     0.052 C 
BRANCH  65  66
ATOM     66  C   UNK d   0     -11.206 -28.358  48.085  0.00  0.00     0.115 C 
BRANCH  66  67
ATOM     67  C   UNK d   0     -11.571 -26.988  48.308  0.00  0.00     0.139 C 
ATOM     68  O   UNK d   0     -11.538 -26.174  47.313  0.00  0.00    -0.650 OA
BRANCH  67  69
ATOM     69  O   UNK d   0     -11.971 -26.396  49.506  0.00  0.00    -0.776 OA
ATOM     70  H   UNK d   0     -12.669 -26.920  50.053  0.00  0.00     0.167 HD
ENDBRANCH  67  69
ENDBRANCH  66  67
ENDBRANCH  65  66
ENDBRANCH  14  65
ENDBRANCH   6   7
ENDBRANCH   5   6
ENDBRANCH   2   5
TORSDOF 28
ENDMDL
MODEL 6
REMARK VINA RESULT:      -6.2      2.760      8.885
REMARK  28 active torsions:
REMARK  status: ('A' for Active; 'I' for Inactive)
REMARK    1  A    between atoms: C_2  and  O_3 
REMARK    2  A    between atoms: C_2  and  C_4 
REMARK    3  A    between atoms: C_4  and  C_5 
REMARK    4  A    between atoms: C_5  and  C_6 
REMARK    5  A    between atoms: C_7  and  C_8 
REMARK    6  A    between atoms: C_8  and  C_9 
REMARK    7  A    between atoms: C_9  and  O_11 
REMARK    8  A    between atoms: C_28  and  C_29 
REMARK    9  A    between atoms: C_29  and  C_30 
REMARK   10  A    between atoms: C_30  and  O_32 
REMARK   11  A    between atoms: C_33  and  C_34 
REMARK   12  A    between atoms: C_34  and  C_35 
REMARK   13  A    between atoms: C_35  and  C_36 
REMARK   14  A    between atoms: C_36  and  O_38 
REMARK   15  A    between atoms: C_39  and  C_40 
REMARK   16  A    between atoms: C_40  and  C_41 
REMARK   17  A    between atoms: C_41  and  C_42 
REMARK   18  A    between atoms: C_42  and  O_44 
REMARK   19  A    between atoms: C_45  and  C_46 
REMARK   20  A    between atoms: C_46  and  C_47 
REMARK   21  A    between atoms: C_47  and  O_49 
REMARK   22  A    between atoms: C_50  and  C_51 
REMARK   23  A    between atoms: C_51  and  C_52 
REMARK   24  A    between atoms: C_52  and  O_54 
REMARK   25  A    between atoms: C_55  and  C_56 
REMARK   26  A    between atoms: C_56  and  C_57 
REMARK   27  A    between atoms: C_57  and  C_58 
REMARK   28  A    between atoms: C_58  and  O_60 
ROOT
ATOM      1  O   UNK d   0     -12.630 -28.476  50.257  0.00  0.00    -0.650 OA
ATOM      2  C   UNK d   0     -11.941 -27.953  49.353  0.00  0.00     0.139 C 
ENDROOT
BRANCH   2   3
ATOM      3  O   UNK d   0     -11.912 -26.584  49.235  0.00  0.00    -0.776 OA
ATOM      4  H   UNK d   0     -12.752 -26.023  49.391  0.00  0.00     0.167 HD
ENDBRANCH   2   3
BRANCH   2   5
ATOM      5  C   UNK d   0     -11.162 -28.810  48.415  0.00  0.00     0.115 C 
BRANCH   5   6
ATOM      6  C   UNK d   0     -11.753 -30.193  48.366  0.00  0.00     0.052 C 
BRANCH   6   7
ATOM      7  C   UNK d   0     -11.545 -30.867  47.031  0.00  0.00    -0.020 A 
ATOM      8  C   UNK d   0     -12.270 -30.737  45.950  0.00  0.00    -0.011 A 
ATOM      9  C   UNK d   0     -11.692 -31.585  44.921  0.00  0.00     0.067 A 
ATOM     10  C   UNK d   0     -11.967 -31.876  43.576  0.00  0.00     0.062 C 
ATOM     11  N   UNK d   0     -10.620 -32.199  45.464  0.00  0.00    -0.248 NA
ATOM     12  C   UNK d   0     -11.125 -32.513  42.657  0.00  0.00     0.041 A 
ATOM     13  N   UNK d   0     -10.328 -33.591  42.785  0.00  0.00    -0.355 N 
ATOM     14  C   UNK d   0     -10.987 -31.967  41.368  0.00  0.00    -0.022 A 
ATOM     15  C   UNK d   0      -9.682 -33.738  41.613  0.00  0.00     0.042 A 
ATOM     16  H   UNK d   0     -10.239 -34.246  43.680  0.00  0.00     0.166 HD
ATOM     17  C   UNK d   0      -8.737 -34.701  41.206  0.00  0.00     0.062 C 
ATOM     18  C   UNK d   0     -10.069 -32.738  40.700  0.00  0.00    -0.013 A 
ATOM     19  C   UNK d   0      -7.649 -35.183  41.887  0.00  0.00     0.067 A 
ATOM     20  N   UNK d   0      -7.556 -34.866  43.181  0.00  0.00    -0.248 NA
ATOM     21  C   UNK d   0      -6.484 -35.988  41.559  0.00  0.00    -0.011 A 
ATOM     22  C   UNK d   0      -6.414 -35.403  43.723  0.00  0.00     0.066 A 
ATOM     23  C   UNK d   0      -6.210 -35.181  45.077  0.00  0.00     0.062 C 
ATOM     24  C   UNK d   0      -5.763 -36.110  42.637  0.00  0.00    -0.020 A 
ATOM     25  C   UNK d   0      -7.075 -34.550  45.984  0.00  0.00     0.041 A 
ATOM     26  N   UNK d   0      -7.855 -33.469  45.862  0.00  0.00    -0.355 N 
ATOM     27  C   UNK d   0      -7.216 -35.101  47.277  0.00  0.00    -0.022 A 
ATOM     28  C   UNK d   0      -8.494 -33.315  47.033  0.00  0.00     0.042 A 
ATOM     29  H   UNK d   0      -7.936 -32.806  44.966  0.00  0.00     0.166 HD
ATOM     30  C   UNK d   0      -9.429 -32.357  47.455  0.00  0.00     0.062 C 
ATOM     31  C   UNK d   0      -8.113 -34.326  47.946  0.00  0.00    -0.013 A 
ATOM     32  C   UNK d   0     -10.477 -31.809  46.732  0.00  0.00     0.066 A 
BRANCH   8  33
ATOM     33  C   UNK d   0     -13.468 -29.892  45.784  0.00  0.00     0.151 C 
BRANCH  33  34
ATOM     34  C   UNK d   0     -13.309 -28.880  44.724  0.00  0.00     0.143 C 
ATOM     35  O   UNK d   0     -14.075 -28.852  43.750  0.00  0.00    -0.650 OA
BRANCH  34  36
ATOM     36  O   UNK d   0     -12.295 -27.955  44.820  0.00  0.00    -0.776 OA
ATOM     37  H   UNK d   0     -12.473 -26.950  44.686  0.00  0.00     0.167 HD
ENDBRANCH  34  36
ENDBRANCH  33  34
ENDBRANCH   8  33
BRANCH  31  38
ATOM     38  C   UNK d   0      -8.591 -34.539  49.364  0.00  0.00     0.151 C 
BRANCH  38  39
ATOM     39  C   UNK d   0      -7.711 -33.946  50.348  0.00  0.00     0.143 C 
ATOM     40  O   UNK d   0      -7.493 -32.722  50.394  0.00  0.00    -0.650 OA
BRANCH  39  41
ATOM     41  O   UNK d   0      -7.080 -34.763  51.285  0.00  0.00    -0.776 OA
ATOM     42  H   UNK d   0      -6.959 -34.377  52.227  0.00  0.00     0.167 HD
ENDBRANCH  39  41
ENDBRANCH  38  39
ENDBRANCH  31  38
BRANCH  27  43
ATOM     43  C   UNK d   0      -6.544 -36.307  47.883  0.00  0.00     0.052 C 
BRANCH  43  44
ATOM     44  C   UNK d   0      -5.242 -35.988  48.544  0.00  0.00     0.115 C 
BRANCH  44  45
ATOM     45  C   UNK d   0      -4.918 -37.142  49.423  0.00  0.00     0.139 C 
ATOM     46  O   UNK d   0      -5.507 -37.227  50.529  0.00  0.00    -0.650 OA
BRANCH  45  47
ATOM     47  O   UNK d   0      -4.009 -38.116  49.072  0.00  0.00    -0.776 OA
ATOM     48  H   UNK d   0      -3.021 -38.095  49.371  0.00  0.00     0.167 HD
ENDBRANCH  45  47
ENDBRANCH  44  45
ENDBRANCH  43  44
ENDBRANCH  27  43
BRANCH  24  49
ATOM     49  C   UNK d   0      -4.514 -36.879  42.764  0.00  0.00     0.052 C 
BRANCH  49  50
ATOM     50  C   UNK d   0      -3.324 -35.954  42.750  0.00  0.00     0.115 C 
BRANCH  50  51
ATOM     51  C   UNK d   0      -2.217 -36.308  41.872  0.00  0.00     0.139 C 
ATOM     52  O   UNK d   0      -1.937 -35.654  40.839  0.00  0.00    -0.650 OA
BRANCH  51  53
ATOM     53  O   UNK d   0      -1.430 -37.409  42.170  0.00  0.00    -0.776 OA
ATOM     54  H   UNK d   0      -0.931 -37.854  41.420  0.00  0.00     0.167 HD
ENDBRANCH  51  53
ENDBRANCH  50  51
ENDBRANCH  49  50
ENDBRANCH  24  49
BRANCH  21  55
ATOM     55  C   UNK d   0      -6.215 -36.556  40.205  0.00  0.00     0.151 C 
BRANCH  55  56
ATOM     56  C   UNK d   0      -5.743 -35.531  39.262  0.00  0.00     0.143 C 
ATOM     57  O   UNK d   0      -6.473 -35.041  38.377  0.00  0.00    -0.650 OA
BRANCH  56  58
ATOM     58  O   UNK d   0      -4.422 -35.102  39.376  0.00  0.00    -0.776 OA
ATOM     59  H   UNK d   0      -4.240 -34.149  39.015  0.00  0.00     0.167 HD
ENDBRANCH  56  58
ENDBRANCH  55  56
ENDBRANCH  21  55
BRANCH  18  60
ATOM     60  C   UNK d   0      -9.612 -32.504  39.281  0.00  0.00     0.151 C 
BRANCH  60  61
ATOM     61  C   UNK d   0      -8.339 -31.774  39.383  0.00  0.00     0.143 C 
ATOM     62  O   UNK d   0      -8.174 -30.620  39.779  0.00  0.00    -0.650 OA
BRANCH  61  63
ATOM     63  O   UNK d   0      -7.194 -32.500  38.975  0.00  0.00    -0.776 OA
ATOM     64  H   UNK d   0      -7.174 -33.504  39.018  0.00  0.00     0.167 HD
ENDBRANCH  61  63
ENDBRANCH  60  61
ENDBRANCH  18  60
BRANCH  14  65
ATOM     65  C   UNK d   0     -11.722 -30.843  40.695  0.00  0.00     0.052 C 
BRANCH  65  66
ATOM     66  C   UNK d   0     -10.993 -29.547  40.765  0.00  0.00     0.115 C 
BRANCH  66  67
ATOM     67  C   UNK d   0     -11.591 -28.431  41.442  0.00  0.00     0.139 C 
ATOM     68  O   UNK d   0     -10.872 -27.759  42.271  0.00  0.00    -0.650 OA
BRANCH  67  69
ATOM     69  O   UNK d   0     -12.897 -27.957  41.319  0.00  0.00    -0.776 OA
ATOM     70  H   UNK d   0     -13.462 -28.392  40.576  0.00  0.00     0.167 HD
ENDBRANCH  67  69
ENDBRANCH  66  67
ENDBRANCH  65  66
ENDBRANCH  14  65
ENDBRANCH   6   7
ENDBRANCH   5   6
ENDBRANCH   2   5
TORSDOF 28
ENDMDL
MODEL 7
REMARK VINA RESULT:      -6.1     17.565     23.449
REMARK  28 active torsions:
REMARK  status: ('A' for Active; 'I' for Inactive)
REMARK    1  A    between atoms: C_2  and  O_3 
REMARK    2  A    between atoms: C_2  and  C_4 
REMARK    3  A    between atoms: C_4  and  C_5 
REMARK    4  A    between atoms: C_5  and  C_6 
REMARK    5  A    between atoms: C_7  and  C_8 
REMARK    6  A    between atoms: C_8  and  C_9 
REMARK    7  A    between atoms: C_9  and  O_11 
REMARK    8  A    between atoms: C_28  and  C_29 
REMARK    9  A    between atoms: C_29  and  C_30 
REMARK   10  A    between atoms: C_30  and  O_32 
REMARK   11  A    between atoms: C_33  and  C_34 
REMARK   12  A    between atoms: C_34  and  C_35 
REMARK   13  A    between atoms: C_35  and  C_36 
REMARK   14  A    between atoms: C_36  and  O_38 
REMARK   15  A    between atoms: C_39  and  C_40 
REMARK   16  A    between atoms: C_40  and  C_41 
REMARK   17  A    between atoms: C_41  and  C_42 
REMARK   18  A    between atoms: C_42  and  O_44 
REMARK   19  A    between atoms: C_45  and  C_46 
REMARK   20  A    between atoms: C_46  and  C_47 
REMARK   21  A    between atoms: C_47  and  O_49 
REMARK   22  A    between atoms: C_50  and  C_51 
REMARK   23  A    between atoms: C_51  and  C_52 
REMARK   24  A    between atoms: C_52  and  O_54 
REMARK   25  A    between atoms: C_55  and  C_56 
REMARK   26  A    between atoms: C_56  and  C_57 
REMARK   27  A    between atoms: C_57  and  C_58 
REMARK   28  A    between atoms: C_58  and  O_60 
ROOT
ATOM      1  O   UNK d   0     -16.619 -22.751  57.544  0.00  0.00    -0.650 OA
ATOM      2  C   UNK d   0     -15.648 -23.118  58.241  0.00  0.00     0.139 C 
ENDROOT
BRANCH   2   3
ATOM      3  O   UNK d   0     -14.372 -22.818  57.829  0.00  0.00    -0.776 OA
ATOM      4  H   UNK d   0     -14.201 -22.108  57.113  0.00  0.00     0.167 HD
ENDBRANCH   2   3
BRANCH   2   5
ATOM      5  C   UNK d   0     -15.877 -23.876  59.504  0.00  0.00     0.115 C 
BRANCH   5   6
ATOM      6  C   UNK d   0     -14.751 -23.624  60.470  0.00  0.00     0.052 C 
BRANCH   6   7
ATOM      7  C   UNK d   0     -15.232 -23.081  61.794  0.00  0.00    -0.020 A 
ATOM      8  C   UNK d   0     -15.083 -23.617  62.978  0.00  0.00    -0.011 A 
ATOM      9  C   UNK d   0     -15.718 -22.739  63.947  0.00  0.00     0.067 A 
ATOM     10  C   UNK d   0     -15.889 -22.724  65.340  0.00  0.00     0.062 C 
ATOM     11  N   UNK d   0     -16.233 -21.695  63.265  0.00  0.00    -0.248 NA
ATOM     12  C   UNK d   0     -16.292 -21.644  66.133  0.00  0.00     0.041 A 
ATOM     13  N   UNK d   0     -17.255 -20.721  65.949  0.00  0.00    -0.355 N 
ATOM     14  C   UNK d   0     -15.589 -21.371  67.320  0.00  0.00    -0.022 A 
ATOM     15  C   UNK d   0     -17.175 -19.864  66.985  0.00  0.00     0.042 A 
ATOM     16  H   UNK d   0     -17.989 -20.686  65.114  0.00  0.00     0.166 HD
ATOM     17  C   UNK d   0     -17.942 -18.721  67.286  0.00  0.00     0.062 C 
ATOM     18  C   UNK d   0     -16.142 -20.239  67.865  0.00  0.00    -0.013 A 
ATOM     19  C   UNK d   0     -18.341 -17.706  66.454  0.00  0.00     0.067 A 
ATOM     20  N   UNK d   0     -18.163 -17.893  65.144  0.00  0.00    -0.248 NA
ATOM     21  C   UNK d   0     -18.931 -16.389  66.622  0.00  0.00    -0.011 A 
ATOM     22  C   UNK d   0     -18.593 -16.793  64.443  0.00  0.00     0.066 A 
ATOM     23  C   UNK d   0     -18.500 -16.868  63.061  0.00  0.00     0.062 C 
ATOM     24  C   UNK d   0     -19.072 -15.858  65.442  0.00  0.00    -0.020 A 
ATOM     25  C   UNK d   0     -18.104 -17.967  62.283  0.00  0.00     0.041 A 
ATOM     26  N   UNK d   0     -17.138 -18.876  62.458  0.00  0.00    -0.355 N 
ATOM     27  C   UNK d   0     -18.814 -18.243  61.094  0.00  0.00    -0.022 A 
ATOM     28  C   UNK d   0     -17.210 -19.727  61.422  0.00  0.00     0.042 A 
ATOM     29  H   UNK d   0     -16.395 -18.904  63.293  0.00  0.00     0.166 HD
ATOM     30  C   UNK d   0     -16.448 -20.862  61.105  0.00  0.00     0.062 C 
ATOM     31  C   UNK d   0     -18.255 -19.355  60.543  0.00  0.00    -0.013 A 
ATOM     32  C   UNK d   0     -15.974 -21.841  61.964  0.00  0.00     0.066 A 
BRANCH   8  33
ATOM     33  C   UNK d   0     -14.402 -24.886  63.296  0.00  0.00     0.151 C 
BRANCH  33  34
ATOM     34  C   UNK d   0     -13.332 -24.724  64.297  0.00  0.00     0.143 C 
ATOM     35  O   UNK d   0     -13.405 -25.282  65.402  0.00  0.00    -0.650 OA
BRANCH  34  36
ATOM     36  O   UNK d   0     -12.241 -23.941  64.000  0.00  0.00    -0.776 OA
ATOM     37  H   UNK d   0     -11.315 -24.141  64.402  0.00  0.00     0.167 HD
ENDBRANCH  34  36
ENDBRANCH  33  34
ENDBRANCH   8  33
BRANCH  31  38
ATOM     38  C   UNK d   0     -18.693 -20.034  59.267  0.00  0.00     0.151 C 
BRANCH  38  39
ATOM     39  C   UNK d   0     -17.917 -19.622  58.117  0.00  0.00     0.143 C 
ATOM     40  O   UNK d   0     -17.087 -18.698  58.171  0.00  0.00    -0.650 OA
BRANCH  39  41
ATOM     41  O   UNK d   0     -18.095 -20.278  56.899  0.00  0.00    -0.776 OA
ATOM     42  H   UNK d   0     -18.691 -21.111  56.905  0.00  0.00     0.167 HD
ENDBRANCH  39  41
ENDBRANCH  38  39
ENDBRANCH  31  38
BRANCH  27  43
ATOM     43  C   UNK d   0     -19.975 -17.503  60.477  0.00  0.00     0.052 C 
BRANCH  43  44
ATOM     44  C   UNK d   0     -19.566 -16.568  59.385  0.00  0.00     0.115 C 
BRANCH  44  45
ATOM     45  C   UNK d   0     -20.645 -16.612  58.364  0.00  0.00     0.139 C 
ATOM     46  O   UNK d   0     -21.539 -15.730  58.410  0.00  0.00    -0.650 OA
BRANCH  45  47
ATOM     47  O   UNK d   0     -20.699 -17.569  57.375  0.00  0.00    -0.776 OA
ATOM     48  H   UNK d   0     -20.599 -17.344  56.371  0.00  0.00     0.167 HD
ENDBRANCH  45  47
ENDBRANCH  44  45
ENDBRANCH  43  44
ENDBRANCH  27  43
BRANCH  24  49
ATOM     49  C   UNK d   0     -19.667 -14.543  65.146  0.00  0.00     0.052 C 
BRANCH  49  50
ATOM     50  C   UNK d   0     -18.591 -13.544  64.807  0.00  0.00     0.115 C 
BRANCH  50  51
ATOM     51  C   UNK d   0     -18.567 -12.306  65.574  0.00  0.00     0.139 C 
ATOM     52  O   UNK d   0     -19.130 -12.190  66.689  0.00  0.00    -0.650 OA
BRANCH  51  53
ATOM     53  O   UNK d   0     -17.904 -11.199  65.070  0.00  0.00    -0.776 OA
ATOM     54  H   UNK d   0     -17.132 -10.827  65.594  0.00  0.00     0.167 HD
ENDBRANCH  51  53
ENDBRANCH  50  51
ENDBRANCH  49  50
ENDBRANCH  24  49
BRANCH  21  55
ATOM     55  C   UNK d   0     -19.297 -15.800  67.944  0.00  0.00     0.151 C 
BRANCH  55  56
ATOM     56  C   UNK d   0     -18.118 -15.311  68.675  0.00  0.00     0.143 C 
ATOM     57  O   UNK d   0     -17.692 -15.858  69.712  0.00  0.00    -0.650 OA
BRANCH  56  58
ATOM     58  O   UNK d   0     -17.462 -14.189  68.173  0.00  0.00    -0.776 OA
ATOM     59  H   UNK d   0     -17.817 -13.848  67.261  0.00  0.00     0.167 HD
ENDBRANCH  56  58
ENDBRANCH  55  56
ENDBRANCH  21  55
BRANCH  18  60
ATOM     60  C   UNK d   0     -15.685 -19.584  69.145  0.00  0.00     0.151 C 
BRANCH  60  61
ATOM     61  C   UNK d   0     -14.806 -18.477  68.740  0.00  0.00     0.143 C 
ATOM     62  O   UNK d   0     -13.773 -18.554  68.075  0.00  0.00    -0.650 OA
BRANCH  61  63
ATOM     63  O   UNK d   0     -15.214 -17.193  69.176  0.00  0.00    -0.776 OA
ATOM     64  H   UNK d   0     -16.112 -16.821  68.921  0.00  0.00     0.167 HD
ENDBRANCH  61  63
ENDBRANCH  60  61
ENDBRANCH  18  60
BRANCH  14  65
ATOM     65  C   UNK d   0     -14.510 -22.147  68.021  0.00  0.00     0.052 C 
BRANCH  65  66
ATOM     66  C   UNK d   0     -13.167 -21.959  67.409  0.00  0.00     0.115 C 
BRANCH  66  67
ATOM     67  C   UNK d   0     -12.094 -22.845  67.763  0.00  0.00     0.139 C 
ATOM     68  O   UNK d   0     -11.629 -22.798  68.961  0.00  0.00    -0.650 OA
BRANCH  67  69
ATOM     69  O   UNK d   0     -11.462 -23.786  66.951  0.00  0.00    -0.776 OA
ATOM     70  H   UNK d   0     -11.520 -24.764  67.270  0.00  0.00     0.167 HD
ENDBRANCH  67  69
ENDBRANCH  66  67
ENDBRANCH  65  66
ENDBRANCH  14  65
ENDBRANCH   6   7
ENDBRANCH   5   6
ENDBRANCH   2   5
TORSDOF 28
ENDMDL
MODEL 8
REMARK VINA RESULT:      -6.1     14.804     21.743
REMARK  28 active torsions:
REMARK  status: ('A' for Active; 'I' for Inactive)
REMARK    1  A    between atoms: C_2  and  O_3 
REMARK    2  A    between atoms: C_2  and  C_4 
REMARK    3  A    between atoms: C_4  and  C_5 
REMARK    4  A    between atoms: C_5  and  C_6 
REMARK    5  A    between atoms: C_7  and  C_8 
REMARK    6  A    between atoms: C_8  and  C_9 
REMARK    7  A    between atoms: C_9  and  O_11 
REMARK    8  A    between atoms: C_28  and  C_29 
REMARK    9  A    between atoms: C_29  and  C_30 
REMARK   10  A    between atoms: C_30  and  O_32 
REMARK   11  A    between atoms: C_33  and  C_34 
REMARK   12  A    between atoms: C_34  and  C_35 
REMARK   13  A    between atoms: C_35  and  C_36 
REMARK   14  A    between atoms: C_36  and  O_38 
REMARK   15  A    between atoms: C_39  and  C_40 
REMARK   16  A    between atoms: C_40  and  C_41 
REMARK   17  A    between atoms: C_41  and  C_42 
REMARK   18  A    between atoms: C_42  and  O_44 
REMARK   19  A    between atoms: C_45  and  C_46 
REMARK   20  A    between atoms: C_46  and  C_47 
REMARK   21  A    between atoms: C_47  and  O_49 
REMARK   22  A    between atoms: C_50  and  C_51 
REMARK   23  A    between atoms: C_51  and  C_52 
REMARK   24  A    between atoms: C_52  and  O_54 
REMARK   25  A    between atoms: C_55  and  C_56 
REMARK   26  A    between atoms: C_56  and  C_57 
REMARK   27  A    between atoms: C_57  and  C_58 
REMARK   28  A    between atoms: C_58  and  O_60 
ROOT
ATOM      1  O   UNK d   0     -13.591 -24.626  55.852  0.00  0.00    -0.650 OA
ATOM      2  C   UNK d   0     -14.768 -24.941  56.133  0.00  0.00     0.139 C 
ENDROOT
BRANCH   2   3
ATOM      3  O   UNK d   0     -15.020 -25.645  57.286  0.00  0.00    -0.776 OA
ATOM      4  H   UNK d   0     -15.535 -25.222  58.061  0.00  0.00     0.167 HD
ENDBRANCH   2   3
BRANCH   2   5
ATOM      5  C   UNK d   0     -15.884 -24.554  55.224  0.00  0.00     0.115 C 
BRANCH   5   6
ATOM      6  C   UNK d   0     -17.183 -24.520  55.984  0.00  0.00     0.052 C 
BRANCH   6   7
ATOM      7  C   UNK d   0     -17.485 -23.157  56.558  0.00  0.00    -0.020 A 
ATOM      8  C   UNK d   0     -17.951 -22.110  55.927  0.00  0.00    -0.011 A 
ATOM      9  C   UNK d   0     -18.071 -21.027  56.889  0.00  0.00     0.067 A 
ATOM     10  C   UNK d   0     -18.512 -19.695  56.864  0.00  0.00     0.062 C 
ATOM     11  N   UNK d   0     -17.652 -21.502  58.081  0.00  0.00    -0.248 NA
ATOM     12  C   UNK d   0     -18.817 -18.883  57.962  0.00  0.00     0.041 A 
ATOM     13  N   UNK d   0     -18.187 -18.711  59.139  0.00  0.00    -0.355 N 
ATOM     14  C   UNK d   0     -19.999 -18.120  57.936  0.00  0.00    -0.022 A 
ATOM     15  C   UNK d   0     -18.943 -17.865  59.865  0.00  0.00     0.042 A 
ATOM     16  H   UNK d   0     -17.218 -19.163  59.444  0.00  0.00     0.166 HD
ATOM     17  C   UNK d   0     -18.749 -17.350  61.162  0.00  0.00     0.062 C 
ATOM     18  C   UNK d   0     -20.088 -17.473  59.144  0.00  0.00    -0.013 A 
ATOM     19  C   UNK d   0     -18.359 -18.006  62.301  0.00  0.00     0.067 A 
ATOM     20  N   UNK d   0     -17.908 -19.255  62.155  0.00  0.00    -0.248 NA
ATOM     21  C   UNK d   0     -18.313 -17.698  63.721  0.00  0.00    -0.011 A 
ATOM     22  C   UNK d   0     -17.571 -19.786  63.376  0.00  0.00     0.066 A 
ATOM     23  C   UNK d   0     -17.050 -21.071  63.366  0.00  0.00     0.062 C 
ATOM     24  C   UNK d   0     -17.855 -18.745  64.344  0.00  0.00    -0.020 A 
ATOM     25  C   UNK d   0     -16.738 -21.865  62.252  0.00  0.00     0.041 A 
ATOM     26  N   UNK d   0     -17.372 -22.048  61.087  0.00  0.00    -0.355 N 
ATOM     27  C   UNK d   0     -15.549 -22.627  62.277  0.00  0.00    -0.022 A 
ATOM     28  C   UNK d   0     -16.625 -22.898  60.366  0.00  0.00     0.042 A 
ATOM     29  H   UNK d   0     -18.351 -21.601  60.786  0.00  0.00     0.166 HD
ATOM     30  C   UNK d   0     -16.810 -23.426  59.078  0.00  0.00     0.062 C 
ATOM     31  C   UNK d   0     -15.469 -23.283  61.087  0.00  0.00    -0.013 A 
ATOM     32  C   UNK d   0     -17.286 -22.778  57.949  0.00  0.00     0.066 A 
BRANCH   8  33
ATOM     33  C   UNK d   0     -18.293 -22.020  54.495  0.00  0.00     0.151 C 
BRANCH  33  34
ATOM     34  C   UNK d   0     -19.518 -22.764  54.153  0.00  0.00     0.143 C 
ATOM     35  O   UNK d   0     -20.522 -22.705  54.878  0.00  0.00    -0.650 OA
BRANCH  34  36
ATOM     36  O   UNK d   0     -19.545 -23.535  53.014  0.00  0.00    -0.776 OA
ATOM     37  H   UNK d   0     -19.697 -24.552  53.061  0.00  0.00     0.167 HD
ENDBRANCH  34  36
ENDBRANCH  33  34
ENDBRANCH   8  33
BRANCH  31  38
ATOM     38  C   UNK d   0     -14.357 -24.209  60.653  0.00  0.00     0.151 C 
BRANCH  38  39
ATOM     39  C   UNK d   0     -13.277 -23.515  59.986  0.00  0.00     0.143 C 
ATOM     40  O   UNK d   0     -12.247 -23.155  60.584  0.00  0.00    -0.650 OA
BRANCH  39  41
ATOM     41  O   UNK d   0     -13.379 -23.234  58.623  0.00  0.00    -0.776 OA
ATOM     42  H   UNK d   0     -13.532 -22.254  58.365  0.00  0.00     0.167 HD
ENDBRANCH  39  41
ENDBRANCH  38  39
ENDBRANCH  31  38
BRANCH  27  43
ATOM     43  C   UNK d   0     -14.514 -22.751  63.366  0.00  0.00     0.052 C 
BRANCH  43  44
ATOM     44  C   UNK d   0     -14.764 -23.897  64.291  0.00  0.00     0.115 C 
BRANCH  44  45
ATOM     45  C   UNK d   0     -13.715 -23.832  65.342  0.00  0.00     0.139 C 
ATOM     46  O   UNK d   0     -14.001 -23.276  66.431  0.00  0.00    -0.650 OA
BRANCH  45  47
ATOM     47  O   UNK d   0     -12.453 -24.358  65.171  0.00  0.00    -0.776 OA
ATOM     48  H   UNK d   0     -11.640 -23.786  64.890  0.00  0.00     0.167 HD
ENDBRANCH  45  47
ENDBRANCH  44  45
ENDBRANCH  43  44
ENDBRANCH  27  43
BRANCH  24  49
ATOM     49  C   UNK d   0     -17.609 -18.855  65.793  0.00  0.00     0.052 C 
BRANCH  49  50
ATOM     50  C   UNK d   0     -18.778 -19.518  66.474  0.00  0.00     0.115 C 
BRANCH  50  51
ATOM     51  C   UNK d   0     -19.344 -18.840  67.633  0.00  0.00     0.139 C 
ATOM     52  O   UNK d   0     -19.643 -19.444  68.690  0.00  0.00    -0.650 OA
BRANCH  51  53
ATOM     53  O   UNK d   0     -19.572 -17.474  67.585  0.00  0.00    -0.776 OA
ATOM     54  H   UNK d   0     -19.037 -16.881  68.196  0.00  0.00     0.167 HD
ENDBRANCH  51  53
ENDBRANCH  50  51
ENDBRANCH  49  50
ENDBRANCH  24  49
BRANCH  21  55
ATOM     55  C   UNK d   0     -18.727 -16.388  64.305  0.00  0.00     0.151 C 
BRANCH  55  56
ATOM     56  C   UNK d   0     -20.185 -16.203  64.263  0.00  0.00     0.143 C 
ATOM     57  O   UNK d   0     -20.733 -15.309  63.588  0.00  0.00    -0.650 OA
BRANCH  56  58
ATOM     58  O   UNK d   0     -20.972 -17.072  65.017  0.00  0.00    -0.776 OA
ATOM     59  H   UNK d   0     -21.687 -17.593  64.478  0.00  0.00     0.167 HD
ENDBRANCH  56  58
ENDBRANCH  55  56
ENDBRANCH  21  55
BRANCH  18  60
ATOM     60  C   UNK d   0     -21.210 -16.550  59.549  0.00  0.00     0.151 C 
BRANCH  60  61
ATOM     61  C   UNK d   0     -22.030 -17.308  60.507  0.00  0.00     0.143 C 
ATOM     62  O   UNK d   0     -22.344 -18.496  60.437  0.00  0.00    -0.650 OA
BRANCH  61  63
ATOM     63  O   UNK d   0     -22.495 -16.567  61.620  0.00  0.00    -0.776 OA
ATOM     64  H   UNK d   0     -23.413 -16.158  61.624  0.00  0.00     0.167 HD
ENDBRANCH  61  63
ENDBRANCH  60  61
ENDBRANCH  18  60
BRANCH  14  65
ATOM     65  C   UNK d   0     -20.990 -17.883  56.832  0.00  0.00     0.052 C 
BRANCH  65  66
ATOM     66  C   UNK d   0     -22.250 -18.654  57.004  0.00  0.00     0.115 C 
BRANCH  66  67
ATOM     67  C   UNK d   0     -22.307 -20.026  56.585  0.00  0.00     0.139 C 
ATOM     68  O   UNK d   0     -21.937 -20.937  57.413  0.00  0.00    -0.650 OA
BRANCH  67  69
ATOM     69  O   UNK d   0     -22.727 -20.524  55.351  0.00  0.00    -0.776 OA
ATOM     70  H   UNK d   0     -23.680 -20.261  55.063  0.00  0.00     0.167 HD
ENDBRANCH  67  69
ENDBRANCH  66  67
ENDBRANCH  65  66
ENDBRANCH  14  65
ENDBRANCH   6   7
ENDBRANCH   5   6
ENDBRANCH   2   5
TORSDOF 28
ENDMDL
MODEL 9
REMARK VINA RESULT:      -6.1     16.136     21.455
REMARK  28 active torsions:
REMARK  status: ('A' for Active; 'I' for Inactive)
REMARK    1  A    between atoms: C_2  and  O_3 
REMARK    2  A    between atoms: C_2  and  C_4 
REMARK    3  A    between atoms: C_4  and  C_5 
REMARK    4  A    between atoms: C_5  and  C_6 
REMARK    5  A    between atoms: C_7  and  C_8 
REMARK    6  A    between atoms: C_8  and  C_9 
REMARK    7  A    between atoms: C_9  and  O_11 
REMARK    8  A    between atoms: C_28  and  C_29 
REMARK    9  A    between atoms: C_29  and  C_30 
REMARK   10  A    between atoms: C_30  and  O_32 
REMARK   11  A    between atoms: C_33  and  C_34 
REMARK   12  A    between atoms: C_34  and  C_35 
REMARK   13  A    between atoms: C_35  and  C_36 
REMARK   14  A    between atoms: C_36  and  O_38 
REMARK   15  A    between atoms: C_39  and  C_40 
REMARK   16  A    between atoms: C_40  and  C_41 
REMARK   17  A    between atoms: C_41  and  C_42 
REMARK   18  A    between atoms: C_42  and  O_44 
REMARK   19  A    between atoms: C_45  and  C_46 
REMARK   20  A    between atoms: C_46  and  C_47 
REMARK   21  A    between atoms: C_47  and  O_49 
REMARK   22  A    between atoms: C_50  and  C_51 
REMARK   23  A    between atoms: C_51  and  C_52 
REMARK   24  A    between atoms: C_52  and  O_54 
REMARK   25  A    between atoms: C_55  and  C_56 
REMARK   26  A    between atoms: C_56  and  C_57 
REMARK   27  A    between atoms: C_57  and  C_58 
REMARK   28  A    between atoms: C_58  and  O_60 
ROOT
ATOM      1  O   UNK d   0     -13.706 -25.275  64.149  0.00  0.00    -0.650 OA
ATOM      2  C   UNK d   0     -13.401 -24.197  64.708  0.00  0.00     0.139 C 
ENDROOT
BRANCH   2   3
ATOM      3  O   UNK d   0     -12.244 -24.125  65.445  0.00  0.00    -0.776 OA
ATOM      4  H   UNK d   0     -11.783 -23.229  65.616  0.00  0.00     0.167 HD
ENDBRANCH   2   3
BRANCH   2   5
ATOM      5  C   UNK d   0     -14.289 -23.008  64.573  0.00  0.00     0.115 C 
BRANCH   5   6
ATOM      6  C   UNK d   0     -15.656 -23.431  64.109  0.00  0.00     0.052 C 
BRANCH   6   7
ATOM      7  C   UNK d   0     -16.112 -22.680  62.881  0.00  0.00    -0.020 A 
ATOM      8  C   UNK d   0     -15.813 -22.935  61.633  0.00  0.00    -0.011 A 
ATOM      9  C   UNK d   0     -16.475 -21.940  60.805  0.00  0.00     0.067 A 
ATOM     10  C   UNK d   0     -16.577 -21.672  59.431  0.00  0.00     0.062 C 
ATOM     11  N   UNK d   0     -17.151 -21.116  61.633  0.00  0.00    -0.248 NA
ATOM     12  C   UNK d   0     -17.494 -20.826  58.799  0.00  0.00     0.041 A 
ATOM     13  N   UNK d   0     -17.941 -19.599  59.128  0.00  0.00    -0.355 N 
ATOM     14  C   UNK d   0     -18.151 -21.279  57.640  0.00  0.00    -0.022 A 
ATOM     15  C   UNK d   0     -18.871 -19.265  58.213  0.00  0.00     0.042 A 
ATOM     16  H   UNK d   0     -17.593 -18.973  59.979  0.00  0.00     0.166 HD
ATOM     17  C   UNK d   0     -19.649 -18.097  58.085  0.00  0.00     0.062 C 
ATOM     18  C   UNK d   0     -19.030 -20.294  57.264  0.00  0.00    -0.013 A 
ATOM     19  C   UNK d   0     -20.327 -17.403  59.053  0.00  0.00     0.067 A 
ATOM     20  N   UNK d   0     -20.080 -17.737  60.323  0.00  0.00    -0.248 NA
ATOM     21  C   UNK d   0     -21.319 -16.340  59.076  0.00  0.00    -0.011 A 
ATOM     22  C   UNK d   0     -20.839 -16.971  61.174  0.00  0.00     0.066 A 
ATOM     23  C   UNK d   0     -20.652 -17.189  62.531  0.00  0.00     0.062 C 
ATOM     24  C   UNK d   0     -21.617 -16.096  60.320  0.00  0.00    -0.020 A 
ATOM     25  C   UNK d   0     -19.716 -18.034  63.146  0.00  0.00     0.041 A 
ATOM     26  N   UNK d   0     -19.283 -19.260  62.827  0.00  0.00    -0.355 N 
ATOM     27  C   UNK d   0     -19.054 -17.577  64.306  0.00  0.00    -0.022 A 
ATOM     28  C   UNK d   0     -18.362 -19.599  63.744  0.00  0.00     0.042 A 
ATOM     29  H   UNK d   0     -19.641 -19.892  61.978  0.00  0.00     0.166 HD
ATOM     30  C   UNK d   0     -17.587 -20.761  63.888  0.00  0.00     0.062 C 
ATOM     31  C   UNK d   0     -18.195 -18.560  64.690  0.00  0.00    -0.013 A 
ATOM     32  C   UNK d   0     -16.974 -21.508  62.895  0.00  0.00     0.066 A 
BRANCH   8  33
ATOM     33  C   UNK d   0     -14.955 -24.025  61.133  0.00  0.00     0.151 C 
BRANCH  33  34
ATOM     34  C   UNK d   0     -13.629 -23.554  60.697  0.00  0.00     0.143 C 
ATOM     35  O   UNK d   0     -13.419 -23.246  59.514  0.00  0.00    -0.650 OA
BRANCH  34  36
ATOM     36  O   UNK d   0     -12.610 -23.456  61.617  0.00  0.00    -0.776 OA
ATOM     37  H   UNK d   0     -12.142 -24.294  61.987  0.00  0.00     0.167 HD
ENDBRANCH  34  36
ENDBRANCH  33  34
ENDBRANCH   8  33
BRANCH  31  38
ATOM     38  C   UNK d   0     -17.261 -18.514  65.877  0.00  0.00     0.151 C 
BRANCH  38  39
ATOM     39  C   UNK d   0     -17.876 -18.996  67.095  0.00  0.00     0.143 C 
ATOM     40  O   UNK d   0     -17.944 -20.207  67.373  0.00  0.00    -0.650 OA
BRANCH  39  41
ATOM     41  O   UNK d   0     -18.416 -18.082  68.000  0.00  0.00    -0.776 OA
ATOM     42  H   UNK d   0     -17.773 -17.681  68.689  0.00  0.00     0.167 HD
ENDBRANCH  39  41
ENDBRANCH  38  39
ENDBRANCH  31  38
BRANCH  27  43
ATOM     43  C   UNK d   0     -19.207 -16.271  65.045  0.00  0.00     0.052 C 
BRANCH  43  44
ATOM     44  C   UNK d   0     -18.831 -15.080  64.225  0.00  0.00     0.115 C 
BRANCH  44  45
ATOM     45  C   UNK d   0     -19.227 -13.882  65.009  0.00  0.00     0.139 C 
ATOM     46  O   UNK d   0     -18.520 -12.849  64.909  0.00  0.00    -0.650 OA
BRANCH  45  47
ATOM     47  O   UNK d   0     -20.334 -13.859  65.830  0.00  0.00    -0.776 OA
ATOM     48  H   UNK d   0     -21.203 -14.373  65.613  0.00  0.00     0.167 HD
ENDBRANCH  45  47
ENDBRANCH  44  45
ENDBRANCH  43  44
ENDBRANCH  27  43
BRANCH  24  49
ATOM     49  C   UNK d   0     -22.553 -15.065  60.802  0.00  0.00     0.052 C 
BRANCH  49  50
ATOM     50  C   UNK d   0     -23.768 -15.707  61.420  0.00  0.00     0.115 C 
BRANCH  50  51
ATOM     51  C   UNK d   0     -24.806 -16.176  60.513  0.00  0.00     0.139 C 
ATOM     52  O   UNK d   0     -25.142 -17.381  60.434  0.00  0.00    -0.650 OA
BRANCH  51  53
ATOM     53  O   UNK d   0     -25.461 -15.270  59.692  0.00  0.00    -0.776 OA
ATOM     54  H   UNK d   0     -25.646 -15.537  58.742  0.00  0.00     0.167 HD
ENDBRANCH  51  53
ENDBRANCH  50  51
ENDBRANCH  49  50
ENDBRANCH  24  49
BRANCH  21  55
ATOM     55  C   UNK d   0     -21.861 -15.678  57.854  0.00  0.00     0.151 C 
BRANCH  55  56
ATOM     56  C   UNK d   0     -23.016 -16.402  57.301  0.00  0.00     0.143 C 
ATOM     57  O   UNK d   0     -22.959 -17.597  56.950  0.00  0.00    -0.650 OA
BRANCH  56  58
ATOM     58  O   UNK d   0     -24.217 -15.706  57.171  0.00  0.00    -0.776 OA
ATOM     59  H   UNK d   0     -25.055 -16.216  57.506  0.00  0.00     0.167 HD
ENDBRANCH  56  58
ENDBRANCH  55  56
ENDBRANCH  21  55
BRANCH  18  60
ATOM     60  C   UNK d   0     -19.950 -20.366  56.070  0.00  0.00     0.151 C 
BRANCH  60  61
ATOM     61  C   UNK d   0     -21.259 -20.787  56.594  0.00  0.00     0.143 C 
ATOM     62  O   UNK d   0     -21.475 -21.655  57.440  0.00  0.00    -0.650 OA
BRANCH  61  63
ATOM     63  O   UNK d   0     -22.373 -20.104  56.050  0.00  0.00    -0.776 OA
ATOM     64  H   UNK d   0     -23.003 -19.589  56.638  0.00  0.00     0.167 HD
ENDBRANCH  61  63
ENDBRANCH  60  61
ENDBRANCH  18  60
BRANCH  14  65
ATOM     65  C   UNK d   0     -17.943 -22.517  56.815  0.00  0.00     0.052 C 
BRANCH  65  66
ATOM     66  C   UNK d   0     -16.764 -22.422  55.913  0.00  0.00     0.115 C 
BRANCH  66  67
ATOM     67  C   UNK d   0     -15.691 -23.368  56.042  0.00  0.00     0.139 C 
ATOM     68  O   UNK d   0     -15.753 -24.463  55.372  0.00  0.00    -0.650 OA
BRANCH  67  69
ATOM     69  O   UNK d   0     -14.545 -23.255  56.829  0.00  0.00    -0.776 OA
ATOM     70  H   UNK d   0     -14.409 -22.346  57.295  0.00  0.00     0.167 HD
ENDBRANCH  67  69
ENDBRANCH  66  67
ENDBRANCH  65  66
ENDBRANCH  14  65
ENDBRANCH   6   7
ENDBRANCH   5   6
ENDBRANCH   2   5
TORSDOF 28
ENDMDL
MODEL 10
REMARK VINA RESULT:      -6.1     16.492     23.708
REMARK  28 active torsions:
REMARK  status: ('A' for Active; 'I' for Inactive)
REMARK    1  A    between atoms: C_2  and  O_3 
REMARK    2  A    between atoms: C_2  and  C_4 
REMARK    3  A    between atoms: C_4  and  C_5 
REMARK    4  A    between atoms: C_5  and  C_6 
REMARK    5  A    between atoms: C_7  and  C_8 
REMARK    6  A    between atoms: C_8  and  C_9 
REMARK    7  A    between atoms: C_9  and  O_11 
REMARK    8  A    between atoms: C_28  and  C_29 
REMARK    9  A    between atoms: C_29  and  C_30 
REMARK   10  A    between atoms: C_30  and  O_32 
REMARK   11  A    between atoms: C_33  and  C_34 
REMARK   12  A    between atoms: C_34  and  C_35 
REMARK   13  A    between atoms: C_35  and  C_36 
REMARK   14  A    between atoms: C_36  and  O_38 
REMARK   15  A    between atoms: C_39  and  C_40 
REMARK   16  A    between atoms: C_40  and  C_41 
REMARK   17  A    between atoms: C_41  and  C_42 
REMARK   18  A    between atoms: C_42  and  O_44 
REMARK   19  A    between atoms: C_45  and  C_46 
REMARK   20  A    between atoms: C_46  and  C_47 
REMARK   21  A    between atoms: C_47  and  O_49 
REMARK   22  A    between atoms: C_50  and  C_51 
REMARK   23  A    between atoms: C_51  and  C_52 
REMARK   24  A    between atoms: C_52  and  O_54 
REMARK   25  A    between atoms: C_55  and  C_56 
REMARK   26  A    between atoms: C_56  and  C_57 
REMARK   27  A    between atoms: C_57  and  C_58 
REMARK   28  A    between atoms: C_58  and  O_60 
ROOT
ATOM      1  O   UNK d   0     -18.959 -22.700  54.750  0.00  0.00    -0.650 OA
ATOM      2  C   UNK d   0     -18.161 -21.920  55.316  0.00  0.00     0.139 C 
ENDROOT
BRANCH   2   3
ATOM      3  O   UNK d   0     -17.536 -20.944  54.578  0.00  0.00    -0.776 OA
ATOM      4  H   UNK d   0     -16.602 -20.611  54.827  0.00  0.00     0.167 HD
ENDBRANCH   2   3
BRANCH   2   5
ATOM      5  C   UNK d   0     -17.892 -22.055  56.776  0.00  0.00     0.115 C 
BRANCH   5   6
ATOM      6  C   UNK d   0     -16.713 -21.204  57.165  0.00  0.00     0.052 C 
BRANCH   6   7
ATOM      7  C   UNK d   0     -16.984 -20.360  58.387  0.00  0.00    -0.020 A 
ATOM      8  C   UNK d   0     -17.456 -19.140  58.425  0.00  0.00    -0.011 A 
ATOM      9  C   UNK d   0     -17.537 -18.738  59.820  0.00  0.00     0.067 A 
ATOM     10  C   UNK d   0     -17.964 -17.600  60.522  0.00  0.00     0.062 C 
ATOM     11  N   UNK d   0     -17.088 -19.772  60.562  0.00  0.00    -0.248 NA
ATOM     12  C   UNK d   0     -18.229 -17.500  61.893  0.00  0.00     0.041 A 
ATOM     13  N   UNK d   0     -17.562 -17.978  62.961  0.00  0.00    -0.355 N 
ATOM     14  C   UNK d   0     -19.403 -16.850  62.314  0.00  0.00    -0.022 A 
ATOM     15  C   UNK d   0     -18.288 -17.654  64.048  0.00  0.00     0.042 A 
ATOM     16  H   UNK d   0     -16.589 -18.517  62.948  0.00  0.00     0.166 HD
ATOM     17  C   UNK d   0     -18.050 -17.909  65.414  0.00  0.00     0.062 C 
ATOM     18  C   UNK d   0     -19.449 -16.946  63.682  0.00  0.00    -0.013 A 
ATOM     19  C   UNK d   0     -17.633 -19.069  66.015  0.00  0.00     0.067 A 
ATOM     20  N   UNK d   0     -17.200 -20.044  65.212  0.00  0.00    -0.248 NA
ATOM     21  C   UNK d   0     -17.542 -19.565  67.378  0.00  0.00    -0.011 A 
ATOM     22  C   UNK d   0     -16.833 -21.142  65.951  0.00  0.00     0.066 A 
ATOM     23  C   UNK d   0     -16.326 -22.221  65.242  0.00  0.00     0.062 C 
ATOM     24  C   UNK d   0     -17.077 -20.780  67.334  0.00  0.00    -0.020 A 
ATOM     25  C   UNK d   0     -16.056 -22.296  63.867  0.00  0.00     0.041 A 
ATOM     26  N   UNK d   0     -16.725 -21.835  62.804  0.00  0.00    -0.355 N 
ATOM     27  C   UNK d   0     -14.875 -22.946  63.446  0.00  0.00    -0.022 A 
ATOM     28  C   UNK d   0     -16.009 -22.164  61.718  0.00  0.00     0.042 A 
ATOM     29  H   UNK d   0     -17.709 -21.303  62.818  0.00  0.00     0.166 HD
ATOM     30  C   UNK d   0     -16.238 -21.925  60.354  0.00  0.00     0.062 C 
ATOM     31  C   UNK d   0     -14.837 -22.866  62.087  0.00  0.00    -0.013 A 
ATOM     32  C   UNK d   0     -16.740 -20.779  59.759  0.00  0.00     0.066 A 
BRANCH   8  33
ATOM     33  C   UNK d   0     -17.840 -18.303  57.274  0.00  0.00     0.151 C 
BRANCH  33  34
ATOM     34  C   UNK d   0     -19.291 -18.317  57.015  0.00  0.00     0.143 C 
ATOM     35  O   UNK d   0     -20.056 -17.570  57.641  0.00  0.00    -0.650 OA
BRANCH  34  36
ATOM     36  O   UNK d   0     -19.799 -19.174  56.067  0.00  0.00    -0.776 OA
ATOM     37  H   UNK d   0     -20.805 -19.389  56.025  0.00  0.00     0.167 HD
ENDBRANCH  34  36
ENDBRANCH  33  34
ENDBRANCH   8  33
BRANCH  31  38
ATOM     38  C   UNK d   0     -13.748 -23.411  61.193  0.00  0.00     0.151 C 
BRANCH  38  39
ATOM     39  C   UNK d   0     -14.091 -24.688  60.605  0.00  0.00     0.143 C 
ATOM     40  O   UNK d   0     -14.895 -25.472  61.139  0.00  0.00    -0.650 OA
BRANCH  39  41
ATOM     41  O   UNK d   0     -13.508 -25.067  59.396  0.00  0.00    -0.776 OA
ATOM     42  H   UNK d   0     -12.789 -25.796  59.439  0.00  0.00     0.167 HD
ENDBRANCH  39  41
ENDBRANCH  38  39
ENDBRANCH  31  38
BRANCH  27  43
ATOM     43  C   UNK d   0     -13.809 -23.625  64.268  0.00  0.00     0.052 C 
BRANCH  43  44
ATOM     44  C   UNK d   0     -14.085 -25.073  64.514  0.00  0.00     0.115 C 
BRANCH  44  45
ATOM     45  C   UNK d   0     -13.417 -25.421  65.796  0.00  0.00     0.139 C 
ATOM     46  O   UNK d   0     -12.553 -24.629  66.247  0.00  0.00    -0.650 OA
BRANCH  45  47
ATOM     47  O   UNK d   0     -13.712 -26.565  66.505  0.00  0.00    -0.776 OA
ATOM     48  H   UNK d   0     -14.574 -27.113  66.352  0.00  0.00     0.167 HD
ENDBRANCH  45  47
ENDBRANCH  44  45
ENDBRANCH  43  44
ENDBRANCH  27  43
BRANCH  24  49
ATOM     49  C   UNK d   0     -16.790 -21.643  68.492  0.00  0.00     0.052 C 
BRANCH  49  50
ATOM     50  C   UNK d   0     -15.341 -21.521  68.891  0.00  0.00     0.115 C 
BRANCH  50  51
ATOM     51  C   UNK d   0     -14.434 -22.560  68.424  0.00  0.00     0.139 C 
ATOM     52  O   UNK d   0     -14.535 -23.758  68.782  0.00  0.00    -0.650 OA
BRANCH  51  53
ATOM     53  O   UNK d   0     -13.408 -22.234  67.550  0.00  0.00    -0.776 OA
ATOM     54  H   UNK d   0     -13.363 -21.292  67.201  0.00  0.00     0.167 HD
ENDBRANCH  51  53
ENDBRANCH  50  51
ENDBRANCH  49  50
ENDBRANCH  24  49
BRANCH  21  55
ATOM     55  C   UNK d   0     -17.924 -18.771  68.583  0.00  0.00     0.151 C 
BRANCH  55  56
ATOM     56  C   UNK d   0     -16.875 -17.816  68.970  0.00  0.00     0.143 C 
ATOM     57  O   UNK d   0     -15.847 -18.157  69.589  0.00  0.00    -0.650 OA
BRANCH  56  58
ATOM     58  O   UNK d   0     -17.054 -16.478  68.623  0.00  0.00    -0.776 OA
ATOM     59  H   UNK d   0     -16.460 -15.808  69.145  0.00  0.00     0.167 HD
ENDBRANCH  56  58
ENDBRANCH  55  56
ENDBRANCH  21  55
BRANCH  18  60
ATOM     60  C   UNK d   0     -20.549 -16.389  64.551  0.00  0.00     0.151 C 
BRANCH  60  61
ATOM     61  C   UNK d   0     -20.043 -15.110  65.073  0.00  0.00     0.143 C 
ATOM     62  O   UNK d   0     -19.408 -14.256  64.454  0.00  0.00    -0.650 OA
BRANCH  61  63
ATOM     63  O   UNK d   0     -20.330 -14.859  66.436  0.00  0.00    -0.776 OA
ATOM     64  H   UNK d   0     -19.742 -15.221  67.165  0.00  0.00     0.167 HD
ENDBRANCH  61  63
ENDBRANCH  60  61
ENDBRANCH  18  60
BRANCH  14  65
ATOM     65  C   UNK d   0     -20.422 -16.066  61.537  0.00  0.00     0.052 C 
BRANCH  65  66
ATOM     66  C   UNK d   0     -21.632 -16.863  61.197  0.00  0.00     0.115 C 
BRANCH  66  67
ATOM     67  C   UNK d   0     -22.393 -16.536  60.024  0.00  0.00     0.139 C 
ATOM     68  O   UNK d   0     -22.965 -15.386  59.965  0.00  0.00    -0.650 OA
BRANCH  67  69
ATOM     69  O   UNK d   0     -22.605 -17.327  58.896  0.00  0.00    -0.776 OA
ATOM     70  H   UNK d   0     -21.776 -17.503  58.310  0.00  0.00     0.167 HD
ENDBRANCH  67  69
ENDBRANCH  66  67
ENDBRANCH  65  66
ENDBRANCH  14  65
ENDBRANCH   6   7
ENDBRANCH   5   6
ENDBRANCH   2   5
TORSDOF 28
ENDMDL
MODEL 11
REMARK VINA RESULT:      -6.1      1.961      2.898
REMARK  28 active torsions:
REMARK  status: ('A' for Active; 'I' for Inactive)
REMARK    1  A    between atoms: C_2  and  O_3 
REMARK    2  A    between atoms: C_2  and  C_4 
REMARK    3  A    between atoms: C_4  and  C_5 
REMARK    4  A    between atoms: C_5  and  C_6 
REMARK    5  A    between atoms: C_7  and  C_8 
REMARK    6  A    between atoms: C_8  and  C_9 
REMARK    7  A    between atoms: C_9  and  O_11 
REMARK    8  A    between atoms: C_28  and  C_29 
REMARK    9  A    between atoms: C_29  and  C_30 
REMARK   10  A    between atoms: C_30  and  O_32 
REMARK   11  A    between atoms: C_33  and  C_34 
REMARK   12  A    between atoms: C_34  and  C_35 
REMARK   13  A    between atoms: C_35  and  C_36 
REMARK   14  A    between atoms: C_36  and  O_38 
REMARK   15  A    between atoms: C_39  and  C_40 
REMARK   16  A    between atoms: C_40  and  C_41 
REMARK   17  A    between atoms: C_41  and  C_42 
REMARK   18  A    between atoms: C_42  and  O_44 
REMARK   19  A    between atoms: C_45  and  C_46 
REMARK   20  A    between atoms: C_46  and  C_47 
REMARK   21  A    between atoms: C_47  and  O_49 
REMARK   22  A    between atoms: C_50  and  C_51 
REMARK   23  A    between atoms: C_51  and  C_52 
REMARK   24  A    between atoms: C_52  and  O_54 
REMARK   25  A    between atoms: C_55  and  C_56 
REMARK   26  A    between atoms: C_56  and  C_57 
REMARK   27  A    between atoms: C_57  and  C_58 
REMARK   28  A    between atoms: C_58  and  O_60 
ROOT
ATOM      1  O   UNK d   0      -9.587 -33.505  54.217  0.00  0.00    -0.650 OA
ATOM      2  C   UNK d   0      -9.015 -32.736  53.413  0.00  0.00     0.139 C 
ENDROOT
BRANCH   2   3
ATOM      3  O   UNK d   0      -8.110 -31.818  53.887  0.00  0.00    -0.776 OA
ATOM      4  H   UNK d   0      -8.420 -30.946  54.320  0.00  0.00     0.167 HD
ENDBRANCH   2   3
BRANCH   2   5
ATOM      5  C   UNK d   0      -9.317 -32.818  51.955  0.00  0.00     0.115 C 
BRANCH   5   6
ATOM      6  C   UNK d   0      -8.484 -31.821  51.197  0.00  0.00     0.052 C 
BRANCH   6   7
ATOM      7  C   UNK d   0      -8.069 -32.325  49.836  0.00  0.00    -0.020 A 
ATOM      8  C   UNK d   0      -6.961 -32.943  49.517  0.00  0.00    -0.011 A 
ATOM      9  C   UNK d   0      -7.003 -33.226  48.092  0.00  0.00     0.067 A 
ATOM     10  C   UNK d   0      -6.168 -33.862  47.160  0.00  0.00     0.062 C 
ATOM     11  N   UNK d   0      -8.171 -32.740  47.621  0.00  0.00    -0.248 NA
ATOM     12  C   UNK d   0      -6.505 -34.286  45.871  0.00  0.00     0.041 A 
ATOM     13  N   UNK d   0      -7.224 -33.690  44.901  0.00  0.00    -0.355 N 
ATOM     14  C   UNK d   0      -6.110 -35.570  45.451  0.00  0.00    -0.022 A 
ATOM     15  C   UNK d   0      -7.302 -34.565  43.880  0.00  0.00     0.042 A 
ATOM     16  H   UNK d   0      -7.652 -32.663  44.930  0.00  0.00     0.166 HD
ATOM     17  C   UNK d   0      -7.934 -34.450  42.626  0.00  0.00     0.062 C 
ATOM     18  C   UNK d   0      -6.616 -35.755  44.189  0.00  0.00    -0.013 A 
ATOM     19  C   UNK d   0      -9.182 -33.966  42.329  0.00  0.00     0.067 A 
ATOM     20  N   UNK d   0      -9.832 -33.331  43.308  0.00  0.00    -0.248 NA
ATOM     21  C   UNK d   0     -10.054 -33.966  41.167  0.00  0.00    -0.011 A 
ATOM     22  C   UNK d   0     -11.067 -32.919  42.871  0.00  0.00     0.066 A 
ATOM     23  C   UNK d   0     -11.838 -32.209  43.780  0.00  0.00     0.062 C 
ATOM     24  C   UNK d   0     -11.157 -33.356  41.491  0.00  0.00    -0.020 A 
ATOM     25  C   UNK d   0     -11.475 -31.782  45.066  0.00  0.00     0.041 A 
ATOM     26  N   UNK d   0     -10.773 -32.381  46.036  0.00  0.00    -0.355 N 
ATOM     27  C   UNK d   0     -11.868 -30.492  45.485  0.00  0.00    -0.022 A 
ATOM     28  C   UNK d   0     -10.702 -31.514  47.058  0.00  0.00     0.042 A 
ATOM     29  H   UNK d   0     -10.354 -33.416  46.010  0.00  0.00     0.166 HD
ATOM     30  C   UNK d   0     -10.085 -31.618  48.315  0.00  0.00     0.062 C 
ATOM     31  C   UNK d   0     -11.383 -30.314  46.744  0.00  0.00    -0.013 A 
ATOM     32  C   UNK d   0      -8.859 -32.186  48.621  0.00  0.00     0.066 A 
BRANCH   8  33
ATOM     33  C   UNK d   0      -5.852 -33.295  50.423  0.00  0.00     0.151 C 
BRANCH  33  34
ATOM     34  C   UNK d   0      -6.077 -34.566  51.133  0.00  0.00     0.143 C 
ATOM     35  O   UNK d   0      -6.078 -35.645  50.523  0.00  0.00    -0.650 OA
BRANCH  34  36
ATOM     36  O   UNK d   0      -6.289 -34.552  52.492  0.00  0.00    -0.776 OA
ATOM     37  H   UNK d   0      -5.691 -33.998  53.121  0.00  0.00     0.167 HD
ENDBRANCH  34  36
ENDBRANCH  33  34
ENDBRANCH   8  33
BRANCH  31  38
ATOM     38  C   UNK d   0     -11.542 -29.075  47.594  0.00  0.00     0.151 C 
BRANCH  38  39
ATOM     39  C   UNK d   0     -12.596 -29.201  48.578  0.00  0.00     0.143 C 
ATOM     40  O   UNK d   0     -13.521 -30.024  48.461  0.00  0.00    -0.650 OA
BRANCH  39  41
ATOM     41  O   UNK d   0     -12.586 -28.378  49.703  0.00  0.00    -0.776 OA
ATOM     42  H   UNK d   0     -13.404 -27.776  49.842  0.00  0.00     0.167 HD
ENDBRANCH  39  41
ENDBRANCH  38  39
ENDBRANCH  31  38
BRANCH  27  43
ATOM     43  C   UNK d   0     -12.672 -29.449  44.749  0.00  0.00     0.052 C 
BRANCH  43  44
ATOM     44  C   UNK d   0     -14.143 -29.561  44.986  0.00  0.00     0.115 C 
BRANCH  44  45
ATOM     45  C   UNK d   0     -14.769 -29.811  43.662  0.00  0.00     0.139 C 
ATOM     46  O   UNK d   0     -15.140 -30.980  43.394  0.00  0.00    -0.650 OA
BRANCH  45  47
ATOM     47  O   UNK d   0     -14.962 -28.817  42.727  0.00  0.00    -0.776 OA
ATOM     48  H   UNK d   0     -14.720 -27.828  42.902  0.00  0.00     0.167 HD
ENDBRANCH  45  47
ENDBRANCH  44  45
ENDBRANCH  43  44
ENDBRANCH  27  43
BRANCH  24  49
ATOM     49  C   UNK d   0     -12.301 -33.097  40.600  0.00  0.00     0.052 C 
BRANCH  49  50
ATOM     50  C   UNK d   0     -12.160 -31.746  39.945  0.00  0.00     0.115 C 
BRANCH  50  51
ATOM     51  C   UNK d   0     -12.918 -30.645  40.524  0.00  0.00     0.139 C 
ATOM     52  O   UNK d   0     -12.376 -29.720  41.174  0.00  0.00    -0.650 OA
BRANCH  51  53
ATOM     53  O   UNK d   0     -14.294 -30.600  40.364  0.00  0.00    -0.776 OA
ATOM     54  H   UNK d   0     -14.786 -29.790  40.701  0.00  0.00     0.167 HD
ENDBRANCH  51  53
ENDBRANCH  50  51
ENDBRANCH  49  50
ENDBRANCH  24  49
BRANCH  21  55
ATOM     55  C   UNK d   0      -9.692 -34.573  39.852  0.00  0.00     0.151 C 
BRANCH  55  56
ATOM     56  C   UNK d   0      -9.901 -36.029  39.840  0.00  0.00     0.143 C 
ATOM     57  O   UNK d   0      -8.982 -36.845  40.051  0.00  0.00    -0.650 OA
BRANCH  56  58
ATOM     58  O   UNK d   0     -11.188 -36.498  39.580  0.00  0.00    -0.776 OA
ATOM     59  H   UNK d   0     -11.720 -35.948  38.883  0.00  0.00     0.167 HD
ENDBRANCH  56  58
ENDBRANCH  55  56
ENDBRANCH  21  55
BRANCH  18  60
ATOM     60  C   UNK d   0      -6.438 -37.004  43.361  0.00  0.00     0.151 C 
BRANCH  60  61
ATOM     61  C   UNK d   0      -7.585 -37.867  43.680  0.00  0.00     0.143 C 
ATOM     62  O   UNK d   0      -7.656 -38.704  44.580  0.00  0.00    -0.650 OA
BRANCH  61  63
ATOM     63  O   UNK d   0      -8.717 -37.697  42.847  0.00  0.00    -0.776 OA
ATOM     64  H   UNK d   0      -9.634 -37.568  43.238  0.00  0.00     0.167 HD
ENDBRANCH  61  63
ENDBRANCH  60  61
ENDBRANCH  18  60
BRANCH  14  65
ATOM     65  C   UNK d   0      -5.217 -36.585  46.107  0.00  0.00     0.052 C 
BRANCH  65  66
ATOM     66  C   UNK d   0      -5.918 -37.395  47.140  0.00  0.00     0.115 C 
BRANCH  66  67
ATOM     67  C   UNK d   0      -5.154 -38.114  48.119  0.00  0.00     0.139 C 
ATOM     68  O   UNK d   0      -5.211 -39.399  48.120  0.00  0.00    -0.650 OA
BRANCH  67  69
ATOM     69  O   UNK d   0      -4.325 -37.588  49.110  0.00  0.00    -0.776 OA
ATOM     70  H   UNK d   0      -4.633 -37.741  50.080  0.00  0.00     0.167 HD
ENDBRANCH  67  69
ENDBRANCH  66  67
ENDBRANCH  65  66
ENDBRANCH  14  65
ENDBRANCH   6   7
ENDBRANCH   5   6
ENDBRANCH   2   5
TORSDOF 28
ENDMDL
MODEL 12
REMARK VINA RESULT:      -6.1     15.374     20.977
REMARK  28 active torsions:
REMARK  status: ('A' for Active; 'I' for Inactive)
REMARK    1  A    between atoms: C_2  and  O_3 
REMARK    2  A    between atoms: C_2  and  C_4 
REMARK    3  A    between atoms: C_4  and  C_5 
REMARK    4  A    between atoms: C_5  and  C_6 
REMARK    5  A    between atoms: C_7  and  C_8 
REMARK    6  A    between atoms: C_8  and  C_9 
REMARK    7  A    between atoms: C_9  and  O_11 
REMARK    8  A    between atoms: C_28  and  C_29 
REMARK    9  A    between atoms: C_29  and  C_30 
REMARK   10  A    between atoms: C_30  and  O_32 
REMARK   11  A    between atoms: C_33  and  C_34 
REMARK   12  A    between atoms: C_34  and  C_35 
REMARK   13  A    between atoms: C_35  and  C_36 
REMARK   14  A    between atoms: C_36  and  O_38 
REMARK   15  A    between atoms: C_39  and  C_40 
REMARK   16  A    between atoms: C_40  and  C_41 
REMARK   17  A    between atoms: C_41  and  C_42 
REMARK   18  A    between atoms: C_42  and  O_44 
REMARK   19  A    between atoms: C_45  and  C_46 
REMARK   20  A    between atoms: C_46  and  C_47 
REMARK   21  A    between atoms: C_47  and  O_49 
REMARK   22  A    between atoms: C_50  and  C_51 
REMARK   23  A    between atoms: C_51  and  C_52 
REMARK   24  A    between atoms: C_52  and  O_54 
REMARK   25  A    between atoms: C_55  and  C_56 
REMARK   26  A    between atoms: C_56  and  C_57 
REMARK   27  A    between atoms: C_57  and  C_58 
REMARK   28  A    between atoms: C_58  and  O_60 
ROOT
ATOM      1  O   UNK d   0     -24.857 -16.646  61.091  0.00  0.00    -0.650 OA
ATOM      2  C   UNK d   0     -25.378 -16.394  59.982  0.00  0.00     0.139 C 
ENDROOT
BRANCH   2   3
ATOM      3  O   UNK d   0     -24.641 -15.738  59.026  0.00  0.00    -0.776 OA
ATOM      4  H   UNK d   0     -23.862 -15.129  59.285  0.00  0.00     0.167 HD
ENDBRANCH   2   3
BRANCH   2   5
ATOM      5  C   UNK d   0     -26.785 -16.802  59.706  0.00  0.00     0.115 C 
BRANCH   5   6
ATOM      6  C   UNK d   0     -26.851 -17.606  58.436  0.00  0.00     0.052 C 
BRANCH   6   7
ATOM      7  C   UNK d   0     -26.233 -18.976  58.583  0.00  0.00    -0.020 A 
ATOM      8  C   UNK d   0     -26.733 -20.015  59.201  0.00  0.00    -0.011 A 
ATOM      9  C   UNK d   0     -25.777 -21.104  59.085  0.00  0.00     0.067 A 
ATOM     10  C   UNK d   0     -25.716 -22.445  59.494  0.00  0.00     0.062 C 
ATOM     11  N   UNK d   0     -24.721 -20.637  58.386  0.00  0.00    -0.248 NA
ATOM     12  C   UNK d   0     -24.825 -23.427  59.047  0.00  0.00     0.041 A 
ATOM     13  N   UNK d   0     -23.501 -23.381  58.810  0.00  0.00    -0.355 N 
ATOM     14  C   UNK d   0     -25.327 -24.698  58.712  0.00  0.00    -0.022 A 
ATOM     15  C   UNK d   0     -23.150 -24.588  58.326  0.00  0.00     0.042 A 
ATOM     16  H   UNK d   0     -22.823 -22.520  59.000  0.00  0.00     0.166 HD
ATOM     17  C   UNK d   0     -21.893 -25.079  57.919  0.00  0.00     0.062 C 
ATOM     18  C   UNK d   0     -24.268 -25.440  58.250  0.00  0.00    -0.013 A 
ATOM     19  C   UNK d   0     -20.940 -24.470  57.143  0.00  0.00     0.067 A 
ATOM     20  N   UNK d   0     -21.109 -23.170  56.886  0.00  0.00    -0.248 NA
ATOM     21  C   UNK d   0     -19.723 -24.885  56.466  0.00  0.00    -0.011 A 
ATOM     22  C   UNK d   0     -20.091 -22.706  56.090  0.00  0.00     0.066 A 
ATOM     23  C   UNK d   0     -20.121 -21.355  55.775  0.00  0.00     0.062 C 
ATOM     24  C   UNK d   0     -19.233 -23.849  55.849  0.00  0.00    -0.020 A 
ATOM     25  C   UNK d   0     -21.017 -20.383  56.245  0.00  0.00     0.041 A 
ATOM     26  N   UNK d   0     -22.337 -20.423  56.466  0.00  0.00    -0.355 N 
ATOM     27  C   UNK d   0     -20.513 -19.108  56.586  0.00  0.00    -0.022 A 
ATOM     28  C   UNK d   0     -22.690 -19.219  56.941  0.00  0.00     0.042 A 
ATOM     29  H   UNK d   0     -23.017 -21.287  56.265  0.00  0.00     0.166 HD
ATOM     30  C   UNK d   0     -23.938 -18.714  57.341  0.00  0.00     0.062 C 
ATOM     31  C   UNK d   0     -21.564 -18.366  57.027  0.00  0.00    -0.013 A 
ATOM     32  C   UNK d   0     -24.933 -19.363  58.054  0.00  0.00     0.066 A 
BRANCH   8  33
ATOM     33  C   UNK d   0     -28.029 -20.090  59.900  0.00  0.00     0.151 C 
BRANCH  33  34
ATOM     34  C   UNK d   0     -27.881 -20.250  61.358  0.00  0.00     0.143 C 
ATOM     35  O   UNK d   0     -28.182 -21.316  61.915  0.00  0.00    -0.650 OA
BRANCH  34  36
ATOM     36  O   UNK d   0     -27.405 -19.200  62.109  0.00  0.00    -0.776 OA
ATOM     37  H   UNK d   0     -26.511 -19.267  62.614  0.00  0.00     0.167 HD
ENDBRANCH  34  36
ENDBRANCH  33  34
ENDBRANCH   8  33
BRANCH  31  38
ATOM     38  C   UNK d   0     -21.504 -16.937  57.515  0.00  0.00     0.151 C 
BRANCH  38  39
ATOM     39  C   UNK d   0     -21.229 -16.839  58.932  0.00  0.00     0.143 C 
ATOM     40  O   UNK d   0     -21.984 -17.324  59.793  0.00  0.00    -0.650 OA
BRANCH  39  41
ATOM     41  O   UNK d   0     -20.077 -16.180  59.363  0.00  0.00    -0.776 OA
ATOM     42  H   UNK d   0     -20.194 -15.219  59.698  0.00  0.00     0.167 HD
ENDBRANCH  39  41
ENDBRANCH  38  39
ENDBRANCH  31  38
BRANCH  27  43
ATOM     43  C   UNK d   0     -19.101 -18.584  56.505  0.00  0.00     0.052 C 
BRANCH  43  44
ATOM     44  C   UNK d   0     -18.299 -18.854  57.738  0.00  0.00     0.115 C 
BRANCH  44  45
ATOM     45  C   UNK d   0     -17.379 -17.699  57.907  0.00  0.00     0.139 C 
ATOM     46  O   UNK d   0     -16.787 -17.570  59.007  0.00  0.00    -0.650 OA
BRANCH  45  47
ATOM     47  O   UNK d   0     -17.148 -16.776  56.910  0.00  0.00    -0.776 OA
ATOM     48  H   UNK d   0     -16.813 -17.039  55.969  0.00  0.00     0.167 HD
ENDBRANCH  45  47
ENDBRANCH  44  45
ENDBRANCH  43  44
ENDBRANCH  27  43
BRANCH  24  49
ATOM     49  C   UNK d   0     -17.983 -23.813  55.069  0.00  0.00     0.052 C 
BRANCH  49  50
ATOM     50  C   UNK d   0     -16.836 -23.367  55.938  0.00  0.00     0.115 C 
BRANCH  50  51
ATOM     51  C   UNK d   0     -16.529 -21.943  55.955  0.00  0.00     0.139 C 
ATOM     52  O   UNK d   0     -15.976 -21.382  56.930  0.00  0.00    -0.650 OA
BRANCH  51  53
ATOM     53  O   UNK d   0     -16.857 -21.157  54.861  0.00  0.00    -0.776 OA
ATOM     54  H   UNK d   0     -16.995 -20.173  55.007  0.00  0.00     0.167 HD
ENDBRANCH  51  53
ENDBRANCH  50  51
ENDBRANCH  49  50
ENDBRANCH  24  49
BRANCH  21  55
ATOM     55  C   UNK d   0     -19.174 -26.273  56.512  0.00  0.00     0.151 C 
BRANCH  55  56
ATOM     56  C   UNK d   0     -19.898 -27.182  55.611  0.00  0.00     0.143 C 
ATOM     57  O   UNK d   0     -20.893 -27.841  55.974  0.00  0.00    -0.650 OA
BRANCH  56  58
ATOM     58  O   UNK d   0     -19.439 -27.299  54.300  0.00  0.00    -0.776 OA
ATOM     59  H   UNK d   0     -19.721 -28.171  53.815  0.00  0.00     0.167 HD
ENDBRANCH  56  58
ENDBRANCH  55  56
ENDBRANCH  21  55
BRANCH  18  60
ATOM     60  C   UNK d   0     -24.357 -26.869  57.771  0.00  0.00     0.151 C 
BRANCH  60  61
ATOM     61  C   UNK d   0     -23.796 -27.692  58.853  0.00  0.00     0.143 C 
ATOM     62  O   UNK d   0     -24.258 -27.849  59.983  0.00  0.00    -0.650 OA
BRANCH  61  63
ATOM     63  O   UNK d   0     -22.593 -28.368  58.533  0.00  0.00    -0.776 OA
ATOM     64  H   UNK d   0     -22.209 -29.063  59.149  0.00  0.00     0.167 HD
ENDBRANCH  61  63
ENDBRANCH  60  61
ENDBRANCH  18  60
BRANCH  14  65
ATOM     65  C   UNK d   0     -26.697 -25.290  58.886  0.00  0.00     0.052 C 
BRANCH  65  66
ATOM     66  C   UNK d   0     -27.687 -24.762  57.909  0.00  0.00     0.115 C 
BRANCH  66  67
ATOM     67  C   UNK d   0     -27.588 -25.133  56.525  0.00  0.00     0.139 C 
ATOM     68  O   UNK d   0     -27.409 -26.372  56.233  0.00  0.00    -0.650 OA
BRANCH  67  69
ATOM     69  O   UNK d   0     -27.661 -24.297  55.411  0.00  0.00    -0.776 OA
ATOM     70  H   UNK d   0     -28.008 -24.735  54.545  0.00  0.00     0.167 HD
ENDBRANCH  67  69
ENDBRANCH  66  67
ENDBRANCH  65  66
ENDBRANCH  14  65
ENDBRANCH   6   7
ENDBRANCH   5   6
ENDBRANCH   2   5
TORSDOF 28
ENDMDL
MODEL 13
REMARK VINA RESULT:      -6.0     16.384     22.443
REMARK  28 active torsions:
REMARK  status: ('A' for Active; 'I' for Inactive)
REMARK    1  A    between atoms: C_2  and  O_3 
REMARK    2  A    between atoms: C_2  and  C_4 
REMARK    3  A    between atoms: C_4  and  C_5 
REMARK    4  A    between atoms: C_5  and  C_6 
REMARK    5  A    between atoms: C_7  and  C_8 
REMARK    6  A    between atoms: C_8  and  C_9 
REMARK    7  A    between atoms: C_9  and  O_11 
REMARK    8  A    between atoms: C_28  and  C_29 
REMARK    9  A    between atoms: C_29  and  C_30 
REMARK   10  A    between atoms: C_30  and  O_32 
REMARK   11  A    between atoms: C_33  and  C_34 
REMARK   12  A    between atoms: C_34  and  C_35 
REMARK   13  A    between atoms: C_35  and  C_36 
REMARK   14  A    between atoms: C_36  and  O_38 
REMARK   15  A    between atoms: C_39  and  C_40 
REMARK   16  A    between atoms: C_40  and  C_41 
REMARK   17  A    between atoms: C_41  and  C_42 
REMARK   18  A    between atoms: C_42  and  O_44 
REMARK   19  A    between atoms: C_45  and  C_46 
REMARK   20  A    between atoms: C_46  and  C_47 
REMARK   21  A    between atoms: C_47  and  O_49 
REMARK   22  A    between atoms: C_50  and  C_51 
REMARK   23  A    between atoms: C_51  and  C_52 
REMARK   24  A    between atoms: C_52  and  O_54 
REMARK   25  A    between atoms: C_55  and  C_56 
REMARK   26  A    between atoms: C_56  and  C_57 
REMARK   27  A    between atoms: C_57  and  C_58 
REMARK   28  A    between atoms: C_58  and  O_60 
ROOT
ATOM      1  O   UNK d   0     -20.655 -18.728  58.359  0.00  0.00    -0.650 OA
ATOM      2  C   UNK d   0     -19.893 -18.259  57.484  0.00  0.00     0.139 C 
ENDROOT
BRANCH   2   3
ATOM      3  O   UNK d   0     -20.072 -18.622  56.171  0.00  0.00    -0.776 OA
ATOM      4  H   UNK d   0     -21.007 -18.685  55.763  0.00  0.00     0.167 HD
ENDBRANCH   2   3
BRANCH   2   5
ATOM      5  C   UNK d   0     -18.802 -17.318  57.867  0.00  0.00     0.115 C 
BRANCH   5   6
ATOM      6  C   UNK d   0     -17.462 -17.980  57.692  0.00  0.00     0.052 C 
BRANCH   6   7
ATOM      7  C   UNK d   0     -17.248 -19.122  58.656  0.00  0.00    -0.020 A 
ATOM      8  C   UNK d   0     -16.873 -20.344  58.375  0.00  0.00    -0.011 A 
ATOM      9  C   UNK d   0     -16.812 -21.089  59.621  0.00  0.00     0.067 A 
ATOM     10  C   UNK d   0     -16.470 -22.395  60.004  0.00  0.00     0.062 C 
ATOM     11  N   UNK d   0     -17.171 -20.244  60.611  0.00  0.00    -0.248 NA
ATOM     12  C   UNK d   0     -16.202 -22.856  61.298  0.00  0.00     0.041 A 
ATOM     13  N   UNK d   0     -16.819 -22.614  62.471  0.00  0.00    -0.355 N 
ATOM     14  C   UNK d   0     -15.080 -23.677  61.509  0.00  0.00    -0.022 A 
ATOM     15  C   UNK d   0     -16.112 -23.254  63.421  0.00  0.00     0.042 A 
ATOM     16  H   UNK d   0     -17.746 -22.019  62.621  0.00  0.00     0.166 HD
ATOM     17  C   UNK d   0     -16.316 -23.334  64.813  0.00  0.00     0.062 C 
ATOM     18  C   UNK d   0     -15.014 -23.931  62.857  0.00  0.00    -0.013 A 
ATOM     19  C   UNK d   0     -16.634 -22.335  65.697  0.00  0.00     0.067 A 
ATOM     20  N   UNK d   0     -16.997 -21.159  65.176  0.00  0.00    -0.248 NA
ATOM     21  C   UNK d   0     -16.674 -22.192  67.143  0.00  0.00    -0.011 A 
ATOM     22  C   UNK d   0     -17.269 -20.259  66.177  0.00  0.00     0.066 A 
ATOM     23  C   UNK d   0     -17.695 -19.001  65.775  0.00  0.00     0.062 C 
ATOM     24  C   UNK d   0     -17.042 -20.974  67.417  0.00  0.00    -0.020 A 
ATOM     25  C   UNK d   0     -17.971 -18.563  64.470  0.00  0.00     0.041 A 
ATOM     26  N   UNK d   0     -17.349 -18.791  63.307  0.00  0.00    -0.355 N 
ATOM     27  C   UNK d   0     -19.100 -17.742  64.259  0.00  0.00    -0.022 A 
ATOM     28  C   UNK d   0     -18.048 -18.146  62.359  0.00  0.00     0.042 A 
ATOM     29  H   UNK d   0     -16.411 -19.380  63.159  0.00  0.00     0.166 HD
ATOM     30  C   UNK d   0     -17.850 -18.051  60.972  0.00  0.00     0.062 C 
ATOM     31  C   UNK d   0     -19.157 -17.475  62.925  0.00  0.00    -0.013 A 
ATOM     32  C   UNK d   0     -17.446 -19.045  60.096  0.00  0.00     0.066 A 
BRANCH   8  33
ATOM     33  C   UNK d   0     -16.568 -20.891  57.040  0.00  0.00     0.151 C 
BRANCH  33  34
ATOM     34  C   UNK d   0     -17.778 -21.154  56.240  0.00  0.00     0.143 C 
ATOM     35  O   UNK d   0     -18.861 -21.403  56.788  0.00  0.00    -0.650 OA
BRANCH  34  36
ATOM     36  O   UNK d   0     -17.701 -21.123  54.867  0.00  0.00    -0.776 OA
ATOM     37  H   UNK d   0     -18.509 -21.373  54.281  0.00  0.00     0.167 HD
ENDBRANCH  34  36
ENDBRANCH  33  34
ENDBRANCH   8  33
BRANCH  31  38
ATOM     38  C   UNK d   0     -20.207 -16.643  62.227  0.00  0.00     0.151 C 
BRANCH  38  39
ATOM     39  C   UNK d   0     -21.244 -17.446  61.615  0.00  0.00     0.143 C 
ATOM     40  O   UNK d   0     -21.706 -18.464  62.160  0.00  0.00    -0.650 OA
BRANCH  39  41
ATOM     41  O   UNK d   0     -21.754 -17.077  60.371  0.00  0.00    -0.776 OA
ATOM     42  H   UNK d   0     -21.874 -17.825  59.681  0.00  0.00     0.167 HD
ENDBRANCH  39  41
ENDBRANCH  38  39
ENDBRANCH  31  38
BRANCH  27  43
ATOM     43  C   UNK d   0     -20.102 -17.215  65.255  0.00  0.00     0.052 C 
BRANCH  43  44
ATOM     44  C   UNK d   0     -19.617 -16.014  66.002  0.00  0.00     0.115 C 
BRANCH  44  45
ATOM     45  C   UNK d   0     -20.299 -14.838  65.403  0.00  0.00     0.139 C 
ATOM     46  O   UNK d   0     -19.650 -14.121  64.602  0.00  0.00    -0.650 OA
BRANCH  45  47
ATOM     47  O   UNK d   0     -21.607 -14.509  65.685  0.00  0.00    -0.776 OA
ATOM     48  H   UNK d   0     -22.385 -15.183  65.602  0.00  0.00     0.167 HD
ENDBRANCH  45  47
ENDBRANCH  44  45
ENDBRANCH  43  44
ENDBRANCH  27  43
BRANCH  24  49
ATOM     49  C   UNK d   0     -17.249 -20.411  68.762  0.00  0.00     0.052 C 
BRANCH  49  50
ATOM     50  C   UNK d   0     -16.065 -19.571  69.167  0.00  0.00     0.115 C 
BRANCH  50  51
ATOM     51  C   UNK d   0     -15.403 -19.915  70.418  0.00  0.00     0.139 C 
ATOM     52  O   UNK d   0     -14.839 -19.061  71.142  0.00  0.00    -0.650 OA
BRANCH  51  53
ATOM     53  O   UNK d   0     -15.381 -21.235  70.843  0.00  0.00    -0.776 OA
ATOM     54  H   UNK d   0     -15.894 -21.476  71.672  0.00  0.00     0.167 HD
ENDBRANCH  51  53
ENDBRANCH  50  51
ENDBRANCH  49  50
ENDBRANCH  24  49
BRANCH  21  55
ATOM     55  C   UNK d   0     -16.345 -23.290  68.099  0.00  0.00     0.151 C 
BRANCH  55  56
ATOM     56  C   UNK d   0     -14.897 -23.542  68.173  0.00  0.00     0.143 C 
ATOM     57  O   UNK d   0     -14.098 -22.738  68.693  0.00  0.00    -0.650 OA
BRANCH  56  58
ATOM     58  O   UNK d   0     -14.418 -24.734  67.633  0.00  0.00    -0.776 OA
ATOM     59  H   UNK d   0     -14.875 -25.591  67.992  0.00  0.00     0.167 HD
ENDBRANCH  56  58
ENDBRANCH  55  56
ENDBRANCH  21  55
BRANCH  18  60
ATOM     60  C   UNK d   0     -13.954 -24.769  63.527  0.00  0.00     0.151 C 
BRANCH  60  61
ATOM     61  C   UNK d   0     -13.013 -23.818  64.138  0.00  0.00     0.143 C 
ATOM     62  O   UNK d   0     -12.625 -22.750  63.663  0.00  0.00    -0.650 OA
BRANCH  61  63
ATOM     63  O   UNK d   0     -12.514 -24.195  65.408  0.00  0.00    -0.776 OA
ATOM     64  H   UNK d   0     -13.118 -24.594  66.104  0.00  0.00     0.167 HD
ENDBRANCH  61  63
ENDBRANCH  60  61
ENDBRANCH  18  60
BRANCH  14  65
ATOM     65  C   UNK d   0     -14.132 -24.313  60.532  0.00  0.00     0.052 C 
BRANCH  65  66
ATOM     66  C   UNK d   0     -13.097 -23.371  60.029  0.00  0.00     0.115 C 
BRANCH  66  67
ATOM     67  C   UNK d   0     -11.719 -23.576  60.376  0.00  0.00     0.139 C 
ATOM     68  O   UNK d   0     -11.038 -24.437  59.706  0.00  0.00    -0.650 OA
BRANCH  67  69
ATOM     69  O   UNK d   0     -10.990 -22.944  61.383  0.00  0.00    -0.776 OA
ATOM     70  H   UNK d   0     -10.589 -23.563  62.102  0.00  0.00     0.167 HD
ENDBRANCH  67  69
ENDBRANCH  66  67
ENDBRANCH  65  66
ENDBRANCH  14  65
ENDBRANCH   6   7
ENDBRANCH   5   6
ENDBRANCH   2   5
TORSDOF 28
ENDMDL
MODEL 14
REMARK VINA RESULT:      -6.0      2.121     10.611
REMARK  28 active torsions:
REMARK  status: ('A' for Active; 'I' for Inactive)
REMARK    1  A    between atoms: C_2  and  O_3 
REMARK    2  A    between atoms: C_2  and  C_4 
REMARK    3  A    between atoms: C_4  and  C_5 
REMARK    4  A    between atoms: C_5  and  C_6 
REMARK    5  A    between atoms: C_7  and  C_8 
REMARK    6  A    between atoms: C_8  and  C_9 
REMARK    7  A    between atoms: C_9  and  O_11 
REMARK    8  A    between atoms: C_28  and  C_29 
REMARK    9  A    between atoms: C_29  and  C_30 
REMARK   10  A    between atoms: C_30  and  O_32 
REMARK   11  A    between atoms: C_33  and  C_34 
REMARK   12  A    between atoms: C_34  and  C_35 
REMARK   13  A    between atoms: C_35  and  C_36 
REMARK   14  A    between atoms: C_36  and  O_38 
REMARK   15  A    between atoms: C_39  and  C_40 
REMARK   16  A    between atoms: C_40  and  C_41 
REMARK   17  A    between atoms: C_41  and  C_42 
REMARK   18  A    between atoms: C_42  and  O_44 
REMARK   19  A    between atoms: C_45  and  C_46 
REMARK   20  A    between atoms: C_46  and  C_47 
REMARK   21  A    between atoms: C_47  and  O_49 
REMARK   22  A    between atoms: C_50  and  C_51 
REMARK   23  A    between atoms: C_51  and  C_52 
REMARK   24  A    between atoms: C_52  and  O_54 
REMARK   25  A    between atoms: C_55  and  C_56 
REMARK   26  A    between atoms: C_56  and  C_57 
REMARK   27  A    between atoms: C_57  and  C_58 
REMARK   28  A    between atoms: C_58  and  O_60 
ROOT
ATOM      1  O   UNK d   0     -11.822 -33.250  39.637  0.00  0.00    -0.650 OA
ATOM      2  C   UNK d   0     -11.342 -32.284  40.269  0.00  0.00     0.139 C 
ENDROOT
BRANCH   2   3
ATOM      3  O   UNK d   0      -9.984 -32.074  40.250  0.00  0.00    -0.776 OA
ATOM      4  H   UNK d   0      -9.329 -32.856  40.309  0.00  0.00     0.167 HD
ENDBRANCH   2   3
BRANCH   2   5
ATOM      5  C   UNK d   0     -12.238 -31.372  41.036  0.00  0.00     0.115 C 
BRANCH   5   6
ATOM      6  C   UNK d   0     -12.915 -32.126  42.148  0.00  0.00     0.052 C 
BRANCH   6   7
ATOM      7  C   UNK d   0     -12.277 -31.874  43.494  0.00  0.00    -0.020 A 
ATOM      8  C   UNK d   0     -12.619 -30.977  44.383  0.00  0.00    -0.011 A 
ATOM      9  C   UNK d   0     -11.714 -31.105  45.513  0.00  0.00     0.067 A 
ATOM     10  C   UNK d   0     -11.557 -30.480  46.761  0.00  0.00     0.062 C 
ATOM     11  N   UNK d   0     -10.850 -32.100  45.224  0.00  0.00    -0.248 NA
ATOM     12  C   UNK d   0     -10.793 -30.929  47.843  0.00  0.00     0.041 A 
ATOM     13  N   UNK d   0      -9.560 -31.466  47.895  0.00  0.00    -0.355 N 
ATOM     14  C   UNK d   0     -11.356 -30.900  49.132  0.00  0.00    -0.022 A 
ATOM     15  C   UNK d   0      -9.329 -31.786  49.183  0.00  0.00     0.042 A 
ATOM     16  H   UNK d   0      -8.858 -31.599  47.042  0.00  0.00     0.166 HD
ATOM     17  C   UNK d   0      -8.200 -32.372  49.790  0.00  0.00     0.062 C 
ATOM     18  C   UNK d   0     -10.433 -31.447  49.988  0.00  0.00    -0.013 A 
ATOM     19  C   UNK d   0      -7.454 -33.444  49.371  0.00  0.00     0.067 A 
ATOM     20  N   UNK d   0      -7.680 -33.891  48.133  0.00  0.00    -0.248 NA
ATOM     21  C   UNK d   0      -6.426 -34.292  49.951  0.00  0.00    -0.011 A 
ATOM     22  C   UNK d   0      -6.875 -34.970  47.862  0.00  0.00     0.066 A 
ATOM     23  C   UNK d   0      -6.980 -35.513  46.590  0.00  0.00     0.062 C 
ATOM     24  C   UNK d   0      -6.094 -35.185  49.064  0.00  0.00    -0.020 A 
ATOM     25  C   UNK d   0      -7.744 -35.039  45.512  0.00  0.00     0.041 A 
ATOM     26  N   UNK d   0      -8.976 -34.519  45.458  0.00  0.00    -0.355 N 
ATOM     27  C   UNK d   0      -7.176 -35.064  44.220  0.00  0.00    -0.022 A 
ATOM     28  C   UNK d   0      -9.212 -34.207  44.174  0.00  0.00     0.042 A 
ATOM     29  H   UNK d   0      -9.683 -34.396  46.315  0.00  0.00     0.166 HD
ATOM     30  C   UNK d   0     -10.333 -33.633  43.555  0.00  0.00     0.062 C 
ATOM     31  C   UNK d   0      -8.098 -34.539  43.367  0.00  0.00    -0.013 A 
ATOM     32  C   UNK d   0     -11.136 -32.605  44.023  0.00  0.00     0.066 A 
BRANCH   8  33
ATOM     33  C   UNK d   0     -13.717 -29.999  44.277  0.00  0.00     0.151 C 
BRANCH  33  34
ATOM     34  C   UNK d   0     -13.288 -28.723  43.675  0.00  0.00     0.143 C 
ATOM     35  O   UNK d   0     -13.561 -28.452  42.497  0.00  0.00    -0.650 OA
BRANCH  34  36
ATOM     36  O   UNK d   0     -12.574 -27.825  44.434  0.00  0.00    -0.776 OA
ATOM     37  H   UNK d   0     -12.831 -27.628  45.411  0.00  0.00     0.167 HD
ENDBRANCH  34  36
ENDBRANCH  33  34
ENDBRANCH   8  33
BRANCH  31  38
ATOM     38  C   UNK d   0      -7.929 -34.350  41.877  0.00  0.00     0.151 C 
BRANCH  38  39
ATOM     39  C   UNK d   0      -8.518 -35.424  41.105  0.00  0.00     0.143 C 
ATOM     40  O   UNK d   0      -7.997 -36.551  41.027  0.00  0.00    -0.650 OA
BRANCH  39  41
ATOM     41  O   UNK d   0      -9.711 -35.201  40.419  0.00  0.00    -0.776 OA
ATOM     42  H   UNK d   0     -10.057 -34.236  40.396  0.00  0.00     0.167 HD
ENDBRANCH  39  41
ENDBRANCH  38  39
ENDBRANCH  31  38
BRANCH  27  43
ATOM     43  C   UNK d   0      -5.822 -35.560  43.777  0.00  0.00     0.052 C 
BRANCH  43  44
ATOM     44  C   UNK d   0      -5.768 -37.041  43.588  0.00  0.00     0.115 C 
BRANCH  44  45
ATOM     45  C   UNK d   0      -4.809 -37.293  42.480  0.00  0.00     0.139 C 
ATOM     46  O   UNK d   0      -3.582 -37.180  42.723  0.00  0.00    -0.650 OA
BRANCH  45  47
ATOM     47  O   UNK d   0      -5.210 -37.647  41.211  0.00  0.00    -0.776 OA
ATOM     48  H   UNK d   0      -6.164 -37.984  40.998  0.00  0.00     0.167 HD
ENDBRANCH  45  47
ENDBRANCH  44  45
ENDBRANCH  43  44
ENDBRANCH  27  43
BRANCH  24  49
ATOM     49  C   UNK d   0      -5.059 -36.222  49.221  0.00  0.00     0.052 C 
BRANCH  49  50
ATOM     50  C   UNK d   0      -5.695 -37.583  49.346  0.00  0.00     0.115 C 
BRANCH  50  51
ATOM     51  C   UNK d   0      -5.236 -38.434  50.435  0.00  0.00     0.139 C 
ATOM     52  O   UNK d   0      -5.244 -38.063  51.633  0.00  0.00    -0.650 OA
BRANCH  51  53
ATOM     53  O   UNK d   0      -4.764 -39.708  50.159  0.00  0.00    -0.776 OA
ATOM     54  H   UNK d   0      -4.103 -39.818  49.410  0.00  0.00     0.167 HD
ENDBRANCH  51  53
ENDBRANCH  50  51
ENDBRANCH  49  50
ENDBRANCH  24  49
BRANCH  21  55
ATOM     55  C   UNK d   0      -5.879 -34.117  51.329  0.00  0.00     0.151 C 
BRANCH  55  56
ATOM     56  C   UNK d   0      -6.813 -34.598  52.358  0.00  0.00     0.143 C 
ATOM     57  O   UNK d   0      -7.644 -33.855  52.916  0.00  0.00    -0.650 OA
BRANCH  56  58
ATOM     58  O   UNK d   0      -6.753 -35.945  52.711  0.00  0.00    -0.776 OA
ATOM     59  H   UNK d   0      -7.515 -36.532  52.325  0.00  0.00     0.167 HD
ENDBRANCH  56  58
ENDBRANCH  55  56
ENDBRANCH  21  55
BRANCH  18  60
ATOM     60  C   UNK d   0     -10.628 -31.620  51.474  0.00  0.00     0.151 C 
BRANCH  60  61
ATOM     61  C   UNK d   0      -9.756 -30.624  52.115  0.00  0.00     0.143 C 
ATOM     62  O   UNK d   0      -9.723 -29.413  51.892  0.00  0.00    -0.650 OA
BRANCH  61  63
ATOM     63  O   UNK d   0      -8.868 -31.139  53.090  0.00  0.00    -0.776 OA
ATOM     64  H   UNK d   0      -7.898 -31.292  52.878  0.00  0.00     0.167 HD
ENDBRANCH  61  63
ENDBRANCH  60  61
ENDBRANCH  18  60
BRANCH  14  65
ATOM     65  C   UNK d   0     -12.648 -30.312  49.625  0.00  0.00     0.052 C 
BRANCH  65  66
ATOM     66  C   UNK d   0     -12.541 -28.864  49.948  0.00  0.00     0.115 C 
BRANCH  66  67
ATOM     67  C   UNK d   0     -12.909 -28.397  51.255  0.00  0.00     0.139 C 
ATOM     68  O   UNK d   0     -14.054 -28.740  51.729  0.00  0.00    -0.650 OA
BRANCH  67  69
ATOM     69  O   UNK d   0     -12.164 -27.589  52.113  0.00  0.00    -0.776 OA
ATOM     70  H   UNK d   0     -11.951 -26.643  51.766  0.00  0.00     0.167 HD
ENDBRANCH  67  69
ENDBRANCH  66  67
ENDBRANCH  65  66
ENDBRANCH  14  65
ENDBRANCH   6   7
ENDBRANCH   5   6
ENDBRANCH   2   5
TORSDOF 28
ENDMDL
MODEL 15
REMARK VINA RESULT:      -6.0      1.598      2.368
REMARK  28 active torsions:
REMARK  status: ('A' for Active; 'I' for Inactive)
REMARK    1  A    between atoms: C_2  and  O_3 
REMARK    2  A    between atoms: C_2  and  C_4 
REMARK    3  A    between atoms: C_4  and  C_5 
REMARK    4  A    between atoms: C_5  and  C_6 
REMARK    5  A    between atoms: C_7  and  C_8 
REMARK    6  A    between atoms: C_8  and  C_9 
REMARK    7  A    between atoms: C_9  and  O_11 
REMARK    8  A    between atoms: C_28  and  C_29 
REMARK    9  A    between atoms: C_29  and  C_30 
REMARK   10  A    between atoms: C_30  and  O_32 
REMARK   11  A    between atoms: C_33  and  C_34 
REMARK   12  A    between atoms: C_34  and  C_35 
REMARK   13  A    between atoms: C_35  and  C_36 
REMARK   14  A    between atoms: C_36  and  O_38 
REMARK   15  A    between atoms: C_39  and  C_40 
REMARK   16  A    between atoms: C_40  and  C_41 
REMARK   17  A    between atoms: C_41  and  C_42 
REMARK   18  A    between atoms: C_42  and  O_44 
REMARK   19  A    between atoms: C_45  and  C_46 
REMARK   20  A    between atoms: C_46  and  C_47 
REMARK   21  A    between atoms: C_47  and  O_49 
REMARK   22  A    between atoms: C_50  and  C_51 
REMARK   23  A    between atoms: C_51  and  C_52 
REMARK   24  A    between atoms: C_52  and  O_54 
REMARK   25  A    between atoms: C_55  and  C_56 
REMARK   26  A    between atoms: C_56  and  C_57 
REMARK   27  A    between atoms: C_57  and  C_58 
REMARK   28  A    between atoms: C_58  and  O_60 
ROOT
ATOM      1  O   UNK d   0      -9.909 -33.662  53.924  0.00  0.00    -0.650 OA
ATOM      2  C   UNK d   0      -8.827 -33.265  53.437  0.00  0.00     0.139 C 
ENDROOT
BRANCH   2   3
ATOM      3  O   UNK d   0      -8.461 -31.950  53.593  0.00  0.00    -0.776 OA
ATOM      4  H   UNK d   0      -8.519 -31.290  52.815  0.00  0.00     0.167 HD
ENDBRANCH   2   3
BRANCH   2   5
ATOM      5  C   UNK d   0      -7.948 -34.212  52.695  0.00  0.00     0.115 C 
BRANCH   5   6
ATOM      6  C   UNK d   0      -6.932 -33.450  51.887  0.00  0.00     0.052 C 
BRANCH   6   7
ATOM      7  C   UNK d   0      -7.165 -33.569  50.400  0.00  0.00    -0.020 A 
ATOM      8  C   UNK d   0      -6.458 -34.249  49.533  0.00  0.00    -0.011 A 
ATOM      9  C   UNK d   0      -7.057 -34.057  48.223  0.00  0.00     0.067 A 
ATOM     10  C   UNK d   0      -6.806 -34.512  46.919  0.00  0.00     0.062 C 
ATOM     11  N   UNK d   0      -8.120 -33.242  48.383  0.00  0.00    -0.248 NA
ATOM     12  C   UNK d   0      -7.665 -34.440  45.817  0.00  0.00     0.041 A 
ATOM     13  N   UNK d   0      -8.461 -33.447  45.377  0.00  0.00    -0.355 N 
ATOM     14  C   UNK d   0      -7.825 -35.576  45.003  0.00  0.00    -0.022 A 
ATOM     15  C   UNK d   0      -9.128 -33.927  44.310  0.00  0.00     0.042 A 
ATOM     16  H   UNK d   0      -8.536 -32.421  45.800  0.00  0.00     0.166 HD
ATOM     17  C   UNK d   0     -10.082 -33.311  43.476  0.00  0.00     0.062 C 
ATOM     18  C   UNK d   0      -8.756 -35.259  44.045  0.00  0.00    -0.013 A 
ATOM     19  C   UNK d   0     -11.159 -32.536  43.823  0.00  0.00     0.067 A 
ATOM     20  N   UNK d   0     -11.229 -32.132  45.094  0.00  0.00    -0.248 NA
ATOM     21  C   UNK d   0     -12.331 -32.010  43.143  0.00  0.00    -0.011 A 
ATOM     22  C   UNK d   0     -12.362 -31.383  45.295  0.00  0.00     0.066 A 
ATOM     23  C   UNK d   0     -12.541 -30.865  46.569  0.00  0.00     0.062 C 
ATOM     24  C   UNK d   0     -13.033 -31.340  44.011  0.00  0.00    -0.020 A 
ATOM     25  C   UNK d   0     -11.660 -30.938  47.659  0.00  0.00     0.041 A 
ATOM     26  N   UNK d   0     -10.880 -31.929  48.105  0.00  0.00    -0.355 N 
ATOM     27  C   UNK d   0     -11.497 -29.795  48.473  0.00  0.00    -0.022 A 
ATOM     28  C   UNK d   0     -10.220 -31.456  49.174  0.00  0.00     0.042 A 
ATOM     29  H   UNK d   0     -10.813 -32.963  47.685  0.00  0.00     0.166 HD
ATOM     30  C   UNK d   0      -9.276 -32.061  50.019  0.00  0.00     0.062 C 
ATOM     31  C   UNK d   0     -10.587 -30.114  49.433  0.00  0.00    -0.013 A 
ATOM     32  C   UNK d   0      -8.239 -32.913  49.670  0.00  0.00     0.066 A 
BRANCH   8  33
ATOM     33  C   UNK d   0      -5.263 -35.066  49.812  0.00  0.00     0.151 C 
BRANCH  33  34
ATOM     34  C   UNK d   0      -5.577 -36.494  49.999  0.00  0.00     0.143 C 
ATOM     35  O   UNK d   0      -6.706 -36.855  50.361  0.00  0.00    -0.650 OA
BRANCH  34  36
ATOM     36  O   UNK d   0      -4.602 -37.436  49.768  0.00  0.00    -0.776 OA
ATOM     37  H   UNK d   0      -3.861 -37.618  50.458  0.00  0.00     0.167 HD
ENDBRANCH  34  36
ENDBRANCH  33  34
ENDBRANCH   8  33
BRANCH  31  38
ATOM     38  C   UNK d   0     -10.085 -29.198  50.524  0.00  0.00     0.151 C 
BRANCH  38  39
ATOM     39  C   UNK d   0     -10.846 -29.314  51.750  0.00  0.00     0.143 C 
ATOM     40  O   UNK d   0     -10.483 -30.041  52.692  0.00  0.00    -0.650 OA
BRANCH  39  41
ATOM     41  O   UNK d   0     -12.029 -28.591  51.894  0.00  0.00    -0.776 OA
ATOM     42  H   UNK d   0     -12.152 -27.779  51.281  0.00  0.00     0.167 HD
ENDBRANCH  39  41
ENDBRANCH  38  39
ENDBRANCH  31  38
BRANCH  27  43
ATOM     43  C   UNK d   0     -12.161 -28.445  48.372  0.00  0.00     0.052 C 
BRANCH  43  44
ATOM     44  C   UNK d   0     -11.461 -27.510  47.440  0.00  0.00     0.115 C 
BRANCH  44  45
ATOM     45  C   UNK d   0     -11.461 -26.177  48.096  0.00  0.00     0.139 C 
ATOM     46  O   UNK d   0     -11.108 -25.182  47.415  0.00  0.00    -0.650 OA
BRANCH  45  47
ATOM     47  O   UNK d   0     -11.837 -25.990  49.408  0.00  0.00    -0.776 OA
ATOM     48  H   UNK d   0     -12.794 -25.717  49.684  0.00  0.00     0.167 HD
ENDBRANCH  45  47
ENDBRANCH  44  45
ENDBRANCH  43  44
ENDBRANCH  27  43
BRANCH  24  49
ATOM     49  C   UNK d   0     -14.282 -30.608  43.738  0.00  0.00     0.052 C 
BRANCH  49  50
ATOM     50  C   UNK d   0     -14.002 -29.136  43.576  0.00  0.00     0.115 C 
BRANCH  50  51
ATOM     51  C   UNK d   0     -14.145 -28.575  42.239  0.00  0.00     0.139 C 
ATOM     52  O   UNK d   0     -15.109 -28.854  41.489  0.00  0.00    -0.650 OA
BRANCH  51  53
ATOM     53  O   UNK d   0     -13.187 -27.697  41.757  0.00  0.00    -0.776 OA
ATOM     54  H   UNK d   0     -13.403 -26.715  41.750  0.00  0.00     0.167 HD
ENDBRANCH  51  53
ENDBRANCH  50  51
ENDBRANCH  49  50
ENDBRANCH  24  49
BRANCH  21  55
ATOM     55  C   UNK d   0     -12.625 -32.230  41.696  0.00  0.00     0.151 C 
BRANCH  55  56
ATOM     56  C   UNK d   0     -11.709 -31.475  40.827  0.00  0.00     0.143 C 
ATOM     57  O   UNK d   0     -11.157 -31.978  39.829  0.00  0.00    -0.650 OA
BRANCH  56  58
ATOM     58  O   UNK d   0     -11.461 -30.141  41.148  0.00  0.00    -0.776 OA
ATOM     59  H   UNK d   0     -12.292 -29.523  41.118  0.00  0.00     0.167 HD
ENDBRANCH  56  58
ENDBRANCH  55  56
ENDBRANCH  21  55
BRANCH  18  60
ATOM     60  C   UNK d   0      -9.237 -36.195  42.964  0.00  0.00     0.151 C 
BRANCH  60  61
ATOM     61  C   UNK d   0      -8.249 -36.101  41.879  0.00  0.00     0.143 C 
ATOM     62  O   UNK d   0      -7.856 -35.077  41.320  0.00  0.00    -0.650 OA
BRANCH  61  63
ATOM     63  O   UNK d   0      -7.705 -37.336  41.451  0.00  0.00    -0.776 OA
ATOM     64  H   UNK d   0      -8.280 -38.030  41.008  0.00  0.00     0.167 HD
ENDBRANCH  61  63
ENDBRANCH  60  61
ENDBRANCH  18  60
BRANCH  14  65
ATOM     65  C   UNK d   0      -7.099 -36.892  45.002  0.00  0.00     0.052 C 
BRANCH  65  66
ATOM     66  C   UNK d   0      -7.525 -37.791  46.109  0.00  0.00     0.115 C 
BRANCH  66  67
ATOM     67  C   UNK d   0      -6.553 -38.266  47.053  0.00  0.00     0.139 C 
ATOM     68  O   UNK d   0      -5.324 -37.925  46.893  0.00  0.00    -0.650 OA
BRANCH  67  69
ATOM     69  O   UNK d   0      -6.771 -39.079  48.165  0.00  0.00    -0.776 OA
ATOM     70  H   UNK d   0      -6.360 -38.748  49.050  0.00  0.00     0.167 HD
ENDBRANCH  67  69
ENDBRANCH  66  67
ENDBRANCH  65  66
ENDBRANCH  14  65
ENDBRANCH   6   7
ENDBRANCH   5   6
ENDBRANCH   2   5
TORSDOF 28
ENDMDL
MODEL 16
REMARK VINA RESULT:      -6.0     15.616     22.769
REMARK  28 active torsions:
REMARK  status: ('A' for Active; 'I' for Inactive)
REMARK    1  A    between atoms: C_2  and  O_3 
REMARK    2  A    between atoms: C_2  and  C_4 
REMARK    3  A    between atoms: C_4  and  C_5 
REMARK    4  A    between atoms: C_5  and  C_6 
REMARK    5  A    between atoms: C_7  and  C_8 
REMARK    6  A    between atoms: C_8  and  C_9 
REMARK    7  A    between atoms: C_9  and  O_11 
REMARK    8  A    between atoms: C_28  and  C_29 
REMARK    9  A    between atoms: C_29  and  C_30 
REMARK   10  A    between atoms: C_30  and  O_32 
REMARK   11  A    between atoms: C_33  and  C_34 
REMARK   12  A    between atoms: C_34  and  C_35 
REMARK   13  A    between atoms: C_35  and  C_36 
REMARK   14  A    between atoms: C_36  and  O_38 
REMARK   15  A    between atoms: C_39  and  C_40 
REMARK   16  A    between atoms: C_40  and  C_41 
REMARK   17  A    between atoms: C_41  and  C_42 
REMARK   18  A    between atoms: C_42  and  O_44 
REMARK   19  A    between atoms: C_45  and  C_46 
REMARK   20  A    between atoms: C_46  and  C_47 
REMARK   21  A    between atoms: C_47  and  O_49 
REMARK   22  A    between atoms: C_50  and  C_51 
REMARK   23  A    between atoms: C_51  and  C_52 
REMARK   24  A    between atoms: C_52  and  O_54 
REMARK   25  A    between atoms: C_55  and  C_56 
REMARK   26  A    between atoms: C_56  and  C_57 
REMARK   27  A    between atoms: C_57  and  C_58 
REMARK   28  A    between atoms: C_58  and  O_60 
ROOT
ATOM      1  O   UNK d   0     -19.346 -22.390  54.905  0.00  0.00    -0.650 OA
ATOM      2  C   UNK d   0     -18.664 -21.425  55.315  0.00  0.00     0.139 C 
ENDROOT
BRANCH   2   3
ATOM      3  O   UNK d   0     -17.348 -21.319  54.934  0.00  0.00    -0.776 OA
ATOM      4  H   UNK d   0     -16.608 -21.792  55.457  0.00  0.00     0.167 HD
ENDBRANCH   2   3
BRANCH   2   5
ATOM      5  C   UNK d   0     -19.278 -20.402  56.209  0.00  0.00     0.115 C 
BRANCH   5   6
ATOM      6  C   UNK d   0     -18.246 -19.386  56.619  0.00  0.00     0.052 C 
BRANCH   6   7
ATOM      7  C   UNK d   0     -18.168 -19.209  58.116  0.00  0.00    -0.020 A 
ATOM      8  C   UNK d   0     -18.604 -18.198  58.824  0.00  0.00    -0.011 A 
ATOM      9  C   UNK d   0     -18.299 -18.468  60.219  0.00  0.00     0.067 A 
ATOM     10  C   UNK d   0     -18.511 -17.819  61.446  0.00  0.00     0.062 C 
ATOM     11  N   UNK d   0     -17.671 -19.662  60.269  0.00  0.00    -0.248 NA
ATOM     12  C   UNK d   0     -18.391 -18.368  62.727  0.00  0.00     0.041 A 
ATOM     13  N   UNK d   0     -17.462 -19.186  63.257  0.00  0.00    -0.355 N 
ATOM     14  C   UNK d   0     -19.401 -18.116  63.673  0.00  0.00    -0.022 A 
ATOM     15  C   UNK d   0     -17.861 -19.466  64.512  0.00  0.00     0.042 A 
ATOM     16  H   UNK d   0     -16.532 -19.543  62.760  0.00  0.00     0.166 HD
ATOM     17  C   UNK d   0     -17.261 -20.268  65.503  0.00  0.00     0.062 C 
ATOM     18  C   UNK d   0     -19.073 -18.814  64.809  0.00  0.00    -0.013 A 
ATOM     19  C   UNK d   0     -16.704 -21.516  65.383  0.00  0.00     0.067 A 
ATOM     20  N   UNK d   0     -16.512 -21.976  64.144  0.00  0.00    -0.248 NA
ATOM     21  C   UNK d   0     -16.248 -22.549  66.298  0.00  0.00    -0.011 A 
ATOM     22  C   UNK d   0     -15.965 -23.235  64.182  0.00  0.00     0.066 A 
ATOM     23  C   UNK d   0     -15.678 -23.819  62.957  0.00  0.00     0.062 C 
ATOM     24  C   UNK d   0     -15.820 -23.554  65.589  0.00  0.00    -0.020 A 
ATOM     25  C   UNK d   0     -15.794 -23.245  61.682  0.00  0.00     0.041 A 
ATOM     26  N   UNK d   0     -16.725 -22.444  61.150  0.00  0.00    -0.355 N 
ATOM     27  C   UNK d   0     -14.777 -23.495  60.734  0.00  0.00    -0.022 A 
ATOM     28  C   UNK d   0     -16.333 -22.171  59.895  0.00  0.00     0.042 A 
ATOM     29  H   UNK d   0     -17.663 -22.095  61.646  0.00  0.00     0.166 HD
ATOM     30  C   UNK d   0     -16.924 -21.382  58.895  0.00  0.00     0.062 C 
ATOM     31  C   UNK d   0     -15.110 -22.818  59.601  0.00  0.00    -0.013 A 
ATOM     32  C   UNK d   0     -17.562 -20.160  59.036  0.00  0.00     0.066 A 
BRANCH   8  33
ATOM     33  C   UNK d   0     -19.281 -16.990  58.318  0.00  0.00     0.151 C 
BRANCH  33  34
ATOM     34  C   UNK d   0     -20.748 -17.059  58.453  0.00  0.00     0.143 C 
ATOM     35  O   UNK d   0     -21.312 -16.654  59.480  0.00  0.00    -0.650 OA
BRANCH  34  36
ATOM     36  O   UNK d   0     -21.497 -17.582  57.425  0.00  0.00    -0.776 OA
ATOM     37  H   UNK d   0     -21.448 -18.581  57.183  0.00  0.00     0.167 HD
ENDBRANCH  34  36
ENDBRANCH  33  34
ENDBRANCH   8  33
BRANCH  31  38
ATOM     38  C   UNK d   0     -14.310 -22.776  58.320  0.00  0.00     0.151 C 
BRANCH  38  39
ATOM     39  C   UNK d   0     -14.640 -23.858  57.417  0.00  0.00     0.143 C 
ATOM     40  O   UNK d   0     -15.484 -24.727  57.699  0.00  0.00    -0.650 OA
BRANCH  39  41
ATOM     41  O   UNK d   0     -13.996 -23.942  56.182  0.00  0.00    -0.776 OA
ATOM     42  H   UNK d   0     -13.632 -24.861  55.913  0.00  0.00     0.167 HD
ENDBRANCH  39  41
ENDBRANCH  38  39
ENDBRANCH  31  38
BRANCH  27  43
ATOM     43  C   UNK d   0     -13.531 -24.335  60.864  0.00  0.00     0.052 C 
BRANCH  43  44
ATOM     44  C   UNK d   0     -12.381 -23.597  61.470  0.00  0.00     0.115 C 
BRANCH  44  45
ATOM     45  C   UNK d   0     -11.213 -23.829  60.580  0.00  0.00     0.139 C 
ATOM     46  O   UNK d   0     -10.149 -23.210  60.829  0.00  0.00    -0.650 OA
BRANCH  45  47
ATOM     47  O   UNK d   0     -11.250 -24.692  59.507  0.00  0.00    -0.776 OA
ATOM     48  H   UNK d   0     -11.689 -25.627  59.555  0.00  0.00     0.167 HD
ENDBRANCH  45  47
ENDBRANCH  44  45
ENDBRANCH  43  44
ENDBRANCH  27  43
BRANCH  24  49
ATOM     49  C   UNK d   0     -15.234 -24.799  66.112  0.00  0.00     0.052 C 
BRANCH  49  50
ATOM     50  C   UNK d   0     -13.851 -25.005  65.550  0.00  0.00     0.115 C 
BRANCH  50  51
ATOM     51  C   UNK d   0     -12.787 -24.158  66.075  0.00  0.00     0.139 C 
ATOM     52  O   UNK d   0     -12.677 -22.946  65.773  0.00  0.00    -0.650 OA
BRANCH  51  53
ATOM     53  O   UNK d   0     -11.848 -24.694  66.943  0.00  0.00    -0.776 OA
ATOM     54  H   UNK d   0     -10.978 -25.019  66.559  0.00  0.00     0.167 HD
ENDBRANCH  51  53
ENDBRANCH  50  51
ENDBRANCH  49  50
ENDBRANCH  24  49
BRANCH  21  55
ATOM     55  C   UNK d   0     -16.282 -22.422  67.785  0.00  0.00     0.151 C 
BRANCH  55  56
ATOM     56  C   UNK d   0     -15.063 -21.790  68.313  0.00  0.00     0.143 C 
ATOM     57  O   UNK d   0     -14.113 -22.444  68.785  0.00  0.00    -0.650 OA
BRANCH  56  58
ATOM     58  O   UNK d   0     -14.986 -20.398  68.275  0.00  0.00    -0.776 OA
ATOM     59  H   UNK d   0     -14.023 -20.016  68.250  0.00  0.00     0.167 HD
ENDBRANCH  56  58
ENDBRANCH  55  56
ENDBRANCH  21  55
BRANCH  18  60
ATOM     60  C   UNK d   0     -19.890 -18.835  66.076  0.00  0.00     0.151 C 
BRANCH  60  61
ATOM     61  C   UNK d   0     -19.505 -17.628  66.825  0.00  0.00     0.143 C 
ATOM     62  O   UNK d   0     -18.363 -17.221  67.040  0.00  0.00    -0.650 OA
BRANCH  61  63
ATOM     63  O   UNK d   0     -20.584 -16.871  67.342  0.00  0.00    -0.776 OA
ATOM     64  H   UNK d   0     -21.492 -16.902  66.914  0.00  0.00     0.167 HD
ENDBRANCH  61  63
ENDBRANCH  60  61
ENDBRANCH  18  60
BRANCH  14  65
ATOM     65  C   UNK d   0     -20.589 -17.198  63.618  0.00  0.00     0.052 C 
BRANCH  65  66
ATOM     66  C   UNK d   0     -20.226 -15.797  63.275  0.00  0.00     0.115 C 
BRANCH  66  67
ATOM     67  C   UNK d   0     -19.894 -14.871  64.321  0.00  0.00     0.139 C 
ATOM     68  O   UNK d   0     -20.700 -14.755  65.316  0.00  0.00    -0.650 OA
BRANCH  67  69
ATOM     69  O   UNK d   0     -18.773 -14.047  64.407  0.00  0.00    -0.776 OA
ATOM     70  H   UNK d   0     -17.944 -14.464  64.854  0.00  0.00     0.167 HD
ENDBRANCH  67  69
ENDBRANCH  66  67
ENDBRANCH  65  66
ENDBRANCH  14  65
ENDBRANCH   6   7
ENDBRANCH   5   6
ENDBRANCH   2   5
TORSDOF 28
ENDMDL
MODEL 17
REMARK VINA RESULT:      -6.0     14.869     20.854
REMARK  28 active torsions:
REMARK  status: ('A' for Active; 'I' for Inactive)
REMARK    1  A    between atoms: C_2  and  O_3 
REMARK    2  A    between atoms: C_2  and  C_4 
REMARK    3  A    between atoms: C_4  and  C_5 
REMARK    4  A    between atoms: C_5  and  C_6 
REMARK    5  A    between atoms: C_7  and  C_8 
REMARK    6  A    between atoms: C_8  and  C_9 
REMARK    7  A    between atoms: C_9  and  O_11 
REMARK    8  A    between atoms: C_28  and  C_29 
REMARK    9  A    between atoms: C_29  and  C_30 
REMARK   10  A    between atoms: C_30  and  O_32 
REMARK   11  A    between atoms: C_33  and  C_34 
REMARK   12  A    between atoms: C_34  and  C_35 
REMARK   13  A    between atoms: C_35  and  C_36 
REMARK   14  A    between atoms: C_36  and  O_38 
REMARK   15  A    between atoms: C_39  and  C_40 
REMARK   16  A    between atoms: C_40  and  C_41 
REMARK   17  A    between atoms: C_41  and  C_42 
REMARK   18  A    between atoms: C_42  and  O_44 
REMARK   19  A    between atoms: C_45  and  C_46 
REMARK   20  A    between atoms: C_46  and  C_47 
REMARK   21  A    between atoms: C_47  and  O_49 
REMARK   22  A    between atoms: C_50  and  C_51 
REMARK   23  A    between atoms: C_51  and  C_52 
REMARK   24  A    between atoms: C_52  and  O_54 
REMARK   25  A    between atoms: C_55  and  C_56 
REMARK   26  A    between atoms: C_56  and  C_57 
REMARK   27  A    between atoms: C_57  and  C_58 
REMARK   28  A    between atoms: C_58  and  O_60 
ROOT
ATOM      1  O   UNK d   0     -20.186 -24.109  54.846  0.00  0.00    -0.650 OA
ATOM      2  C   UNK d   0     -19.435 -23.401  54.139  0.00  0.00     0.139 C 
ENDROOT
BRANCH   2   3
ATOM      3  O   UNK d   0     -18.984 -23.890  52.937  0.00  0.00    -0.776 OA
ATOM      4  H   UNK d   0     -18.853 -24.893  52.791  0.00  0.00     0.167 HD
ENDBRANCH   2   3
BRANCH   2   5
ATOM      5  C   UNK d   0     -19.036 -22.041  54.600  0.00  0.00     0.115 C 
BRANCH   5   6
ATOM      6  C   UNK d   0     -17.597 -22.044  55.039  0.00  0.00     0.052 C 
BRANCH   6   7
ATOM      7  C   UNK d   0     -17.442 -22.295  56.520  0.00  0.00    -0.020 A 
ATOM      8  C   UNK d   0     -16.973 -23.368  57.103  0.00  0.00    -0.011 A 
ATOM      9  C   UNK d   0     -17.023 -23.152  58.540  0.00  0.00     0.067 A 
ATOM     10  C   UNK d   0     -16.663 -23.877  59.686  0.00  0.00     0.062 C 
ATOM     11  N   UNK d   0     -17.543 -21.923  58.742  0.00  0.00    -0.248 NA
ATOM     12  C   UNK d   0     -16.530 -23.389  60.990  0.00  0.00     0.041 A 
ATOM     13  N   UNK d   0     -17.295 -22.539  61.701  0.00  0.00    -0.355 N 
ATOM     14  C   UNK d   0     -15.399 -23.758  61.743  0.00  0.00    -0.022 A 
ATOM     15  C   UNK d   0     -16.675 -22.353  62.882  0.00  0.00     0.042 A 
ATOM     16  H   UNK d   0     -18.263 -22.095  61.382  0.00  0.00     0.166 HD
ATOM     17  C   UNK d   0     -17.042 -21.565  63.992  0.00  0.00     0.062 C 
ATOM     18  C   UNK d   0     -15.483 -23.100  62.945  0.00  0.00    -0.013 A 
ATOM     19  C   UNK d   0     -17.516 -20.278  64.017  0.00  0.00     0.067 A 
ATOM     20  N   UNK d   0     -17.873 -19.742  62.847  0.00  0.00    -0.248 NA
ATOM     21  C   UNK d   0     -17.737 -19.266  65.036  0.00  0.00    -0.011 A 
ATOM     22  C   UNK d   0     -18.310 -18.453  63.027  0.00  0.00     0.066 A 
ATOM     23  C   UNK d   0     -18.750 -17.787  61.892  0.00  0.00     0.062 C 
ATOM     24  C   UNK d   0     -18.198 -18.199  64.450  0.00  0.00    -0.020 A 
ATOM     25  C   UNK d   0     -18.888 -18.300  60.593  0.00  0.00     0.041 A 
ATOM     26  N   UNK d   0     -18.120 -19.133  59.881  0.00  0.00    -0.355 N 
ATOM     27  C   UNK d   0     -20.025 -17.933  59.840  0.00  0.00    -0.022 A 
ATOM     28  C   UNK d   0     -18.731 -19.313  58.699  0.00  0.00     0.042 A 
ATOM     29  H   UNK d   0     -17.142 -19.570  60.199  0.00  0.00     0.166 HD
ATOM     30  C   UNK d   0     -18.374 -20.086  57.584  0.00  0.00     0.062 C 
ATOM     31  C   UNK d   0     -19.934 -18.570  58.641  0.00  0.00    -0.013 A 
ATOM     32  C   UNK d   0     -17.815 -21.355  57.566  0.00  0.00     0.066 A 
BRANCH   8  33
ATOM     33  C   UNK d   0     -16.480 -24.591  56.442  0.00  0.00     0.151 C 
BRANCH  33  34
ATOM     34  C   UNK d   0     -15.036 -24.805  56.642  0.00  0.00     0.143 C 
ATOM     35  O   UNK d   0     -14.613 -25.848  57.162  0.00  0.00    -0.650 OA
BRANCH  34  36
ATOM     36  O   UNK d   0     -14.147 -23.832  56.246  0.00  0.00    -0.776 OA
ATOM     37  H   UNK d   0     -13.294 -24.069  55.722  0.00  0.00     0.167 HD
ENDBRANCH  34  36
ENDBRANCH  33  34
ENDBRANCH   8  33
BRANCH  31  38
ATOM     38  C   UNK d   0     -20.934 -18.490  57.511  0.00  0.00     0.151 C 
BRANCH  38  39
ATOM     39  C   UNK d   0     -21.732 -19.691  57.382  0.00  0.00     0.143 C 
ATOM     40  O   UNK d   0     -22.219 -20.276  58.365  0.00  0.00    -0.650 OA
BRANCH  39  41
ATOM     41  O   UNK d   0     -21.970 -20.223  56.115  0.00  0.00    -0.776 OA
ATOM     42  H   UNK d   0     -22.705 -20.934  56.044  0.00  0.00     0.167 HD
ENDBRANCH  39  41
ENDBRANCH  38  39
ENDBRANCH  31  38
BRANCH  27  43
ATOM     43  C   UNK d   0     -21.166 -17.018  60.211  0.00  0.00     0.052 C 
BRANCH  43  44
ATOM     44  C   UNK d   0     -20.960 -15.606  59.767  0.00  0.00     0.115 C 
BRANCH  44  45
ATOM     45  C   UNK d   0     -22.291 -15.094  59.351  0.00  0.00     0.139 C 
ATOM     46  O   UNK d   0     -23.065 -14.666  60.243  0.00  0.00    -0.650 OA
BRANCH  45  47
ATOM     47  O   UNK d   0     -22.703 -15.064  58.036  0.00  0.00    -0.776 OA
ATOM     48  H   UNK d   0     -22.739 -14.195  57.479  0.00  0.00     0.167 HD
ENDBRANCH  45  47
ENDBRANCH  44  45
ENDBRANCH  43  44
ENDBRANCH  27  43
BRANCH  24  49
ATOM     49  C   UNK d   0     -18.595 -16.946  65.114  0.00  0.00     0.052 C 
BRANCH  49  50
ATOM     50  C   UNK d   0     -20.092 -16.781  65.071  0.00  0.00     0.115 C 
BRANCH  50  51
ATOM     51  C   UNK d   0     -20.617 -15.675  64.281  0.00  0.00     0.139 C 
ATOM     52  O   UNK d   0     -21.845 -15.466  64.141  0.00  0.00    -0.650 OA
BRANCH  51  53
ATOM     53  O   UNK d   0     -19.740 -14.807  63.649  0.00  0.00    -0.776 OA
ATOM     54  H   UNK d   0     -19.489 -13.956  64.122  0.00  0.00     0.167 HD
ENDBRANCH  51  53
ENDBRANCH  50  51
ENDBRANCH  49  50
ENDBRANCH  24  49
BRANCH  21  55
ATOM     55  C   UNK d   0     -17.469 -19.473  66.490  0.00  0.00     0.151 C 
BRANCH  55  56
ATOM     56  C   UNK d   0     -18.594 -20.132  67.170  0.00  0.00     0.143 C 
ATOM     57  O   UNK d   0     -19.659 -19.543  67.438  0.00  0.00    -0.650 OA
BRANCH  56  58
ATOM     58  O   UNK d   0     -18.444 -21.473  67.522  0.00  0.00    -0.776 OA
ATOM     59  H   UNK d   0     -18.931 -22.144  66.900  0.00  0.00     0.167 HD
ENDBRANCH  56  58
ENDBRANCH  55  56
ENDBRANCH  21  55
BRANCH  18  60
ATOM     60  C   UNK d   0     -14.470 -23.201  64.058  0.00  0.00     0.151 C 
BRANCH  60  61
ATOM     61  C   UNK d   0     -14.814 -24.418  64.808  0.00  0.00     0.143 C 
ATOM     62  O   UNK d   0     -15.892 -24.680  65.343  0.00  0.00    -0.650 OA
BRANCH  61  63
ATOM     63  O   UNK d   0     -13.777 -25.376  64.912  0.00  0.00    -0.776 OA
ATOM     64  H   UNK d   0     -12.984 -25.219  65.508  0.00  0.00     0.167 HD
ENDBRANCH  61  63
ENDBRANCH  60  61
ENDBRANCH  18  60
BRANCH  14  65
ATOM     65  C   UNK d   0     -14.309 -24.750  61.453  0.00  0.00     0.052 C 
BRANCH  65  66
ATOM     66  C   UNK d   0     -13.065 -24.114  60.943  0.00  0.00     0.115 C 
BRANCH  66  67
ATOM     67  C   UNK d   0     -12.896 -23.912  59.532  0.00  0.00     0.139 C 
ATOM     68  O   UNK d   0     -13.443 -22.883  58.989  0.00  0.00    -0.650 OA
BRANCH  67  69
ATOM     69  O   UNK d   0     -12.191 -24.713  58.633  0.00  0.00    -0.776 OA
ATOM     70  H   UNK d   0     -12.748 -25.421  58.132  0.00  0.00     0.167 HD
ENDBRANCH  67  69
ENDBRANCH  66  67
ENDBRANCH  65  66
ENDBRANCH  14  65
ENDBRANCH   6   7
ENDBRANCH   5   6
ENDBRANCH   2   5
TORSDOF 28
ENDMDL
MODEL 18
REMARK VINA RESULT:      -6.0     15.241     22.203
REMARK  28 active torsions:
REMARK  status: ('A' for Active; 'I' for Inactive)
REMARK    1  A    between atoms: C_2  and  O_3 
REMARK    2  A    between atoms: C_2  and  C_4 
REMARK    3  A    between atoms: C_4  and  C_5 
REMARK    4  A    between atoms: C_5  and  C_6 
REMARK    5  A    between atoms: C_7  and  C_8 
REMARK    6  A    between atoms: C_8  and  C_9 
REMARK    7  A    between atoms: C_9  and  O_11 
REMARK    8  A    between atoms: C_28  and  C_29 
REMARK    9  A    between atoms: C_29  and  C_30 
REMARK   10  A    between atoms: C_30  and  O_32 
REMARK   11  A    between atoms: C_33  and  C_34 
REMARK   12  A    between atoms: C_34  and  C_35 
REMARK   13  A    between atoms: C_35  and  C_36 
REMARK   14  A    between atoms: C_36  and  O_38 
REMARK   15  A    between atoms: C_39  and  C_40 
REMARK   16  A    between atoms: C_40  and  C_41 
REMARK   17  A    between atoms: C_41  and  C_42 
REMARK   18  A    between atoms: C_42  and  O_44 
REMARK   19  A    between atoms: C_45  and  C_46 
REMARK   20  A    between atoms: C_46  and  C_47 
REMARK   21  A    between atoms: C_47  and  O_49 
REMARK   22  A    between atoms: C_50  and  C_51 
REMARK   23  A    between atoms: C_51  and  C_52 
REMARK   24  A    between atoms: C_52  and  O_54 
REMARK   25  A    between atoms: C_55  and  C_56 
REMARK   26  A    between atoms: C_56  and  C_57 
REMARK   27  A    between atoms: C_57  and  C_58 
REMARK   28  A    between atoms: C_58  and  O_60 
ROOT
ATOM      1  O   UNK d   0     -14.247 -25.712  55.318  0.00  0.00    -0.650 OA
ATOM      2  C   UNK d   0     -13.664 -24.926  56.098  0.00  0.00     0.139 C 
ENDROOT
BRANCH   2   3
ATOM      3  O   UNK d   0     -12.532 -24.272  55.674  0.00  0.00    -0.776 OA
ATOM      4  H   UNK d   0     -11.998 -23.677  56.310  0.00  0.00     0.167 HD
ENDBRANCH   2   3
BRANCH   2   5
ATOM      5  C   UNK d   0     -14.195 -24.706  57.473  0.00  0.00     0.115 C 
BRANCH   5   6
ATOM      6  C   UNK d   0     -15.676 -24.451  57.421  0.00  0.00     0.052 C 
BRANCH   6   7
ATOM      7  C   UNK d   0     -16.054 -23.102  57.986  0.00  0.00    -0.020 A 
ATOM      8  C   UNK d   0     -16.339 -22.011  57.323  0.00  0.00    -0.011 A 
ATOM      9  C   UNK d   0     -16.632 -20.967  58.290  0.00  0.00     0.067 A 
ATOM     10  C   UNK d   0     -17.016 -19.617  58.238  0.00  0.00     0.062 C 
ATOM     11  N   UNK d   0     -16.496 -21.509  59.519  0.00  0.00    -0.248 NA
ATOM     12  C   UNK d   0     -17.526 -18.841  59.284  0.00  0.00     0.041 A 
ATOM     13  N   UNK d   0     -17.162 -18.745  60.577  0.00  0.00    -0.355 N 
ATOM     14  C   UNK d   0     -18.651 -18.030  59.044  0.00  0.00    -0.022 A 
ATOM     15  C   UNK d   0     -18.030 -17.901  61.165  0.00  0.00     0.042 A 
ATOM     16  H   UNK d   0     -16.296 -19.249  61.060  0.00  0.00     0.166 HD
ATOM     17  C   UNK d   0     -18.106 -17.450  62.498  0.00  0.00     0.062 C 
ATOM     18  C   UNK d   0     -18.979 -17.432  60.235  0.00  0.00    -0.013 A 
ATOM     19  C   UNK d   0     -17.992 -18.170  63.660  0.00  0.00     0.067 A 
ATOM     20  N   UNK d   0     -17.558 -19.429  63.551  0.00  0.00    -0.248 NA
ATOM     21  C   UNK d   0     -18.245 -17.925  65.070  0.00  0.00    -0.011 A 
ATOM     22  C   UNK d   0     -17.511 -20.025  64.787  0.00  0.00     0.066 A 
ATOM     23  C   UNK d   0     -17.039 -21.329  64.825  0.00  0.00     0.062 C 
ATOM     24  C   UNK d   0     -17.965 -19.016  65.724  0.00  0.00    -0.020 A 
ATOM     25  C   UNK d   0     -16.519 -22.087  63.765  0.00  0.00     0.041 A 
ATOM     26  N   UNK d   0     -16.890 -22.193  62.483  0.00  0.00    -0.355 N 
ATOM     27  C   UNK d   0     -15.387 -22.897  64.006  0.00  0.00    -0.022 A 
ATOM     28  C   UNK d   0     -16.031 -23.042  61.897  0.00  0.00     0.042 A 
ATOM     29  H   UNK d   0     -17.767 -21.695  62.002  0.00  0.00     0.166 HD
ATOM     30  C   UNK d   0     -15.950 -23.506  60.575  0.00  0.00     0.062 C 
ATOM     31  C   UNK d   0     -15.072 -23.504  62.829  0.00  0.00    -0.013 A 
ATOM     32  C   UNK d   0     -16.150 -22.792  59.404  0.00  0.00     0.066 A 
BRANCH   8  33
ATOM     33  C   UNK d   0     -16.360 -21.846  55.858  0.00  0.00     0.151 C 
BRANCH  33  34
ATOM     34  C   UNK d   0     -17.724 -21.691  55.320  0.00  0.00     0.143 C 
ATOM     35  O   UNK d   0     -18.436 -22.680  55.096  0.00  0.00    -0.650 OA
BRANCH  34  36
ATOM     36  O   UNK d   0     -18.210 -20.430  55.065  0.00  0.00    -0.776 OA
ATOM     37  H   UNK d   0     -18.560 -20.171  54.132  0.00  0.00     0.167 HD
ENDBRANCH  34  36
ENDBRANCH  33  34
ENDBRANCH   8  33
BRANCH  31  38
ATOM     38  C   UNK d   0     -13.921 -24.456  62.598  0.00  0.00     0.151 C 
BRANCH  38  39
ATOM     39  C   UNK d   0     -12.673 -23.773  62.330  0.00  0.00     0.143 C 
ATOM     40  O   UNK d   0     -12.431 -23.236  61.235  0.00  0.00    -0.650 OA
BRANCH  39  41
ATOM     41  O   UNK d   0     -11.699 -23.708  63.326  0.00  0.00    -0.776 OA
ATOM     42  H   UNK d   0     -10.797 -23.299  63.063  0.00  0.00     0.167 HD
ENDBRANCH  39  41
ENDBRANCH  38  39
ENDBRANCH  31  38
BRANCH  27  43
ATOM     43  C   UNK d   0     -14.616 -23.110  65.284  0.00  0.00     0.052 C 
BRANCH  43  44
ATOM     44  C   UNK d   0     -15.024 -24.344  66.021  0.00  0.00     0.115 C 
BRANCH  44  45
ATOM     45  C   UNK d   0     -13.810 -25.194  66.130  0.00  0.00     0.139 C 
ATOM     46  O   UNK d   0     -13.960 -26.408  66.415  0.00  0.00    -0.650 OA
BRANCH  45  47
ATOM     47  O   UNK d   0     -12.536 -24.707  65.927  0.00  0.00    -0.776 OA
ATOM     48  H   UNK d   0     -12.237 -24.275  65.038  0.00  0.00     0.167 HD
ENDBRANCH  45  47
ENDBRANCH  44  45
ENDBRANCH  43  44
ENDBRANCH  27  43
BRANCH  24  49
ATOM     49  C   UNK d   0     -18.042 -19.197  67.183  0.00  0.00     0.052 C 
BRANCH  49  50
ATOM     50  C   UNK d   0     -16.698 -18.943  67.815  0.00  0.00     0.115 C 
BRANCH  50  51
ATOM     51  C   UNK d   0     -16.064 -20.061  68.502  0.00  0.00     0.139 C 
ATOM     52  O   UNK d   0     -14.862 -20.370  68.324  0.00  0.00    -0.650 OA
BRANCH  51  53
ATOM     53  O   UNK d   0     -16.802 -20.828  69.390  0.00  0.00    -0.776 OA
ATOM     54  H   UNK d   0     -16.315 -21.285  70.141  0.00  0.00     0.167 HD
ENDBRANCH  51  53
ENDBRANCH  50  51
ENDBRANCH  49  50
ENDBRANCH  24  49
BRANCH  21  55
ATOM     55  C   UNK d   0     -18.735 -16.626  65.617  0.00  0.00     0.151 C 
BRANCH  55  56
ATOM     56  C   UNK d   0     -20.178 -16.445  65.399  0.00  0.00     0.143 C 
ATOM     57  O   UNK d   0     -21.042 -16.983  66.119  0.00  0.00    -0.650 OA
BRANCH  56  58
ATOM     58  O   UNK d   0     -20.578 -15.635  64.338  0.00  0.00    -0.776 OA
ATOM     59  H   UNK d   0     -20.060 -14.742  64.251  0.00  0.00     0.167 HD
ENDBRANCH  56  58
ENDBRANCH  55  56
ENDBRANCH  21  55
BRANCH  18  60
ATOM     60  C   UNK d   0     -20.133 -16.482  60.437  0.00  0.00     0.151 C 
BRANCH  60  61
ATOM     61  C   UNK d   0     -21.209 -17.277  61.048  0.00  0.00     0.143 C 
ATOM     62  O   UNK d   0     -21.366 -17.518  62.245  0.00  0.00    -0.650 OA
BRANCH  61  63
ATOM     63  O   UNK d   0     -22.153 -17.813  60.139  0.00  0.00    -0.776 OA
ATOM     64  H   UNK d   0     -22.385 -18.790  60.148  0.00  0.00     0.167 HD
ENDBRANCH  61  63
ENDBRANCH  60  61
ENDBRANCH  18  60
BRANCH  14  65
ATOM     65  C   UNK d   0     -19.371 -17.705  57.766  0.00  0.00     0.052 C 
BRANCH  65  66
ATOM     66  C   UNK d   0     -20.321 -18.770  57.347  0.00  0.00     0.115 C 
BRANCH  66  67
ATOM     67  C   UNK d   0     -21.626 -18.412  56.869  0.00  0.00     0.139 C 
ATOM     68  O   UNK d   0     -22.083 -17.244  57.151  0.00  0.00    -0.650 OA
BRANCH  67  69
ATOM     69  O   UNK d   0     -22.500 -19.189  56.110  0.00  0.00    -0.776 OA
ATOM     70  H   UNK d   0     -22.689 -18.849  55.156  0.00  0.00     0.167 HD
ENDBRANCH  67  69
ENDBRANCH  66  67
ENDBRANCH  65  66
ENDBRANCH  14  65
ENDBRANCH   6   7
ENDBRANCH   5   6
ENDBRANCH   2   5
TORSDOF 28
ENDMDL
MODEL 19
REMARK VINA RESULT:      -5.9      2.208      5.256
REMARK  28 active torsions:
REMARK  status: ('A' for Active; 'I' for Inactive)
REMARK    1  A    between atoms: C_2  and  O_3 
REMARK    2  A    between atoms: C_2  and  C_4 
REMARK    3  A    between atoms: C_4  and  C_5 
REMARK    4  A    between atoms: C_5  and  C_6 
REMARK    5  A    between atoms: C_7  and  C_8 
REMARK    6  A    between atoms: C_8  and  C_9 
REMARK    7  A    between atoms: C_9  and  O_11 
REMARK    8  A    between atoms: C_28  and  C_29 
REMARK    9  A    between atoms: C_29  and  C_30 
REMARK   10  A    between atoms: C_30  and  O_32 
REMARK   11  A    between atoms: C_33  and  C_34 
REMARK   12  A    between atoms: C_34  and  C_35 
REMARK   13  A    between atoms: C_35  and  C_36 
REMARK   14  A    between atoms: C_36  and  O_38 
REMARK   15  A    between atoms: C_39  and  C_40 
REMARK   16  A    between atoms: C_40  and  C_41 
REMARK   17  A    between atoms: C_41  and  C_42 
REMARK   18  A    between atoms: C_42  and  O_44 
REMARK   19  A    between atoms: C_45  and  C_46 
REMARK   20  A    between atoms: C_46  and  C_47 
REMARK   21  A    between atoms: C_47  and  O_49 
REMARK   22  A    between atoms: C_50  and  C_51 
REMARK   23  A    between atoms: C_51  and  C_52 
REMARK   24  A    between atoms: C_52  and  O_54 
REMARK   25  A    between atoms: C_55  and  C_56 
REMARK   26  A    between atoms: C_56  and  C_57 
REMARK   27  A    between atoms: C_57  and  C_58 
REMARK   28  A    between atoms: C_58  and  O_60 
ROOT
ATOM      1  O   UNK d   0     -13.402 -33.296  51.695  0.00  0.00    -0.650 OA
ATOM      2  C   UNK d   0     -13.538 -32.113  52.078  0.00  0.00     0.139 C 
ENDROOT
BRANCH   2   3
ATOM      3  O   UNK d   0     -13.441 -31.823  53.418  0.00  0.00    -0.776 OA
ATOM      4  H   UNK d   0     -13.161 -30.893  53.737  0.00  0.00     0.167 HD
ENDBRANCH   2   3
BRANCH   2   5
ATOM      5  C   UNK d   0     -13.804 -31.032  51.087  0.00  0.00     0.115 C 
BRANCH   5   6
ATOM      6  C   UNK d   0     -12.670 -30.043  51.083  0.00  0.00     0.052 C 
BRANCH   6   7
ATOM      7  C   UNK d   0     -11.378 -30.643  50.585  0.00  0.00    -0.020 A 
ATOM      8  C   UNK d   0     -10.254 -30.776  51.241  0.00  0.00    -0.011 A 
ATOM      9  C   UNK d   0      -9.289 -31.399  50.350  0.00  0.00     0.067 A 
ATOM     10  C   UNK d   0      -7.953 -31.822  50.440  0.00  0.00     0.062 C 
ATOM     11  N   UNK d   0      -9.909 -31.606  49.170  0.00  0.00    -0.248 NA
ATOM     12  C   UNK d   0      -7.269 -32.661  49.554  0.00  0.00     0.041 A 
ATOM     13  N   UNK d   0      -7.250 -32.704  48.209  0.00  0.00    -0.355 N 
ATOM     14  C   UNK d   0      -6.483 -33.705  50.076  0.00  0.00    -0.022 A 
ATOM     15  C   UNK d   0      -6.479 -33.752  47.863  0.00  0.00     0.042 A 
ATOM     16  H   UNK d   0      -7.756 -31.995  47.516  0.00  0.00     0.166 HD
ATOM     17  C   UNK d   0      -6.124 -34.245  46.592  0.00  0.00     0.062 C 
ATOM     18  C   UNK d   0      -5.980 -34.404  49.008  0.00  0.00    -0.013 A 
ATOM     19  C   UNK d   0      -6.918 -34.444  45.492  0.00  0.00     0.067 A 
ATOM     20  N   UNK d   0      -8.150 -33.931  45.534  0.00  0.00    -0.248 NA
ATOM     21  C   UNK d   0      -6.779 -35.118  44.211  0.00  0.00    -0.011 A 
ATOM     22  C   UNK d   0      -8.828 -34.222  44.376  0.00  0.00     0.066 A 
ATOM     23  C   UNK d   0     -10.114 -33.714  44.271  0.00  0.00     0.062 C 
ATOM     24  C   UNK d   0      -7.902 -34.988  43.565  0.00  0.00    -0.020 A 
ATOM     25  C   UNK d   0     -10.779 -32.861  45.166  0.00  0.00     0.041 A 
ATOM     26  N   UNK d   0     -10.810 -32.828  46.503  0.00  0.00    -0.355 N 
ATOM     27  C   UNK d   0     -11.564 -31.812  44.641  0.00  0.00    -0.022 A 
ATOM     28  C   UNK d   0     -11.586 -31.789  46.850  0.00  0.00     0.042 A 
ATOM     29  H   UNK d   0     -10.310 -33.548  47.197  0.00  0.00     0.166 HD
ATOM     30  C   UNK d   0     -11.955 -31.293  48.110  0.00  0.00     0.062 C 
ATOM     31  C   UNK d   0     -12.078 -31.128  45.700  0.00  0.00    -0.013 A 
ATOM     32  C   UNK d   0     -11.168 -31.173  49.245  0.00  0.00     0.066 A 
BRANCH   8  33
ATOM     33  C   UNK d   0      -9.988 -30.369  52.633  0.00  0.00     0.151 C 
BRANCH  33  34
ATOM     34  C   UNK d   0      -9.751 -31.516  53.528  0.00  0.00     0.143 C 
ATOM     35  O   UNK d   0     -10.698 -32.145  54.021  0.00  0.00    -0.650 OA
BRANCH  34  36
ATOM     36  O   UNK d   0      -8.460 -31.889  53.820  0.00  0.00    -0.776 OA
ATOM     37  H   UNK d   0      -7.723 -31.868  53.102  0.00  0.00     0.167 HD
ENDBRANCH  34  36
ENDBRANCH  33  34
ENDBRANCH   8  33
BRANCH  31  38
ATOM     38  C   UNK d   0     -12.971 -29.911  45.627  0.00  0.00     0.151 C 
BRANCH  38  39
ATOM     39  C   UNK d   0     -12.231 -28.683  45.431  0.00  0.00     0.143 C 
ATOM     40  O   UNK d   0     -11.281 -28.354  46.163  0.00  0.00    -0.650 OA
BRANCH  39  41
ATOM     41  O   UNK d   0     -12.586 -27.827  44.388  0.00  0.00    -0.776 OA
ATOM     42  H   UNK d   0     -11.927 -27.754  43.607  0.00  0.00     0.167 HD
ENDBRANCH  39  41
ENDBRANCH  38  39
ENDBRANCH  31  38
BRANCH  27  43
ATOM     43  C   UNK d   0     -11.838 -31.446  43.204  0.00  0.00     0.052 C 
BRANCH  43  44
ATOM     44  C   UNK d   0     -13.153 -31.952  42.706  0.00  0.00     0.115 C 
BRANCH  44  45
ATOM     45  C   UNK d   0     -13.820 -30.809  42.030  0.00  0.00     0.139 C 
ATOM     46  O   UNK d   0     -13.309 -29.668  42.154  0.00  0.00    -0.650 OA
BRANCH  45  47
ATOM     47  O   UNK d   0     -14.964 -30.951  41.275  0.00  0.00    -0.776 OA
ATOM     48  H   UNK d   0     -15.254 -30.262  40.563  0.00  0.00     0.167 HD
ENDBRANCH  45  47
ENDBRANCH  44  45
ENDBRANCH  43  44
ENDBRANCH  27  43
BRANCH  24  49
ATOM     49  C   UNK d   0      -8.186 -35.486  42.208  0.00  0.00     0.052 C 
BRANCH  49  50
ATOM     50  C   UNK d   0      -8.089 -34.365  41.206  0.00  0.00     0.115 C 
BRANCH  50  51
ATOM     51  C   UNK d   0      -7.019 -34.445  40.221  0.00  0.00     0.139 C 
ATOM     52  O   UNK d   0      -6.131 -35.329  40.256  0.00  0.00    -0.650 OA
BRANCH  51  53
ATOM     53  O   UNK d   0      -6.961 -33.514  39.195  0.00  0.00    -0.776 OA
ATOM     54  H   UNK d   0      -7.664 -33.551  38.478  0.00  0.00     0.167 HD
ENDBRANCH  51  53
ENDBRANCH  50  51
ENDBRANCH  49  50
ENDBRANCH  24  49
BRANCH  21  55
ATOM     55  C   UNK d   0      -5.538 -35.818  43.766  0.00  0.00     0.151 C 
BRANCH  55  56
ATOM     56  C   UNK d   0      -5.576 -37.256  44.072  0.00  0.00     0.143 C 
ATOM     57  O   UNK d   0      -5.551 -37.699  45.237  0.00  0.00    -0.650 OA
BRANCH  56  58
ATOM     58  O   UNK d   0      -5.643 -38.146  43.001  0.00  0.00    -0.776 OA
ATOM     59  H   UNK d   0      -4.942 -37.985  42.256  0.00  0.00     0.167 HD
ENDBRANCH  56  58
ENDBRANCH  55  56
ENDBRANCH  21  55
BRANCH  18  60
ATOM     60  C   UNK d   0      -5.086 -35.616  49.110  0.00  0.00     0.151 C 
BRANCH  60  61
ATOM     61  C   UNK d   0      -5.929 -36.770  48.761  0.00  0.00     0.143 C 
ATOM     62  O   UNK d   0      -7.110 -36.945  49.063  0.00  0.00    -0.650 OA
BRANCH  61  63
ATOM     63  O   UNK d   0      -5.288 -37.773  47.995  0.00  0.00    -0.776 OA
ATOM     64  H   UNK d   0      -4.409 -38.164  48.284  0.00  0.00     0.167 HD
ENDBRANCH  61  63
ENDBRANCH  60  61
ENDBRANCH  18  60
BRANCH  14  65
ATOM     65  C   UNK d   0      -6.096 -34.028  51.492  0.00  0.00     0.052 C 
BRANCH  65  66
ATOM     66  C   UNK d   0      -6.793 -35.228  52.026  0.00  0.00     0.115 C 
BRANCH  66  67
ATOM     67  C   UNK d   0      -8.228 -35.272  52.035  0.00  0.00     0.139 C 
ATOM     68  O   UNK d   0      -8.852 -34.772  53.042  0.00  0.00    -0.650 OA
BRANCH  67  69
ATOM     69  O   UNK d   0      -9.071 -35.805  51.060  0.00  0.00    -0.776 OA
ATOM     70  H   UNK d   0     -10.070 -35.850  51.308  0.00  0.00     0.167 HD
ENDBRANCH  67  69
ENDBRANCH  66  67
ENDBRANCH  65  66
ENDBRANCH  14  65
ENDBRANCH   6   7
ENDBRANCH   5   6
ENDBRANCH   2   5
TORSDOF 28
ENDMDL
MODEL 20
REMARK VINA RESULT:      -5.9      2.635      8.199
REMARK  28 active torsions:
REMARK  status: ('A' for Active; 'I' for Inactive)
REMARK    1  A    between atoms: C_2  and  O_3 
REMARK    2  A    between atoms: C_2  and  C_4 
REMARK    3  A    between atoms: C_4  and  C_5 
REMARK    4  A    between atoms: C_5  and  C_6 
REMARK    5  A    between atoms: C_7  and  C_8 
REMARK    6  A    between atoms: C_8  and  C_9 
REMARK    7  A    between atoms: C_9  and  O_11 
REMARK    8  A    between atoms: C_28  and  C_29 
REMARK    9  A    between atoms: C_29  and  C_30 
REMARK   10  A    between atoms: C_30  and  O_32 
REMARK   11  A    between atoms: C_33  and  C_34 
REMARK   12  A    between atoms: C_34  and  C_35 
REMARK   13  A    between atoms: C_35  and  C_36 
REMARK   14  A    between atoms: C_36  and  O_38 
REMARK   15  A    between atoms: C_39  and  C_40 
REMARK   16  A    between atoms: C_40  and  C_41 
REMARK   17  A    between atoms: C_41  and  C_42 
REMARK   18  A    between atoms: C_42  and  O_44 
REMARK   19  A    between atoms: C_45  and  C_46 
REMARK   20  A    between atoms: C_46  and  C_47 
REMARK   21  A    between atoms: C_47  and  O_49 
REMARK   22  A    between atoms: C_50  and  C_51 
REMARK   23  A    between atoms: C_51  and  C_52 
REMARK   24  A    between atoms: C_52  and  O_54 
REMARK   25  A    between atoms: C_55  and  C_56 
REMARK   26  A    between atoms: C_56  and  C_57 
REMARK   27  A    between atoms: C_57  and  C_58 
REMARK   28  A    between atoms: C_58  and  O_60 
ROOT
ATOM      1  O   UNK d   0      -9.328 -33.319  52.585  0.00  0.00    -0.650 OA
ATOM      2  C   UNK d   0      -9.403 -32.075  52.697  0.00  0.00     0.139 C 
ENDROOT
BRANCH   2   3
ATOM      3  O   UNK d   0      -8.461 -31.408  53.443  0.00  0.00    -0.776 OA
ATOM      4  H   UNK d   0      -8.511 -31.394  54.464  0.00  0.00     0.167 HD
ENDBRANCH   2   3
BRANCH   2   5
ATOM      5  C   UNK d   0     -10.505 -31.328  52.026  0.00  0.00     0.115 C 
BRANCH   5   6
ATOM      6  C   UNK d   0      -9.957 -30.506  50.891  0.00  0.00     0.052 C 
BRANCH   6   7
ATOM      7  C   UNK d   0     -10.165 -31.161  49.546  0.00  0.00    -0.020 A 
ATOM      8  C   UNK d   0     -11.201 -31.047  48.755  0.00  0.00    -0.011 A 
ATOM      9  C   UNK d   0     -10.954 -31.865  47.579  0.00  0.00     0.067 A 
ATOM     10  C   UNK d   0     -11.635 -32.155  46.386  0.00  0.00     0.062 C 
ATOM     11  N   UNK d   0      -9.747 -32.446  47.741  0.00  0.00    -0.248 NA
ATOM     12  C   UNK d   0     -11.111 -32.754  45.236  0.00  0.00     0.041 A 
ATOM     13  N   UNK d   0     -10.282 -33.804  45.082  0.00  0.00    -0.355 N 
ATOM     14  C   UNK d   0     -11.408 -32.192  43.981  0.00  0.00    -0.022 A 
ATOM     15  C   UNK d   0     -10.039 -33.918  43.763  0.00  0.00     0.042 A 
ATOM     16  H   UNK d   0      -9.892 -34.463  45.888  0.00  0.00     0.166 HD
ATOM     17  C   UNK d   0      -9.244 -34.843  43.057  0.00  0.00     0.062 C 
ATOM     18  C   UNK d   0     -10.728 -32.925  43.040  0.00  0.00    -0.013 A 
ATOM     19  C   UNK d   0      -7.981 -35.292  43.347  0.00  0.00     0.067 A 
ATOM     20  N   UNK d   0      -7.490 -34.982  44.549  0.00  0.00    -0.248 NA
ATOM     21  C   UNK d   0      -6.957 -36.052  42.650  0.00  0.00    -0.011 A 
ATOM     22  C   UNK d   0      -6.219 -35.483  44.689  0.00  0.00     0.066 A 
ATOM     23  C   UNK d   0      -5.601 -35.265  45.911  0.00  0.00     0.062 C 
ATOM     24  C   UNK d   0      -5.927 -36.157  43.439  0.00  0.00    -0.020 A 
ATOM     25  C   UNK d   0      -6.150 -34.673  47.059  0.00  0.00     0.041 A 
ATOM     26  N   UNK d   0      -6.962 -33.620  47.213  0.00  0.00    -0.355 N 
ATOM     27  C   UNK d   0      -5.854 -35.240  48.318  0.00  0.00    -0.022 A 
ATOM     28  C   UNK d   0      -7.198 -33.499  48.529  0.00  0.00     0.042 A 
ATOM     29  H   UNK d   0      -7.344 -32.952  46.403  0.00  0.00     0.166 HD
ATOM     30  C   UNK d   0      -7.979 -32.578  49.245  0.00  0.00     0.062 C 
ATOM     31  C   UNK d   0      -6.514 -34.503  49.253  0.00  0.00    -0.013 A 
ATOM     32  C   UNK d   0      -9.220 -32.062  48.905  0.00  0.00     0.066 A 
BRANCH   8  33
ATOM     33  C   UNK d   0     -12.414 -30.245  48.996  0.00  0.00     0.151 C 
BRANCH  33  34
ATOM     34  C   UNK d   0     -12.216 -28.812  48.713  0.00  0.00     0.143 C 
ATOM     35  O   UNK d   0     -12.141 -27.985  49.633  0.00  0.00    -0.650 OA
BRANCH  34  36
ATOM     36  O   UNK d   0     -12.113 -28.389  47.408  0.00  0.00    -0.776 OA
ATOM     37  H   UNK d   0     -11.206 -28.367  46.922  0.00  0.00     0.167 HD
ENDBRANCH  34  36
ENDBRANCH  33  34
ENDBRANCH   8  33
BRANCH  31  38
ATOM     38  C   UNK d   0      -6.508 -34.745  50.745  0.00  0.00     0.151 C 
BRANCH  38  39
ATOM     39  C   UNK d   0      -5.840 -33.694  51.481  0.00  0.00     0.143 C 
ATOM     40  O   UNK d   0      -4.875 -33.064  51.014  0.00  0.00    -0.650 OA
BRANCH  39  41
ATOM     41  O   UNK d   0      -6.283 -33.364  52.762  0.00  0.00    -0.776 OA
ATOM     42  H   UNK d   0      -5.564 -33.125  53.452  0.00  0.00     0.167 HD
ENDBRANCH  39  41
ENDBRANCH  38  39
ENDBRANCH  31  38
BRANCH  27  43
ATOM     43  C   UNK d   0      -4.987 -36.426  48.655  0.00  0.00     0.052 C 
BRANCH  43  44
ATOM     44  C   UNK d   0      -5.734 -37.720  48.671  0.00  0.00     0.115 C 
BRANCH  44  45
ATOM     45  C   UNK d   0      -5.227 -38.489  49.836  0.00  0.00     0.139 C 
ATOM     46  O   UNK d   0      -5.278 -37.950  50.969  0.00  0.00    -0.650 OA
BRANCH  45  47
ATOM     47  O   UNK d   0      -4.711 -39.763  49.724  0.00  0.00    -0.776 OA
ATOM     48  H   UNK d   0      -3.971 -40.010  49.047  0.00  0.00     0.167 HD
ENDBRANCH  45  47
ENDBRANCH  44  45
ENDBRANCH  43  44
ENDBRANCH  27  43
BRANCH  24  49
ATOM     49  C   UNK d   0      -4.679 -36.882  43.146  0.00  0.00     0.052 C 
BRANCH  49  50
ATOM     50  C   UNK d   0      -3.648 -35.943  42.574  0.00  0.00     0.115 C 
BRANCH  50  51
ATOM     51  C   UNK d   0      -2.365 -36.517  42.192  0.00  0.00     0.139 C 
ATOM     52  O   UNK d   0      -2.268 -37.576  41.529  0.00  0.00    -0.650 OA
BRANCH  51  53
ATOM     53  O   UNK d   0      -1.190 -35.883  42.569  0.00  0.00    -0.776 OA
ATOM     54  H   UNK d   0      -0.938 -35.889  43.542  0.00  0.00     0.167 HD
ENDBRANCH  51  53
ENDBRANCH  50  51
ENDBRANCH  49  50
ENDBRANCH  24  49
BRANCH  21  55
ATOM     55  C   UNK d   0      -7.117 -36.598  41.269  0.00  0.00     0.151 C 
BRANCH  55  56
ATOM     56  C   UNK d   0      -6.939 -35.561  40.242  0.00  0.00     0.143 C 
ATOM     57  O   UNK d   0      -5.817 -35.195  39.839  0.00  0.00    -0.650 OA
BRANCH  56  58
ATOM     58  O   UNK d   0      -8.084 -34.973  39.708  0.00  0.00    -0.776 OA
ATOM     59  H   UNK d   0      -8.055 -33.939  39.645  0.00  0.00     0.167 HD
ENDBRANCH  56  58
ENDBRANCH  55  56
ENDBRANCH  21  55
BRANCH  18  60
ATOM     60  C   UNK d   0     -10.755 -32.662  41.554  0.00  0.00     0.151 C 
BRANCH  60  61
ATOM     61  C   UNK d   0     -11.510 -33.776  40.961  0.00  0.00     0.143 C 
ATOM     62  O   UNK d   0     -11.111 -34.575  40.113  0.00  0.00    -0.650 OA
BRANCH  61  63
ATOM     63  O   UNK d   0     -12.836 -33.924  41.433  0.00  0.00    -0.776 OA
ATOM     64  H   UNK d   0     -13.464 -34.587  41.015  0.00  0.00     0.167 HD
ENDBRANCH  61  63
ENDBRANCH  60  61
ENDBRANCH  18  60
BRANCH  14  65
ATOM     65  C   UNK d   0     -12.354 -31.089  43.598  0.00  0.00     0.052 C 
BRANCH  65  66
ATOM     66  C   UNK d   0     -11.836 -29.736  43.936  0.00  0.00     0.115 C 
BRANCH  66  67
ATOM     67  C   UNK d   0     -12.101 -28.633  43.056  0.00  0.00     0.139 C 
ATOM     68  O   UNK d   0     -11.108 -28.068  42.465  0.00  0.00    -0.650 OA
BRANCH  67  69
ATOM     69  O   UNK d   0     -13.337 -28.068  42.742  0.00  0.00    -0.776 OA
ATOM     70  H   UNK d   0     -13.889 -27.727  43.542  0.00  0.00     0.167 HD
ENDBRANCH  67  69
ENDBRANCH  66  67
ENDBRANCH  65  66
ENDBRANCH  14  65
ENDBRANCH   6   7
ENDBRANCH   5   6
ENDBRANCH   2   5
TORSDOF 28
ENDMDL
