MODEL 1
REMARK VINA RESULT:      -8.1      0.000      0.000
REMARK  16 active torsions:
REMARK  status: ('A' for Active; 'I' for Inactive)
REMARK    1  A    between atoms: C_6  and  C_7 
REMARK    2  A    between atoms: C_7  and  C_8 
REMARK    3  A    between atoms: C_8  and  C_9 
REMARK    4  A    between atoms: C_9  and  O_11 
REMARK    5  A    between atoms: C_16  and  C_17 
REMARK    6  A    between atoms: C_17  and  C_18 
REMARK    7  A    between atoms: C_18  and  C_19 
REMARK    8  A    between atoms: C_19  and  O_21 
REMARK    9  A    between atoms: C_28  and  C_29 
REMARK   10  A    between atoms: C_29  and  C_30 
REMARK   11  A    between atoms: C_30  and  C_31 
REMARK   12  A    between atoms: C_31  and  O_33 
REMARK   13  A    between atoms: C_42  and  C_43 
REMARK   14  A    between atoms: C_43  and  C_44 
REMARK   15  A    between atoms: C_44  and  C_45 
REMARK   16  A    between atoms: C_45  and  O_47 
ROOT
HETATM    1  C   UNK     0     -14.791   3.841   8.166  0.00  0.00     0.051 C 
HETATM    2  C   UNK     0     -14.881   4.962   7.150  0.00  0.00    -0.031 A 
HETATM    3  C   UNK     0     -13.911   5.869   6.753  0.00  0.00     0.021 A 
HETATM    4  N   UNK     0     -14.446   6.716   5.842  0.00  0.00    -0.361 N 
HETATM    5  C   UNK     0     -15.732   6.362   5.642  0.00  0.00     0.022 A 
HETATM    6  C   UNK     0     -16.038   5.270   6.448  0.00  0.00    -0.027 A 
HETATM    7  C   UNK     0     -16.732   6.913   4.673  0.00  0.00     0.115 C 
HETATM    8  C   UNK     0     -16.232   7.201   3.269  0.00  0.00     0.021 A 
HETATM    9  N   UNK     0     -15.326   6.522   2.548  0.00  0.00    -0.361 N 
HETATM   10  C   UNK     0     -15.123   7.190   1.393  0.00  0.00     0.022 A 
HETATM   11  C   UNK     0     -15.928   8.326   1.364  0.00  0.00    -0.027 A 
HETATM   12  C   UNK     0     -16.629   8.338   2.543  0.00  0.00    -0.031 A 
HETATM   13  C   UNK     0     -17.637   9.390   2.950  0.00  0.00     0.051 C 
HETATM   14  C   UNK     0     -14.129   6.816   0.297  0.00  0.00     0.115 C 
HETATM   15  C   UNK     0     -12.681   6.801   0.760  0.00  0.00     0.021 A 
HETATM   16  N   UNK     0     -12.141   6.063   1.747  0.00  0.00    -0.361 N 
HETATM   17  C   UNK     0     -10.855   6.391   1.888  0.00  0.00     0.022 A 
HETATM   18  C   UNK     0     -10.539   7.385   0.940  0.00  0.00    -0.027 A 
HETATM   19  C   UNK     0     -11.690   7.632   0.239  0.00  0.00    -0.031 A 
HETATM   20  C   UNK     0     -11.783   8.618  -0.911  0.00  0.00     0.051 C 
HETATM   21  C   UNK     0      -9.833   5.909   2.893  0.00  0.00     0.115 C 
HETATM   22  C   UNK     0     -10.325   5.577   4.282  0.00  0.00     0.022 A 
HETATM   23  N   UNK     0     -11.229   6.232   5.022  0.00  0.00    -0.361 N 
HETATM   24  C   UNK     0     -11.472   5.508   6.133  0.00  0.00     0.021 A 
HETATM   25  C   UNK     0     -10.698   4.363   6.113  0.00  0.00    -0.031 A 
HETATM   26  C   UNK     0     -10.592   3.266   7.152  0.00  0.00     0.051 C 
HETATM   27  C   UNK     0      -9.955   4.385   4.938  0.00  0.00    -0.027 A 
HETATM   28  C   UNK     0     -12.487   5.795   7.226  0.00  0.00     0.115 C 
HETATM   29  H   UNK     0     -13.922   7.582   5.375  0.00  0.00     0.165 HD
HETATM   30  H   UNK     0     -14.864   5.544   2.830  0.00  0.00     0.165 HD
HETATM   31  H   UNK     0     -12.666   5.258   2.326  0.00  0.00     0.165 HD
HETATM   32  H   UNK     0     -11.672   7.235   4.787  0.00  0.00     0.165 HD
ENDROOT
BRANCH   6  33
HETATM   33  C   UNK     0     -17.331   4.509   6.600  0.00  0.00     0.051 C 
BRANCH  33  34
HETATM   34  C   UNK     0     -17.356   3.308   5.684  0.00  0.00     0.114 C 
BRANCH  34  35
HETATM   35  C   UNK     0     -17.531   2.099   6.538  0.00  0.00     0.139 C 
HETATM   36  O   UNK     0     -16.973   1.008   6.221  0.00  0.00    -0.650 OA
BRANCH  35  37
HETATM   37  O   UNK     0     -18.295   2.106   7.699  0.00  0.00    -0.776 OA
HETATM   38  H   UNK     0     -18.037   1.570   8.512  0.00  0.00     0.167 HD
ENDBRANCH  35  37
ENDBRANCH  34  35
ENDBRANCH  33  34
ENDBRANCH   6  33
BRANCH  27  39
HETATM   39  C   UNK     0      -8.946   3.345   4.598  0.00  0.00     0.051 C 
BRANCH  39  40
HETATM   40  C   UNK     0      -7.611   3.456   5.184  0.00  0.00     0.114 C 
BRANCH  40  41
HETATM   41  C   UNK     0      -7.078   2.455   6.081  0.00  0.00     0.139 C 
HETATM   42  O   UNK     0      -5.941   2.510   6.569  0.00  0.00    -0.650 OA
BRANCH  41  43
HETATM   43  O   UNK     0      -7.890   1.340   6.433  0.00  0.00    -0.776 OA
HETATM   44  H   UNK     0      -7.372   0.501   6.665  0.00  0.00     0.167 HD
ENDBRANCH  41  43
ENDBRANCH  40  41
ENDBRANCH  39  40
ENDBRANCH  27  39
BRANCH  11  45
HETATM   45  C   UNK     0     -16.051   9.366   0.284  0.00  0.00     0.051 C 
BRANCH  45  46
HETATM   46  C   UNK     0     -17.069   9.049  -0.750  0.00  0.00     0.114 C 
BRANCH  46  47
HETATM   47  C   UNK     0     -17.520  10.343  -1.337  0.00  0.00     0.139 C 
HETATM   48  O   UNK     0     -16.953  11.386  -0.980  0.00  0.00    -0.650 OA
BRANCH  47  49
HETATM   49  O   UNK     0     -18.542  10.382  -2.251  0.00  0.00    -0.776 OA
HETATM   50  H   UNK     0     -18.512  10.990  -3.078  0.00  0.00     0.167 HD
ENDBRANCH  47  49
ENDBRANCH  46  47
ENDBRANCH  45  46
ENDBRANCH  11  45
BRANCH  18  51
HETATM   51  C   UNK     0      -9.207   8.047   0.702  0.00  0.00     0.051 C 
BRANCH  51  52
HETATM   52  C   UNK     0      -8.564   7.305  -0.461  0.00  0.00     0.114 C 
BRANCH  52  53
HETATM   53  C   UNK     0      -8.002   8.233  -1.461  0.00  0.00     0.139 C 
HETATM   54  O   UNK     0      -7.602   9.355  -1.113  0.00  0.00    -0.650 OA
BRANCH  53  55
HETATM   55  O   UNK     0      -7.929   7.849  -2.778  0.00  0.00    -0.776 OA
HETATM   56  H   UNK     0      -7.899   6.915  -3.113  0.00  0.00     0.167 HD
ENDBRANCH  53  55
ENDBRANCH  52  53
ENDBRANCH  51  52
ENDBRANCH  18  51
TORSDOF 16
ENDMDL
MODEL 2
REMARK VINA RESULT:      -8.0      1.861      2.165
REMARK  16 active torsions:
REMARK  status: ('A' for Active; 'I' for Inactive)
REMARK    1  A    between atoms: C_6  and  C_7 
REMARK    2  A    between atoms: C_7  and  C_8 
REMARK    3  A    between atoms: C_8  and  C_9 
REMARK    4  A    between atoms: C_9  and  O_11 
REMARK    5  A    between atoms: C_16  and  C_17 
REMARK    6  A    between atoms: C_17  and  C_18 
REMARK    7  A    between atoms: C_18  and  C_19 
REMARK    8  A    between atoms: C_19  and  O_21 
REMARK    9  A    between atoms: C_28  and  C_29 
REMARK   10  A    between atoms: C_29  and  C_30 
REMARK   11  A    between atoms: C_30  and  C_31 
REMARK   12  A    between atoms: C_31  and  O_33 
REMARK   13  A    between atoms: C_42  and  C_43 
REMARK   14  A    between atoms: C_43  and  C_44 
REMARK   15  A    between atoms: C_44  and  C_45 
REMARK   16  A    between atoms: C_45  and  O_47 
ROOT
HETATM    1  C   UNK     0     -13.963   3.658   8.450  0.00  0.00     0.051 C 
HETATM    2  C   UNK     0     -14.201   4.819   7.506  0.00  0.00    -0.031 A 
HETATM    3  C   UNK     0     -13.294   5.726   6.980  0.00  0.00     0.021 A 
HETATM    4  N   UNK     0     -13.958   6.615   6.204  0.00  0.00    -0.361 N 
HETATM    5  C   UNK     0     -15.267   6.290   6.217  0.00  0.00     0.022 A 
HETATM    6  C   UNK     0     -15.455   5.172   7.024  0.00  0.00    -0.027 A 
HETATM    7  C   UNK     0     -16.405   6.893   5.454  0.00  0.00     0.115 C 
HETATM    8  C   UNK     0     -16.147   7.227   3.996  0.00  0.00     0.021 A 
HETATM    9  N   UNK     0     -15.393   6.562   3.106  0.00  0.00    -0.361 N 
HETATM   10  C   UNK     0     -15.377   7.271   1.958  0.00  0.00     0.022 A 
HETATM   11  C   UNK     0     -16.149   8.419   2.108  0.00  0.00    -0.027 A 
HETATM   12  C   UNK     0     -16.637   8.397   3.390  0.00  0.00    -0.031 A 
HETATM   13  C   UNK     0     -17.537   9.449   4.001  0.00  0.00     0.051 C 
HETATM   14  C   UNK     0     -14.593   6.924   0.695  0.00  0.00     0.115 C 
HETATM   15  C   UNK     0     -13.088   6.868   0.901  0.00  0.00     0.021 A 
HETATM   16  N   UNK     0     -12.404   6.084   1.754  0.00  0.00    -0.361 N 
HETATM   17  C   UNK     0     -11.105   6.386   1.683  0.00  0.00     0.022 A 
HETATM   18  C   UNK     0     -10.934   7.410   0.731  0.00  0.00    -0.027 A 
HETATM   19  C   UNK     0     -12.183   7.702   0.247  0.00  0.00    -0.031 A 
HETATM   20  C   UNK     0     -12.449   8.734  -0.834  0.00  0.00     0.051 C 
HETATM   21  C   UNK     0      -9.938   5.850   2.480  0.00  0.00     0.115 C 
HETATM   22  C   UNK     0     -10.191   5.472   3.920  0.00  0.00     0.022 A 
HETATM   23  N   UNK     0     -10.940   6.112   4.827  0.00  0.00    -0.361 N 
HETATM   24  C   UNK     0     -11.006   5.350   5.937  0.00  0.00     0.021 A 
HETATM   25  C   UNK     0     -10.272   4.195   5.744  0.00  0.00    -0.031 A 
HETATM   26  C   UNK     0     -10.014   3.057   6.710  0.00  0.00     0.051 C 
HETATM   27  C   UNK     0      -9.741   4.250   4.461  0.00  0.00    -0.027 A 
HETATM   28  C   UNK     0     -11.812   5.611   7.198  0.00  0.00     0.115 C 
HETATM   29  H   UNK     0     -13.502   7.490   5.685  0.00  0.00     0.165 HD
HETATM   30  H   UNK     0     -14.912   5.567   3.270  0.00  0.00     0.165 HD
HETATM   31  H   UNK     0     -12.839   5.266   2.386  0.00  0.00     0.165 HD
HETATM   32  H   UNK     0     -11.395   7.130   4.707  0.00  0.00     0.165 HD
ENDROOT
BRANCH   6  33
HETATM   33  C   UNK     0     -16.719   4.426   7.369  0.00  0.00     0.051 C 
BRANCH  33  34
HETATM   34  C   UNK     0     -16.854   3.183   6.523  0.00  0.00     0.114 C 
BRANCH  34  35
HETATM   35  C   UNK     0     -17.449   3.593   5.218  0.00  0.00     0.139 C 
HETATM   36  O   UNK     0     -18.679   3.880   5.141  0.00  0.00    -0.650 OA
BRANCH  35  37
HETATM   37  O   UNK     0     -16.703   3.683   4.050  0.00  0.00    -0.776 OA
HETATM   38  H   UNK     0     -16.082   2.947   3.754  0.00  0.00     0.167 HD
ENDBRANCH  35  37
ENDBRANCH  34  35
ENDBRANCH  33  34
ENDBRANCH   6  33
BRANCH  27  39
HETATM   39  C   UNK     0      -8.829   3.208   3.915  0.00  0.00     0.051 C 
BRANCH  39  40
HETATM   40  C   UNK     0      -9.342   2.308   2.883  0.00  0.00     0.114 C 
BRANCH  40  41
HETATM   41  C   UNK     0      -9.111   2.540   1.474  0.00  0.00     0.139 C 
HETATM   42  O   UNK     0      -9.467   1.755   0.585  0.00  0.00    -0.650 OA
BRANCH  41  43
HETATM   43  O   UNK     0      -8.441   3.730   1.071  0.00  0.00    -0.776 OA
HETATM   44  H   UNK     0      -7.814   3.611   0.284  0.00  0.00     0.167 HD
ENDBRANCH  41  43
ENDBRANCH  40  41
ENDBRANCH  39  40
ENDBRANCH  27  39
BRANCH  11  45
HETATM   45  C   UNK     0     -16.432   9.503   1.102  0.00  0.00     0.051 C 
BRANCH  45  46
HETATM   46  C   UNK     0     -17.308   9.076  -0.018  0.00  0.00     0.114 C 
BRANCH  46  47
HETATM   47  C   UNK     0     -18.698   8.991   0.516  0.00  0.00     0.139 C 
HETATM   48  O   UNK     0     -19.357  10.034   0.619  0.00  0.00    -0.650 OA
BRANCH  47  49
HETATM   49  O   UNK     0     -19.236   7.784   0.887  0.00  0.00    -0.776 OA
HETATM   50  H   UNK     0     -18.927   7.286   1.729  0.00  0.00     0.167 HD
ENDBRANCH  47  49
ENDBRANCH  46  47
ENDBRANCH  45  46
ENDBRANCH  11  45
BRANCH  18  51
HETATM   51  C   UNK     0      -9.648   8.060   0.290  0.00  0.00     0.051 C 
BRANCH  51  52
HETATM   52  C   UNK     0      -9.087   7.184  -0.820  0.00  0.00     0.114 C 
BRANCH  52  53
HETATM   53  C   UNK     0      -7.642   6.938  -0.648  0.00  0.00     0.139 C 
HETATM   54  O   UNK     0      -7.232   5.792  -0.403  0.00  0.00    -0.650 OA
BRANCH  53  55
HETATM   55  O   UNK     0      -6.757   7.982  -0.757  0.00  0.00    -0.776 OA
HETATM   56  H   UNK     0      -6.436   8.390  -1.604  0.00  0.00     0.167 HD
ENDBRANCH  53  55
ENDBRANCH  52  53
ENDBRANCH  51  52
ENDBRANCH  18  51
TORSDOF 16
ENDMDL
MODEL 3
REMARK VINA RESULT:      -7.8     12.885     19.623
REMARK  16 active torsions:
REMARK  status: ('A' for Active; 'I' for Inactive)
REMARK    1  A    between atoms: C_6  and  C_7 
REMARK    2  A    between atoms: C_7  and  C_8 
REMARK    3  A    between atoms: C_8  and  C_9 
REMARK    4  A    between atoms: C_9  and  O_11 
REMARK    5  A    between atoms: C_16  and  C_17 
REMARK    6  A    between atoms: C_17  and  C_18 
REMARK    7  A    between atoms: C_18  and  C_19 
REMARK    8  A    between atoms: C_19  and  O_21 
REMARK    9  A    between atoms: C_28  and  C_29 
REMARK   10  A    between atoms: C_29  and  C_30 
REMARK   11  A    between atoms: C_30  and  C_31 
REMARK   12  A    between atoms: C_31  and  O_33 
REMARK   13  A    between atoms: C_42  and  C_43 
REMARK   14  A    between atoms: C_43  and  C_44 
REMARK   15  A    between atoms: C_44  and  C_45 
REMARK   16  A    between atoms: C_45  and  O_47 
ROOT
HETATM    1  C   UNK     0     -26.572  17.065 -11.678  0.00  0.00     0.051 C 
HETATM    2  C   UNK     0     -25.322  16.511 -11.026  0.00  0.00    -0.031 A 
HETATM    3  C   UNK     0     -24.865  16.666  -9.727  0.00  0.00     0.021 A 
HETATM    4  N   UNK     0     -23.683  16.018  -9.594  0.00  0.00    -0.361 N 
HETATM    5  C   UNK     0     -23.382  15.446 -10.778  0.00  0.00     0.022 A 
HETATM    6  C   UNK     0     -24.384  15.737 -11.697  0.00  0.00    -0.027 A 
HETATM    7  C   UNK     0     -22.241  14.545 -11.137  0.00  0.00     0.115 C 
HETATM    8  C   UNK     0     -21.882  13.466 -10.131  0.00  0.00     0.021 A 
HETATM    9  N   UNK     0     -22.699  12.758  -9.337  0.00  0.00    -0.361 N 
HETATM   10  C   UNK     0     -21.938  11.978  -8.541  0.00  0.00     0.022 A 
HETATM   11  C   UNK     0     -20.593  12.182  -8.837  0.00  0.00    -0.027 A 
HETATM   12  C   UNK     0     -20.551  13.118  -9.839  0.00  0.00    -0.031 A 
HETATM   13  C   UNK     0     -19.292  13.649 -10.486  0.00  0.00     0.051 C 
HETATM   14  C   UNK     0     -22.442  11.052  -7.438  0.00  0.00     0.115 C 
HETATM   15  C   UNK     0     -23.196  11.769  -6.329  0.00  0.00     0.021 A 
HETATM   16  N   UNK     0     -24.304  12.525  -6.445  0.00  0.00    -0.361 N 
HETATM   17  C   UNK     0     -24.613  13.035  -5.250  0.00  0.00     0.022 A 
HETATM   18  C   UNK     0     -23.667  12.581  -4.310  0.00  0.00    -0.027 A 
HETATM   19  C   UNK     0     -22.786  11.788  -4.997  0.00  0.00    -0.031 A 
HETATM   20  C   UNK     0     -21.620  11.063  -4.350  0.00  0.00     0.051 C 
HETATM   21  C   UNK     0     -25.713  13.996  -4.860  0.00  0.00     0.115 C 
HETATM   22  C   UNK     0     -26.111  15.048  -5.868  0.00  0.00     0.022 A 
HETATM   23  N   UNK     0     -25.319  15.766  -6.676  0.00  0.00    -0.361 N 
HETATM   24  C   UNK     0     -26.100  16.477  -7.512  0.00  0.00     0.021 A 
HETATM   25  C   UNK     0     -27.428  16.220  -7.230  0.00  0.00    -0.031 A 
HETATM   26  C   UNK     0     -28.670  16.808  -7.868  0.00  0.00     0.051 C 
HETATM   27  C   UNK     0     -27.460  15.308  -6.181  0.00  0.00    -0.027 A 
HETATM   28  C   UNK     0     -25.662  17.367  -8.663  0.00  0.00     0.115 C 
HETATM   29  H   UNK     0     -23.051  16.002  -8.676  0.00  0.00     0.165 HD
HETATM   30  H   UNK     0     -23.816  12.770  -9.370  0.00  0.00     0.165 HD
HETATM   31  H   UNK     0     -24.908  12.664  -7.379  0.00  0.00     0.165 HD
HETATM   32  H   UNK     0     -24.199  15.810  -6.633  0.00  0.00     0.165 HD
ENDROOT
BRANCH   6  33
HETATM   33  C   UNK     0     -24.516  15.342 -13.146  0.00  0.00     0.051 C 
BRANCH  33  34
HETATM   34  C   UNK     0     -23.710  16.266 -14.028  0.00  0.00     0.114 C 
BRANCH  34  35
HETATM   35  C   UNK     0     -22.678  15.439 -14.716  0.00  0.00     0.139 C 
HETATM   36  O   UNK     0     -21.746  15.995 -15.367  0.00  0.00    -0.650 OA
BRANCH  35  37
HETATM   37  O   UNK     0     -22.683  14.050 -14.678  0.00  0.00    -0.776 OA
HETATM   38  H   UNK     0     -23.311  13.534 -14.084  0.00  0.00     0.167 HD
ENDBRANCH  35  37
ENDBRANCH  34  35
ENDBRANCH  33  34
ENDBRANCH   6  33
BRANCH  27  39
HETATM   39  C   UNK     0     -28.725  14.842  -5.551  0.00  0.00     0.051 C 
BRANCH  39  40
HETATM   40  C   UNK     0     -29.191  15.525  -4.344  0.00  0.00     0.114 C 
BRANCH  40  41
HETATM   41  C   UNK     0     -29.330  14.843  -3.077  0.00  0.00     0.139 C 
HETATM   42  O   UNK     0     -28.477  14.068  -2.621  0.00  0.00    -0.650 OA
BRANCH  41  43
HETATM   43  O   UNK     0     -30.502  15.061  -2.299  0.00  0.00    -0.776 OA
HETATM   44  H   UNK     0     -31.303  14.510  -2.584  0.00  0.00     0.167 HD
ENDBRANCH  41  43
ENDBRANCH  40  41
ENDBRANCH  39  40
ENDBRANCH  27  39
BRANCH  11  45
HETATM   45  C   UNK     0     -19.384  11.533  -8.220  0.00  0.00     0.051 C 
BRANCH  45  46
HETATM   46  C   UNK     0     -18.833  12.265  -7.051  0.00  0.00     0.114 C 
BRANCH  46  47
HETATM   47  C   UNK     0     -18.112  11.270  -6.207  0.00  0.00     0.139 C 
HETATM   48  O   UNK     0     -18.210  11.357  -4.975  0.00  0.00    -0.650 OA
BRANCH  47  49
HETATM   49  O   UNK     0     -17.354  10.280  -6.780  0.00  0.00    -0.776 OA
HETATM   50  H   UNK     0     -17.525   9.947  -7.736  0.00  0.00     0.167 HD
ENDBRANCH  47  49
ENDBRANCH  46  47
ENDBRANCH  45  46
ENDBRANCH  11  45
BRANCH  18  51
HETATM   51  C   UNK     0     -23.619  12.871  -2.832  0.00  0.00     0.051 C 
BRANCH  51  52
HETATM   52  C   UNK     0     -24.579  11.891  -2.174  0.00  0.00     0.114 C 
BRANCH  52  53
HETATM   53  C   UNK     0     -23.889  10.668  -1.719  0.00  0.00     0.139 C 
HETATM   54  O   UNK     0     -23.050  10.731  -0.806  0.00  0.00    -0.650 OA
BRANCH  53  55
HETATM   55  O   UNK     0     -24.178   9.463  -2.312  0.00  0.00    -0.776 OA
HETATM   56  H   UNK     0     -25.052   8.993  -2.283  0.00  0.00     0.167 HD
ENDBRANCH  53  55
ENDBRANCH  52  53
ENDBRANCH  51  52
ENDBRANCH  18  51
TORSDOF 16
ENDMDL
MODEL 4
REMARK VINA RESULT:      -7.6      2.067      7.298
REMARK  16 active torsions:
REMARK  status: ('A' for Active; 'I' for Inactive)
REMARK    1  A    between atoms: C_6  and  C_7 
REMARK    2  A    between atoms: C_7  and  C_8 
REMARK    3  A    between atoms: C_8  and  C_9 
REMARK    4  A    between atoms: C_9  and  O_11 
REMARK    5  A    between atoms: C_16  and  C_17 
REMARK    6  A    between atoms: C_17  and  C_18 
REMARK    7  A    between atoms: C_18  and  C_19 
REMARK    8  A    between atoms: C_19  and  O_21 
REMARK    9  A    between atoms: C_28  and  C_29 
REMARK   10  A    between atoms: C_29  and  C_30 
REMARK   11  A    between atoms: C_30  and  C_31 
REMARK   12  A    between atoms: C_31  and  O_33 
REMARK   13  A    between atoms: C_42  and  C_43 
REMARK   14  A    between atoms: C_43  and  C_44 
REMARK   15  A    between atoms: C_44  and  C_45 
REMARK   16  A    between atoms: C_45  and  O_47 
ROOT
HETATM    1  C   UNK     0      -9.088   4.717   6.998  0.00  0.00     0.051 C 
HETATM    2  C   UNK     0     -10.539   5.081   7.238  0.00  0.00    -0.031 A 
HETATM    3  C   UNK     0     -11.254   6.184   6.797  0.00  0.00     0.021 A 
HETATM    4  N   UNK     0     -12.517   6.112   7.280  0.00  0.00    -0.361 N 
HETATM    5  C   UNK     0     -12.625   4.984   8.011  0.00  0.00     0.022 A 
HETATM    6  C   UNK     0     -11.405   4.316   8.008  0.00  0.00    -0.027 A 
HETATM    7  C   UNK     0     -13.828   4.394   8.678  0.00  0.00     0.115 C 
HETATM    8  C   UNK     0     -15.126   4.420   7.891  0.00  0.00     0.021 A 
HETATM    9  N   UNK     0     -15.305   4.273   6.569  0.00  0.00    -0.361 N 
HETATM   10  C   UNK     0     -16.615   4.460   6.299  0.00  0.00     0.022 A 
HETATM   11  C   UNK     0     -17.300   4.725   7.482  0.00  0.00    -0.027 A 
HETATM   12  C   UNK     0     -16.368   4.701   8.488  0.00  0.00    -0.031 A 
HETATM   13  C   UNK     0     -16.659   4.932   9.954  0.00  0.00     0.051 C 
HETATM   14  C   UNK     0     -17.261   4.450   4.917  0.00  0.00     0.115 C 
HETATM   15  C   UNK     0     -16.724   5.517   3.978  0.00  0.00     0.021 A 
HETATM   16  N   UNK     0     -15.451   5.693   3.576  0.00  0.00    -0.361 N 
HETATM   17  C   UNK     0     -15.380   6.783   2.809  0.00  0.00     0.022 A 
HETATM   18  C   UNK     0     -16.670   7.340   2.699  0.00  0.00    -0.027 A 
HETATM   19  C   UNK     0     -17.503   6.537   3.434  0.00  0.00    -0.031 A 
HETATM   20  C   UNK     0     -18.999   6.759   3.555  0.00  0.00     0.051 C 
HETATM   21  C   UNK     0     -14.180   7.447   2.173  0.00  0.00     0.115 C 
HETATM   22  C   UNK     0     -12.871   7.391   2.926  0.00  0.00     0.022 A 
HETATM   23  N   UNK     0     -12.664   7.529   4.242  0.00  0.00    -0.361 N 
HETATM   24  C   UNK     0     -11.367   7.262   4.497  0.00  0.00     0.021 A 
HETATM   25  C   UNK     0     -10.721   6.954   3.315  0.00  0.00    -0.031 A 
HETATM   26  C   UNK     0      -9.261   6.625   3.084  0.00  0.00     0.051 C 
HETATM   27  C   UNK     0     -11.663   7.030   2.295  0.00  0.00    -0.027 A 
HETATM   28  C   UNK     0     -10.680   7.199   5.850  0.00  0.00     0.115 C 
HETATM   29  H   UNK     0     -13.312   6.880   7.133  0.00  0.00     0.165 HD
HETATM   30  H   UNK     0     -14.517   3.988   5.829  0.00  0.00     0.165 HD
HETATM   31  H   UNK     0     -14.593   5.006   3.798  0.00  0.00     0.165 HD
HETATM   32  H   UNK     0     -13.422   7.859   4.999  0.00  0.00     0.165 HD
ENDROOT
BRANCH   6  33
HETATM   33  C   UNK     0     -11.005   3.025   8.675  0.00  0.00     0.051 C 
BRANCH  33  34
HETATM   34  C   UNK     0     -10.973   1.893   7.675  0.00  0.00     0.114 C 
BRANCH  34  35
HETATM   35  C   UNK     0      -9.595   1.325   7.687  0.00  0.00     0.139 C 
HETATM   36  O   UNK     0      -8.816   1.564   8.655  0.00  0.00    -0.650 OA
BRANCH  35  37
HETATM   37  O   UNK     0      -9.107   0.521   6.664  0.00  0.00    -0.776 OA
HETATM   38  H   UNK     0      -9.709   0.134   5.955  0.00  0.00     0.167 HD
ENDBRANCH  35  37
ENDBRANCH  34  35
ENDBRANCH  33  34
ENDBRANCH   6  33
BRANCH  27  39
HETATM   39  C   UNK     0     -11.322   6.831   0.860  0.00  0.00     0.051 C 
BRANCH  39  40
HETATM   40  C   UNK     0     -11.226   8.011   0.000  0.00  0.00     0.114 C 
BRANCH  40  41
HETATM   41  C   UNK     0     -12.063   8.184  -1.166  0.00  0.00     0.139 C 
HETATM   42  O   UNK     0     -11.721   8.835  -2.162  0.00  0.00    -0.650 OA
BRANCH  41  43
HETATM   43  O   UNK     0     -13.353   7.581  -1.187  0.00  0.00    -0.776 OA
HETATM   44  H   UNK     0     -13.342   6.568  -1.202  0.00  0.00     0.167 HD
ENDBRANCH  41  43
ENDBRANCH  40  41
ENDBRANCH  39  40
ENDBRANCH  27  39
BRANCH  11  45
HETATM   45  C   UNK     0     -18.768   4.990   7.680  0.00  0.00     0.051 C 
BRANCH  45  46
HETATM   46  C   UNK     0     -19.521   3.839   8.241  0.00  0.00     0.114 C 
BRANCH  46  47
HETATM   47  C   UNK     0     -20.602   3.503   7.270  0.00  0.00     0.139 C 
HETATM   48  O   UNK     0     -21.662   4.142   7.320  0.00  0.00    -0.650 OA
BRANCH  47  49
HETATM   49  O   UNK     0     -20.428   2.508   6.341  0.00  0.00    -0.776 OA
HETATM   50  H   UNK     0     -19.570   2.428   5.783  0.00  0.00     0.167 HD
ENDBRANCH  47  49
ENDBRANCH  46  47
ENDBRANCH  45  46
ENDBRANCH  11  45
BRANCH  18  51
HETATM   51  C   UNK     0     -17.089   8.558   1.917  0.00  0.00     0.051 C 
BRANCH  51  52
HETATM   52  C   UNK     0     -17.268   8.099   0.477  0.00  0.00     0.114 C 
BRANCH  52  53
HETATM   53  C   UNK     0     -16.710   9.071  -0.482  0.00  0.00     0.139 C 
HETATM   54  O   UNK     0     -17.394   9.461  -1.442  0.00  0.00    -0.650 OA
BRANCH  53  55
HETATM   55  O   UNK     0     -15.429   9.538  -0.309  0.00  0.00    -0.776 OA
HETATM   56  H   UNK     0     -14.747   9.158   0.305  0.00  0.00     0.167 HD
ENDBRANCH  53  55
ENDBRANCH  52  53
ENDBRANCH  51  52
ENDBRANCH  18  51
TORSDOF 16
ENDMDL
MODEL 5
REMARK VINA RESULT:      -7.6      3.382     10.782
REMARK  16 active torsions:
REMARK  status: ('A' for Active; 'I' for Inactive)
REMARK    1  A    between atoms: C_6  and  C_7 
REMARK    2  A    between atoms: C_7  and  C_8 
REMARK    3  A    between atoms: C_8  and  C_9 
REMARK    4  A    between atoms: C_9  and  O_11 
REMARK    5  A    between atoms: C_16  and  C_17 
REMARK    6  A    between atoms: C_17  and  C_18 
REMARK    7  A    between atoms: C_18  and  C_19 
REMARK    8  A    between atoms: C_19  and  O_21 
REMARK    9  A    between atoms: C_28  and  C_29 
REMARK   10  A    between atoms: C_29  and  C_30 
REMARK   11  A    between atoms: C_30  and  C_31 
REMARK   12  A    between atoms: C_31  and  O_33 
REMARK   13  A    between atoms: C_42  and  C_43 
REMARK   14  A    between atoms: C_43  and  C_44 
REMARK   15  A    between atoms: C_44  and  C_45 
REMARK   16  A    between atoms: C_45  and  O_47 
ROOT
HETATM    1  C   UNK     0     -12.879   6.378   1.364  0.00  0.00     0.051 C 
HETATM    2  C   UNK     0     -11.830   6.201   2.442  0.00  0.00    -0.031 A 
HETATM    3  C   UNK     0     -11.861   6.591   3.772  0.00  0.00     0.021 A 
HETATM    4  N   UNK     0     -10.687   6.254   4.358  0.00  0.00    -0.361 N 
HETATM    5  C   UNK     0      -9.913   5.650   3.433  0.00  0.00     0.022 A 
HETATM    6  C   UNK     0     -10.596   5.603   2.222  0.00  0.00    -0.027 A 
HETATM    7  C   UNK     0      -8.569   5.010   3.588  0.00  0.00     0.115 C 
HETATM    8  C   UNK     0      -8.360   4.153   4.824  0.00  0.00     0.021 A 
HETATM    9  N   UNK     0      -9.243   3.359   5.449  0.00  0.00    -0.361 N 
HETATM   10  C   UNK     0      -8.650   2.863   6.556  0.00  0.00     0.022 A 
HETATM   11  C   UNK     0      -7.347   3.345   6.641  0.00  0.00    -0.027 A 
HETATM   12  C   UNK     0      -7.158   4.158   5.553  0.00  0.00    -0.031 A 
HETATM   13  C   UNK     0      -5.881   4.899   5.227  0.00  0.00     0.051 C 
HETATM   14  C   UNK     0      -9.303   1.963   7.602  0.00  0.00     0.115 C 
HETATM   15  C   UNK     0     -10.498   2.594   8.297  0.00  0.00     0.021 A 
HETATM   16  N   UNK     0     -11.629   3.054   7.731  0.00  0.00    -0.361 N 
HETATM   17  C   UNK     0     -12.403   3.597   8.674  0.00  0.00     0.022 A 
HETATM   18  C   UNK     0     -11.748   3.476   9.916  0.00  0.00    -0.027 A 
HETATM   19  C   UNK     0     -10.557   2.845   9.667  0.00  0.00    -0.031 A 
HETATM   20  C   UNK     0      -9.553   2.482  10.745  0.00  0.00     0.051 C 
HETATM   21  C   UNK     0     -13.730   4.309   8.550  0.00  0.00     0.115 C 
HETATM   22  C   UNK     0     -13.969   5.130   7.305  0.00  0.00     0.022 A 
HETATM   23  N   UNK     0     -13.107   5.927   6.658  0.00  0.00    -0.361 N 
HETATM   24  C   UNK     0     -13.693   6.346   5.519  0.00  0.00     0.021 A 
HETATM   25  C   UNK     0     -14.965   5.816   5.434  0.00  0.00    -0.031 A 
HETATM   26  C   UNK     0     -16.018   6.028   4.366  0.00  0.00     0.051 C 
HETATM   27  C   UNK     0     -15.165   5.034   6.566  0.00  0.00    -0.027 A 
HETATM   28  C   UNK     0     -13.079   7.191   4.415  0.00  0.00     0.115 C 
HETATM   29  H   UNK     0     -10.399   6.481   5.410  0.00  0.00     0.165 HD
HETATM   30  H   UNK     0     -10.269   3.105   5.085  0.00  0.00     0.165 HD
HETATM   31  H   UNK     0     -11.910   2.952   6.650  0.00  0.00     0.165 HD
HETATM   32  H   UNK     0     -12.093   6.235   7.022  0.00  0.00     0.165 HD
ENDROOT
BRANCH   6  33
HETATM   33  C   UNK     0     -10.170   5.042   0.889  0.00  0.00     0.051 C 
BRANCH  33  34
HETATM   34  C   UNK     0      -9.529   6.113   0.038  0.00  0.00     0.114 C 
BRANCH  34  35
HETATM   35  C   UNK     0      -8.263   5.549  -0.511  0.00  0.00     0.139 C 
HETATM   36  O   UNK     0      -7.751   4.512   0.004  0.00  0.00    -0.650 OA
BRANCH  35  37
HETATM   37  O   UNK     0      -7.597   6.115  -1.591  0.00  0.00    -0.776 OA
HETATM   38  H   UNK     0      -7.160   7.021  -1.535  0.00  0.00     0.167 HD
ENDBRANCH  35  37
ENDBRANCH  34  35
ENDBRANCH  33  34
ENDBRANCH   6  33
BRANCH  27  39
HETATM   39  C   UNK     0     -16.454   4.352   6.863  0.00  0.00     0.051 C 
BRANCH  39  40
HETATM   40  C   UNK     0     -16.851   3.222   6.025  0.00  0.00     0.114 C 
BRANCH  40  41
HETATM   41  C   UNK     0     -17.356   1.987   6.583  0.00  0.00     0.139 C 
HETATM   42  O   UNK     0     -16.961   0.867   6.233  0.00  0.00    -0.650 OA
BRANCH  41  43
HETATM   43  O   UNK     0     -18.360   2.044   7.591  0.00  0.00    -0.776 OA
HETATM   44  H   UNK     0     -19.203   1.528   7.372  0.00  0.00     0.167 HD
ENDBRANCH  41  43
ENDBRANCH  40  41
ENDBRANCH  39  40
ENDBRANCH  27  39
BRANCH  11  45
HETATM   45  C   UNK     0      -6.306   3.063   7.691  0.00  0.00     0.051 C 
BRANCH  45  46
HETATM   46  C   UNK     0      -5.204   2.180   7.230  0.00  0.00     0.114 C 
BRANCH  46  47
HETATM   47  C   UNK     0      -3.926   2.788   7.699  0.00  0.00     0.139 C 
HETATM   48  O   UNK     0      -3.180   3.317   6.862  0.00  0.00    -0.650 OA
BRANCH  47  49
HETATM   49  O   UNK     0      -3.581   2.763   9.027  0.00  0.00    -0.776 OA
HETATM   50  H   UNK     0      -4.279   2.636   9.769  0.00  0.00     0.167 HD
ENDBRANCH  47  49
ENDBRANCH  46  47
ENDBRANCH  45  46
ENDBRANCH  11  45
BRANCH  18  51
HETATM   51  C   UNK     0     -12.241   3.918  11.269  0.00  0.00     0.051 C 
BRANCH  51  52
HETATM   52  C   UNK     0     -13.130   2.797  11.787  0.00  0.00     0.114 C 
BRANCH  52  53
HETATM   53  C   UNK     0     -14.462   3.291  12.185  0.00  0.00     0.139 C 
HETATM   54  O   UNK     0     -15.268   2.527  12.739  0.00  0.00    -0.650 OA
BRANCH  53  55
HETATM   55  O   UNK     0     -14.804   4.598  11.936  0.00  0.00    -0.776 OA
HETATM   56  H   UNK     0     -14.244   5.395  12.126  0.00  0.00     0.167 HD
ENDBRANCH  53  55
ENDBRANCH  52  53
ENDBRANCH  51  52
ENDBRANCH  18  51
TORSDOF 16
ENDMDL
MODEL 6
REMARK VINA RESULT:      -7.5      2.455      5.503
REMARK  16 active torsions:
REMARK  status: ('A' for Active; 'I' for Inactive)
REMARK    1  A    between atoms: C_6  and  C_7 
REMARK    2  A    between atoms: C_7  and  C_8 
REMARK    3  A    between atoms: C_8  and  C_9 
REMARK    4  A    between atoms: C_9  and  O_11 
REMARK    5  A    between atoms: C_16  and  C_17 
REMARK    6  A    between atoms: C_17  and  C_18 
REMARK    7  A    between atoms: C_18  and  C_19 
REMARK    8  A    between atoms: C_19  and  O_21 
REMARK    9  A    between atoms: C_28  and  C_29 
REMARK   10  A    between atoms: C_29  and  C_30 
REMARK   11  A    between atoms: C_30  and  C_31 
REMARK   12  A    between atoms: C_31  and  O_33 
REMARK   13  A    between atoms: C_42  and  C_43 
REMARK   14  A    between atoms: C_43  and  C_44 
REMARK   15  A    between atoms: C_44  and  C_45 
REMARK   16  A    between atoms: C_45  and  O_47 
ROOT
HETATM    1  C   UNK     0     -16.910   6.108   6.000  0.00  0.00     0.051 C 
HETATM    2  C   UNK     0     -15.773   6.629   5.145  0.00  0.00    -0.031 A 
HETATM    3  C   UNK     0     -14.518   7.076   5.527  0.00  0.00     0.021 A 
HETATM    4  N   UNK     0     -13.839   7.479   4.427  0.00  0.00    -0.361 N 
HETATM    5  C   UNK     0     -14.630   7.290   3.351  0.00  0.00     0.022 A 
HETATM    6  C   UNK     0     -15.849   6.761   3.764  0.00  0.00    -0.027 A 
HETATM    7  C   UNK     0     -14.325   7.484   1.898  0.00  0.00     0.115 C 
HETATM    8  C   UNK     0     -12.967   7.002   1.417  0.00  0.00     0.021 A 
HETATM    9  N   UNK     0     -12.270   5.929   1.820  0.00  0.00    -0.361 N 
HETATM   10  C   UNK     0     -11.077   5.942   1.188  0.00  0.00     0.022 A 
HETATM   11  C   UNK     0     -11.008   7.050   0.348  0.00  0.00    -0.027 A 
HETATM   12  C   UNK     0     -12.196   7.722   0.487  0.00  0.00    -0.031 A 
HETATM   13  C   UNK     0     -12.573   8.992  -0.243  0.00  0.00     0.051 C 
HETATM   14  C   UNK     0      -9.939   4.946   1.390  0.00  0.00     0.115 C 
HETATM   15  C   UNK     0      -9.396   4.910   2.809  0.00  0.00     0.021 A 
HETATM   16  N   UNK     0     -10.073   4.636   3.940  0.00  0.00    -0.361 N 
HETATM   17  C   UNK     0      -9.255   4.776   4.986  0.00  0.00     0.022 A 
HETATM   18  C   UNK     0      -7.982   5.151   4.513  0.00  0.00    -0.027 A 
HETATM   19  C   UNK     0      -8.083   5.230   3.148  0.00  0.00    -0.031 A 
HETATM   20  C   UNK     0      -6.921   5.572   2.234  0.00  0.00     0.051 C 
HETATM   21  C   UNK     0      -9.539   4.655   6.466  0.00  0.00     0.115 C 
HETATM   22  C   UNK     0     -10.902   5.089   6.952  0.00  0.00     0.022 A 
HETATM   23  N   UNK     0     -11.622   6.151   6.566  0.00  0.00    -0.361 N 
HETATM   24  C   UNK     0     -12.835   6.074   7.148  0.00  0.00     0.021 A 
HETATM   25  C   UNK     0     -12.895   4.942   7.937  0.00  0.00    -0.031 A 
HETATM   26  C   UNK     0     -14.027   4.450   8.815  0.00  0.00     0.051 C 
HETATM   27  C   UNK     0     -11.669   4.295   7.828  0.00  0.00    -0.027 A 
HETATM   28  C   UNK     0     -14.024   6.997   6.944  0.00  0.00     0.115 C 
HETATM   29  H   UNK     0     -12.820   7.931   4.422  0.00  0.00     0.165 HD
HETATM   30  H   UNK     0     -12.636   5.132   2.513  0.00  0.00     0.165 HD
HETATM   31  H   UNK     0     -11.138   4.289   4.000  0.00  0.00     0.165 HD
HETATM   32  H   UNK     0     -11.264   6.988   5.911  0.00  0.00     0.165 HD
ENDROOT
BRANCH   6  33
HETATM   33  C   UNK     0     -17.065   6.381   2.958  0.00  0.00     0.051 C 
BRANCH  33  34
HETATM   34  C   UNK     0     -17.787   7.612   2.465  0.00  0.00     0.114 C 
BRANCH  34  35
HETATM   35  C   UNK     0     -18.959   7.831   3.361  0.00  0.00     0.139 C 
HETATM   36  O   UNK     0     -19.418   8.997   3.534  0.00  0.00    -0.650 OA
BRANCH  35  37
HETATM   37  O   UNK     0     -19.593   6.793   4.032  0.00  0.00    -0.776 OA
HETATM   38  H   UNK     0     -20.207   6.958   4.814  0.00  0.00     0.167 HD
ENDBRANCH  35  37
ENDBRANCH  34  35
ENDBRANCH  33  34
ENDBRANCH   6  33
BRANCH  27  39
HETATM   39  C   UNK     0     -11.330   3.066   8.596  0.00  0.00     0.051 C 
BRANCH  39  40
HETATM   40  C   UNK     0     -10.977   1.857   7.851  0.00  0.00     0.114 C 
BRANCH  40  41
HETATM   41  C   UNK     0      -9.614   1.388   7.745  0.00  0.00     0.139 C 
HETATM   42  O   UNK     0      -8.716   1.712   8.534  0.00  0.00    -0.650 OA
BRANCH  41  43
HETATM   43  O   UNK     0      -9.268   0.506   6.682  0.00  0.00    -0.776 OA
HETATM   44  H   UNK     0     -10.049  -0.008   6.293  0.00  0.00     0.167 HD
ENDBRANCH  41  43
ENDBRANCH  40  41
ENDBRANCH  39  40
ENDBRANCH  27  39
BRANCH  11  45
HETATM   45  C   UNK     0      -9.885   7.476  -0.558  0.00  0.00     0.051 C 
BRANCH  45  46
HETATM   46  C   UNK     0      -8.928   8.424   0.067  0.00  0.00     0.114 C 
BRANCH  46  47
HETATM   47  C   UNK     0      -8.588   9.451  -0.959  0.00  0.00     0.139 C 
HETATM   48  O   UNK     0      -7.430   9.490  -1.398  0.00  0.00    -0.650 OA
BRANCH  47  49
HETATM   49  O   UNK     0      -9.536  10.335  -1.409  0.00  0.00    -0.776 OA
HETATM   50  H   UNK     0     -10.154  10.844  -0.767  0.00  0.00     0.167 HD
ENDBRANCH  47  49
ENDBRANCH  46  47
ENDBRANCH  45  46
ENDBRANCH  11  45
BRANCH  18  51
HETATM   51  C   UNK     0      -6.731   5.399   5.316  0.00  0.00     0.051 C 
BRANCH  51  52
HETATM   52  C   UNK     0      -5.919   4.114   5.248  0.00  0.00     0.114 C 
BRANCH  52  53
HETATM   53  C   UNK     0      -6.291   3.172   6.321  0.00  0.00     0.139 C 
HETATM   54  O   UNK     0      -5.999   3.427   7.500  0.00  0.00    -0.650 OA
BRANCH  53  55
HETATM   55  O   UNK     0      -6.957   2.012   6.007  0.00  0.00    -0.776 OA
HETATM   56  H   UNK     0      -7.485   1.454   6.635  0.00  0.00     0.167 HD
ENDBRANCH  53  55
ENDBRANCH  52  53
ENDBRANCH  51  52
ENDBRANCH  18  51
TORSDOF 16
ENDMDL
MODEL 7
REMARK VINA RESULT:      -7.5      6.760     11.734
REMARK  16 active torsions:
REMARK  status: ('A' for Active; 'I' for Inactive)
REMARK    1  A    between atoms: C_6  and  C_7 
REMARK    2  A    between atoms: C_7  and  C_8 
REMARK    3  A    between atoms: C_8  and  C_9 
REMARK    4  A    between atoms: C_9  and  O_11 
REMARK    5  A    between atoms: C_16  and  C_17 
REMARK    6  A    between atoms: C_17  and  C_18 
REMARK    7  A    between atoms: C_18  and  C_19 
REMARK    8  A    between atoms: C_19  and  O_21 
REMARK    9  A    between atoms: C_28  and  C_29 
REMARK   10  A    between atoms: C_29  and  C_30 
REMARK   11  A    between atoms: C_30  and  C_31 
REMARK   12  A    between atoms: C_31  and  O_33 
REMARK   13  A    between atoms: C_42  and  C_43 
REMARK   14  A    between atoms: C_43  and  C_44 
REMARK   15  A    between atoms: C_44  and  C_45 
REMARK   16  A    between atoms: C_45  and  O_47 
ROOT
HETATM    1  C   UNK     0       0.941   5.423   9.078  0.00  0.00     0.051 C 
HETATM    2  C   UNK     0      -0.573   5.391   9.141  0.00  0.00    -0.031 A 
HETATM    3  C   UNK     0      -1.497   6.216   8.519  0.00  0.00     0.021 A 
HETATM    4  N   UNK     0      -2.744   5.837   8.887  0.00  0.00    -0.361 N 
HETATM    5  C   UNK     0      -2.635   4.784   9.722  0.00  0.00     0.022 A 
HETATM    6  C   UNK     0      -1.290   4.480   9.905  0.00  0.00    -0.027 A 
HETATM    7  C   UNK     0      -3.708   3.939  10.334  0.00  0.00     0.115 C 
HETATM    8  C   UNK     0      -4.863   3.544   9.430  0.00  0.00     0.021 A 
HETATM    9  N   UNK     0      -4.838   3.251   8.121  0.00  0.00    -0.361 N 
HETATM   10  C   UNK     0      -6.109   3.049   7.712  0.00  0.00     0.022 A 
HETATM   11  C   UNK     0      -6.975   3.206   8.790  0.00  0.00    -0.027 A 
HETATM   12  C   UNK     0      -6.197   3.518   9.876  0.00  0.00    -0.031 A 
HETATM   13  C   UNK     0      -6.711   3.774  11.275  0.00  0.00     0.051 C 
HETATM   14  C   UNK     0      -6.560   2.753   6.285  0.00  0.00     0.115 C 
HETATM   15  C   UNK     0      -6.218   3.850   5.291  0.00  0.00     0.021 A 
HETATM   16  N   UNK     0      -4.999   4.338   4.992  0.00  0.00    -0.361 N 
HETATM   17  C   UNK     0      -5.129   5.342   4.123  0.00  0.00     0.022 A 
HETATM   18  C   UNK     0      -6.497   5.511   3.833  0.00  0.00    -0.027 A 
HETATM   19  C   UNK     0      -7.168   4.570   4.570  0.00  0.00    -0.031 A 
HETATM   20  C   UNK     0      -8.674   4.380   4.526  0.00  0.00     0.051 C 
HETATM   21  C   UNK     0      -4.081   6.259   3.534  0.00  0.00     0.115 C 
HETATM   22  C   UNK     0      -2.904   6.625   4.407  0.00  0.00     0.022 A 
HETATM   23  N   UNK     0      -2.899   6.917   5.714  0.00  0.00    -0.361 N 
HETATM   24  C   UNK     0      -1.617   7.038   6.116  0.00  0.00     0.021 A 
HETATM   25  C   UNK     0      -0.777   6.829   5.040  0.00  0.00    -0.031 A 
HETATM   26  C   UNK     0       0.735   6.898   4.983  0.00  0.00     0.051 C 
HETATM   27  C   UNK     0      -1.577   6.563   3.934  0.00  0.00    -0.027 A 
HETATM   28  C   UNK     0      -1.104   7.273   7.526  0.00  0.00     0.115 C 
HETATM   29  H   UNK     0      -3.691   6.342   8.585  0.00  0.00     0.165 HD
HETATM   30  H   UNK     0      -3.921   3.138   7.493  0.00  0.00     0.165 HD
HETATM   31  H   UNK     0      -4.022   3.934   5.366  0.00  0.00     0.165 HD
HETATM   32  H   UNK     0      -3.802   7.084   6.357  0.00  0.00     0.165 HD
ENDROOT
BRANCH   6  33
HETATM   33  C   UNK     0      -0.643   3.405  10.741  0.00  0.00     0.051 C 
BRANCH  33  34
HETATM   34  C   UNK     0      -0.340   2.185   9.904  0.00  0.00     0.114 C 
BRANCH  34  35
HETATM   35  C   UNK     0      -0.139   1.041  10.838  0.00  0.00     0.139 C 
HETATM   36  O   UNK     0       0.833   0.247  10.674  0.00  0.00    -0.650 OA
BRANCH  35  37
HETATM   37  O   UNK     0      -0.985   0.793  11.913  0.00  0.00    -0.776 OA
HETATM   38  H   UNK     0      -0.659   0.815  12.866  0.00  0.00     0.167 HD
ENDBRANCH  35  37
ENDBRANCH  34  35
ENDBRANCH  33  34
ENDBRANCH   6  33
BRANCH  27  39
HETATM   39  C   UNK     0      -1.027   6.354   2.567  0.00  0.00     0.051 C 
BRANCH  39  40
HETATM   40  C   UNK     0      -0.905   4.984   2.070  0.00  0.00     0.114 C 
BRANCH  40  41
HETATM   41  C   UNK     0      -1.784   4.452   1.053  0.00  0.00     0.139 C 
HETATM   42  O   UNK     0      -2.975   4.178   1.255  0.00  0.00    -0.650 OA
BRANCH  41  43
HETATM   43  O   UNK     0      -1.270   4.223  -0.254  0.00  0.00    -0.776 OA
HETATM   44  H   UNK     0      -0.737   3.367  -0.351  0.00  0.00     0.167 HD
ENDBRANCH  41  43
ENDBRANCH  40  41
ENDBRANCH  39  40
ENDBRANCH  27  39
BRANCH  11  45
HETATM   45  C   UNK     0      -8.474   3.071   8.821  0.00  0.00     0.051 C 
BRANCH  45  46
HETATM   46  C   UNK     0      -8.954   1.667   8.887  0.00  0.00     0.114 C 
BRANCH  46  47
HETATM   47  C   UNK     0      -9.711   1.400   7.630  0.00  0.00     0.139 C 
HETATM   48  O   UNK     0     -10.788   1.986   7.452  0.00  0.00    -0.650 OA
BRANCH  47  49
HETATM   49  O   UNK     0      -9.227   0.524   6.691  0.00  0.00    -0.776 OA
HETATM   50  H   UNK     0      -9.787   0.227   5.884  0.00  0.00     0.167 HD
ENDBRANCH  47  49
ENDBRANCH  46  47
ENDBRANCH  45  46
ENDBRANCH  11  45
BRANCH  18  51
HETATM   51  C   UNK     0      -7.129   6.502   2.890  0.00  0.00     0.051 C 
BRANCH  51  52
HETATM   52  C   UNK     0      -7.508   5.719   1.641  0.00  0.00     0.114 C 
BRANCH  52  53
HETATM   53  C   UNK     0      -6.540   5.928   0.547  0.00  0.00     0.139 C 
HETATM   54  O   UNK     0      -6.565   6.981  -0.111  0.00  0.00    -0.650 OA
BRANCH  53  55
HETATM   55  O   UNK     0      -5.617   4.952   0.260  0.00  0.00    -0.776 OA
HETATM   56  H   UNK     0      -5.009   4.936  -0.525  0.00  0.00     0.167 HD
ENDBRANCH  53  55
ENDBRANCH  52  53
ENDBRANCH  51  52
ENDBRANCH  18  51
TORSDOF 16
ENDMDL
MODEL 8
REMARK VINA RESULT:      -7.5      2.276      7.856
REMARK  16 active torsions:
REMARK  status: ('A' for Active; 'I' for Inactive)
REMARK    1  A    between atoms: C_6  and  C_7 
REMARK    2  A    between atoms: C_7  and  C_8 
REMARK    3  A    between atoms: C_8  and  C_9 
REMARK    4  A    between atoms: C_9  and  O_11 
REMARK    5  A    between atoms: C_16  and  C_17 
REMARK    6  A    between atoms: C_17  and  C_18 
REMARK    7  A    between atoms: C_18  and  C_19 
REMARK    8  A    between atoms: C_19  and  O_21 
REMARK    9  A    between atoms: C_28  and  C_29 
REMARK   10  A    between atoms: C_29  and  C_30 
REMARK   11  A    between atoms: C_30  and  C_31 
REMARK   12  A    between atoms: C_31  and  O_33 
REMARK   13  A    between atoms: C_42  and  C_43 
REMARK   14  A    between atoms: C_43  and  C_44 
REMARK   15  A    between atoms: C_44  and  C_45 
REMARK   16  A    between atoms: C_45  and  O_47 
ROOT
HETATM    1  C   UNK     0     -19.149   5.068   7.600  0.00  0.00     0.051 C 
HETATM    2  C   UNK     0     -17.726   4.626   7.327  0.00  0.00    -0.031 A 
HETATM    3  C   UNK     0     -17.123   4.294   6.125  0.00  0.00     0.021 A 
HETATM    4  N   UNK     0     -15.841   3.926   6.360  0.00  0.00    -0.361 N 
HETATM    5  C   UNK     0     -15.611   4.026   7.686  0.00  0.00     0.022 A 
HETATM    6  C   UNK     0     -16.771   4.458   8.322  0.00  0.00    -0.027 A 
HETATM    7  C   UNK     0     -14.339   3.827   8.450  0.00  0.00     0.115 C 
HETATM    8  C   UNK     0     -13.078   4.410   7.837  0.00  0.00     0.021 A 
HETATM    9  N   UNK     0     -12.937   5.547   7.137  0.00  0.00    -0.361 N 
HETATM   10  C   UNK     0     -11.659   5.620   6.710  0.00  0.00     0.022 A 
HETATM   11  C   UNK     0     -10.955   4.504   7.154  0.00  0.00    -0.027 A 
HETATM   12  C   UNK     0     -11.843   3.738   7.865  0.00  0.00    -0.031 A 
HETATM   13  C   UNK     0     -11.519   2.426   8.543  0.00  0.00     0.051 C 
HETATM   14  C   UNK     0     -11.066   6.712   5.824  0.00  0.00     0.115 C 
HETATM   15  C   UNK     0     -11.725   6.824   4.459  0.00  0.00     0.021 A 
HETATM   16  N   UNK     0     -13.022   7.065   4.191  0.00  0.00    -0.361 N 
HETATM   17  C   UNK     0     -13.213   7.016   2.870  0.00  0.00     0.022 A 
HETATM   18  C   UNK     0     -11.979   6.739   2.248  0.00  0.00    -0.027 A 
HETATM   19  C   UNK     0     -11.055   6.623   3.254  0.00  0.00    -0.031 A 
HETATM   20  C   UNK     0      -9.579   6.360   3.018  0.00  0.00     0.051 C 
HETATM   21  C   UNK     0     -14.487   7.145   2.067  0.00  0.00     0.115 C 
HETATM   22  C   UNK     0     -15.758   6.608   2.684  0.00  0.00     0.022 A 
HETATM   23  N   UNK     0     -15.927   5.482   3.389  0.00  0.00    -0.361 N 
HETATM   24  C   UNK     0     -17.186   5.468   3.870  0.00  0.00     0.021 A 
HETATM   25  C   UNK     0     -17.847   6.609   3.456  0.00  0.00    -0.031 A 
HETATM   26  C   UNK     0     -19.283   7.022   3.707  0.00  0.00     0.051 C 
HETATM   27  C   UNK     0     -16.954   7.354   2.695  0.00  0.00    -0.027 A 
HETATM   28  C   UNK     0     -17.815   4.445   4.800  0.00  0.00     0.115 C 
HETATM   29  H   UNK     0     -15.119   3.561   5.594  0.00  0.00     0.165 HD
HETATM   30  H   UNK     0     -13.725   6.324   6.986  0.00  0.00     0.165 HD
HETATM   31  H   UNK     0     -13.811   7.322   4.945  0.00  0.00     0.165 HD
HETATM   32  H   UNK     0     -15.171   4.664   3.517  0.00  0.00     0.165 HD
ENDROOT
BRANCH   6  33
HETATM   33  C   UNK     0     -17.037   4.718   9.783  0.00  0.00     0.051 C 
BRANCH  33  34
HETATM   34  C   UNK     0     -16.917   6.191  10.095  0.00  0.00     0.114 C 
BRANCH  34  35
HETATM   35  C   UNK     0     -15.466   6.497  10.253  0.00  0.00     0.139 C 
HETATM   36  O   UNK     0     -14.845   6.123  11.291  0.00  0.00    -0.650 OA
BRANCH  35  37
HETATM   37  O   UNK     0     -14.737   7.190   9.294  0.00  0.00    -0.776 OA
HETATM   38  H   UNK     0     -15.134   7.951   8.768  0.00  0.00     0.167 HD
ENDBRANCH  35  37
ENDBRANCH  34  35
ENDBRANCH  33  34
ENDBRANCH   6  33
BRANCH  27  39
HETATM   39  C   UNK     0     -17.330   8.623   2.015  0.00  0.00     0.051 C 
BRANCH  39  40
HETATM   40  C   UNK     0     -17.712   8.567   0.605  0.00  0.00     0.114 C 
BRANCH  40  41
HETATM   41  C   UNK     0     -17.031   9.340  -0.410  0.00  0.00     0.139 C 
HETATM   42  O   UNK     0     -17.494   9.542  -1.540  0.00  0.00    -0.650 OA
BRANCH  41  43
HETATM   43  O   UNK     0     -15.760   9.906  -0.109  0.00  0.00    -0.776 OA
HETATM   44  H   UNK     0     -15.370   9.613   0.778  0.00  0.00     0.167 HD
ENDBRANCH  41  43
ENDBRANCH  40  41
ENDBRANCH  39  40
ENDBRANCH  27  39
BRANCH  11  45
HETATM   45  C   UNK     0      -9.508   4.155   6.933  0.00  0.00     0.051 C 
BRANCH  45  46
HETATM   46  C   UNK     0      -9.220   3.581   5.594  0.00  0.00     0.114 C 
BRANCH  46  47
HETATM   47  C   UNK     0      -9.207   2.097   5.743  0.00  0.00     0.139 C 
HETATM   48  O   UNK     0     -10.138   1.444   5.253  0.00  0.00    -0.650 OA
BRANCH  47  49
HETATM   49  O   UNK     0      -8.186   1.467   6.411  0.00  0.00    -0.776 OA
HETATM   50  H   UNK     0      -8.316   1.057   7.343  0.00  0.00     0.167 HD
ENDBRANCH  47  49
ENDBRANCH  46  47
ENDBRANCH  45  46
ENDBRANCH  11  45
BRANCH  18  51
HETATM   51  C   UNK     0     -11.693   6.614   0.774  0.00  0.00     0.051 C 
BRANCH  51  52
HETATM   52  C   UNK     0     -11.272   7.998   0.303  0.00  0.00     0.114 C 
BRANCH  52  53
HETATM   53  C   UNK     0     -12.092   8.466  -0.831  0.00  0.00     0.139 C 
HETATM   54  O   UNK     0     -13.255   8.857  -0.638  0.00  0.00    -0.650 OA
BRANCH  53  55
HETATM   55  O   UNK     0     -11.564   8.462  -2.099  0.00  0.00    -0.776 OA
HETATM   56  H   UNK     0     -12.046   8.216  -2.932  0.00  0.00     0.167 HD
ENDBRANCH  53  55
ENDBRANCH  52  53
ENDBRANCH  51  52
ENDBRANCH  18  51
TORSDOF 16
ENDMDL
MODEL 9
REMARK VINA RESULT:      -7.5      2.646      4.969
REMARK  16 active torsions:
REMARK  status: ('A' for Active; 'I' for Inactive)
REMARK    1  A    between atoms: C_6  and  C_7 
REMARK    2  A    between atoms: C_7  and  C_8 
REMARK    3  A    between atoms: C_8  and  C_9 
REMARK    4  A    between atoms: C_9  and  O_11 
REMARK    5  A    between atoms: C_16  and  C_17 
REMARK    6  A    between atoms: C_17  and  C_18 
REMARK    7  A    between atoms: C_18  and  C_19 
REMARK    8  A    between atoms: C_19  and  O_21 
REMARK    9  A    between atoms: C_28  and  C_29 
REMARK   10  A    between atoms: C_29  and  C_30 
REMARK   11  A    between atoms: C_30  and  C_31 
REMARK   12  A    between atoms: C_31  and  O_33 
REMARK   13  A    between atoms: C_42  and  C_43 
REMARK   14  A    between atoms: C_43  and  C_44 
REMARK   15  A    between atoms: C_44  and  C_45 
REMARK   16  A    between atoms: C_45  and  O_47 
ROOT
HETATM    1  C   UNK     0     -15.709   4.850   6.923  0.00  0.00     0.051 C 
HETATM    2  C   UNK     0     -14.809   5.589   5.954  0.00  0.00    -0.031 A 
HETATM    3  C   UNK     0     -13.525   6.074   6.142  0.00  0.00     0.021 A 
HETATM    4  N   UNK     0     -13.118   6.697   5.010  0.00  0.00    -0.361 N 
HETATM    5  C   UNK     0     -14.112   6.611   4.102  0.00  0.00     0.022 A 
HETATM    6  C   UNK     0     -15.186   5.927   4.661  0.00  0.00    -0.027 A 
HETATM    7  C   UNK     0     -14.136   7.053   2.672  0.00  0.00     0.115 C 
HETATM    8  C   UNK     0     -12.892   6.765   1.849  0.00  0.00     0.021 A 
HETATM    9  N   UNK     0     -12.074   5.704   1.914  0.00  0.00    -0.361 N 
HETATM   10  C   UNK     0     -11.047   5.913   1.063  0.00  0.00     0.022 A 
HETATM   11  C   UNK     0     -11.214   7.139   0.426  0.00  0.00    -0.027 A 
HETATM   12  C   UNK     0     -12.374   7.681   0.916  0.00  0.00    -0.031 A 
HETATM   13  C   UNK     0     -12.960   9.013   0.504  0.00  0.00     0.051 C 
HETATM   14  C   UNK     0      -9.845   4.996   0.857  0.00  0.00     0.115 C 
HETATM   15  C   UNK     0      -9.009   4.785   2.109  0.00  0.00     0.021 A 
HETATM   16  N   UNK     0      -9.413   4.284   3.292  0.00  0.00    -0.361 N 
HETATM   17  C   UNK     0      -8.397   4.328   4.156  0.00  0.00     0.022 A 
HETATM   18  C   UNK     0      -7.274   4.876   3.503  0.00  0.00    -0.027 A 
HETATM   19  C   UNK     0      -7.671   5.156   2.221  0.00  0.00    -0.031 A 
HETATM   20  C   UNK     0      -6.750   5.730   1.160  0.00  0.00     0.051 C 
HETATM   21  C   UNK     0      -8.350   3.956   5.621  0.00  0.00     0.115 C 
HETATM   22  C   UNK     0      -9.595   4.196   6.442  0.00  0.00     0.022 A 
HETATM   23  N   UNK     0     -10.431   5.241   6.395  0.00  0.00    -0.361 N 
HETATM   24  C   UNK     0     -11.486   4.976   7.192  0.00  0.00     0.021 A 
HETATM   25  C   UNK     0     -11.320   3.734   7.774  0.00  0.00    -0.031 A 
HETATM   26  C   UNK     0     -12.212   3.020   8.769  0.00  0.00     0.051 C 
HETATM   27  C   UNK     0     -10.117   3.215   7.309  0.00  0.00    -0.027 A 
HETATM   28  C   UNK     0     -12.734   5.818   7.394  0.00  0.00     0.115 C 
HETATM   29  H   UNK     0     -12.147   7.227   4.874  0.00  0.00     0.165 HD
HETATM   30  H   UNK     0     -12.244   4.782   2.523  0.00  0.00     0.165 HD
HETATM   31  H   UNK     0     -10.422   3.846   3.508  0.00  0.00     0.165 HD
HETATM   32  H   UNK     0     -10.264   6.196   5.832  0.00  0.00     0.165 HD
ENDROOT
BRANCH   6  33
HETATM   33  C   UNK     0     -16.528   5.576   4.067  0.00  0.00     0.051 C 
BRANCH  33  34
HETATM   34  C   UNK     0     -17.522   6.690   4.297  0.00  0.00     0.114 C 
BRANCH  34  35
HETATM   35  C   UNK     0     -18.482   6.674   3.156  0.00  0.00     0.139 C 
HETATM   36  O   UNK     0     -19.594   7.269   3.251  0.00  0.00    -0.650 OA
BRANCH  35  37
HETATM   37  O   UNK     0     -18.211   6.024   1.958  0.00  0.00    -0.776 OA
HETATM   38  H   UNK     0     -18.907   5.477   1.477  0.00  0.00     0.167 HD
ENDBRANCH  35  37
ENDBRANCH  34  35
ENDBRANCH  33  34
ENDBRANCH   6  33
BRANCH  27  39
HETATM   39  C   UNK     0      -9.562   1.914   7.773  0.00  0.00     0.051 C 
BRANCH  39  40
HETATM   40  C   UNK     0      -8.690   1.911   8.948  0.00  0.00     0.114 C 
BRANCH  40  41
HETATM   41  C   UNK     0      -7.374   2.508   8.932  0.00  0.00     0.139 C 
HETATM   42  O   UNK     0      -7.030   3.424   9.691  0.00  0.00    -0.650 OA
BRANCH  41  43
HETATM   43  O   UNK     0      -6.409   2.030   8.001  0.00  0.00    -0.776 OA
HETATM   44  H   UNK     0      -5.906   2.757   7.508  0.00  0.00     0.167 HD
ENDBRANCH  41  43
ENDBRANCH  40  41
ENDBRANCH  39  40
ENDBRANCH  27  39
BRANCH  11  45
HETATM   45  C   UNK     0     -10.333   7.792  -0.606  0.00  0.00     0.051 C 
BRANCH  45  46
HETATM   46  C   UNK     0      -9.084   8.377  -0.054  0.00  0.00     0.114 C 
BRANCH  46  47
HETATM   47  C   UNK     0      -8.052   8.308  -1.128  0.00  0.00     0.139 C 
HETATM   48  O   UNK     0      -7.337   9.300  -1.326  0.00  0.00    -0.650 OA
BRANCH  47  49
HETATM   49  O   UNK     0      -7.898   7.173  -1.882  0.00  0.00    -0.776 OA
HETATM   50  H   UNK     0      -7.902   7.196  -2.909  0.00  0.00     0.167 HD
ENDBRANCH  47  49
ENDBRANCH  46  47
ENDBRANCH  45  46
ENDBRANCH  11  45
BRANCH  18  51
HETATM   51  C   UNK     0      -5.894   5.099   4.064  0.00  0.00     0.051 C 
BRANCH  51  52
HETATM   52  C   UNK     0      -5.912   6.480   4.703  0.00  0.00     0.114 C 
BRANCH  52  53
HETATM   53  C   UNK     0      -4.846   7.348   4.165  0.00  0.00     0.139 C 
HETATM   54  O   UNK     0      -4.272   7.044   3.107  0.00  0.00    -0.650 OA
BRANCH  53  55
HETATM   55  O   UNK     0      -4.492   8.488   4.844  0.00  0.00    -0.776 OA
HETATM   56  H   UNK     0      -4.625   9.420   4.529  0.00  0.00     0.167 HD
ENDBRANCH  53  55
ENDBRANCH  52  53
ENDBRANCH  51  52
ENDBRANCH  18  51
TORSDOF 16
ENDMDL
MODEL 10
REMARK VINA RESULT:      -7.4      2.791      7.886
REMARK  16 active torsions:
REMARK  status: ('A' for Active; 'I' for Inactive)
REMARK    1  A    between atoms: C_6  and  C_7 
REMARK    2  A    between atoms: C_7  and  C_8 
REMARK    3  A    between atoms: C_8  and  C_9 
REMARK    4  A    between atoms: C_9  and  O_11 
REMARK    5  A    between atoms: C_16  and  C_17 
REMARK    6  A    between atoms: C_17  and  C_18 
REMARK    7  A    between atoms: C_18  and  C_19 
REMARK    8  A    between atoms: C_19  and  O_21 
REMARK    9  A    between atoms: C_28  and  C_29 
REMARK   10  A    between atoms: C_29  and  C_30 
REMARK   11  A    between atoms: C_30  and  C_31 
REMARK   12  A    between atoms: C_31  and  O_33 
REMARK   13  A    between atoms: C_42  and  C_43 
REMARK   14  A    between atoms: C_43  and  C_44 
REMARK   15  A    between atoms: C_44  and  C_45 
REMARK   16  A    between atoms: C_45  and  O_47 
ROOT
HETATM    1  C   UNK     0      -7.804   7.483  -1.184  0.00  0.00     0.051 C 
HETATM    2  C   UNK     0      -9.020   7.040  -0.396  0.00  0.00    -0.031 A 
HETATM    3  C   UNK     0      -9.190   5.921   0.404  0.00  0.00     0.021 A 
HETATM    4  N   UNK     0     -10.454   5.912   0.889  0.00  0.00    -0.361 N 
HETATM    5  C   UNK     0     -11.091   7.006   0.422  0.00  0.00     0.022 A 
HETATM    6  C   UNK     0     -10.224   7.732  -0.387  0.00  0.00    -0.027 A 
HETATM    7  C   UNK     0     -12.466   7.512   0.732  0.00  0.00     0.115 C 
HETATM    8  C   UNK     0     -12.903   7.452   2.185  0.00  0.00     0.021 A 
HETATM    9  N   UNK     0     -12.163   7.638   3.289  0.00  0.00    -0.361 N 
HETATM   10  C   UNK     0     -12.945   7.397   4.363  0.00  0.00     0.022 A 
HETATM   11  C   UNK     0     -14.226   7.055   3.939  0.00  0.00    -0.027 A 
HETATM   12  C   UNK     0     -14.206   7.088   2.568  0.00  0.00    -0.031 A 
HETATM   13  C   UNK     0     -15.385   6.789   1.669  0.00  0.00     0.051 C 
HETATM   14  C   UNK     0     -12.504   7.428   5.823  0.00  0.00     0.115 C 
HETATM   15  C   UNK     0     -11.414   6.423   6.158  0.00  0.00     0.021 A 
HETATM   16  N   UNK     0     -10.190   6.325   5.607  0.00  0.00    -0.361 N 
HETATM   17  C   UNK     0      -9.559   5.268   6.125  0.00  0.00     0.022 A 
HETATM   18  C   UNK     0     -10.409   4.654   7.065  0.00  0.00    -0.027 A 
HETATM   19  C   UNK     0     -11.567   5.387   7.078  0.00  0.00    -0.031 A 
HETATM   20  C   UNK     0     -12.746   5.088   7.986  0.00  0.00     0.051 C 
HETATM   21  C   UNK     0      -8.203   4.688   5.793  0.00  0.00     0.115 C 
HETATM   22  C   UNK     0      -7.736   4.780   4.359  0.00  0.00     0.022 A 
HETATM   23  N   UNK     0      -8.451   4.604   3.241  0.00  0.00    -0.361 N 
HETATM   24  C   UNK     0      -7.674   4.924   2.186  0.00  0.00     0.021 A 
HETATM   25  C   UNK     0      -6.425   5.307   2.637  0.00  0.00    -0.031 A 
HETATM   26  C   UNK     0      -5.207   5.715   1.835  0.00  0.00     0.051 C 
HETATM   27  C   UNK     0      -6.440   5.223   4.024  0.00  0.00    -0.027 A 
HETATM   28  C   UNK     0      -8.069   4.971   0.720  0.00  0.00     0.115 C 
HETATM   29  H   UNK     0     -10.900   5.113   1.525  0.00  0.00     0.165 HD
HETATM   30  H   UNK     0     -11.102   7.988   3.315  0.00  0.00     0.165 HD
HETATM   31  H   UNK     0      -9.742   7.044   4.872  0.00  0.00     0.165 HD
HETATM   32  H   UNK     0      -9.499   4.209   3.182  0.00  0.00     0.165 HD
ENDROOT
BRANCH   6  33
HETATM   33  C   UNK     0     -10.450   9.016  -1.144  0.00  0.00     0.051 C 
BRANCH  33  34
HETATM   34  C   UNK     0     -11.189   8.753  -2.435  0.00  0.00     0.114 C 
BRANCH  34  35
HETATM   35  C   UNK     0     -10.334   9.253  -3.549  0.00  0.00     0.139 C 
HETATM   36  O   UNK     0      -9.546  10.226  -3.361  0.00  0.00    -0.650 OA
BRANCH  35  37
HETATM   37  O   UNK     0     -10.354   8.691  -4.820  0.00  0.00    -0.776 OA
HETATM   38  H   UNK     0     -10.008   7.762  -4.999  0.00  0.00     0.167 HD
ENDBRANCH  35  37
ENDBRANCH  34  35
ENDBRANCH  33  34
ENDBRANCH   6  33
BRANCH  27  39
HETATM   39  C   UNK     0      -5.243   5.491   4.866  0.00  0.00     0.051 C 
BRANCH  39  40
HETATM   40  C   UNK     0      -4.826   4.469   5.826  0.00  0.00     0.114 C 
BRANCH  40  41
HETATM   41  C   UNK     0      -3.657   3.644   5.615  0.00  0.00     0.139 C 
HETATM   42  O   UNK     0      -2.816   3.863   4.732  0.00  0.00    -0.650 OA
BRANCH  41  43
HETATM   43  O   UNK     0      -3.447   2.516   6.457  0.00  0.00    -0.776 OA
HETATM   44  H   UNK     0      -2.585   2.015   6.278  0.00  0.00     0.167 HD
ENDBRANCH  41  43
ENDBRANCH  40  41
ENDBRANCH  39  40
ENDBRANCH  27  39
BRANCH  11  45
HETATM   45  C   UNK     0     -15.433   6.712   4.770  0.00  0.00     0.051 C 
BRANCH  45  46
HETATM   46  C   UNK     0     -15.531   5.274   5.130  0.00  0.00     0.114 C 
BRANCH  46  47
HETATM   47  C   UNK     0     -16.939   4.851   4.877  0.00  0.00     0.139 C 
HETATM   48  O   UNK     0     -17.798   5.113   5.729  0.00  0.00    -0.650 OA
BRANCH  47  49
HETATM   49  O   UNK     0     -17.275   4.185   3.726  0.00  0.00    -0.776 OA
HETATM   50  H   UNK     0     -18.253   4.043   3.444  0.00  0.00     0.167 HD
ENDBRANCH  47  49
ENDBRANCH  46  47
ENDBRANCH  45  46
ENDBRANCH  11  45
BRANCH  18  51
HETATM   51  C   UNK     0     -10.125   3.447   7.921  0.00  0.00     0.051 C 
BRANCH  51  52
HETATM   52  C   UNK     0     -10.832   2.276   7.254  0.00  0.00     0.114 C 
BRANCH  52  53
HETATM   53  C   UNK     0      -9.937   1.545   6.336  0.00  0.00     0.139 C 
HETATM   54  O   UNK     0      -9.974   1.777   5.117  0.00  0.00    -0.650 OA
BRANCH  53  55
HETATM   55  O   UNK     0      -9.068   0.606   6.837  0.00  0.00    -0.776 OA
HETATM   56  H   UNK     0      -8.098   0.738   7.002  0.00  0.00     0.167 HD
ENDBRANCH  53  55
ENDBRANCH  52  53
ENDBRANCH  51  52
ENDBRANCH  18  51
TORSDOF 16
ENDMDL
MODEL 11
REMARK VINA RESULT:      -7.4      1.842      7.522
REMARK  16 active torsions:
REMARK  status: ('A' for Active; 'I' for Inactive)
REMARK    1  A    between atoms: C_6  and  C_7 
REMARK    2  A    between atoms: C_7  and  C_8 
REMARK    3  A    between atoms: C_8  and  C_9 
REMARK    4  A    between atoms: C_9  and  O_11 
REMARK    5  A    between atoms: C_16  and  C_17 
REMARK    6  A    between atoms: C_17  and  C_18 
REMARK    7  A    between atoms: C_18  and  C_19 
REMARK    8  A    between atoms: C_19  and  O_21 
REMARK    9  A    between atoms: C_28  and  C_29 
REMARK   10  A    between atoms: C_29  and  C_30 
REMARK   11  A    between atoms: C_30  and  C_31 
REMARK   12  A    between atoms: C_31  and  O_33 
REMARK   13  A    between atoms: C_42  and  C_43 
REMARK   14  A    between atoms: C_43  and  C_44 
REMARK   15  A    between atoms: C_44  and  C_45 
REMARK   16  A    between atoms: C_45  and  O_47 
ROOT
HETATM    1  C   UNK     0     -12.655   8.715  -0.405  0.00  0.00     0.051 C 
HETATM    2  C   UNK     0     -13.327   7.770   0.570  0.00  0.00    -0.031 A 
HETATM    3  C   UNK     0     -12.841   6.605   1.143  0.00  0.00     0.021 A 
HETATM    4  N   UNK     0     -13.801   6.068   1.932  0.00  0.00    -0.361 N 
HETATM    5  C   UNK     0     -14.885   6.870   1.883  0.00  0.00     0.022 A 
HETATM    6  C   UNK     0     -14.623   7.943   1.037  0.00  0.00    -0.027 A 
HETATM    7  C   UNK     0     -16.173   6.778   2.640  0.00  0.00     0.115 C 
HETATM    8  C   UNK     0     -16.073   6.425   4.114  0.00  0.00     0.021 A 
HETATM    9  N   UNK     0     -15.127   6.781   4.997  0.00  0.00    -0.361 N 
HETATM   10  C   UNK     0     -15.393   6.164   6.167  0.00  0.00     0.022 A 
HETATM   11  C   UNK     0     -16.546   5.395   6.037  0.00  0.00    -0.027 A 
HETATM   12  C   UNK     0     -16.980   5.556   4.746  0.00  0.00    -0.031 A 
HETATM   13  C   UNK     0     -18.210   4.908   4.150  0.00  0.00     0.051 C 
HETATM   14  C   UNK     0     -14.545   6.230   7.434  0.00  0.00     0.115 C 
HETATM   15  C   UNK     0     -13.132   5.696   7.258  0.00  0.00     0.021 A 
HETATM   16  N   UNK     0     -12.193   6.126   6.395  0.00  0.00    -0.361 N 
HETATM   17  C   UNK     0     -11.111   5.351   6.502  0.00  0.00     0.022 A 
HETATM   18  C   UNK     0     -11.354   4.375   7.489  0.00  0.00    -0.027 A 
HETATM   19  C   UNK     0     -12.622   4.603   7.956  0.00  0.00    -0.031 A 
HETATM   20  C   UNK     0     -13.272   3.793   9.064  0.00  0.00     0.051 C 
HETATM   21  C   UNK     0      -9.822   5.368   5.713  0.00  0.00     0.115 C 
HETATM   22  C   UNK     0      -9.900   5.761   4.256  0.00  0.00     0.022 A 
HETATM   23  N   UNK     0     -10.832   5.424   3.355  0.00  0.00    -0.361 N 
HETATM   24  C   UNK     0     -10.592   6.112   2.220  0.00  0.00     0.021 A 
HETATM   25  C   UNK     0      -9.472   6.903   2.392  0.00  0.00    -0.031 A 
HETATM   26  C   UNK     0      -8.790   7.818   1.397  0.00  0.00     0.051 C 
HETATM   27  C   UNK     0      -9.012   6.695   3.687  0.00  0.00    -0.027 A 
HETATM   28  C   UNK     0     -11.427   6.133   0.952  0.00  0.00     0.115 C 
HETATM   29  H   UNK     0     -13.721   5.105   2.488  0.00  0.00     0.165 HD
HETATM   30  H   UNK     0     -14.299   7.509   4.812  0.00  0.00     0.165 HD
HETATM   31  H   UNK     0     -12.277   7.024   5.729  0.00  0.00     0.165 HD
HETATM   32  H   UNK     0     -11.644   4.664   3.497  0.00  0.00     0.165 HD
ENDROOT
BRANCH   6  33
HETATM   33  C   UNK     0     -15.501   9.104   0.643  0.00  0.00     0.051 C 
BRANCH  33  34
HETATM   34  C   UNK     0     -16.507   8.683  -0.402  0.00  0.00     0.114 C 
BRANCH  34  35
HETATM   35  C   UNK     0     -17.083   9.925  -0.993  0.00  0.00     0.139 C 
HETATM   36  O   UNK     0     -17.898   9.852  -1.959  0.00  0.00    -0.650 OA
BRANCH  35  37
HETATM   37  O   UNK     0     -16.767  11.194  -0.524  0.00  0.00    -0.776 OA
HETATM   38  H   UNK     0     -17.475  11.881  -0.321  0.00  0.00     0.167 HD
ENDBRANCH  35  37
ENDBRANCH  34  35
ENDBRANCH  33  34
ENDBRANCH   6  33
BRANCH  27  39
HETATM   39  C   UNK     0      -7.773   7.327   4.218  0.00  0.00     0.051 C 
BRANCH  39  40
HETATM   40  C   UNK     0      -6.545   6.532   4.243  0.00  0.00     0.114 C 
BRANCH  40  41
HETATM   41  C   UNK     0      -5.541   6.635   3.208  0.00  0.00     0.139 C 
HETATM   42  O   UNK     0      -5.571   5.978   2.158  0.00  0.00    -0.650 OA
BRANCH  41  43
HETATM   43  O   UNK     0      -4.451   7.533   3.388  0.00  0.00    -0.776 OA
HETATM   44  H   UNK     0      -3.694   7.412   2.726  0.00  0.00     0.167 HD
ENDBRANCH  41  43
ENDBRANCH  40  41
ENDBRANCH  39  40
ENDBRANCH  27  39
BRANCH  11  45
HETATM   45  C   UNK     0     -17.231   4.542   7.071  0.00  0.00     0.051 C 
BRANCH  45  46
HETATM   46  C   UNK     0     -16.598   3.213   7.275  0.00  0.00     0.114 C 
BRANCH  46  47
HETATM   47  C   UNK     0     -17.510   2.194   6.680  0.00  0.00     0.139 C 
HETATM   48  O   UNK     0     -17.019   1.146   6.238  0.00  0.00    -0.650 OA
BRANCH  47  49
HETATM   49  O   UNK     0     -18.864   2.411   6.622  0.00  0.00    -0.776 OA
HETATM   50  H   UNK     0     -19.304   3.228   7.061  0.00  0.00     0.167 HD
ENDBRANCH  47  49
ENDBRANCH  46  47
ENDBRANCH  45  46
ENDBRANCH  11  45
BRANCH  18  51
HETATM   51  C   UNK     0     -10.419   3.298   7.976  0.00  0.00     0.051 C 
BRANCH  51  52
HETATM   52  C   UNK     0     -10.874   2.007   7.313  0.00  0.00     0.114 C 
BRANCH  52  53
HETATM   53  C   UNK     0      -9.890   1.519   6.327  0.00  0.00     0.139 C 
HETATM   54  O   UNK     0      -9.925   1.933   5.157  0.00  0.00    -0.650 OA
BRANCH  53  55
HETATM   55  O   UNK     0      -8.941   0.604   6.711  0.00  0.00    -0.776 OA
HETATM   56  H   UNK     0      -8.740   0.327   7.643  0.00  0.00     0.167 HD
ENDBRANCH  53  55
ENDBRANCH  52  53
ENDBRANCH  51  52
ENDBRANCH  18  51
TORSDOF 16
ENDMDL
MODEL 12
REMARK VINA RESULT:      -7.3      2.719      8.490
REMARK  16 active torsions:
REMARK  status: ('A' for Active; 'I' for Inactive)
REMARK    1  A    between atoms: C_6  and  C_7 
REMARK    2  A    between atoms: C_7  and  C_8 
REMARK    3  A    between atoms: C_8  and  C_9 
REMARK    4  A    between atoms: C_9  and  O_11 
REMARK    5  A    between atoms: C_16  and  C_17 
REMARK    6  A    between atoms: C_17  and  C_18 
REMARK    7  A    between atoms: C_18  and  C_19 
REMARK    8  A    between atoms: C_19  and  O_21 
REMARK    9  A    between atoms: C_28  and  C_29 
REMARK   10  A    between atoms: C_29  and  C_30 
REMARK   11  A    between atoms: C_30  and  C_31 
REMARK   12  A    between atoms: C_31  and  O_33 
REMARK   13  A    between atoms: C_42  and  C_43 
REMARK   14  A    between atoms: C_43  and  C_44 
REMARK   15  A    between atoms: C_44  and  C_45 
REMARK   16  A    between atoms: C_45  and  O_47 
ROOT
HETATM    1  C   UNK     0      -6.967   3.397   8.493  0.00  0.00     0.051 C 
HETATM    2  C   UNK     0      -7.905   3.522   7.310  0.00  0.00    -0.031 A 
HETATM    3  C   UNK     0      -9.140   2.929   7.100  0.00  0.00     0.021 A 
HETATM    4  N   UNK     0      -9.608   3.302   5.886  0.00  0.00    -0.361 N 
HETATM    5  C   UNK     0      -8.702   4.127   5.321  0.00  0.00     0.022 A 
HETATM    6  C   UNK     0      -7.623   4.285   6.184  0.00  0.00    -0.027 A 
HETATM    7  C   UNK     0      -8.779   4.885   4.032  0.00  0.00     0.115 C 
HETATM    8  C   UNK     0     -10.103   5.557   3.714  0.00  0.00     0.021 A 
HETATM    9  N   UNK     0     -10.970   6.138   4.557  0.00  0.00    -0.361 N 
HETATM   10  C   UNK     0     -12.054   6.518   3.848  0.00  0.00     0.022 A 
HETATM   11  C   UNK     0     -11.875   6.182   2.509  0.00  0.00    -0.027 A 
HETATM   12  C   UNK     0     -10.648   5.576   2.418  0.00  0.00    -0.031 A 
HETATM   13  C   UNK     0     -10.028   5.045   1.144  0.00  0.00     0.051 C 
HETATM   14  C   UNK     0     -13.317   7.164   4.409  0.00  0.00     0.115 C 
HETATM   15  C   UNK     0     -14.052   6.300   5.422  0.00  0.00     0.021 A 
HETATM   16  N   UNK     0     -13.576   5.807   6.581  0.00  0.00    -0.361 N 
HETATM   17  C   UNK     0     -14.509   5.039   7.147  0.00  0.00     0.022 A 
HETATM   18  C   UNK     0     -15.652   5.039   6.323  0.00  0.00    -0.027 A 
HETATM   19  C   UNK     0     -15.353   5.833   5.246  0.00  0.00    -0.031 A 
HETATM   20  C   UNK     0     -16.329   6.135   4.124  0.00  0.00     0.051 C 
HETATM   21  C   UNK     0     -14.449   4.207   8.408  0.00  0.00     0.115 C 
HETATM   22  C   UNK     0     -13.126   3.570   8.761  0.00  0.00     0.022 A 
HETATM   23  N   UNK     0     -12.241   2.987   7.941  0.00  0.00    -0.361 N 
HETATM   24  C   UNK     0     -11.137   2.687   8.655  0.00  0.00     0.021 A 
HETATM   25  C   UNK     0     -11.320   3.075   9.968  0.00  0.00    -0.031 A 
HETATM   26  C   UNK     0     -10.386   2.912  11.150  0.00  0.00     0.051 C 
HETATM   27  C   UNK     0     -12.586   3.643  10.061  0.00  0.00    -0.027 A 
HETATM   28  C   UNK     0      -9.832   2.100   8.146  0.00  0.00     0.115 C 
HETATM   29  H   UNK     0     -10.557   2.948   5.419  0.00  0.00     0.165 HD
HETATM   30  H   UNK     0     -10.799   6.326   5.645  0.00  0.00     0.165 HD
HETATM   31  H   UNK     0     -12.578   6.044   7.033  0.00  0.00     0.165 HD
HETATM   32  H   UNK     0     -12.404   2.744   6.859  0.00  0.00     0.165 HD
ENDROOT
BRANCH   6  33
HETATM   33  C   UNK     0      -6.360   5.091   6.021  0.00  0.00     0.051 C 
BRANCH  33  34
HETATM   34  C   UNK     0      -5.323   4.312   5.248  0.00  0.00     0.114 C 
BRANCH  34  35
HETATM   35  C   UNK     0      -4.046   4.386   6.014  0.00  0.00     0.139 C 
HETATM   36  O   UNK     0      -4.030   4.880   7.179  0.00  0.00    -0.650 OA
BRANCH  35  37
HETATM   37  O   UNK     0      -2.838   3.926   5.503  0.00  0.00    -0.776 OA
HETATM   38  H   UNK     0      -2.158   4.548   5.098  0.00  0.00     0.167 HD
ENDBRANCH  35  37
ENDBRANCH  34  35
ENDBRANCH  33  34
ENDBRANCH   6  33
BRANCH  27  39
HETATM   39  C   UNK     0     -13.170   4.117  11.345  0.00  0.00     0.051 C 
BRANCH  39  40
HETATM   40  C   UNK     0     -14.023   3.200  12.100  0.00  0.00     0.114 C 
BRANCH  40  41
HETATM   41  C   UNK     0     -15.421   3.475  12.346  0.00  0.00     0.139 C 
HETATM   42  O   UNK     0     -16.206   3.861  11.469  0.00  0.00    -0.650 OA
BRANCH  41  43
HETATM   43  O   UNK     0     -15.939   3.298  13.660  0.00  0.00    -0.776 OA
HETATM   44  H   UNK     0     -15.315   2.816  14.296  0.00  0.00     0.167 HD
ENDBRANCH  41  43
ENDBRANCH  40  41
ENDBRANCH  39  40
ENDBRANCH  27  39
BRANCH  11  45
HETATM   45  C   UNK     0     -12.805   6.413   1.348  0.00  0.00     0.051 C 
BRANCH  45  46
HETATM   46  C   UNK     0     -12.791   7.805   0.829  0.00  0.00     0.114 C 
BRANCH  46  47
HETATM   47  C   UNK     0     -13.879   7.908  -0.186  0.00  0.00     0.139 C 
HETATM   48  O   UNK     0     -14.191   6.894  -0.825  0.00  0.00    -0.650 OA
BRANCH  47  49
HETATM   49  O   UNK     0     -14.520   9.100  -0.410  0.00  0.00    -0.776 OA
HETATM   50  H   UNK     0     -14.798   9.722   0.358  0.00  0.00     0.167 HD
ENDBRANCH  47  49
ENDBRANCH  46  47
ENDBRANCH  45  46
ENDBRANCH  11  45
BRANCH  18  51
HETATM   51  C   UNK     0     -16.964   4.337   6.559  0.00  0.00     0.051 C 
BRANCH  51  52
HETATM   52  C   UNK     0     -16.921   3.063   5.729  0.00  0.00     0.114 C 
BRANCH  52  53
HETATM   53  C   UNK     0     -17.343   1.884   6.510  0.00  0.00     0.139 C 
HETATM   54  O   UNK     0     -18.157   2.012   7.439  0.00  0.00    -0.650 OA
BRANCH  53  55
HETATM   55  O   UNK     0     -16.827   0.647   6.206  0.00  0.00    -0.776 OA
HETATM   56  H   UNK     0     -16.141   0.156   6.729  0.00  0.00     0.167 HD
ENDBRANCH  53  55
ENDBRANCH  52  53
ENDBRANCH  51  52
ENDBRANCH  18  51
TORSDOF 16
ENDMDL
MODEL 13
REMARK VINA RESULT:      -7.3      2.653      5.553
REMARK  16 active torsions:
REMARK  status: ('A' for Active; 'I' for Inactive)
REMARK    1  A    between atoms: C_6  and  C_7 
REMARK    2  A    between atoms: C_7  and  C_8 
REMARK    3  A    between atoms: C_8  and  C_9 
REMARK    4  A    between atoms: C_9  and  O_11 
REMARK    5  A    between atoms: C_16  and  C_17 
REMARK    6  A    between atoms: C_17  and  C_18 
REMARK    7  A    between atoms: C_18  and  C_19 
REMARK    8  A    between atoms: C_19  and  O_21 
REMARK    9  A    between atoms: C_28  and  C_29 
REMARK   10  A    between atoms: C_29  and  C_30 
REMARK   11  A    between atoms: C_30  and  C_31 
REMARK   12  A    between atoms: C_31  and  O_33 
REMARK   13  A    between atoms: C_42  and  C_43 
REMARK   14  A    between atoms: C_43  and  C_44 
REMARK   15  A    between atoms: C_44  and  C_45 
REMARK   16  A    between atoms: C_45  and  O_47 
ROOT
HETATM    1  C   UNK     0     -15.261   5.578   6.770  0.00  0.00     0.051 C 
HETATM    2  C   UNK     0     -14.310   6.139   5.732  0.00  0.00    -0.031 A 
HETATM    3  C   UNK     0     -13.074   6.741   5.906  0.00  0.00     0.021 A 
HETATM    4  N   UNK     0     -12.594   7.119   4.697  0.00  0.00    -0.361 N 
HETATM    5  C   UNK     0     -13.493   6.763   3.757  0.00  0.00     0.022 A 
HETATM    6  C   UNK     0     -14.580   6.150   4.370  0.00  0.00    -0.027 A 
HETATM    7  C   UNK     0     -13.403   6.868   2.266  0.00  0.00     0.115 C 
HETATM    8  C   UNK     0     -12.075   6.489   1.635  0.00  0.00     0.021 A 
HETATM    9  N   UNK     0     -11.216   5.528   2.008  0.00  0.00    -0.361 N 
HETATM   10  C   UNK     0     -10.125   5.610   1.217  0.00  0.00     0.022 A 
HETATM   11  C   UNK     0     -10.291   6.647   0.303  0.00  0.00    -0.027 A 
HETATM   12  C   UNK     0     -11.517   7.204   0.561  0.00  0.00    -0.031 A 
HETATM   13  C   UNK     0     -12.125   8.366  -0.194  0.00  0.00     0.051 C 
HETATM   14  C   UNK     0      -8.867   4.754   1.326  0.00  0.00     0.115 C 
HETATM   15  C   UNK     0      -8.143   4.889   2.656  0.00  0.00     0.021 A 
HETATM   16  N   UNK     0      -8.631   4.641   3.885  0.00  0.00    -0.361 N 
HETATM   17  C   UNK     0      -7.704   4.948   4.795  0.00  0.00     0.022 A 
HETATM   18  C   UNK     0      -6.553   5.410   4.126  0.00  0.00    -0.027 A 
HETATM   19  C   UNK     0      -6.840   5.367   2.786  0.00  0.00    -0.031 A 
HETATM   20  C   UNK     0      -5.853   5.748   1.699  0.00  0.00     0.051 C 
HETATM   21  C   UNK     0      -7.777   4.920   6.305  0.00  0.00     0.115 C 
HETATM   22  C   UNK     0      -9.104   5.253   6.946  0.00  0.00     0.022 A 
HETATM   23  N   UNK     0      -9.982   6.201   6.592  0.00  0.00    -0.361 N 
HETATM   24  C   UNK     0     -11.092   6.050   7.342  0.00  0.00     0.021 A 
HETATM   25  C   UNK     0     -10.922   4.985   8.205  0.00  0.00    -0.031 A 
HETATM   26  C   UNK     0     -11.868   4.455   9.263  0.00  0.00     0.051 C 
HETATM   27  C   UNK     0      -9.657   4.459   7.971  0.00  0.00    -0.027 A 
HETATM   28  C   UNK     0     -12.393   6.828   7.242  0.00  0.00     0.115 C 
HETATM   29  H   UNK     0     -11.641   7.670   4.521  0.00  0.00     0.165 HD
HETATM   30  H   UNK     0     -11.398   4.757   2.797  0.00  0.00     0.165 HD
HETATM   31  H   UNK     0      -9.633   4.195   4.115  0.00  0.00     0.165 HD
HETATM   32  H   UNK     0      -9.808   7.014   5.840  0.00  0.00     0.165 HD
ENDROOT
BRANCH   6  33
HETATM   33  C   UNK     0     -15.841   5.584   3.768  0.00  0.00     0.051 C 
BRANCH  33  34
HETATM   34  C   UNK     0     -16.937   6.623   3.745  0.00  0.00     0.114 C 
BRANCH  34  35
HETATM   35  C   UNK     0     -17.181   6.984   2.319  0.00  0.00     0.139 C 
HETATM   36  O   UNK     0     -16.707   8.057   1.843  0.00  0.00    -0.650 OA
BRANCH  35  37
HETATM   37  O   UNK     0     -17.920   6.181   1.459  0.00  0.00    -0.776 OA
HETATM   38  H   UNK     0     -18.670   6.548   0.896  0.00  0.00     0.167 HD
ENDBRANCH  35  37
ENDBRANCH  34  35
ENDBRANCH  33  34
ENDBRANCH   6  33
BRANCH  27  39
HETATM   39  C   UNK     0      -9.086   3.338   8.765  0.00  0.00     0.051 C 
BRANCH  39  40
HETATM   40  C   UNK     0      -8.965   2.027   8.128  0.00  0.00     0.114 C 
BRANCH  40  41
HETATM   41  C   UNK     0      -9.810   1.625   7.026  0.00  0.00     0.139 C 
HETATM   42  O   UNK     0      -9.436   1.615   5.846  0.00  0.00    -0.650 OA
BRANCH  41  43
HETATM   43  O   UNK     0     -11.148   1.216   7.294  0.00  0.00    -0.776 OA
HETATM   44  H   UNK     0     -11.320   0.228   7.152  0.00  0.00     0.167 HD
ENDBRANCH  41  43
ENDBRANCH  40  41
ENDBRANCH  39  40
ENDBRANCH  27  39
BRANCH  11  45
HETATM   45  C   UNK     0      -9.350   7.109  -0.777  0.00  0.00     0.051 C 
BRANCH  45  46
HETATM   46  C   UNK     0      -8.339   8.096  -0.318  0.00  0.00     0.114 C 
BRANCH  46  47
HETATM   47  C   UNK     0      -8.106   9.045  -1.444  0.00  0.00     0.139 C 
HETATM   48  O   UNK     0      -9.082   9.625  -1.941  0.00  0.00    -0.650 OA
BRANCH  47  49
HETATM   49  O   UNK     0      -6.840   9.271  -1.923  0.00  0.00    -0.776 OA
HETATM   50  H   UNK     0      -6.099   9.672  -1.335  0.00  0.00     0.167 HD
ENDBRANCH  47  49
ENDBRANCH  46  47
ENDBRANCH  45  46
ENDBRANCH  11  45
BRANCH  18  51
HETATM   51  C   UNK     0      -5.244   5.848   4.729  0.00  0.00     0.051 C 
BRANCH  51  52
HETATM   52  C   UNK     0      -4.387   4.596   4.844  0.00  0.00     0.114 C 
BRANCH  52  53
HETATM   53  C   UNK     0      -3.138   4.711   4.068  0.00  0.00     0.139 C 
HETATM   54  O   UNK     0      -2.785   5.813   3.618  0.00  0.00    -0.650 OA
BRANCH  53  55
HETATM   55  O   UNK     0      -2.372   3.593   3.843  0.00  0.00    -0.776 OA
HETATM   56  H   UNK     0      -2.579   2.672   4.150  0.00  0.00     0.167 HD
ENDBRANCH  53  55
ENDBRANCH  52  53
ENDBRANCH  51  52
ENDBRANCH  18  51
TORSDOF 16
ENDMDL
MODEL 14
REMARK VINA RESULT:      -7.3     13.410     19.219
REMARK  16 active torsions:
REMARK  status: ('A' for Active; 'I' for Inactive)
REMARK    1  A    between atoms: C_6  and  C_7 
REMARK    2  A    between atoms: C_7  and  C_8 
REMARK    3  A    between atoms: C_8  and  C_9 
REMARK    4  A    between atoms: C_9  and  O_11 
REMARK    5  A    between atoms: C_16  and  C_17 
REMARK    6  A    between atoms: C_17  and  C_18 
REMARK    7  A    between atoms: C_18  and  C_19 
REMARK    8  A    between atoms: C_19  and  O_21 
REMARK    9  A    between atoms: C_28  and  C_29 
REMARK   10  A    between atoms: C_29  and  C_30 
REMARK   11  A    between atoms: C_30  and  C_31 
REMARK   12  A    between atoms: C_31  and  O_33 
REMARK   13  A    between atoms: C_42  and  C_43 
REMARK   14  A    between atoms: C_43  and  C_44 
REMARK   15  A    between atoms: C_44  and  C_45 
REMARK   16  A    between atoms: C_45  and  O_47 
ROOT
HETATM    1  C   UNK     0     -22.089  15.210 -15.720  0.00  0.00     0.051 C 
HETATM    2  C   UNK     0     -21.853  14.307 -14.527  0.00  0.00    -0.031 A 
HETATM    3  C   UNK     0     -21.128  13.128 -14.445  0.00  0.00     0.021 A 
HETATM    4  N   UNK     0     -21.216  12.643 -13.184  0.00  0.00    -0.361 N 
HETATM    5  C   UNK     0     -21.974  13.491 -12.458  0.00  0.00     0.022 A 
HETATM    6  C   UNK     0     -22.391  14.542 -13.268  0.00  0.00    -0.027 A 
HETATM    7  C   UNK     0     -22.299  13.465 -10.997  0.00  0.00     0.115 C 
HETATM    8  C   UNK     0     -21.160  13.125 -10.052  0.00  0.00     0.021 A 
HETATM    9  N   UNK     0     -19.862  13.450 -10.154  0.00  0.00    -0.361 N 
HETATM   10  C   UNK     0     -19.200  12.858  -9.138  0.00  0.00     0.022 A 
HETATM   11  C   UNK     0     -20.097  12.140  -8.353  0.00  0.00    -0.027 A 
HETATM   12  C   UNK     0     -21.334  12.303  -8.923  0.00  0.00    -0.031 A 
HETATM   13  C   UNK     0     -22.622  11.703  -8.405  0.00  0.00     0.051 C 
HETATM   14  C   UNK     0     -17.694  12.903  -8.897  0.00  0.00     0.115 C 
HETATM   15  C   UNK     0     -16.872  12.305 -10.027  0.00  0.00     0.021 A 
HETATM   16  N   UNK     0     -16.854  12.684 -11.319  0.00  0.00    -0.361 N 
HETATM   17  C   UNK     0     -16.055  11.864 -12.005  0.00  0.00     0.022 A 
HETATM   18  C   UNK     0     -15.518  10.912 -11.116  0.00  0.00    -0.027 A 
HETATM   19  C   UNK     0     -16.036  11.200  -9.881  0.00  0.00    -0.031 A 
HETATM   20  C   UNK     0     -15.686  10.433  -8.619  0.00  0.00     0.051 C 
HETATM   21  C   UNK     0     -15.753  11.816 -13.486  0.00  0.00     0.115 C 
HETATM   22  C   UNK     0     -16.864  12.194 -14.437  0.00  0.00     0.022 A 
HETATM   23  N   UNK     0     -18.165  11.887 -14.358  0.00  0.00    -0.361 N 
HETATM   24  C   UNK     0     -18.817  12.551 -15.334  0.00  0.00     0.021 A 
HETATM   25  C   UNK     0     -17.912  13.294 -16.067  0.00  0.00    -0.031 A 
HETATM   26  C   UNK     0     -18.156  14.167 -17.280  0.00  0.00     0.051 C 
HETATM   27  C   UNK     0     -16.655  13.082 -15.512  0.00  0.00    -0.027 A 
HETATM   28  C   UNK     0     -20.314  12.594 -15.589  0.00  0.00     0.115 C 
HETATM   29  H   UNK     0     -20.775  11.684 -12.825  0.00  0.00     0.165 HD
HETATM   30  H   UNK     0     -19.418  14.138 -10.915  0.00  0.00     0.165 HD
HETATM   31  H   UNK     0     -17.379  13.577 -11.748  0.00  0.00     0.165 HD
HETATM   32  H   UNK     0     -18.630  11.165 -13.637  0.00  0.00     0.165 HD
ENDROOT
BRANCH   6  33
HETATM   33  C   UNK     0     -23.253  15.735 -12.942  0.00  0.00     0.051 C 
BRANCH  33  34
HETATM   34  C   UNK     0     -24.707  15.336 -12.853  0.00  0.00     0.114 C 
BRANCH  34  35
HETATM   35  C   UNK     0     -25.460  16.167 -13.836  0.00  0.00     0.139 C 
HETATM   36  O   UNK     0     -26.708  16.013 -13.978  0.00  0.00    -0.650 OA
BRANCH  35  37
HETATM   37  O   UNK     0     -24.846  17.132 -14.626  0.00  0.00    -0.776 OA
HETATM   38  H   UNK     0     -25.182  18.081 -14.667  0.00  0.00     0.167 HD
ENDBRANCH  35  37
ENDBRANCH  34  35
ENDBRANCH  33  34
ENDBRANCH   6  33
BRANCH  27  39
HETATM   39  C   UNK     0     -15.409  13.665 -16.080  0.00  0.00     0.051 C 
BRANCH  39  40
HETATM   40  C   UNK     0     -14.608  12.842 -16.986  0.00  0.00     0.114 C 
BRANCH  40  41
HETATM   41  C   UNK     0     -13.617  11.907 -16.503  0.00  0.00     0.139 C 
HETATM   42  O   UNK     0     -12.426  12.201 -16.330  0.00  0.00    -0.650 OA
BRANCH  41  43
HETATM   43  O   UNK     0     -14.014  10.572 -16.206  0.00  0.00    -0.776 OA
HETATM   44  H   UNK     0     -13.525   9.861 -16.738  0.00  0.00     0.167 HD
ENDBRANCH  41  43
ENDBRANCH  40  41
ENDBRANCH  39  40
ENDBRANCH  27  39
BRANCH  11  45
HETATM   45  C   UNK     0     -19.826  11.329  -7.115  0.00  0.00     0.051 C 
BRANCH  45  46
HETATM   46  C   UNK     0     -19.900  12.107  -5.852  0.00  0.00     0.114 C 
BRANCH  46  47
HETATM   47  C   UNK     0     -20.725  11.317  -4.894  0.00  0.00     0.139 C 
HETATM   48  O   UNK     0     -20.147  10.577  -4.086  0.00  0.00    -0.650 OA
BRANCH  47  49
HETATM   49  O   UNK     0     -22.094  11.406  -4.907  0.00  0.00    -0.776 OA
HETATM   50  H   UNK     0     -22.582  12.309  -4.938  0.00  0.00     0.167 HD
ENDBRANCH  47  49
ENDBRANCH  46  47
ENDBRANCH  45  46
ENDBRANCH  11  45
BRANCH  18  51
HETATM   51  C   UNK     0     -14.548   9.801 -11.424  0.00  0.00     0.051 C 
BRANCH  51  52
HETATM   52  C   UNK     0     -15.390   8.568 -11.716  0.00  0.00     0.114 C 
BRANCH  52  53
HETATM   53  C   UNK     0     -15.094   8.002 -13.046  0.00  0.00     0.139 C 
HETATM   54  O   UNK     0     -15.767   7.054 -13.482  0.00  0.00    -0.650 OA
BRANCH  53  55
HETATM   55  O   UNK     0     -14.070   8.527 -13.795  0.00  0.00    -0.776 OA
HETATM   56  H   UNK     0     -13.291   8.026 -14.154  0.00  0.00     0.167 HD
ENDBRANCH  53  55
ENDBRANCH  52  53
ENDBRANCH  51  52
ENDBRANCH  18  51
TORSDOF 16
ENDMDL
MODEL 15
REMARK VINA RESULT:      -7.2      2.052      7.216
REMARK  16 active torsions:
REMARK  status: ('A' for Active; 'I' for Inactive)
REMARK    1  A    between atoms: C_6  and  C_7 
REMARK    2  A    between atoms: C_7  and  C_8 
REMARK    3  A    between atoms: C_8  and  C_9 
REMARK    4  A    between atoms: C_9  and  O_11 
REMARK    5  A    between atoms: C_16  and  C_17 
REMARK    6  A    between atoms: C_17  and  C_18 
REMARK    7  A    between atoms: C_18  and  C_19 
REMARK    8  A    between atoms: C_19  and  O_21 
REMARK    9  A    between atoms: C_28  and  C_29 
REMARK   10  A    between atoms: C_29  and  C_30 
REMARK   11  A    between atoms: C_30  and  C_31 
REMARK   12  A    between atoms: C_31  and  O_33 
REMARK   13  A    between atoms: C_42  and  C_43 
REMARK   14  A    between atoms: C_43  and  C_44 
REMARK   15  A    between atoms: C_44  and  C_45 
REMARK   16  A    between atoms: C_45  and  O_47 
ROOT
HETATM    1  C   UNK     0     -16.617   9.184  -0.880  0.00  0.00     0.051 C 
HETATM    2  C   UNK     0     -16.711   8.227   0.291  0.00  0.00    -0.031 A 
HETATM    3  C   UNK     0     -15.897   7.154   0.618  0.00  0.00     0.021 A 
HETATM    4  N   UNK     0     -16.377   6.561   1.737  0.00  0.00    -0.361 N 
HETATM    5  C   UNK     0     -17.473   7.238   2.136  0.00  0.00     0.022 A 
HETATM    6  C   UNK     0     -17.712   8.285   1.252  0.00  0.00    -0.027 A 
HETATM    7  C   UNK     0     -18.316   7.051   3.358  0.00  0.00     0.115 C 
HETATM    8  C   UNK     0     -17.579   6.791   4.661  0.00  0.00     0.021 A 
HETATM    9  N   UNK     0     -16.405   7.295   5.072  0.00  0.00    -0.361 N 
HETATM   10  C   UNK     0     -16.091   6.717   6.251  0.00  0.00     0.022 A 
HETATM   11  C   UNK     0     -17.095   5.824   6.613  0.00  0.00    -0.027 A 
HETATM   12  C   UNK     0     -18.035   5.866   5.616  0.00  0.00    -0.031 A 
HETATM   13  C   UNK     0     -19.314   5.058   5.586  0.00  0.00     0.051 C 
HETATM   14  C   UNK     0     -14.813   6.944   7.053  0.00  0.00     0.115 C 
HETATM   15  C   UNK     0     -13.544   6.555   6.312  0.00  0.00     0.021 A 
HETATM   16  N   UNK     0     -13.100   7.035   5.135  0.00  0.00    -0.361 N 
HETATM   17  C   UNK     0     -11.985   6.388   4.789  0.00  0.00     0.022 A 
HETATM   18  C   UNK     0     -11.682   5.448   5.794  0.00  0.00    -0.027 A 
HETATM   19  C   UNK     0     -12.665   5.563   6.742  0.00  0.00    -0.031 A 
HETATM   20  C   UNK     0     -12.701   4.751   8.024  0.00  0.00     0.051 C 
HETATM   21  C   UNK     0     -11.145   6.501   3.538  0.00  0.00     0.115 C 
HETATM   22  C   UNK     0     -11.860   6.802   2.242  0.00  0.00     0.022 A 
HETATM   23  N   UNK     0     -13.031   6.318   1.808  0.00  0.00    -0.361 N 
HETATM   24  C   UNK     0     -13.362   6.965   0.672  0.00  0.00     0.021 A 
HETATM   25  C   UNK     0     -12.374   7.880   0.361  0.00  0.00    -0.031 A 
HETATM   26  C   UNK     0     -12.276   8.807  -0.833  0.00  0.00     0.051 C 
HETATM   27  C   UNK     0     -11.402   7.794   1.351  0.00  0.00    -0.027 A 
HETATM   28  C   UNK     0     -14.640   6.827  -0.137  0.00  0.00     0.115 C 
HETATM   29  H   UNK     0     -15.960   5.644   2.215  0.00  0.00     0.165 HD
HETATM   30  H   UNK     0     -15.820   8.096   4.557  0.00  0.00     0.165 HD
HETATM   31  H   UNK     0     -13.557   7.882   4.558  0.00  0.00     0.165 HD
HETATM   32  H   UNK     0     -13.615   5.484   2.277  0.00  0.00     0.165 HD
ENDROOT
BRANCH   6  33
HETATM   33  C   UNK     0     -18.807   9.322   1.249  0.00  0.00     0.051 C 
BRANCH  33  34
HETATM   34  C   UNK     0     -18.292  10.646   1.761  0.00  0.00     0.114 C 
BRANCH  34  35
HETATM   35  C   UNK     0     -18.295  10.581   3.251  0.00  0.00     0.139 C 
HETATM   36  O   UNK     0     -19.386  10.457   3.881  0.00  0.00    -0.650 OA
BRANCH  35  37
HETATM   37  O   UNK     0     -17.131  10.648   4.006  0.00  0.00    -0.776 OA
HETATM   38  H   UNK     0     -16.671  11.522   4.203  0.00  0.00     0.167 HD
ENDBRANCH  35  37
ENDBRANCH  34  35
ENDBRANCH  33  34
ENDBRANCH   6  33
BRANCH  27  39
HETATM   39  C   UNK     0     -10.141   8.583   1.318  0.00  0.00     0.051 C 
BRANCH  39  40
HETATM   40  C   UNK     0      -8.916   7.916   0.877  0.00  0.00     0.114 C 
BRANCH  40  41
HETATM   41  C   UNK     0      -7.805   7.676   1.769  0.00  0.00     0.139 C 
HETATM   42  O   UNK     0      -7.551   6.569   2.264  0.00  0.00    -0.650 OA
BRANCH  41  43
HETATM   43  O   UNK     0      -6.945   8.759   2.109  0.00  0.00    -0.776 OA
HETATM   44  H   UNK     0      -6.996   9.549   1.477  0.00  0.00     0.167 HD
ENDBRANCH  41  43
ENDBRANCH  40  41
ENDBRANCH  39  40
ENDBRANCH  27  39
BRANCH  11  45
HETATM   45  C   UNK     0     -17.187   4.959   7.842  0.00  0.00     0.051 C 
BRANCH  45  46
HETATM   46  C   UNK     0     -16.349   3.735   7.786  0.00  0.00     0.114 C 
BRANCH  46  47
HETATM   47  C   UNK     0     -17.131   2.696   7.056  0.00  0.00     0.139 C 
HETATM   48  O   UNK     0     -16.753   2.354   5.928  0.00  0.00    -0.650 OA
BRANCH  47  49
HETATM   49  O   UNK     0     -18.248   2.133   7.620  0.00  0.00    -0.776 OA
HETATM   50  H   UNK     0     -18.192   1.509   8.434  0.00  0.00     0.167 HD
ENDBRANCH  47  49
ENDBRANCH  46  47
ENDBRANCH  45  46
ENDBRANCH  11  45
BRANCH  18  51
HETATM   51  C   UNK     0     -10.508   4.506   5.857  0.00  0.00     0.051 C 
BRANCH  51  52
HETATM   52  C   UNK     0      -9.368   5.288   6.492  0.00  0.00     0.114 C 
BRANCH  52  53
HETATM   53  C   UNK     0      -8.203   5.389   5.592  0.00  0.00     0.139 C 
HETATM   54  O   UNK     0      -7.641   4.360   5.184  0.00  0.00    -0.650 OA
BRANCH  53  55
HETATM   55  O   UNK     0      -7.743   6.626   5.212  0.00  0.00    -0.776 OA
HETATM   56  H   UNK     0      -7.712   7.438   5.782  0.00  0.00     0.167 HD
ENDBRANCH  53  55
ENDBRANCH  52  53
ENDBRANCH  51  52
ENDBRANCH  18  51
TORSDOF 16
ENDMDL
MODEL 16
REMARK VINA RESULT:      -7.2      2.291      7.635
REMARK  16 active torsions:
REMARK  status: ('A' for Active; 'I' for Inactive)
REMARK    1  A    between atoms: C_6  and  C_7 
REMARK    2  A    between atoms: C_7  and  C_8 
REMARK    3  A    between atoms: C_8  and  C_9 
REMARK    4  A    between atoms: C_9  and  O_11 
REMARK    5  A    between atoms: C_16  and  C_17 
REMARK    6  A    between atoms: C_17  and  C_18 
REMARK    7  A    between atoms: C_18  and  C_19 
REMARK    8  A    between atoms: C_19  and  O_21 
REMARK    9  A    between atoms: C_28  and  C_29 
REMARK   10  A    between atoms: C_29  and  C_30 
REMARK   11  A    between atoms: C_30  and  C_31 
REMARK   12  A    between atoms: C_31  and  O_33 
REMARK   13  A    between atoms: C_42  and  C_43 
REMARK   14  A    between atoms: C_43  and  C_44 
REMARK   15  A    between atoms: C_44  and  C_45 
REMARK   16  A    between atoms: C_45  and  O_47 
ROOT
HETATM    1  C   UNK     0     -14.638   9.016   0.326  0.00  0.00     0.051 C 
HETATM    2  C   UNK     0     -15.015   7.897   1.276  0.00  0.00    -0.031 A 
HETATM    3  C   UNK     0     -14.274   6.797   1.677  0.00  0.00     0.021 A 
HETATM    4  N   UNK     0     -15.024   6.042   2.514  0.00  0.00    -0.361 N 
HETATM    5  C   UNK     0     -16.223   6.641   2.662  0.00  0.00     0.022 A 
HETATM    6  C   UNK     0     -16.253   7.804   1.899  0.00  0.00    -0.027 A 
HETATM    7  C   UNK     0     -17.372   6.268   3.547  0.00  0.00     0.115 C 
HETATM    8  C   UNK     0     -17.029   5.830   4.960  0.00  0.00     0.021 A 
HETATM    9  N   UNK     0     -16.052   6.281   5.762  0.00  0.00    -0.361 N 
HETATM   10  C   UNK     0     -16.061   5.541   6.891  0.00  0.00     0.022 A 
HETATM   11  C   UNK     0     -17.078   4.593   6.818  0.00  0.00    -0.027 A 
HETATM   12  C   UNK     0     -17.692   4.769   5.604  0.00  0.00    -0.031 A 
HETATM   13  C   UNK     0     -18.862   3.961   5.091  0.00  0.00     0.051 C 
HETATM   14  C   UNK     0     -15.083   5.661   8.055  0.00  0.00     0.115 C 
HETATM   15  C   UNK     0     -13.635   5.399   7.673  0.00  0.00     0.021 A 
HETATM   16  N   UNK     0     -12.897   6.051   6.755  0.00  0.00    -0.361 N 
HETATM   17  C   UNK     0     -11.697   5.474   6.666  0.00  0.00     0.022 A 
HETATM   18  C   UNK     0     -11.647   4.400   7.577  0.00  0.00    -0.027 A 
HETATM   19  C   UNK     0     -12.866   4.365   8.203  0.00  0.00    -0.031 A 
HETATM   20  C   UNK     0     -13.227   3.373   9.294  0.00  0.00     0.051 C 
HETATM   21  C   UNK     0     -10.538   5.777   5.743  0.00  0.00     0.115 C 
HETATM   22  C   UNK     0     -10.864   6.256   4.349  0.00  0.00     0.022 A 
HETATM   23  N   UNK     0     -11.833   5.828   3.529  0.00  0.00    -0.361 N 
HETATM   24  C   UNK     0     -11.856   6.630   2.445  0.00  0.00     0.021 A 
HETATM   25  C   UNK     0     -10.871   7.591   2.565  0.00  0.00    -0.031 A 
HETATM   26  C   UNK     0     -10.482   8.684   1.591  0.00  0.00     0.051 C 
HETATM   27  C   UNK     0     -10.222   7.373   3.775  0.00  0.00    -0.027 A 
HETATM   28  C   UNK     0     -12.837   6.598   1.286  0.00  0.00     0.115 C 
HETATM   29  H   UNK     0     -14.715   5.069   2.964  0.00  0.00     0.165 HD
HETATM   30  H   UNK     0     -15.387   7.154   5.555  0.00  0.00     0.165 HD
HETATM   31  H   UNK     0     -13.212   6.967   6.191  0.00  0.00     0.165 HD
HETATM   32  H   UNK     0     -12.483   4.928   3.688  0.00  0.00     0.165 HD
ENDROOT
BRANCH   6  33
HETATM   33  C   UNK     0     -17.354   8.817   1.717  0.00  0.00     0.051 C 
BRANCH  33  34
HETATM   34  C   UNK     0     -17.291   9.875   2.794  0.00  0.00     0.114 C 
BRANCH  34  35
HETATM   35  C   UNK     0     -18.686  10.117   3.263  0.00  0.00     0.139 C 
HETATM   36  O   UNK     0     -19.384   9.160   3.707  0.00  0.00    -0.650 OA
BRANCH  35  37
HETATM   37  O   UNK     0     -19.275  11.375   3.241  0.00  0.00    -0.776 OA
HETATM   38  H   UNK     0     -18.771  12.197   2.950  0.00  0.00     0.167 HD
ENDBRANCH  35  37
ENDBRANCH  34  35
ENDBRANCH  33  34
ENDBRANCH   6  33
BRANCH  27  39
HETATM   39  C   UNK     0      -9.049   8.171   4.222  0.00  0.00     0.051 C 
BRANCH  39  40
HETATM   40  C   UNK     0      -7.717   7.753   3.785  0.00  0.00     0.114 C 
BRANCH  40  41
HETATM   41  C   UNK     0      -6.934   8.528   2.849  0.00  0.00     0.139 C 
HETATM   42  O   UNK     0      -6.225   8.024   1.968  0.00  0.00    -0.650 OA
BRANCH  41  43
HETATM   43  O   UNK     0      -6.969   9.949   2.931  0.00  0.00    -0.776 OA
HETATM   44  H   UNK     0      -7.870  10.360   2.716  0.00  0.00     0.167 HD
ENDBRANCH  41  43
ENDBRANCH  40  41
ENDBRANCH  39  40
ENDBRANCH  27  39
BRANCH  11  45
HETATM   45  C   UNK     0     -17.475   3.557   7.835  0.00  0.00     0.051 C 
BRANCH  45  46
HETATM   46  C   UNK     0     -18.636   3.946   8.675  0.00  0.00     0.114 C 
BRANCH  46  47
HETATM   47  C   UNK     0     -19.496   2.737   8.828  0.00  0.00     0.139 C 
HETATM   48  O   UNK     0     -20.449   2.586   8.051  0.00  0.00    -0.650 OA
BRANCH  47  49
HETATM   49  O   UNK     0     -19.238   1.812   9.807  0.00  0.00    -0.776 OA
HETATM   50  H   UNK     0     -19.004   0.836   9.587  0.00  0.00     0.167 HD
ENDBRANCH  47  49
ENDBRANCH  46  47
ENDBRANCH  45  46
ENDBRANCH  11  45
BRANCH  18  51
HETATM   51  C   UNK     0     -10.492   3.472   7.853  0.00  0.00     0.051 C 
BRANCH  51  52
HETATM   52  C   UNK     0     -10.709   2.249   6.973  0.00  0.00     0.114 C 
BRANCH  52  53
HETATM   53  C   UNK     0      -9.450   1.782   6.361  0.00  0.00     0.139 C 
HETATM   54  O   UNK     0      -8.851   2.501   5.546  0.00  0.00    -0.650 OA
BRANCH  53  55
HETATM   55  O   UNK     0      -8.949   0.548   6.697  0.00  0.00    -0.776 OA
HETATM   56  H   UNK     0      -9.375  -0.110   7.307  0.00  0.00     0.167 HD
ENDBRANCH  53  55
ENDBRANCH  52  53
ENDBRANCH  51  52
ENDBRANCH  18  51
TORSDOF 16
ENDMDL
MODEL 17
REMARK VINA RESULT:      -7.2     14.375     18.137
REMARK  16 active torsions:
REMARK  status: ('A' for Active; 'I' for Inactive)
REMARK    1  A    between atoms: C_6  and  C_7 
REMARK    2  A    between atoms: C_7  and  C_8 
REMARK    3  A    between atoms: C_8  and  C_9 
REMARK    4  A    between atoms: C_9  and  O_11 
REMARK    5  A    between atoms: C_16  and  C_17 
REMARK    6  A    between atoms: C_17  and  C_18 
REMARK    7  A    between atoms: C_18  and  C_19 
REMARK    8  A    between atoms: C_19  and  O_21 
REMARK    9  A    between atoms: C_28  and  C_29 
REMARK   10  A    between atoms: C_29  and  C_30 
REMARK   11  A    between atoms: C_30  and  C_31 
REMARK   12  A    between atoms: C_31  and  O_33 
REMARK   13  A    between atoms: C_42  and  C_43 
REMARK   14  A    between atoms: C_43  and  C_44 
REMARK   15  A    between atoms: C_44  and  C_45 
REMARK   16  A    between atoms: C_45  and  O_47 
ROOT
HETATM    1  C   UNK     0     -19.208  11.109  -7.237  0.00  0.00     0.051 C 
HETATM    2  C   UNK     0     -19.363  12.063  -8.404  0.00  0.00    -0.031 A 
HETATM    3  C   UNK     0     -18.389  12.738  -9.123  0.00  0.00     0.021 A 
HETATM    4  N   UNK     0     -18.988  13.509 -10.062  0.00  0.00    -0.361 N 
HETATM    5  C   UNK     0     -20.322  13.333  -9.962  0.00  0.00     0.022 A 
HETATM    6  C   UNK     0     -20.591  12.437  -8.933  0.00  0.00    -0.027 A 
HETATM    7  C   UNK     0     -21.420  13.878 -10.820  0.00  0.00     0.115 C 
HETATM    8  C   UNK     0     -21.182  13.869 -12.320  0.00  0.00     0.021 A 
HETATM    9  N   UNK     0     -20.531  12.956 -13.057  0.00  0.00    -0.361 N 
HETATM   10  C   UNK     0     -20.485  13.401 -14.331  0.00  0.00     0.022 A 
HETATM   11  C   UNK     0     -21.133  14.630 -14.418  0.00  0.00    -0.027 A 
HETATM   12  C   UNK     0     -21.575  14.930 -13.155  0.00  0.00    -0.031 A 
HETATM   13  C   UNK     0     -22.342  16.175 -12.770  0.00  0.00     0.051 C 
HETATM   14  C   UNK     0     -19.785  12.715 -15.501  0.00  0.00     0.115 C 
HETATM   15  C   UNK     0     -18.287  12.546 -15.309  0.00  0.00     0.021 A 
HETATM   16  N   UNK     0     -17.654  11.891 -14.317  0.00  0.00    -0.361 N 
HETATM   17  C   UNK     0     -16.336  12.034 -14.469  0.00  0.00     0.022 A 
HETATM   18  C   UNK     0     -16.097  12.810 -15.620  0.00  0.00    -0.027 A 
HETATM   19  C   UNK     0     -17.327  13.124 -16.138  0.00  0.00    -0.031 A 
HETATM   20  C   UNK     0     -17.527  13.926 -17.410  0.00  0.00     0.051 C 
HETATM   21  C   UNK     0     -15.200  11.557 -13.592  0.00  0.00     0.115 C 
HETATM   22  C   UNK     0     -15.438  11.520 -12.101  0.00  0.00     0.022 A 
HETATM   23  N   UNK     0     -16.087  12.413 -11.341  0.00  0.00    -0.361 N 
HETATM   24  C   UNK     0     -16.188  11.912 -10.093  0.00  0.00     0.021 A 
HETATM   25  C   UNK     0     -15.581  10.672 -10.046  0.00  0.00    -0.031 A 
HETATM   26  C   UNK     0     -15.404   9.743  -8.863  0.00  0.00     0.051 C 
HETATM   27  C   UNK     0     -15.093  10.400 -11.319  0.00  0.00    -0.027 A 
HETATM   28  C   UNK     0     -16.918  12.517  -8.906  0.00  0.00     0.115 C 
HETATM   29  H   UNK     0     -18.466  14.202 -10.762  0.00  0.00     0.165 HD
HETATM   30  H   UNK     0     -20.146  11.973 -12.692  0.00  0.00     0.165 HD
HETATM   31  H   UNK     0     -18.147  11.276 -13.520  0.00  0.00     0.165 HD
HETATM   32  H   UNK     0     -16.441  13.424 -11.669  0.00  0.00     0.165 HD
ENDROOT
BRANCH   6  33
HETATM   33  C   UNK     0     -21.910  11.918  -8.420  0.00  0.00     0.051 C 
BRANCH  33  34
HETATM   34  C   UNK     0     -22.489  12.856  -7.387  0.00  0.00     0.114 C 
BRANCH  34  35
HETATM   35  C   UNK     0     -23.781  12.270  -6.926  0.00  0.00     0.139 C 
HETATM   36  O   UNK     0     -24.139  11.124  -7.326  0.00  0.00    -0.650 OA
BRANCH  35  37
HETATM   37  O   UNK     0     -24.635  12.934  -6.055  0.00  0.00    -0.776 OA
HETATM   38  H   UNK     0     -24.309  13.654  -5.431  0.00  0.00     0.167 HD
ENDBRANCH  35  37
ENDBRANCH  34  35
ENDBRANCH  33  34
ENDBRANCH   6  33
BRANCH  27  39
HETATM   39  C   UNK     0     -14.310   9.176 -11.641  0.00  0.00     0.051 C 
BRANCH  39  40
HETATM   40  C   UNK     0     -15.030   7.999 -12.127  0.00  0.00     0.114 C 
BRANCH  40  41
HETATM   41  C   UNK     0     -14.920   7.537 -13.492  0.00  0.00     0.139 C 
HETATM   42  O   UNK     0     -15.790   6.861 -14.057  0.00  0.00    -0.650 OA
BRANCH  41  43
HETATM   43  O   UNK     0     -13.755   7.866 -14.241  0.00  0.00    -0.776 OA
HETATM   44  H   UNK     0     -13.932   8.100 -15.211  0.00  0.00     0.167 HD
ENDBRANCH  41  43
ENDBRANCH  40  41
ENDBRANCH  39  40
ENDBRANCH  27  39
BRANCH  11  45
HETATM   45  C   UNK     0     -21.342  15.501 -15.628  0.00  0.00     0.051 C 
BRANCH  45  46
HETATM   46  C   UNK     0     -22.609  15.234 -16.355  0.00  0.00     0.114 C 
BRANCH  46  47
HETATM   47  C   UNK     0     -22.248  14.587 -17.649  0.00  0.00     0.139 C 
HETATM   48  O   UNK     0     -21.096  14.732 -18.083  0.00  0.00    -0.650 OA
BRANCH  47  49
HETATM   49  O   UNK     0     -23.169  13.847 -18.347  0.00  0.00    -0.776 OA
HETATM   50  H   UNK     0     -24.168  14.085 -18.351  0.00  0.00     0.167 HD
ENDBRANCH  47  49
ENDBRANCH  46  47
ENDBRANCH  45  46
ENDBRANCH  11  45
BRANCH  18  51
HETATM   51  C   UNK     0     -14.769  13.214 -16.206  0.00  0.00     0.051 C 
BRANCH  51  52
HETATM   52  C   UNK     0     -14.409  12.141 -17.224  0.00  0.00     0.114 C 
BRANCH  52  53
HETATM   53  C   UNK     0     -13.387  11.212 -16.705  0.00  0.00     0.139 C 
HETATM   54  O   UNK     0     -12.226  11.608 -16.516  0.00  0.00    -0.650 OA
BRANCH  53  55
HETATM   55  O   UNK     0     -13.728   9.909 -16.436  0.00  0.00    -0.776 OA
HETATM   56  H   UNK     0     -13.232   9.102 -16.735  0.00  0.00     0.167 HD
ENDBRANCH  53  55
ENDBRANCH  52  53
ENDBRANCH  51  52
ENDBRANCH  18  51
TORSDOF 16
ENDMDL
MODEL 18
REMARK VINA RESULT:      -7.2      1.468      7.571
REMARK  16 active torsions:
REMARK  status: ('A' for Active; 'I' for Inactive)
REMARK    1  A    between atoms: C_6  and  C_7 
REMARK    2  A    between atoms: C_7  and  C_8 
REMARK    3  A    between atoms: C_8  and  C_9 
REMARK    4  A    between atoms: C_9  and  O_11 
REMARK    5  A    between atoms: C_16  and  C_17 
REMARK    6  A    between atoms: C_17  and  C_18 
REMARK    7  A    between atoms: C_18  and  C_19 
REMARK    8  A    between atoms: C_19  and  O_21 
REMARK    9  A    between atoms: C_28  and  C_29 
REMARK   10  A    between atoms: C_29  and  C_30 
REMARK   11  A    between atoms: C_30  and  C_31 
REMARK   12  A    between atoms: C_31  and  O_33 
REMARK   13  A    between atoms: C_42  and  C_43 
REMARK   14  A    between atoms: C_43  and  C_44 
REMARK   15  A    between atoms: C_44  and  C_45 
REMARK   16  A    between atoms: C_45  and  O_47 
ROOT
HETATM    1  C   UNK     0     -15.861   9.509   0.154  0.00  0.00     0.051 C 
HETATM    2  C   UNK     0     -15.828   8.416   1.203  0.00  0.00    -0.031 A 
HETATM    3  C   UNK     0     -15.105   7.234   1.220  0.00  0.00     0.021 A 
HETATM    4  N   UNK     0     -15.412   6.545   2.345  0.00  0.00    -0.361 N 
HETATM    5  C   UNK     0     -16.309   7.266   3.049  0.00  0.00     0.022 A 
HETATM    6  C   UNK     0     -16.594   8.442   2.362  0.00  0.00    -0.027 A 
HETATM    7  C   UNK     0     -16.896   6.999   4.400  0.00  0.00     0.115 C 
HETATM    8  C   UNK     0     -15.943   6.495   5.469  0.00  0.00     0.021 A 
HETATM    9  N   UNK     0     -14.656   6.821   5.664  0.00  0.00    -0.361 N 
HETATM   10  C   UNK     0     -14.178   6.061   6.672  0.00  0.00     0.022 A 
HETATM   11  C   UNK     0     -15.188   5.229   7.147  0.00  0.00    -0.027 A 
HETATM   12  C   UNK     0     -16.302   5.497   6.394  0.00  0.00    -0.031 A 
HETATM   13  C   UNK     0     -17.650   4.830   6.558  0.00  0.00     0.051 C 
HETATM   14  C   UNK     0     -12.743   6.051   7.191  0.00  0.00     0.115 C 
HETATM   15  C   UNK     0     -11.714   5.644   6.148  0.00  0.00     0.021 A 
HETATM   16  N   UNK     0     -11.468   6.233   4.963  0.00  0.00    -0.361 N 
HETATM   17  C   UNK     0     -10.539   5.533   4.309  0.00  0.00     0.022 A 
HETATM   18  C   UNK     0     -10.153   4.440   5.111  0.00  0.00    -0.027 A 
HETATM   19  C   UNK     0     -10.896   4.522   6.261  0.00  0.00    -0.031 A 
HETATM   20  C   UNK     0     -10.766   3.551   7.420  0.00  0.00     0.051 C 
HETATM   21  C   UNK     0      -9.969   5.731   2.923  0.00  0.00     0.115 C 
HETATM   22  C   UNK     0     -10.895   6.273   1.860  0.00  0.00     0.022 A 
HETATM   23  N   UNK     0     -12.182   5.969   1.645  0.00  0.00    -0.361 N 
HETATM   24  C   UNK     0     -12.658   6.793   0.690  0.00  0.00     0.021 A 
HETATM   25  C   UNK     0     -11.650   7.640   0.271  0.00  0.00    -0.031 A 
HETATM   26  C   UNK     0     -11.687   8.706  -0.805  0.00  0.00     0.051 C 
HETATM   27  C   UNK     0     -10.512   7.327   1.005  0.00  0.00    -0.027 A 
HETATM   28  C   UNK     0     -14.083   6.892   0.174  0.00  0.00     0.115 C 
HETATM   29  H   UNK     0     -15.023   5.536   2.614  0.00  0.00     0.165 HD
HETATM   30  H   UNK     0     -14.095   7.623   5.124  0.00  0.00     0.165 HD
HETATM   31  H   UNK     0     -11.926   7.190   4.600  0.00  0.00     0.165 HD
HETATM   32  H   UNK     0     -12.755   5.141   2.137  0.00  0.00     0.165 HD
ENDROOT
BRANCH   6  33
HETATM   33  C   UNK     0     -17.527   9.571   2.717  0.00  0.00     0.051 C 
BRANCH  33  34
HETATM   34  C   UNK     0     -18.959   9.197   2.416  0.00  0.00     0.114 C 
BRANCH  34  35
HETATM   35  C   UNK     0     -19.369   9.948   1.195  0.00  0.00     0.139 C 
HETATM   36  O   UNK     0     -19.588  11.193   1.256  0.00  0.00    -0.650 OA
BRANCH  35  37
HETATM   37  O   UNK     0     -19.526   9.337  -0.044  0.00  0.00    -0.776 OA
HETATM   38  H   UNK     0     -19.837   9.846  -0.855  0.00  0.00     0.167 HD
ENDBRANCH  35  37
ENDBRANCH  34  35
ENDBRANCH  33  34
ENDBRANCH   6  33
BRANCH  27  39
HETATM   39  C   UNK     0      -9.196   7.986   0.781  0.00  0.00     0.051 C 
BRANCH  39  40
HETATM   40  C   UNK     0      -8.052   7.147   0.424  0.00  0.00     0.114 C 
BRANCH  40  41
HETATM   41  C   UNK     0      -8.048   6.310  -0.755  0.00  0.00     0.139 C 
HETATM   42  O   UNK     0      -8.241   5.087  -0.725  0.00  0.00    -0.650 OA
BRANCH  41  43
HETATM   43  O   UNK     0      -7.812   6.908  -2.025  0.00  0.00    -0.776 OA
HETATM   44  H   UNK     0      -8.347   7.750  -2.198  0.00  0.00     0.167 HD
ENDBRANCH  41  43
ENDBRANCH  40  41
ENDBRANCH  39  40
ENDBRANCH  27  39
BRANCH  11  45
HETATM   45  C   UNK     0     -15.130   4.220   8.262  0.00  0.00     0.051 C 
BRANCH  45  46
HETATM   46  C   UNK     0     -14.974   4.817   9.612  0.00  0.00     0.114 C 
BRANCH  46  47
HETATM   47  C   UNK     0     -16.272   5.462   9.962  0.00  0.00     0.139 C 
HETATM   48  O   UNK     0     -17.267   4.742  10.127  0.00  0.00    -0.650 OA
BRANCH  47  49
HETATM   49  O   UNK     0     -16.366   6.824  10.099  0.00  0.00    -0.776 OA
HETATM   50  H   UNK     0     -16.043   7.469   9.367  0.00  0.00     0.167 HD
ENDBRANCH  47  49
ENDBRANCH  46  47
ENDBRANCH  45  46
ENDBRANCH  11  45
BRANCH  18  51
HETATM   51  C   UNK     0      -9.119   3.388   4.808  0.00  0.00     0.051 C 
BRANCH  51  52
HETATM   52  C   UNK     0      -7.807   3.901   5.384  0.00  0.00     0.114 C 
BRANCH  52  53
HETATM   53  C   UNK     0      -7.083   2.849   6.122  0.00  0.00     0.139 C 
HETATM   54  O   UNK     0      -5.972   3.092   6.621  0.00  0.00    -0.650 OA
BRANCH  53  55
HETATM   55  O   UNK     0      -7.642   1.601   6.251  0.00  0.00    -0.776 OA
HETATM   56  H   UNK     0      -7.182   0.786   6.584  0.00  0.00     0.167 HD
ENDBRANCH  53  55
ENDBRANCH  52  53
ENDBRANCH  51  52
ENDBRANCH  18  51
TORSDOF 16
ENDMDL
MODEL 19
REMARK VINA RESULT:      -7.2     23.342     28.737
REMARK  16 active torsions:
REMARK  status: ('A' for Active; 'I' for Inactive)
REMARK    1  A    between atoms: C_6  and  C_7 
REMARK    2  A    between atoms: C_7  and  C_8 
REMARK    3  A    between atoms: C_8  and  C_9 
REMARK    4  A    between atoms: C_9  and  O_11 
REMARK    5  A    between atoms: C_16  and  C_17 
REMARK    6  A    between atoms: C_17  and  C_18 
REMARK    7  A    between atoms: C_18  and  C_19 
REMARK    8  A    between atoms: C_19  and  O_21 
REMARK    9  A    between atoms: C_28  and  C_29 
REMARK   10  A    between atoms: C_29  and  C_30 
REMARK   11  A    between atoms: C_30  and  C_31 
REMARK   12  A    between atoms: C_31  and  O_33 
REMARK   13  A    between atoms: C_42  and  C_43 
REMARK   14  A    between atoms: C_43  and  C_44 
REMARK   15  A    between atoms: C_44  and  C_45 
REMARK   16  A    between atoms: C_45  and  O_47 
ROOT
HETATM    1  C   UNK     0     -38.100 -13.691   6.700  0.00  0.00     0.051 C 
HETATM    2  C   UNK     0     -37.512 -13.830   5.311  0.00  0.00    -0.031 A 
HETATM    3  C   UNK     0     -37.259 -12.854   4.361  0.00  0.00     0.021 A 
HETATM    4  N   UNK     0     -36.757 -13.440   3.248  0.00  0.00    -0.361 N 
HETATM    5  C   UNK     0     -36.678 -14.768   3.471  0.00  0.00     0.022 A 
HETATM    6  C   UNK     0     -37.144 -15.047   4.751  0.00  0.00    -0.027 A 
HETATM    7  C   UNK     0     -36.109 -15.847   2.603  0.00  0.00     0.115 C 
HETATM    8  C   UNK     0     -34.800 -15.536   1.899  0.00  0.00     0.021 A 
HETATM    9  N   UNK     0     -33.763 -14.810   2.345  0.00  0.00    -0.361 N 
HETATM   10  C   UNK     0     -32.854 -14.722   1.350  0.00  0.00     0.022 A 
HETATM   11  C   UNK     0     -33.315 -15.419   0.237  0.00  0.00    -0.027 A 
HETATM   12  C   UNK     0     -34.539 -15.934   0.576  0.00  0.00    -0.031 A 
HETATM   13  C   UNK     0     -35.415 -16.773  -0.327  0.00  0.00     0.051 C 
HETATM   14  C   UNK     0     -31.546 -13.937   1.391  0.00  0.00     0.115 C 
HETATM   15  C   UNK     0     -31.731 -12.444   1.606  0.00  0.00     0.021 A 
HETATM   16  N   UNK     0     -32.336 -11.832   2.642  0.00  0.00    -0.361 N 
HETATM   17  C   UNK     0     -32.353 -10.515   2.423  0.00  0.00     0.022 A 
HETATM   18  C   UNK     0     -31.721 -10.256   1.191  0.00  0.00    -0.027 A 
HETATM   19  C   UNK     0     -31.335 -11.472   0.690  0.00  0.00    -0.031 A 
HETATM   20  C   UNK     0     -30.579 -11.645  -0.615  0.00  0.00     0.051 C 
HETATM   21  C   UNK     0     -32.973  -9.403   3.239  0.00  0.00     0.115 C 
HETATM   22  C   UNK     0     -34.253  -9.711   3.980  0.00  0.00     0.022 A 
HETATM   23  N   UNK     0     -35.300 -10.435   3.563  0.00  0.00    -0.361 N 
HETATM   24  C   UNK     0     -36.156 -10.574   4.595  0.00  0.00     0.021 A 
HETATM   25  C   UNK     0     -35.653  -9.916   5.700  0.00  0.00    -0.031 A 
HETATM   26  C   UNK     0     -36.268  -9.755   7.075  0.00  0.00     0.051 C 
HETATM   27  C   UNK     0     -34.436  -9.355   5.332  0.00  0.00    -0.027 A 
HETATM   28  C   UNK     0     -37.439 -11.387   4.635  0.00  0.00     0.115 C 
HETATM   29  H   UNK     0     -36.501 -12.916   2.298  0.00  0.00     0.165 HD
HETATM   30  H   UNK     0     -33.646 -14.400   3.378  0.00  0.00     0.165 HD
HETATM   31  H   UNK     0     -32.716 -12.334   3.569  0.00  0.00     0.165 HD
HETATM   32  H   UNK     0     -35.465 -10.817   2.522  0.00  0.00     0.165 HD
ENDROOT
BRANCH   6  33
HETATM   33  C   UNK     0     -37.268 -16.365   5.473  0.00  0.00     0.051 C 
BRANCH  33  34
HETATM   34  C   UNK     0     -38.422 -17.170   4.923  0.00  0.00     0.114 C 
BRANCH  34  35
HETATM   35  C   UNK     0     -39.631 -16.820   5.723  0.00  0.00     0.139 C 
HETATM   36  O   UNK     0     -39.723 -17.185   6.931  0.00  0.00    -0.650 OA
BRANCH  35  37
HETATM   37  O   UNK     0     -40.692 -16.092   5.199  0.00  0.00    -0.776 OA
HETATM   38  H   UNK     0     -40.551 -15.325   4.561  0.00  0.00     0.167 HD
ENDBRANCH  35  37
ENDBRANCH  34  35
ENDBRANCH  33  34
ENDBRANCH   6  33
BRANCH  27  39
HETATM   39  C   UNK     0     -33.626  -8.504   6.245  0.00  0.00     0.051 C 
BRANCH  39  40
HETATM   40  C   UNK     0     -33.383  -7.113   5.863  0.00  0.00     0.114 C 
BRANCH  40  41
HETATM   41  C   UNK     0     -34.439  -6.127   5.831  0.00  0.00     0.139 C 
HETATM   42  O   UNK     0     -35.600  -6.380   5.479  0.00  0.00    -0.650 OA
BRANCH  41  43
HETATM   43  O   UNK     0     -34.148  -4.789   6.221  0.00  0.00    -0.776 OA
HETATM   44  H   UNK     0     -34.445  -4.085   5.556  0.00  0.00     0.167 HD
ENDBRANCH  41  43
ENDBRANCH  40  41
ENDBRANCH  39  40
ENDBRANCH  27  39
BRANCH  11  45
HETATM   45  C   UNK     0     -32.646 -15.607  -1.099  0.00  0.00     0.051 C 
BRANCH  45  46
HETATM   46  C   UNK     0     -32.813 -14.460  -2.027  0.00  0.00     0.114 C 
BRANCH  46  47
HETATM   47  C   UNK     0     -32.674 -14.990  -3.414  0.00  0.00     0.139 C 
HETATM   48  O   UNK     0     -32.083 -16.066  -3.580  0.00  0.00    -0.650 OA
BRANCH  47  49
HETATM   49  O   UNK     0     -33.189 -14.302  -4.484  0.00  0.00    -0.776 OA
HETATM   50  H   UNK     0     -32.715 -13.484  -4.885  0.00  0.00     0.167 HD
ENDBRANCH  47  49
ENDBRANCH  46  47
ENDBRANCH  45  46
ENDBRANCH  11  45
BRANCH  18  51
HETATM   51  C   UNK     0     -31.479  -8.920   0.537  0.00  0.00     0.051 C 
BRANCH  51  52
HETATM   52  C   UNK     0     -30.241  -8.337   1.203  0.00  0.00     0.114 C 
BRANCH  52  53
HETATM   53  C   UNK     0     -29.225  -7.931   0.214  0.00  0.00     0.139 C 
HETATM   54  O   UNK     0     -28.502  -8.786  -0.322  0.00  0.00    -0.650 OA
BRANCH  53  55
HETATM   55  O   UNK     0     -29.081  -6.603  -0.106  0.00  0.00    -0.776 OA
HETATM   56  H   UNK     0     -29.117  -5.841   0.530  0.00  0.00     0.167 HD
ENDBRANCH  53  55
ENDBRANCH  52  53
ENDBRANCH  51  52
ENDBRANCH  18  51
TORSDOF 16
ENDMDL
MODEL 20
REMARK VINA RESULT:      -7.1      2.541      7.674
REMARK  16 active torsions:
REMARK  status: ('A' for Active; 'I' for Inactive)
REMARK    1  A    between atoms: C_6  and  C_7 
REMARK    2  A    between atoms: C_7  and  C_8 
REMARK    3  A    between atoms: C_8  and  C_9 
REMARK    4  A    between atoms: C_9  and  O_11 
REMARK    5  A    between atoms: C_16  and  C_17 
REMARK    6  A    between atoms: C_17  and  C_18 
REMARK    7  A    between atoms: C_18  and  C_19 
REMARK    8  A    between atoms: C_19  and  O_21 
REMARK    9  A    between atoms: C_28  and  C_29 
REMARK   10  A    between atoms: C_29  and  C_30 
REMARK   11  A    between atoms: C_30  and  C_31 
REMARK   12  A    between atoms: C_31  and  O_33 
REMARK   13  A    between atoms: C_42  and  C_43 
REMARK   14  A    between atoms: C_43  and  C_44 
REMARK   15  A    between atoms: C_44  and  C_45 
REMARK   16  A    between atoms: C_45  and  O_47 
ROOT
HETATM    1  C   UNK     0      -8.931   7.341  -0.384  0.00  0.00     0.051 C 
HETATM    2  C   UNK     0     -10.193   6.937   0.349  0.00  0.00    -0.031 A 
HETATM    3  C   UNK     0     -10.461   5.785   1.072  0.00  0.00     0.021 A 
HETATM    4  N   UNK     0     -11.734   5.836   1.529  0.00  0.00    -0.361 N 
HETATM    5  C   UNK     0     -12.282   7.000   1.121  0.00  0.00     0.022 A 
HETATM    6  C   UNK     0     -11.346   7.712   0.378  0.00  0.00    -0.027 A 
HETATM    7  C   UNK     0     -13.625   7.582   1.435  0.00  0.00     0.115 C 
HETATM    8  C   UNK     0     -14.101   7.462   2.872  0.00  0.00     0.021 A 
HETATM    9  N   UNK     0     -13.378   7.525   4.000  0.00  0.00    -0.361 N 
HETATM   10  C   UNK     0     -14.201   7.273   5.040  0.00  0.00     0.022 A 
HETATM   11  C   UNK     0     -15.492   7.051   4.569  0.00  0.00    -0.027 A 
HETATM   12  C   UNK     0     -15.436   7.168   3.204  0.00  0.00    -0.031 A 
HETATM   13  C   UNK     0     -16.610   7.011   2.264  0.00  0.00     0.051 C 
HETATM   14  C   UNK     0     -13.795   7.180   6.509  0.00  0.00     0.115 C 
HETATM   15  C   UNK     0     -12.786   6.081   6.800  0.00  0.00     0.021 A 
HETATM   16  N   UNK     0     -11.559   5.931   6.268  0.00  0.00    -0.361 N 
HETATM   17  C   UNK     0     -11.016   4.802   6.729  0.00  0.00     0.022 A 
HETATM   18  C   UNK     0     -11.930   4.192   7.611  0.00  0.00    -0.027 A 
HETATM   19  C   UNK     0     -13.034   5.003   7.648  0.00  0.00    -0.031 A 
HETATM   20  C   UNK     0     -14.253   4.732   8.511  0.00  0.00     0.051 C 
HETATM   21  C   UNK     0      -9.696   4.148   6.389  0.00  0.00     0.115 C 
HETATM   22  C   UNK     0      -9.189   4.297   4.974  0.00  0.00     0.022 A 
HETATM   23  N   UNK     0      -9.887   4.242   3.832  0.00  0.00    -0.361 N 
HETATM   24  C   UNK     0      -9.063   4.573   2.816  0.00  0.00     0.021 A 
HETATM   25  C   UNK     0      -7.802   4.836   3.315  0.00  0.00    -0.031 A 
HETATM   26  C   UNK     0      -6.539   5.206   2.566  0.00  0.00     0.051 C 
HETATM   27  C   UNK     0      -7.858   4.666   4.694  0.00  0.00    -0.027 A 
HETATM   28  C   UNK     0      -9.418   4.739   1.349  0.00  0.00     0.115 C 
HETATM   29  H   UNK     0     -12.251   5.032   2.103  0.00  0.00     0.165 HD
HETATM   30  H   UNK     0     -12.296   7.796   4.070  0.00  0.00     0.165 HD
HETATM   31  H   UNK     0     -11.044   6.661   5.591  0.00  0.00     0.165 HD
HETATM   32  H   UNK     0     -10.958   3.928   3.727  0.00  0.00     0.165 HD
ENDROOT
BRANCH   6  33
HETATM   33  C   UNK     0     -11.463   9.054  -0.299  0.00  0.00     0.051 C 
BRANCH  33  34
HETATM   34  C   UNK     0     -11.004  10.160   0.621  0.00  0.00     0.114 C 
BRANCH  34  35
HETATM   35  C   UNK     0      -9.684  10.639   0.121  0.00  0.00     0.139 C 
HETATM   36  O   UNK     0      -9.554  11.004  -1.084  0.00  0.00    -0.650 OA
BRANCH  35  37
HETATM   37  O   UNK     0      -8.556  10.709   0.930  0.00  0.00    -0.776 OA
HETATM   38  H   UNK     0      -7.625  10.621   0.557  0.00  0.00     0.167 HD
ENDBRANCH  35  37
ENDBRANCH  34  35
ENDBRANCH  33  34
ENDBRANCH   6  33
BRANCH  27  39
HETATM   39  C   UNK     0      -6.665   4.795   5.575  0.00  0.00     0.051 C 
BRANCH  39  40
HETATM   40  C   UNK     0      -5.960   3.576   5.971  0.00  0.00     0.114 C 
BRANCH  40  41
HETATM   41  C   UNK     0      -6.542   2.608   6.873  0.00  0.00     0.139 C 
HETATM   42  O   UNK     0      -6.346   2.609   8.096  0.00  0.00    -0.650 OA
BRANCH  41  43
HETATM   43  O   UNK     0      -7.387   1.591   6.345  0.00  0.00    -0.776 OA
HETATM   44  H   UNK     0      -8.022   1.182   7.019  0.00  0.00     0.167 HD
ENDBRANCH  41  43
ENDBRANCH  40  41
ENDBRANCH  39  40
ENDBRANCH  27  39
BRANCH  11  45
HETATM   45  C   UNK     0     -16.740   6.743   5.352  0.00  0.00     0.051 C 
BRANCH  45  46
HETATM   46  C   UNK     0     -16.809   5.348   5.858  0.00  0.00     0.114 C 
BRANCH  46  47
HETATM   47  C   UNK     0     -17.486   4.531   4.811  0.00  0.00     0.139 C 
HETATM   48  O   UNK     0     -18.709   4.661   4.658  0.00  0.00    -0.650 OA
BRANCH  47  49
HETATM   49  O   UNK     0     -16.773   3.654   4.034  0.00  0.00    -0.776 OA
HETATM   50  H   UNK     0     -16.935   3.565   3.024  0.00  0.00     0.167 HD
ENDBRANCH  47  49
ENDBRANCH  46  47
ENDBRANCH  45  46
ENDBRANCH  11  45
BRANCH  18  51
HETATM   51  C   UNK     0     -11.753   2.916   8.393  0.00  0.00     0.051 C 
BRANCH  51  52
HETATM   52  C   UNK     0     -10.986   3.291   9.652  0.00  0.00     0.114 C 
BRANCH  52  53
HETATM   53  C   UNK     0      -9.697   2.580   9.743  0.00  0.00     0.139 C 
HETATM   54  O   UNK     0      -8.977   2.723  10.744  0.00  0.00    -0.650 OA
BRANCH  53  55
HETATM   55  O   UNK     0      -9.297   1.763   8.713  0.00  0.00    -0.776 OA
HETATM   56  H   UNK     0      -8.499   1.172   8.712  0.00  0.00     0.167 HD
ENDBRANCH  53  55
ENDBRANCH  52  53
ENDBRANCH  51  52
ENDBRANCH  18  51
TORSDOF 16
ENDMDL
