MODEL 1
REMARK VINA RESULT:     -10.8      0.000      0.000
REMARK  16 active torsions:
REMARK  status: ('A' for Active; 'I' for Inactive)
REMARK    1  A    between atoms: C_6  and  C_7 
REMARK    2  A    between atoms: C_7  and  C_8 
REMARK    3  A    between atoms: C_8  and  C_9 
REMARK    4  A    between atoms: C_9  and  O_11 
REMARK    5  A    between atoms: C_16  and  C_17 
REMARK    6  A    between atoms: C_17  and  C_18 
REMARK    7  A    between atoms: C_18  and  C_19 
REMARK    8  A    between atoms: C_19  and  O_21 
REMARK    9  A    between atoms: C_28  and  C_29 
REMARK   10  A    between atoms: C_29  and  C_30 
REMARK   11  A    between atoms: C_30  and  C_31 
REMARK   12  A    between atoms: C_31  and  O_33 
REMARK   13  A    between atoms: C_42  and  C_43 
REMARK   14  A    between atoms: C_43  and  C_44 
REMARK   15  A    between atoms: C_44  and  C_45 
REMARK   16  A    between atoms: C_45  and  O_47 
ROOT
HETATM    1  C   UNK     0       7.649   3.750  22.855  0.00  0.00     0.051 C 
HETATM    2  C   UNK     0       6.466   4.593  23.283  0.00  0.00    -0.031 A 
HETATM    3  C   UNK     0       6.421   5.934  23.633  0.00  0.00     0.021 A 
HETATM    4  N   UNK     0       5.152   6.258  23.977  0.00  0.00    -0.361 N 
HETATM    5  C   UNK     0       4.386   5.156  23.846  0.00  0.00     0.022 A 
HETATM    6  C   UNK     0       5.176   4.095  23.416  0.00  0.00    -0.027 A 
HETATM    7  C   UNK     0       2.906   5.000  24.011  0.00  0.00     0.115 C 
HETATM    8  C   UNK     0       2.036   6.097  23.423  0.00  0.00     0.021 A 
HETATM    9  N   UNK     0       2.229   6.806  22.300  0.00  0.00    -0.361 N 
HETATM   10  C   UNK     0       1.253   7.736  22.219  0.00  0.00     0.022 A 
HETATM   11  C   UNK     0       0.403   7.616  23.314  0.00  0.00    -0.027 A 
HETATM   12  C   UNK     0       0.891   6.586  24.077  0.00  0.00    -0.031 A 
HETATM   13  C   UNK     0       0.281   6.092  25.370  0.00  0.00     0.051 C 
HETATM   14  C   UNK     0       1.114   8.804  21.137  0.00  0.00     0.115 C 
HETATM   15  C   UNK     0       2.292   9.762  21.064  0.00  0.00     0.021 A 
HETATM   16  N   UNK     0       3.585   9.460  20.847  0.00  0.00    -0.361 N 
HETATM   17  C   UNK     0       4.316  10.574  20.927  0.00  0.00     0.022 A 
HETATM   18  C   UNK     0       3.456  11.656  21.199  0.00  0.00    -0.027 A 
HETATM   19  C   UNK     0       2.191  11.135  21.281  0.00  0.00    -0.031 A 
HETATM   20  C   UNK     0       0.948  11.971  21.528  0.00  0.00     0.051 C 
HETATM   21  C   UNK     0       5.813  10.763  20.833  0.00  0.00     0.115 C 
HETATM   22  C   UNK     0       6.691   9.660  21.374  0.00  0.00     0.022 A 
HETATM   23  N   UNK     0       6.521   8.934  22.487  0.00  0.00    -0.361 N 
HETATM   24  C   UNK     0       7.458   7.965  22.508  0.00  0.00     0.021 A 
HETATM   25  C   UNK     0       8.257   8.075  21.386  0.00  0.00    -0.031 A 
HETATM   26  C   UNK     0       9.460   7.245  20.987  0.00  0.00     0.051 C 
HETATM   27  C   UNK     0       7.786   9.153  20.645  0.00  0.00    -0.027 A 
HETATM   28  C   UNK     0       7.612   6.843  23.520  0.00  0.00     0.115 C 
HETATM   29  H   UNK     0       4.815   7.253  24.348  0.00  0.00     0.165 HD
HETATM   30  H   UNK     0       3.024   6.620  21.537  0.00  0.00     0.165 HD
HETATM   31  H   UNK     0       3.986   8.446  20.585  0.00  0.00     0.165 HD
HETATM   32  H   UNK     0       5.764   9.127  23.292  0.00  0.00     0.165 HD
ENDROOT
BRANCH   6  33
HETATM   33  C   UNK     0       4.804   2.662  23.129  0.00  0.00     0.051 C 
BRANCH  33  34
HETATM   34  C   UNK     0       5.015   1.799  24.350  0.00  0.00     0.114 C 
BRANCH  34  35
HETATM   35  C   UNK     0       5.837   0.628  23.933  0.00  0.00     0.139 C 
HETATM   36  O   UNK     0       6.168   0.481  22.720  0.00  0.00    -0.650 OA
BRANCH  35  37
HETATM   37  O   UNK     0       6.274  -0.339  24.830  0.00  0.00    -0.776 OA
HETATM   38  H   UNK     0       7.163  -0.801  24.728  0.00  0.00     0.167 HD
ENDBRANCH  35  37
ENDBRANCH  34  35
ENDBRANCH  33  34
ENDBRANCH   6  33
BRANCH  27  39
HETATM   39  C   UNK     0       8.442   9.626  19.396  0.00  0.00     0.051 C 
BRANCH  39  40
HETATM   40  C   UNK     0       9.599  10.513  19.514  0.00  0.00     0.114 C 
BRANCH  40  41
HETATM   41  C   UNK     0      10.731  10.425  18.619  0.00  0.00     0.139 C 
HETATM   42  O   UNK     0      11.173  11.389  17.979  0.00  0.00    -0.650 OA
BRANCH  41  43
HETATM   43  O   UNK     0      11.385   9.171  18.454  0.00  0.00    -0.776 OA
HETATM   44  H   UNK     0      11.479   8.632  19.306  0.00  0.00     0.167 HD
ENDBRANCH  41  43
ENDBRANCH  40  41
ENDBRANCH  39  40
ENDBRANCH  27  39
BRANCH  11  45
HETATM   45  C   UNK     0      -0.822   8.424  23.648  0.00  0.00     0.051 C 
BRANCH  45  46
HETATM   46  C   UNK     0      -2.096   7.808  23.197  0.00  0.00     0.114 C 
BRANCH  46  47
HETATM   47  C   UNK     0      -2.683   8.712  22.167  0.00  0.00     0.139 C 
HETATM   48  O   UNK     0      -3.689   8.333  21.552  0.00  0.00    -0.650 OA
BRANCH  47  49
HETATM   49  O   UNK     0      -2.122   9.936  21.904  0.00  0.00    -0.776 OA
HETATM   50  H   UNK     0      -1.126  10.042  21.679  0.00  0.00     0.167 HD
ENDBRANCH  47  49
ENDBRANCH  46  47
ENDBRANCH  45  46
ENDBRANCH  11  45
BRANCH  18  51
HETATM   51  C   UNK     0       3.817  13.111  21.352  0.00  0.00     0.051 C 
BRANCH  51  52
HETATM   52  C   UNK     0       4.098  13.629  19.949  0.00  0.00     0.114 C 
BRANCH  52  53
HETATM   53  C   UNK     0       5.338  14.428  19.897  0.00  0.00     0.139 C 
HETATM   54  O   UNK     0       6.108  14.445  20.871  0.00  0.00    -0.650 OA
BRANCH  53  55
HETATM   55  O   UNK     0       5.633  15.153  18.768  0.00  0.00    -0.776 OA
HETATM   56  H   UNK     0       6.541  15.338  18.413  0.00  0.00     0.167 HD
ENDBRANCH  53  55
ENDBRANCH  52  53
ENDBRANCH  51  52
ENDBRANCH  18  51
TORSDOF 16
ENDMDL
MODEL 2
REMARK VINA RESULT:     -10.7      2.589      7.233
REMARK  16 active torsions:
REMARK  status: ('A' for Active; 'I' for Inactive)
REMARK    1  A    between atoms: C_6  and  C_7 
REMARK    2  A    between atoms: C_7  and  C_8 
REMARK    3  A    between atoms: C_8  and  C_9 
REMARK    4  A    between atoms: C_9  and  O_11 
REMARK    5  A    between atoms: C_16  and  C_17 
REMARK    6  A    between atoms: C_17  and  C_18 
REMARK    7  A    between atoms: C_18  and  C_19 
REMARK    8  A    between atoms: C_19  and  O_21 
REMARK    9  A    between atoms: C_28  and  C_29 
REMARK   10  A    between atoms: C_29  and  C_30 
REMARK   11  A    between atoms: C_30  and  C_31 
REMARK   12  A    between atoms: C_31  and  O_33 
REMARK   13  A    between atoms: C_42  and  C_43 
REMARK   14  A    between atoms: C_43  and  C_44 
REMARK   15  A    between atoms: C_44  and  C_45 
REMARK   16  A    between atoms: C_45  and  O_47 
ROOT
HETATM    1  C   UNK     0      -0.448   6.900  24.072  0.00  0.00     0.051 C 
HETATM    2  C   UNK     0       0.919   6.605  23.489  0.00  0.00    -0.031 A 
HETATM    3  C   UNK     0       1.482   7.043  22.302  0.00  0.00     0.021 A 
HETATM    4  N   UNK     0       2.717   6.502  22.173  0.00  0.00    -0.361 N 
HETATM    5  C   UNK     0       2.956   5.735  23.256  0.00  0.00     0.022 A 
HETATM    6  C   UNK     0       1.850   5.775  24.100  0.00  0.00    -0.027 A 
HETATM    7  C   UNK     0       4.199   4.998  23.646  0.00  0.00     0.115 C 
HETATM    8  C   UNK     0       5.516   5.727  23.442  0.00  0.00     0.021 A 
HETATM    9  N   UNK     0       5.779   7.035  23.587  0.00  0.00    -0.361 N 
HETATM   10  C   UNK     0       7.058   7.249  23.212  0.00  0.00     0.022 A 
HETATM   11  C   UNK     0       7.637   6.045  22.822  0.00  0.00    -0.027 A 
HETATM   12  C   UNK     0       6.671   5.082  22.965  0.00  0.00    -0.031 A 
HETATM   13  C   UNK     0       6.852   3.611  22.662  0.00  0.00     0.051 C 
HETATM   14  C   UNK     0       7.765   8.600  23.154  0.00  0.00     0.115 C 
HETATM   15  C   UNK     0       7.122   9.592  22.199  0.00  0.00     0.021 A 
HETATM   16  N   UNK     0       5.858  10.056  22.225  0.00  0.00    -0.361 N 
HETATM   17  C   UNK     0       5.663  10.856  21.174  0.00  0.00     0.022 A 
HETATM   18  C   UNK     0       6.860  10.923  20.432  0.00  0.00    -0.027 A 
HETATM   19  C   UNK     0       7.766  10.129  21.086  0.00  0.00    -0.031 A 
HETATM   20  C   UNK     0       9.205   9.946  20.639  0.00  0.00     0.051 C 
HETATM   21  C   UNK     0       4.410  11.563  20.710  0.00  0.00     0.115 C 
HETATM   22  C   UNK     0       3.089  10.869  20.947  0.00  0.00     0.022 A 
HETATM   23  N   UNK     0       2.800   9.568  20.814  0.00  0.00    -0.361 N 
HETATM   24  C   UNK     0       1.546   9.365  21.267  0.00  0.00     0.021 A 
HETATM   25  C   UNK     0       1.012  10.566  21.693  0.00  0.00    -0.031 A 
HETATM   26  C   UNK     0      -0.370  10.853  22.242  0.00  0.00     0.051 C 
HETATM   27  C   UNK     0       1.981  11.544  21.498  0.00  0.00    -0.027 A 
HETATM   28  C   UNK     0       0.810   8.043  21.404  0.00  0.00     0.115 C 
HETATM   29  H   UNK     0       3.395   6.634  21.298  0.00  0.00     0.165 HD
HETATM   30  H   UNK     0       5.079   7.801  24.003  0.00  0.00     0.165 HD
HETATM   31  H   UNK     0       5.102   9.854  23.027  0.00  0.00     0.165 HD
HETATM   32  H   UNK     0       3.463   8.788  20.357  0.00  0.00     0.165 HD
ENDROOT
BRANCH   6  33
HETATM   33  C   UNK     0       1.614   5.091  25.422  0.00  0.00     0.051 C 
BRANCH  33  34
HETATM   34  C   UNK     0       1.237   3.643  25.216  0.00  0.00     0.114 C 
BRANCH  34  35
HETATM   35  C   UNK     0       1.989   2.838  26.222  0.00  0.00     0.139 C 
HETATM   36  O   UNK     0       1.596   2.793  27.424  0.00  0.00    -0.650 OA
BRANCH  35  37
HETATM   37  O   UNK     0       3.129   2.112  25.900  0.00  0.00    -0.776 OA
HETATM   38  H   UNK     0       3.659   1.614  26.596  0.00  0.00     0.167 HD
ENDBRANCH  35  37
ENDBRANCH  34  35
ENDBRANCH  33  34
ENDBRANCH   6  33
BRANCH  27  39
HETATM   39  C   UNK     0       1.744  12.987  21.775  0.00  0.00     0.051 C 
BRANCH  39  40
HETATM   40  C   UNK     0       1.363  13.854  20.661  0.00  0.00     0.114 C 
BRANCH  40  41
HETATM   41  C   UNK     0       2.182  14.967  20.236  0.00  0.00     0.139 C 
HETATM   42  O   UNK     0       1.789  16.142  20.230  0.00  0.00    -0.650 OA
BRANCH  41  43
HETATM   43  O   UNK     0       3.513  14.717  19.797  0.00  0.00    -0.776 OA
HETATM   44  H   UNK     0       3.985  15.525  19.410  0.00  0.00     0.167 HD
ENDBRANCH  41  43
ENDBRANCH  40  41
ENDBRANCH  39  40
ENDBRANCH  27  39
BRANCH  11  45
HETATM   45  C   UNK     0       9.038   5.788  22.336  0.00  0.00     0.051 C 
BRANCH  45  46
HETATM   46  C   UNK     0      10.087   6.021  23.361  0.00  0.00     0.114 C 
BRANCH  46  47
HETATM   47  C   UNK     0      11.175   6.805  22.709  0.00  0.00     0.139 C 
HETATM   48  O   UNK     0      11.207   6.857  21.472  0.00  0.00    -0.650 OA
BRANCH  47  49
HETATM   49  O   UNK     0      12.120   7.455  23.461  0.00  0.00    -0.776 OA
HETATM   50  H   UNK     0      11.897   7.881  24.369  0.00  0.00     0.167 HD
ENDBRANCH  47  49
ENDBRANCH  46  47
ENDBRANCH  45  46
ENDBRANCH  11  45
BRANCH  18  51
HETATM   51  C   UNK     0       7.131  11.719  19.182  0.00  0.00     0.051 C 
BRANCH  51  52
HETATM   52  C   UNK     0       6.815  10.797  18.014  0.00  0.00     0.114 C 
BRANCH  52  53
HETATM   53  C   UNK     0       7.843  10.875  16.958  0.00  0.00     0.139 C 
HETATM   54  O   UNK     0       8.974  11.312  17.223  0.00  0.00    -0.650 OA
BRANCH  53  55
HETATM   55  O   UNK     0       7.539  10.465  15.682  0.00  0.00    -0.776 OA
HETATM   56  H   UNK     0       8.193  10.268  14.961  0.00  0.00     0.167 HD
ENDBRANCH  53  55
ENDBRANCH  52  53
ENDBRANCH  51  52
ENDBRANCH  18  51
TORSDOF 16
ENDMDL
MODEL 3
REMARK VINA RESULT:     -10.7      2.360      8.778
REMARK  16 active torsions:
REMARK  status: ('A' for Active; 'I' for Inactive)
REMARK    1  A    between atoms: C_6  and  C_7 
REMARK    2  A    between atoms: C_7  and  C_8 
REMARK    3  A    between atoms: C_8  and  C_9 
REMARK    4  A    between atoms: C_9  and  O_11 
REMARK    5  A    between atoms: C_16  and  C_17 
REMARK    6  A    between atoms: C_17  and  C_18 
REMARK    7  A    between atoms: C_18  and  C_19 
REMARK    8  A    between atoms: C_19  and  O_21 
REMARK    9  A    between atoms: C_28  and  C_29 
REMARK   10  A    between atoms: C_29  and  C_30 
REMARK   11  A    between atoms: C_30  and  C_31 
REMARK   12  A    between atoms: C_31  and  O_33 
REMARK   13  A    between atoms: C_42  and  C_43 
REMARK   14  A    between atoms: C_43  and  C_44 
REMARK   15  A    between atoms: C_44  and  C_45 
REMARK   16  A    between atoms: C_45  and  O_47 
ROOT
HETATM    1  C   UNK     0       0.612   6.510  22.826  0.00  0.00     0.051 C 
HETATM    2  C   UNK     0       1.730   7.518  22.651  0.00  0.00    -0.031 A 
HETATM    3  C   UNK     0       2.924   7.635  23.344  0.00  0.00     0.021 A 
HETATM    4  N   UNK     0       3.607   8.704  22.870  0.00  0.00    -0.361 N 
HETATM    5  C   UNK     0       2.877   9.265  21.883  0.00  0.00     0.022 A 
HETATM    6  C   UNK     0       1.696   8.550  21.722  0.00  0.00    -0.027 A 
HETATM    7  C   UNK     0       3.220  10.406  20.977  0.00  0.00     0.115 C 
HETATM    8  C   UNK     0       4.632  10.434  20.420  0.00  0.00     0.021 A 
HETATM    9  N   UNK     0       5.406   9.401  20.052  0.00  0.00    -0.361 N 
HETATM   10  C   UNK     0       6.616   9.887  19.704  0.00  0.00     0.022 A 
HETATM   11  C   UNK     0       6.619  11.272  19.842  0.00  0.00    -0.027 A 
HETATM   12  C   UNK     0       5.372  11.623  20.292  0.00  0.00    -0.031 A 
HETATM   13  C   UNK     0       4.912  13.035  20.580  0.00  0.00     0.051 C 
HETATM   14  C   UNK     0       7.830   9.065  19.281  0.00  0.00     0.115 C 
HETATM   15  C   UNK     0       8.319   8.095  20.345  0.00  0.00     0.021 A 
HETATM   16  N   UNK     0       7.627   7.099  20.928  0.00  0.00    -0.361 N 
HETATM   17  C   UNK     0       8.388   6.524  21.862  0.00  0.00     0.022 A 
HETATM   18  C   UNK     0       9.640   7.170  21.880  0.00  0.00    -0.027 A 
HETATM   19  C   UNK     0       9.585   8.151  20.925  0.00  0.00    -0.031 A 
HETATM   20  C   UNK     0      10.746   9.069  20.588  0.00  0.00     0.051 C 
HETATM   21  C   UNK     0       8.059   5.419  22.839  0.00  0.00     0.115 C 
HETATM   22  C   UNK     0       6.646   5.353  23.368  0.00  0.00     0.022 A 
HETATM   23  N   UNK     0       5.850   6.365  23.737  0.00  0.00    -0.361 N 
HETATM   24  C   UNK     0       4.626   5.866  24.005  0.00  0.00     0.021 A 
HETATM   25  C   UNK     0       4.638   4.497  23.814  0.00  0.00    -0.031 A 
HETATM   26  C   UNK     0       3.521   3.496  24.025  0.00  0.00     0.051 C 
HETATM   27  C   UNK     0       5.919   4.146  23.406  0.00  0.00    -0.027 A 
HETATM   28  C   UNK     0       3.369   6.634  24.373  0.00  0.00     0.115 C 
HETATM   29  H   UNK     0       4.581   9.079  23.262  0.00  0.00     0.165 HD
HETATM   30  H   UNK     0       5.086   8.332  19.990  0.00  0.00     0.165 HD
HETATM   31  H   UNK     0       6.596   6.763  20.644  0.00  0.00     0.165 HD
HETATM   32  H   UNK     0       6.156   7.437  23.854  0.00  0.00     0.165 HD
ENDROOT
BRANCH   6  33
HETATM   33  C   UNK     0       0.550   8.771  20.767  0.00  0.00     0.051 C 
BRANCH  33  34
HETATM   34  C   UNK     0      -0.392   9.825  21.296  0.00  0.00     0.114 C 
BRANCH  34  35
HETATM   35  C   UNK     0      -1.726   9.183  21.476  0.00  0.00     0.139 C 
HETATM   36  O   UNK     0      -2.458   8.944  20.472  0.00  0.00    -0.650 OA
BRANCH  35  37
HETATM   37  O   UNK     0      -2.221   8.819  22.722  0.00  0.00    -0.776 OA
HETATM   38  H   UNK     0      -1.783   8.106  23.284  0.00  0.00     0.167 HD
ENDBRANCH  35  37
ENDBRANCH  34  35
ENDBRANCH  33  34
ENDBRANCH   6  33
BRANCH  27  39
HETATM   39  C   UNK     0       6.337   2.737  23.170  0.00  0.00     0.051 C 
BRANCH  39  40
HETATM   40  C   UNK     0       6.599   1.887  24.331  0.00  0.00     0.114 C 
BRANCH  40  41
HETATM   41  C   UNK     0       6.179   0.504  24.384  0.00  0.00     0.139 C 
HETATM   42  O   UNK     0       6.969  -0.447  24.459  0.00  0.00    -0.650 OA
BRANCH  41  43
HETATM   43  O   UNK     0       4.789   0.202  24.348  0.00  0.00    -0.776 OA
HETATM   44  H   UNK     0       4.366   0.067  25.259  0.00  0.00     0.167 HD
ENDBRANCH  41  43
ENDBRANCH  40  41
ENDBRANCH  39  40
ENDBRANCH  27  39
BRANCH  11  45
HETATM   45  C   UNK     0       7.734  12.244  19.564  0.00  0.00     0.051 C 
BRANCH  45  46
HETATM   46  C   UNK     0       8.995  11.942  20.288  0.00  0.00     0.114 C 
BRANCH  46  47
HETATM   47  C   UNK     0       8.939  12.662  21.593  0.00  0.00     0.139 C 
HETATM   48  O   UNK     0       8.504  13.821  21.611  0.00  0.00    -0.650 OA
BRANCH  47  49
HETATM   49  O   UNK     0       9.362  12.055  22.749  0.00  0.00    -0.776 OA
HETATM   50  H   UNK     0       8.724  11.872  23.532  0.00  0.00     0.167 HD
ENDBRANCH  47  49
ENDBRANCH  46  47
ENDBRANCH  45  46
ENDBRANCH  11  45
BRANCH  18  51
HETATM   51  C   UNK     0      10.832   6.856  22.747  0.00  0.00     0.051 C 
BRANCH  51  52
HETATM   52  C   UNK     0      10.767   7.816  23.926  0.00  0.00     0.114 C 
BRANCH  52  53
HETATM   53  C   UNK     0      11.165   7.163  25.188  0.00  0.00     0.139 C 
HETATM   54  O   UNK     0      10.373   6.410  25.775  0.00  0.00    -0.650 OA
BRANCH  53  55
HETATM   55  O   UNK     0      12.415   7.398  25.709  0.00  0.00    -0.776 OA
HETATM   56  H   UNK     0      12.697   7.231  26.646  0.00  0.00     0.167 HD
ENDBRANCH  53  55
ENDBRANCH  52  53
ENDBRANCH  51  52
ENDBRANCH  18  51
TORSDOF 16
ENDMDL
MODEL 4
REMARK VINA RESULT:     -10.5      1.887      2.088
REMARK  16 active torsions:
REMARK  status: ('A' for Active; 'I' for Inactive)
REMARK    1  A    between atoms: C_6  and  C_7 
REMARK    2  A    between atoms: C_7  and  C_8 
REMARK    3  A    between atoms: C_8  and  C_9 
REMARK    4  A    between atoms: C_9  and  O_11 
REMARK    5  A    between atoms: C_16  and  C_17 
REMARK    6  A    between atoms: C_17  and  C_18 
REMARK    7  A    between atoms: C_18  and  C_19 
REMARK    8  A    between atoms: C_19  and  O_21 
REMARK    9  A    between atoms: C_28  and  C_29 
REMARK   10  A    between atoms: C_29  and  C_30 
REMARK   11  A    between atoms: C_30  and  C_31 
REMARK   12  A    between atoms: C_31  and  O_33 
REMARK   13  A    between atoms: C_42  and  C_43 
REMARK   14  A    between atoms: C_43  and  C_44 
REMARK   15  A    between atoms: C_44  and  C_45 
REMARK   16  A    between atoms: C_45  and  O_47 
ROOT
HETATM    1  C   UNK     0       8.206   4.132  22.655  0.00  0.00     0.051 C 
HETATM    2  C   UNK     0       6.886   4.687  23.150  0.00  0.00    -0.031 A 
HETATM    3  C   UNK     0       6.588   5.953  23.629  0.00  0.00     0.021 A 
HETATM    4  N   UNK     0       5.284   5.993  23.989  0.00  0.00    -0.361 N 
HETATM    5  C   UNK     0       4.741   4.783  23.742  0.00  0.00     0.022 A 
HETATM    6  C   UNK     0       5.717   3.941  23.218  0.00  0.00    -0.027 A 
HETATM    7  C   UNK     0       3.320   4.331  23.873  0.00  0.00     0.115 C 
HETATM    8  C   UNK     0       2.252   5.294  23.386  0.00  0.00     0.021 A 
HETATM    9  N   UNK     0       2.297   6.134  22.341  0.00  0.00    -0.361 N 
HETATM   10  C   UNK     0       1.161   6.864  22.340  0.00  0.00     0.022 A 
HETATM   11  C   UNK     0       0.358   6.476  23.409  0.00  0.00    -0.027 A 
HETATM   12  C   UNK     0       1.039   5.487  24.072  0.00  0.00    -0.031 A 
HETATM   13  C   UNK     0       0.545   4.760  25.303  0.00  0.00     0.051 C 
HETATM   14  C   UNK     0       0.811   7.987  21.368  0.00  0.00     0.115 C 
HETATM   15  C   UNK     0       1.783   9.156  21.403  0.00  0.00     0.021 A 
HETATM   16  N   UNK     0       3.109   9.129  21.173  0.00  0.00    -0.361 N 
HETATM   17  C   UNK     0       3.613  10.349  21.371  0.00  0.00     0.022 A 
HETATM   18  C   UNK     0       2.564  11.215  21.739  0.00  0.00    -0.027 A 
HETATM   19  C   UNK     0       1.422  10.455  21.754  0.00  0.00    -0.031 A 
HETATM   20  C   UNK     0       0.045  11.009  22.068  0.00  0.00     0.051 C 
HETATM   21  C   UNK     0       5.045  10.830  21.313  0.00  0.00     0.115 C 
HETATM   22  C   UNK     0       6.122   9.867  21.753  0.00  0.00     0.022 A 
HETATM   23  N   UNK     0       6.103   9.016  22.787  0.00  0.00    -0.361 N 
HETATM   24  C   UNK     0       7.209   8.246  22.723  0.00  0.00     0.021 A 
HETATM   25  C   UNK     0       7.963   8.618  21.627  0.00  0.00    -0.031 A 
HETATM   26  C   UNK     0       9.299   8.077  21.162  0.00  0.00     0.051 C 
HETATM   27  C   UNK     0       7.288   9.653  20.990  0.00  0.00    -0.027 A 
HETATM   28  C   UNK     0       7.582   7.080  23.621  0.00  0.00     0.115 C 
HETATM   29  H   UNK     0       4.765   6.863  24.453  0.00  0.00     0.165 HD
HETATM   30  H   UNK     0       3.107   6.181  21.573  0.00  0.00     0.165 HD
HETATM   31  H   UNK     0       3.694   8.242  20.816  0.00  0.00     0.165 HD
HETATM   32  H   UNK     0       5.330   8.979  23.598  0.00  0.00     0.165 HD
ENDROOT
BRANCH   6  33
HETATM   33  C   UNK     0       5.624   2.499  22.786  0.00  0.00     0.051 C 
BRANCH  33  34
HETATM   34  C   UNK     0       5.650   1.579  23.984  0.00  0.00     0.114 C 
BRANCH  34  35
HETATM   35  C   UNK     0       4.471   0.672  23.876  0.00  0.00     0.139 C 
HETATM   36  O   UNK     0       4.405  -0.178  22.941  0.00  0.00    -0.650 OA
BRANCH  35  37
HETATM   37  O   UNK     0       3.412   0.710  24.775  0.00  0.00    -0.776 OA
HETATM   38  H   UNK     0       2.579   0.160  24.642  0.00  0.00     0.167 HD
ENDBRANCH  35  37
ENDBRANCH  34  35
ENDBRANCH  33  34
ENDBRANCH   6  33
BRANCH  27  39
HETATM   39  C   UNK     0       7.832  10.365  19.802  0.00  0.00     0.051 C 
BRANCH  39  40
HETATM   40  C   UNK     0       8.752  11.481  20.022  0.00  0.00     0.114 C 
BRANCH  40  41
HETATM   41  C   UNK     0       8.603  12.394  21.133  0.00  0.00     0.139 C 
HETATM   42  O   UNK     0       7.845  13.373  21.117  0.00  0.00    -0.650 OA
BRANCH  41  43
HETATM   43  O   UNK     0       9.362  12.171  22.317  0.00  0.00    -0.776 OA
HETATM   44  H   UNK     0       9.108  12.767  23.096  0.00  0.00     0.167 HD
ENDBRANCH  41  43
ENDBRANCH  40  41
ENDBRANCH  39  40
ENDBRANCH  27  39
BRANCH  11  45
HETATM   45  C   UNK     0      -0.997   6.997  23.807  0.00  0.00     0.051 C 
BRANCH  45  46
HETATM   46  C   UNK     0      -1.018   8.447  24.129  0.00  0.00     0.114 C 
BRANCH  46  47
HETATM   47  C   UNK     0      -0.075   8.661  25.264  0.00  0.00     0.139 C 
HETATM   48  O   UNK     0       0.895   9.413  25.094  0.00  0.00    -0.650 OA
BRANCH  47  49
HETATM   49  O   UNK     0      -0.274   8.038  26.470  0.00  0.00    -0.776 OA
HETATM   50  H   UNK     0      -0.572   8.553  27.307  0.00  0.00     0.167 HD
ENDBRANCH  47  49
ENDBRANCH  46  47
ENDBRANCH  45  46
ENDBRANCH  11  45
BRANCH  18  51
HETATM   51  C   UNK     0       2.641  12.689  22.038  0.00  0.00     0.051 C 
BRANCH  51  52
HETATM   52  C   UNK     0       2.533  13.402  20.699  0.00  0.00     0.114 C 
BRANCH  52  53
HETATM   53  C   UNK     0       3.501  14.511  20.587  0.00  0.00     0.139 C 
HETATM   54  O   UNK     0       4.673  14.354  20.964  0.00  0.00    -0.650 OA
BRANCH  53  55
HETATM   55  O   UNK     0       3.095  15.717  20.069  0.00  0.00    -0.776 OA
HETATM   56  H   UNK     0       2.388  16.305  20.443  0.00  0.00     0.167 HD
ENDBRANCH  53  55
ENDBRANCH  52  53
ENDBRANCH  51  52
ENDBRANCH  18  51
TORSDOF 16
ENDMDL
MODEL 5
REMARK VINA RESULT:     -10.1      1.575      8.068
REMARK  16 active torsions:
REMARK  status: ('A' for Active; 'I' for Inactive)
REMARK    1  A    between atoms: C_6  and  C_7 
REMARK    2  A    between atoms: C_7  and  C_8 
REMARK    3  A    between atoms: C_8  and  C_9 
REMARK    4  A    between atoms: C_9  and  O_11 
REMARK    5  A    between atoms: C_16  and  C_17 
REMARK    6  A    between atoms: C_17  and  C_18 
REMARK    7  A    between atoms: C_18  and  C_19 
REMARK    8  A    between atoms: C_19  and  O_21 
REMARK    9  A    between atoms: C_28  and  C_29 
REMARK   10  A    between atoms: C_29  and  C_30 
REMARK   11  A    between atoms: C_30  and  C_31 
REMARK   12  A    between atoms: C_31  and  O_33 
REMARK   13  A    between atoms: C_42  and  C_43 
REMARK   14  A    between atoms: C_43  and  C_44 
REMARK   15  A    between atoms: C_44  and  C_45 
REMARK   16  A    between atoms: C_45  and  O_47 
ROOT
HETATM    1  C   UNK     0      -0.634   4.355  22.931  0.00  0.00     0.051 C 
HETATM    2  C   UNK     0       0.175   5.635  22.977  0.00  0.00    -0.031 A 
HETATM    3  C   UNK     0       1.288   5.946  23.742  0.00  0.00     0.021 A 
HETATM    4  N   UNK     0       1.663   7.220  23.478  0.00  0.00    -0.361 N 
HETATM    5  C   UNK     0       0.818   7.725  22.556  0.00  0.00     0.022 A 
HETATM    6  C   UNK     0      -0.127   6.761  22.222  0.00  0.00    -0.027 A 
HETATM    7  C   UNK     0       0.850   9.051  21.860  0.00  0.00     0.115 C 
HETATM    8  C   UNK     0       2.207   9.541  21.389  0.00  0.00     0.021 A 
HETATM    9  N   UNK     0       3.233   8.824  20.905  0.00  0.00    -0.361 N 
HETATM   10  C   UNK     0       4.272   9.662  20.702  0.00  0.00     0.022 A 
HETATM   11  C   UNK     0       3.901  10.956  21.056  0.00  0.00    -0.027 A 
HETATM   12  C   UNK     0       2.602  10.887  21.490  0.00  0.00    -0.031 A 
HETATM   13  C   UNK     0       1.778  12.059  21.973  0.00  0.00     0.051 C 
HETATM   14  C   UNK     0       5.665   9.270  20.218  0.00  0.00     0.115 C 
HETATM   15  C   UNK     0       6.387   8.301  21.140  0.00  0.00     0.021 A 
HETATM   16  N   UNK     0       5.982   7.075  21.522  0.00  0.00    -0.361 N 
HETATM   17  C   UNK     0       6.862   6.574  22.392  0.00  0.00     0.022 A 
HETATM   18  C   UNK     0       7.895   7.514  22.578  0.00  0.00    -0.027 A 
HETATM   19  C   UNK     0       7.586   8.590  21.788  0.00  0.00    -0.031 A 
HETATM   20  C   UNK     0       8.462   9.824  21.662  0.00  0.00     0.051 C 
HETATM   21  C   UNK     0       6.833   5.274  23.164  0.00  0.00     0.115 C 
HETATM   22  C   UNK     0       5.484   4.752  23.601  0.00  0.00     0.022 A 
HETATM   23  N   UNK     0       4.443   5.443  24.083  0.00  0.00    -0.361 N 
HETATM   24  C   UNK     0       3.396   4.602  24.204  0.00  0.00     0.021 A 
HETATM   25  C   UNK     0       3.776   3.336  23.800  0.00  0.00    -0.031 A 
HETATM   26  C   UNK     0       2.967   2.056  23.791  0.00  0.00     0.051 C 
HETATM   27  C   UNK     0       5.108   3.407  23.410  0.00  0.00    -0.027 A 
HETATM   28  C   UNK     0       1.976   4.941  24.621  0.00  0.00     0.115 C 
HETATM   29  H   UNK     0       2.497   7.767  23.975  0.00  0.00     0.165 HD
HETATM   30  H   UNK     0       3.212   7.734  20.658  0.00  0.00     0.165 HD
HETATM   31  H   UNK     0       5.081   6.532  21.135  0.00  0.00     0.165 HD
HETATM   32  H   UNK     0       4.450   6.523  24.383  0.00  0.00     0.165 HD
ENDROOT
BRANCH   6  33
HETATM   33  C   UNK     0      -1.282   6.829  21.254  0.00  0.00     0.051 C 
BRANCH  33  34
HETATM   34  C   UNK     0      -2.595   6.918  21.994  0.00  0.00     0.114 C 
BRANCH  34  35
HETATM   35  C   UNK     0      -2.650   8.257  22.648  0.00  0.00     0.139 C 
HETATM   36  O   UNK     0      -2.749   9.305  21.946  0.00  0.00    -0.650 OA
BRANCH  35  37
HETATM   37  O   UNK     0      -2.599   8.420  24.027  0.00  0.00    -0.776 OA
HETATM   38  H   UNK     0      -2.009   7.849  24.611  0.00  0.00     0.167 HD
ENDBRANCH  35  37
ENDBRANCH  34  35
ENDBRANCH  33  34
ENDBRANCH   6  33
BRANCH  27  39
HETATM   39  C   UNK     0       5.890   2.217  22.976  0.00  0.00     0.051 C 
BRANCH  39  40
HETATM   40  C   UNK     0       6.560   1.417  24.001  0.00  0.00     0.114 C 
BRANCH  40  41
HETATM   41  C   UNK     0       6.377  -0.014  24.103  0.00  0.00     0.139 C 
HETATM   42  O   UNK     0       5.840  -0.699  23.222  0.00  0.00    -0.650 OA
BRANCH  41  43
HETATM   43  O   UNK     0       6.833  -0.687  25.272  0.00  0.00    -0.776 OA
HETATM   44  H   UNK     0       7.067  -0.074  26.044  0.00  0.00     0.167 HD
ENDBRANCH  41  43
ENDBRANCH  40  41
ENDBRANCH  39  40
ENDBRANCH  27  39
BRANCH  11  45
HETATM   45  C   UNK     0       4.718  12.219  20.995  0.00  0.00     0.051 C 
BRANCH  45  46
HETATM   46  C   UNK     0       4.387  13.099  19.845  0.00  0.00     0.114 C 
BRANCH  46  47
HETATM   47  C   UNK     0       5.291  14.282  19.920  0.00  0.00     0.139 C 
HETATM   48  O   UNK     0       5.757  14.603  21.022  0.00  0.00    -0.650 OA
BRANCH  47  49
HETATM   49  O   UNK     0       5.601  15.003  18.794  0.00  0.00    -0.776 OA
HETATM   50  H   UNK     0       6.537  15.394  18.637  0.00  0.00     0.167 HD
ENDBRANCH  47  49
ENDBRANCH  46  47
ENDBRANCH  45  46
ENDBRANCH  11  45
BRANCH  18  51
HETATM   51  C   UNK     0       9.120   7.385  23.446  0.00  0.00     0.051 C 
BRANCH  51  52
HETATM   52  C   UNK     0      10.145   6.618  22.624  0.00  0.00     0.114 C 
BRANCH  52  53
HETATM   53  C   UNK     0      11.377   7.402  22.412  0.00  0.00     0.139 C 
HETATM   54  O   UNK     0      11.557   8.001  21.340  0.00  0.00    -0.650 OA
BRANCH  53  55
HETATM   55  O   UNK     0      12.323   7.463  23.406  0.00  0.00    -0.776 OA
HETATM   56  H   UNK     0      13.102   8.078  23.435  0.00  0.00     0.167 HD
ENDBRANCH  53  55
ENDBRANCH  52  53
ENDBRANCH  51  52
ENDBRANCH  18  51
TORSDOF 16
ENDMDL
MODEL 6
REMARK VINA RESULT:      -9.8      2.699      7.334
REMARK  16 active torsions:
REMARK  status: ('A' for Active; 'I' for Inactive)
REMARK    1  A    between atoms: C_6  and  C_7 
REMARK    2  A    between atoms: C_7  and  C_8 
REMARK    3  A    between atoms: C_8  and  C_9 
REMARK    4  A    between atoms: C_9  and  O_11 
REMARK    5  A    between atoms: C_16  and  C_17 
REMARK    6  A    between atoms: C_17  and  C_18 
REMARK    7  A    between atoms: C_18  and  C_19 
REMARK    8  A    between atoms: C_19  and  O_21 
REMARK    9  A    between atoms: C_28  and  C_29 
REMARK   10  A    between atoms: C_29  and  C_30 
REMARK   11  A    between atoms: C_30  and  C_31 
REMARK   12  A    between atoms: C_31  and  O_33 
REMARK   13  A    between atoms: C_42  and  C_43 
REMARK   14  A    between atoms: C_43  and  C_44 
REMARK   15  A    between atoms: C_44  and  C_45 
REMARK   16  A    between atoms: C_45  and  O_47 
ROOT
HETATM    1  C   UNK     0      -1.650   5.886  24.665  0.00  0.00     0.051 C 
HETATM    2  C   UNK     0      -0.321   5.481  24.060  0.00  0.00    -0.031 A 
HETATM    3  C   UNK     0       0.205   5.777  22.813  0.00  0.00     0.021 A 
HETATM    4  N   UNK     0       1.413   5.177  22.689  0.00  0.00    -0.361 N 
HETATM    5  C   UNK     0       1.672   4.513  23.834  0.00  0.00     0.022 A 
HETATM    6  C   UNK     0       0.607   4.679  24.713  0.00  0.00    -0.027 A 
HETATM    7  C   UNK     0       2.904   3.768  24.245  0.00  0.00     0.115 C 
HETATM    8  C   UNK     0       4.236   4.420  23.916  0.00  0.00     0.021 A 
HETATM    9  N   UNK     0       4.551   5.725  23.919  0.00  0.00    -0.361 N 
HETATM   10  C   UNK     0       5.819   5.850  23.472  0.00  0.00     0.022 A 
HETATM   11  C   UNK     0       6.337   4.591  23.182  0.00  0.00    -0.027 A 
HETATM   12  C   UNK     0       5.345   3.686  23.460  0.00  0.00    -0.031 A 
HETATM   13  C   UNK     0       5.460   2.187  23.299  0.00  0.00     0.051 C 
HETATM   14  C   UNK     0       6.571   7.159  23.251  0.00  0.00     0.115 C 
HETATM   15  C   UNK     0       5.922   8.077  22.227  0.00  0.00     0.021 A 
HETATM   16  N   UNK     0       4.678   8.591  22.257  0.00  0.00    -0.361 N 
HETATM   17  C   UNK     0       4.465   9.290  21.140  0.00  0.00     0.022 A 
HETATM   18  C   UNK     0       5.630   9.236  20.348  0.00  0.00    -0.027 A 
HETATM   19  C   UNK     0       6.535   8.475  21.041  0.00  0.00    -0.031 A 
HETATM   20  C   UNK     0       7.945   8.192  20.557  0.00  0.00     0.051 C 
HETATM   21  C   UNK     0       3.219   9.998  20.659  0.00  0.00     0.115 C 
HETATM   22  C   UNK     0       1.886   9.384  21.017  0.00  0.00     0.022 A 
HETATM   23  N   UNK     0       1.545   8.089  21.027  0.00  0.00    -0.361 N 
HETATM   24  C   UNK     0       0.306   7.981  21.548  0.00  0.00     0.021 A 
HETATM   25  C   UNK     0      -0.166   9.239  21.873  0.00  0.00    -0.031 A 
HETATM   26  C   UNK     0      -1.511   9.634  22.445  0.00  0.00     0.051 C 
HETATM   27  C   UNK     0       0.828  10.153  21.541  0.00  0.00    -0.027 A 
HETATM   28  C   UNK     0      -0.470   6.710  21.847  0.00  0.00     0.115 C 
HETATM   29  H   UNK     0       2.056   5.195  21.779  0.00  0.00     0.165 HD
HETATM   30  H   UNK     0       3.899   6.555  24.283  0.00  0.00     0.165 HD
HETATM   31  H   UNK     0       3.951   8.500  23.106  0.00  0.00     0.165 HD
HETATM   32  H   UNK     0       2.159   7.241  20.625  0.00  0.00     0.165 HD
ENDROOT
BRANCH   6  33
HETATM   33  C   UNK     0       0.405   4.139  26.106  0.00  0.00     0.051 C 
BRANCH  33  34
HETATM   34  C   UNK     0       0.292   5.266  27.105  0.00  0.00     0.114 C 
BRANCH  34  35
HETATM   35  C   UNK     0       0.710   4.729  28.432  0.00  0.00     0.139 C 
HETATM   36  O   UNK     0       1.343   3.636  28.506  0.00  0.00    -0.650 OA
BRANCH  35  37
HETATM   37  O   UNK     0       0.437   5.385  29.626  0.00  0.00    -0.776 OA
HETATM   38  H   UNK     0      -0.506   5.570  29.931  0.00  0.00     0.167 HD
ENDBRANCH  35  37
ENDBRANCH  34  35
ENDBRANCH  33  34
ENDBRANCH   6  33
BRANCH  27  39
HETATM   39  C   UNK     0       0.655  11.624  21.682  0.00  0.00     0.051 C 
BRANCH  39  40
HETATM   40  C   UNK     0       1.722  12.390  22.325  0.00  0.00     0.114 C 
BRANCH  40  41
HETATM   41  C   UNK     0       1.946  13.790  22.039  0.00  0.00     0.139 C 
HETATM   42  O   UNK     0       2.319  14.610  22.889  0.00  0.00    -0.650 OA
BRANCH  41  43
HETATM   43  O   UNK     0       1.730  14.268  20.716  0.00  0.00    -0.776 OA
HETATM   44  H   UNK     0       1.663  13.542  20.013  0.00  0.00     0.167 HD
ENDBRANCH  41  43
ENDBRANCH  40  41
ENDBRANCH  39  40
ENDBRANCH  27  39
BRANCH  11  45
HETATM   45  C   UNK     0       7.705   4.231  22.668  0.00  0.00     0.051 C 
BRANCH  45  46
HETATM   46  C   UNK     0       8.820   4.720  23.520  0.00  0.00     0.114 C 
BRANCH  46  47
HETATM   47  C   UNK     0       9.742   5.493  22.639  0.00  0.00     0.139 C 
HETATM   48  O   UNK     0       9.864   5.143  21.457  0.00  0.00    -0.650 OA
BRANCH  47  49
HETATM   49  O   UNK     0      10.442   6.568  23.126  0.00  0.00    -0.776 OA
HETATM   50  H   UNK     0      10.771   6.610  24.098  0.00  0.00     0.167 HD
ENDBRANCH  47  49
ENDBRANCH  46  47
ENDBRANCH  45  46
ENDBRANCH  11  45
BRANCH  18  51
HETATM   51  C   UNK     0       5.874   9.893  19.014  0.00  0.00     0.051 C 
BRANCH  51  52
HETATM   52  C   UNK     0       6.149  11.361  19.306  0.00  0.00     0.114 C 
BRANCH  52  53
HETATM   53  C   UNK     0       7.595  11.654  19.329  0.00  0.00     0.139 C 
HETATM   54  O   UNK     0       8.061  12.415  20.193  0.00  0.00    -0.650 OA
BRANCH  53  55
HETATM   55  O   UNK     0       8.420  11.083  18.390  0.00  0.00    -0.776 OA
HETATM   56  H   UNK     0       8.129  10.623  17.560  0.00  0.00     0.167 HD
ENDBRANCH  53  55
ENDBRANCH  52  53
ENDBRANCH  51  52
ENDBRANCH  18  51
TORSDOF 16
ENDMDL
MODEL 7
REMARK VINA RESULT:      -9.8      1.767      8.066
REMARK  16 active torsions:
REMARK  status: ('A' for Active; 'I' for Inactive)
REMARK    1  A    between atoms: C_6  and  C_7 
REMARK    2  A    between atoms: C_7  and  C_8 
REMARK    3  A    between atoms: C_8  and  C_9 
REMARK    4  A    between atoms: C_9  and  O_11 
REMARK    5  A    between atoms: C_16  and  C_17 
REMARK    6  A    between atoms: C_17  and  C_18 
REMARK    7  A    between atoms: C_18  and  C_19 
REMARK    8  A    between atoms: C_19  and  O_21 
REMARK    9  A    between atoms: C_28  and  C_29 
REMARK   10  A    between atoms: C_29  and  C_30 
REMARK   11  A    between atoms: C_30  and  C_31 
REMARK   12  A    between atoms: C_31  and  O_33 
REMARK   13  A    between atoms: C_42  and  C_43 
REMARK   14  A    between atoms: C_43  and  C_44 
REMARK   15  A    between atoms: C_44  and  C_45 
REMARK   16  A    between atoms: C_45  and  O_47 
ROOT
HETATM    1  C   UNK     0      -1.176   7.496  24.259  0.00  0.00     0.051 C 
HETATM    2  C   UNK     0      -0.123   8.510  23.858  0.00  0.00    -0.031 A 
HETATM    3  C   UNK     0       1.192   8.626  24.277  0.00  0.00     0.021 A 
HETATM    4  N   UNK     0       1.754   9.702  23.677  0.00  0.00    -0.361 N 
HETATM    5  C   UNK     0       0.827  10.270  22.878  0.00  0.00     0.022 A 
HETATM    6  C   UNK     0      -0.360   9.551  22.969  0.00  0.00    -0.027 A 
HETATM    7  C   UNK     0       0.964  11.421  21.931  0.00  0.00     0.115 C 
HETATM    8  C   UNK     0       2.222  11.460  21.082  0.00  0.00     0.021 A 
HETATM    9  N   UNK     0       2.900  10.434  20.545  0.00  0.00    -0.361 N 
HETATM   10  C   UNK     0       4.005  10.928  19.948  0.00  0.00     0.022 A 
HETATM   11  C   UNK     0       4.035  12.312  20.096  0.00  0.00    -0.027 A 
HETATM   12  C   UNK     0       2.914  12.653  20.809  0.00  0.00    -0.031 A 
HETATM   13  C   UNK     0       2.525  14.060  21.205  0.00  0.00     0.051 C 
HETATM   14  C   UNK     0       5.100  10.115  19.263  0.00  0.00     0.115 C 
HETATM   15  C   UNK     0       5.809   9.137  20.186  0.00  0.00     0.021 A 
HETATM   16  N   UNK     0       5.261   8.132  20.895  0.00  0.00    -0.361 N 
HETATM   17  C   UNK     0       6.208   7.551  21.635  0.00  0.00     0.022 A 
HETATM   18  C   UNK     0       7.433   8.202  21.389  0.00  0.00    -0.027 A 
HETATM   19  C   UNK     0       7.170   9.192  20.479  0.00  0.00    -0.031 A 
HETATM   20  C   UNK     0       8.229  10.117  19.909  0.00  0.00     0.051 C 
HETATM   21  C   UNK     0       6.100   6.435  22.649  0.00  0.00     0.115 C 
HETATM   22  C   UNK     0       4.835   6.358  23.471  0.00  0.00     0.022 A 
HETATM   23  N   UNK     0       4.136   7.363  24.014  0.00  0.00    -0.361 N 
HETATM   24  C   UNK     0       3.000   6.856  24.536  0.00  0.00     0.021 A 
HETATM   25  C   UNK     0       2.972   5.490  24.332  0.00  0.00    -0.031 A 
HETATM   26  C   UNK     0       1.930   4.482  24.769  0.00  0.00     0.051 C 
HETATM   27  C   UNK     0       4.136   5.147  23.653  0.00  0.00    -0.027 A 
HETATM   28  C   UNK     0       1.851   7.616  25.175  0.00  0.00     0.115 C 
HETATM   29  H   UNK     0       2.789  10.076  23.853  0.00  0.00     0.165 HD
HETATM   30  H   UNK     0       2.575   9.364  20.542  0.00  0.00     0.165 HD
HETATM   31  H   UNK     0       4.194   7.795  20.837  0.00  0.00     0.165 HD
HETATM   32  H   UNK     0       4.458   8.435  24.073  0.00  0.00     0.165 HD
ENDROOT
BRANCH   6  33
HETATM   33  C   UNK     0      -1.685   9.777  22.287  0.00  0.00     0.051 C 
BRANCH  33  34
HETATM   34  C   UNK     0      -1.725   9.075  20.950  0.00  0.00     0.114 C 
BRANCH  34  35
HETATM   35  C   UNK     0      -2.689   7.944  21.067  0.00  0.00     0.139 C 
HETATM   36  O   UNK     0      -3.916   8.172  21.276  0.00  0.00    -0.650 OA
BRANCH  35  37
HETATM   37  O   UNK     0      -2.301   6.614  20.955  0.00  0.00    -0.776 OA
HETATM   38  H   UNK     0      -1.573   6.220  21.528  0.00  0.00     0.167 HD
ENDBRANCH  35  37
ENDBRANCH  34  35
ENDBRANCH  33  34
ENDBRANCH   6  33
BRANCH  27  39
HETATM   39  C   UNK     0       4.495   3.743  23.317  0.00  0.00     0.051 C 
BRANCH  39  40
HETATM   40  C   UNK     0       5.835   3.268  23.661  0.00  0.00     0.114 C 
BRANCH  40  41
HETATM   41  C   UNK     0       6.094   1.895  24.030  0.00  0.00     0.139 C 
HETATM   42  O   UNK     0       6.019   1.473  25.192  0.00  0.00    -0.650 OA
BRANCH  41  43
HETATM   43  O   UNK     0       6.457   0.963  23.016  0.00  0.00    -0.776 OA
HETATM   44  H   UNK     0       7.396   0.592  23.104  0.00  0.00     0.167 HD
ENDBRANCH  41  43
ENDBRANCH  40  41
ENDBRANCH  39  40
ENDBRANCH  27  39
BRANCH  11  45
HETATM   45  C   UNK     0       5.062  13.291  19.594  0.00  0.00     0.051 C 
BRANCH  45  46
HETATM   46  C   UNK     0       6.231  13.458  20.495  0.00  0.00     0.114 C 
BRANCH  46  47
HETATM   47  C   UNK     0       6.297  14.900  20.869  0.00  0.00     0.139 C 
HETATM   48  O   UNK     0       5.586  15.705  20.253  0.00  0.00    -0.650 OA
BRANCH  47  49
HETATM   49  O   UNK     0       7.129  15.327  21.873  0.00  0.00    -0.776 OA
HETATM   50  H   UNK     0       7.750  14.684  22.378  0.00  0.00     0.167 HD
ENDBRANCH  47  49
ENDBRANCH  46  47
ENDBRANCH  45  46
ENDBRANCH  11  45
BRANCH  18  51
HETATM   51  C   UNK     0       8.785   7.884  21.974  0.00  0.00     0.051 C 
BRANCH  51  52
HETATM   52  C   UNK     0       9.024   8.906  23.075  0.00  0.00     0.114 C 
BRANCH  52  53
HETATM   53  C   UNK     0      10.432   9.349  23.116  0.00  0.00     0.139 C 
HETATM   54  O   UNK     0      11.333   8.532  23.362  0.00  0.00    -0.650 OA
BRANCH  53  55
HETATM   55  O   UNK     0      10.736  10.669  22.885  0.00  0.00    -0.776 OA
HETATM   56  H   UNK     0      10.133  11.344  22.477  0.00  0.00     0.167 HD
ENDBRANCH  53  55
ENDBRANCH  52  53
ENDBRANCH  51  52
ENDBRANCH  18  51
TORSDOF 16
ENDMDL
MODEL 8
REMARK VINA RESULT:      -9.7      2.675      9.784
REMARK  16 active torsions:
REMARK  status: ('A' for Active; 'I' for Inactive)
REMARK    1  A    between atoms: C_6  and  C_7 
REMARK    2  A    between atoms: C_7  and  C_8 
REMARK    3  A    between atoms: C_8  and  C_9 
REMARK    4  A    between atoms: C_9  and  O_11 
REMARK    5  A    between atoms: C_16  and  C_17 
REMARK    6  A    between atoms: C_17  and  C_18 
REMARK    7  A    between atoms: C_18  and  C_19 
REMARK    8  A    between atoms: C_19  and  O_21 
REMARK    9  A    between atoms: C_28  and  C_29 
REMARK   10  A    between atoms: C_29  and  C_30 
REMARK   11  A    between atoms: C_30  and  C_31 
REMARK   12  A    between atoms: C_31  and  O_33 
REMARK   13  A    between atoms: C_42  and  C_43 
REMARK   14  A    between atoms: C_43  and  C_44 
REMARK   15  A    between atoms: C_44  and  C_45 
REMARK   16  A    between atoms: C_45  and  O_47 
ROOT
HETATM    1  C   UNK     0       2.653  11.633  22.189  0.00  0.00     0.051 C 
HETATM    2  C   UNK     0       3.296  10.421  22.832  0.00  0.00    -0.031 A 
HETATM    3  C   UNK     0       2.932   9.738  23.982  0.00  0.00     0.021 A 
HETATM    4  N   UNK     0       3.814   8.733  24.197  0.00  0.00    -0.361 N 
HETATM    5  C   UNK     0       4.727   8.755  23.204  0.00  0.00     0.022 A 
HETATM    6  C   UNK     0       4.435   9.800  22.335  0.00  0.00    -0.027 A 
HETATM    7  C   UNK     0       5.852   7.808  22.924  0.00  0.00     0.115 C 
HETATM    8  C   UNK     0       5.552   6.328  23.084  0.00  0.00     0.021 A 
HETATM    9  N   UNK     0       4.414   5.671  22.811  0.00  0.00    -0.361 N 
HETATM   10  C   UNK     0       4.570   4.386  23.194  0.00  0.00     0.022 A 
HETATM   11  C   UNK     0       5.846   4.208  23.720  0.00  0.00    -0.027 A 
HETATM   12  C   UNK     0       6.470   5.428  23.653  0.00  0.00    -0.031 A 
HETATM   13  C   UNK     0       7.883   5.712  24.111  0.00  0.00     0.051 C 
HETATM   14  C   UNK     0       3.509   3.291  23.129  0.00  0.00     0.115 C 
HETATM   15  C   UNK     0       2.270   3.584  23.960  0.00  0.00     0.021 A 
HETATM   16  N   UNK     0       1.441   4.639  23.855  0.00  0.00    -0.361 N 
HETATM   17  C   UNK     0       0.514   4.566  24.813  0.00  0.00     0.022 A 
HETATM   18  C   UNK     0       0.744   3.402  25.573  0.00  0.00    -0.027 A 
HETATM   19  C   UNK     0       1.846   2.795  25.028  0.00  0.00    -0.031 A 
HETATM   20  C   UNK     0       2.419   1.481  25.526  0.00  0.00     0.051 C 
HETATM   21  C   UNK     0      -0.593   5.531  25.170  0.00  0.00     0.115 C 
HETATM   22  C   UNK     0      -0.324   7.005  24.974  0.00  0.00     0.022 A 
HETATM   23  N   UNK     0       0.800   7.685  25.234  0.00  0.00    -0.361 N 
HETATM   24  C   UNK     0       0.649   8.943  24.773  0.00  0.00     0.021 A 
HETATM   25  C   UNK     0      -0.606   9.079  24.212  0.00  0.00    -0.031 A 
HETATM   26  C   UNK     0      -1.250  10.307  23.603  0.00  0.00     0.051 C 
HETATM   27  C   UNK     0      -1.248   7.852  24.329  0.00  0.00    -0.027 A 
HETATM   28  C   UNK     0       1.683  10.056  24.755  0.00  0.00     0.115 C 
HETATM   29  H   UNK     0       3.808   8.040  25.070  0.00  0.00     0.165 HD
HETATM   30  H   UNK     0       3.517   6.100  22.301  0.00  0.00     0.165 HD
HETATM   31  H   UNK     0       1.481   5.428  23.060  0.00  0.00     0.165 HD
HETATM   32  H   UNK     0       1.695   7.295  25.784  0.00  0.00     0.165 HD
ENDROOT
BRANCH   6  33
HETATM   33  C   UNK     0       5.147  10.250  21.084  0.00  0.00     0.051 C 
BRANCH  33  34
HETATM   34  C   UNK     0       4.597   9.539  19.870  0.00  0.00     0.114 C 
BRANCH  34  35
HETATM   35  C   UNK     0       5.745   9.256  18.961  0.00  0.00     0.139 C 
HETATM   36  O   UNK     0       5.890   9.918  17.893  0.00  0.00    -0.650 OA
BRANCH  35  37
HETATM   37  O   UNK     0       6.692   8.276  19.234  0.00  0.00    -0.776 OA
HETATM   38  H   UNK     0       7.234   8.278  20.083  0.00  0.00     0.167 HD
ENDBRANCH  35  37
ENDBRANCH  34  35
ENDBRANCH  33  34
ENDBRANCH   6  33
BRANCH  27  39
HETATM   39  C   UNK     0      -2.655   7.629  23.898  0.00  0.00     0.051 C 
BRANCH  39  40
HETATM   40  C   UNK     0      -2.893   7.072  22.567  0.00  0.00     0.114 C 
BRANCH  40  41
HETATM   41  C   UNK     0      -2.238   7.588  21.387  0.00  0.00     0.139 C 
HETATM   42  O   UNK     0      -2.691   8.518  20.705  0.00  0.00    -0.650 OA
BRANCH  41  43
HETATM   43  O   UNK     0      -1.005   7.009  20.971  0.00  0.00    -0.776 OA
HETATM   44  H   UNK     0      -0.861   7.006  19.969  0.00  0.00     0.167 HD
ENDBRANCH  41  43
ENDBRANCH  40  41
ENDBRANCH  39  40
ENDBRANCH  27  39
BRANCH  11  45
HETATM   45  C   UNK     0       6.474   2.953  24.264  0.00  0.00     0.051 C 
BRANCH  45  46
HETATM   46  C   UNK     0       6.510   1.825  23.299  0.00  0.00     0.114 C 
BRANCH  46  47
HETATM   47  C   UNK     0       6.019   0.614  24.016  0.00  0.00     0.139 C 
HETATM   48  O   UNK     0       5.072  -0.020  23.529  0.00  0.00    -0.650 OA
BRANCH  47  49
HETATM   49  O   UNK     0       6.600   0.209  25.191  0.00  0.00    -0.776 OA
HETATM   50  H   UNK     0       6.247   0.511  26.107  0.00  0.00     0.167 HD
ENDBRANCH  47  49
ENDBRANCH  46  47
ENDBRANCH  45  46
ENDBRANCH  11  45
BRANCH  18  51
HETATM   51  C   UNK     0      -0.055   2.885  26.741  0.00  0.00     0.051 C 
BRANCH  51  52
HETATM   52  C   UNK     0       0.387   3.694  27.951  0.00  0.00     0.114 C 
BRANCH  52  53
HETATM   53  C   UNK     0       1.312   2.933  28.813  0.00  0.00     0.139 C 
HETATM   54  O   UNK     0       2.167   3.530  29.486  0.00  0.00    -0.650 OA
BRANCH  53  55
HETATM   55  O   UNK     0       1.222   1.563  28.864  0.00  0.00    -0.776 OA
HETATM   56  H   UNK     0       1.138   1.013  29.686  0.00  0.00     0.167 HD
ENDBRANCH  53  55
ENDBRANCH  52  53
ENDBRANCH  51  52
ENDBRANCH  18  51
TORSDOF 16
ENDMDL
MODEL 9
REMARK VINA RESULT:      -9.6      2.704      9.755
REMARK  16 active torsions:
REMARK  status: ('A' for Active; 'I' for Inactive)
REMARK    1  A    between atoms: C_6  and  C_7 
REMARK    2  A    between atoms: C_7  and  C_8 
REMARK    3  A    between atoms: C_8  and  C_9 
REMARK    4  A    between atoms: C_9  and  O_11 
REMARK    5  A    between atoms: C_16  and  C_17 
REMARK    6  A    between atoms: C_17  and  C_18 
REMARK    7  A    between atoms: C_18  and  C_19 
REMARK    8  A    between atoms: C_19  and  O_21 
REMARK    9  A    between atoms: C_28  and  C_29 
REMARK   10  A    between atoms: C_29  and  C_30 
REMARK   11  A    between atoms: C_30  and  C_31 
REMARK   12  A    between atoms: C_31  and  O_33 
REMARK   13  A    between atoms: C_42  and  C_43 
REMARK   14  A    between atoms: C_43  and  C_44 
REMARK   15  A    between atoms: C_44  and  C_45 
REMARK   16  A    between atoms: C_45  and  O_47 
ROOT
HETATM    1  C   UNK     0       0.143   9.710  22.869  0.00  0.00     0.051 C 
HETATM    2  C   UNK     0       1.615  10.059  22.784  0.00  0.00    -0.031 A 
HETATM    3  C   UNK     0       2.672   9.608  23.558  0.00  0.00     0.021 A 
HETATM    4  N   UNK     0       3.811  10.213  23.145  0.00  0.00    -0.361 N 
HETATM    5  C   UNK     0       3.504  11.033  22.118  0.00  0.00     0.022 A 
HETATM    6  C   UNK     0       2.138  10.963  21.868  0.00  0.00    -0.027 A 
HETATM    7  C   UNK     0       4.408  11.854  21.253  0.00  0.00     0.115 C 
HETATM    8  C   UNK     0       5.696  11.193  20.793  0.00  0.00     0.021 A 
HETATM    9  N   UNK     0       5.906   9.909  20.466  0.00  0.00    -0.361 N 
HETATM   10  C   UNK     0       7.222   9.753  20.207  0.00  0.00     0.022 A 
HETATM   11  C   UNK     0       7.875  10.972  20.362  0.00  0.00    -0.027 A 
HETATM   12  C   UNK     0       6.920  11.884  20.731  0.00  0.00    -0.031 A 
HETATM   13  C   UNK     0       7.170  13.350  21.006  0.00  0.00     0.051 C 
HETATM   14  C   UNK     0       7.922   8.443  19.856  0.00  0.00     0.115 C 
HETATM   15  C   UNK     0       7.818   7.380  20.938  0.00  0.00     0.021 A 
HETATM   16  N   UNK     0       6.698   6.847  21.460  0.00  0.00    -0.361 N 
HETATM   17  C   UNK     0       7.030   5.998  22.436  0.00  0.00     0.022 A 
HETATM   18  C   UNK     0       8.434   5.970  22.548  0.00  0.00    -0.027 A 
HETATM   19  C   UNK     0       8.916   6.838  21.603  0.00  0.00    -0.031 A 
HETATM   20  C   UNK     0      10.393   7.084  21.358  0.00  0.00     0.051 C 
HETATM   21  C   UNK     0       6.150   5.203  23.374  0.00  0.00     0.115 C 
HETATM   22  C   UNK     0       4.845   5.830  23.804  0.00  0.00     0.022 A 
HETATM   23  N   UNK     0       4.605   7.106  24.132  0.00  0.00    -0.361 N 
HETATM   24  C   UNK     0       3.277   7.256  24.310  0.00  0.00     0.021 A 
HETATM   25  C   UNK     0       2.647   6.044  24.102  0.00  0.00    -0.031 A 
HETATM   26  C   UNK     0       1.177   5.700  24.224  0.00  0.00     0.051 C 
HETATM   27  C   UNK     0       3.630   5.116  23.777  0.00  0.00    -0.027 A 
HETATM   28  C   UNK     0       2.517   8.538  24.601  0.00  0.00     0.115 C 
HETATM   29  H   UNK     0       4.818  10.086  23.607  0.00  0.00     0.165 HD
HETATM   30  H   UNK     0       5.120   9.121  20.368  0.00  0.00     0.165 HD
HETATM   31  H   UNK     0       5.653   7.036  21.102  0.00  0.00     0.165 HD
HETATM   32  H   UNK     0       5.377   7.905  24.283  0.00  0.00     0.165 HD
ENDROOT
BRANCH   6  33
HETATM   33  C   UNK     0       1.302  11.683  20.840  0.00  0.00     0.051 C 
BRANCH  33  34
HETATM   34  C   UNK     0       0.772  12.983  21.397  0.00  0.00     0.114 C 
BRANCH  34  35
HETATM   35  C   UNK     0       1.755  14.050  21.053  0.00  0.00     0.139 C 
HETATM   36  O   UNK     0       2.445  14.598  21.962  0.00  0.00    -0.650 OA
BRANCH  35  37
HETATM   37  O   UNK     0       1.963  14.486  19.750  0.00  0.00    -0.776 OA
HETATM   38  H   UNK     0       2.885  14.669  19.388  0.00  0.00     0.167 HD
ENDBRANCH  35  37
ENDBRANCH  34  35
ENDBRANCH  33  34
ENDBRANCH   6  33
BRANCH  27  39
HETATM   39  C   UNK     0       3.340   3.673  23.552  0.00  0.00     0.051 C 
BRANCH  39  40
HETATM   40  C   UNK     0       3.753   2.714  24.575  0.00  0.00     0.114 C 
BRANCH  40  41
HETATM   41  C   UNK     0       2.798   1.960  25.356  0.00  0.00     0.139 C 
HETATM   42  O   UNK     0       2.269   0.912  24.962  0.00  0.00    -0.650 OA
BRANCH  41  43
HETATM   43  O   UNK     0       2.435   2.434  26.649  0.00  0.00    -0.776 OA
HETATM   44  H   UNK     0       3.114   2.237  27.374  0.00  0.00     0.167 HD
ENDBRANCH  41  43
ENDBRANCH  40  41
ENDBRANCH  39  40
ENDBRANCH  27  39
BRANCH  11  45
HETATM   45  C   UNK     0       9.334  11.289  20.174  0.00  0.00     0.051 C 
BRANCH  45  46
HETATM   46  C   UNK     0      10.254  10.332  20.842  0.00  0.00     0.114 C 
BRANCH  46  47
HETATM   47  C   UNK     0      10.366  10.751  22.268  0.00  0.00     0.139 C 
HETATM   48  O   UNK     0      11.066  10.070  23.031  0.00  0.00    -0.650 OA
BRANCH  47  49
HETATM   49  O   UNK     0       9.709  11.863  22.728  0.00  0.00    -0.776 OA
HETATM   50  H   UNK     0       9.263  11.890  23.653  0.00  0.00     0.167 HD
ENDBRANCH  47  49
ENDBRANCH  46  47
ENDBRANCH  45  46
ENDBRANCH  11  45
BRANCH  18  51
HETATM   51  C   UNK     0       9.272   5.143  23.489  0.00  0.00     0.051 C 
BRANCH  51  52
HETATM   52  C   UNK     0       9.169   5.814  24.851  0.00  0.00     0.114 C 
BRANCH  52  53
HETATM   53  C   UNK     0      10.489   6.240  25.355  0.00  0.00     0.139 C 
HETATM   54  O   UNK     0      11.322   6.731  24.577  0.00  0.00    -0.650 OA
BRANCH  53  55
HETATM   55  O   UNK     0      10.790   6.085  26.686  0.00  0.00    -0.776 OA
HETATM   56  H   UNK     0      11.683   6.211  27.101  0.00  0.00     0.167 HD
ENDBRANCH  53  55
ENDBRANCH  52  53
ENDBRANCH  51  52
ENDBRANCH  18  51
TORSDOF 16
ENDMDL
MODEL 10
REMARK VINA RESULT:      -9.6      1.853      2.424
REMARK  16 active torsions:
REMARK  status: ('A' for Active; 'I' for Inactive)
REMARK    1  A    between atoms: C_6  and  C_7 
REMARK    2  A    between atoms: C_7  and  C_8 
REMARK    3  A    between atoms: C_8  and  C_9 
REMARK    4  A    between atoms: C_9  and  O_11 
REMARK    5  A    between atoms: C_16  and  C_17 
REMARK    6  A    between atoms: C_17  and  C_18 
REMARK    7  A    between atoms: C_18  and  C_19 
REMARK    8  A    between atoms: C_19  and  O_21 
REMARK    9  A    between atoms: C_28  and  C_29 
REMARK   10  A    between atoms: C_29  and  C_30 
REMARK   11  A    between atoms: C_30  and  C_31 
REMARK   12  A    between atoms: C_31  and  O_33 
REMARK   13  A    between atoms: C_42  and  C_43 
REMARK   14  A    between atoms: C_43  and  C_44 
REMARK   15  A    between atoms: C_44  and  C_45 
REMARK   16  A    between atoms: C_45  and  O_47 
ROOT
HETATM    1  C   UNK     0       6.982   3.118  23.560  0.00  0.00     0.051 C 
HETATM    2  C   UNK     0       6.093   4.340  23.664  0.00  0.00    -0.031 A 
HETATM    3  C   UNK     0       6.443   5.672  23.821  0.00  0.00     0.021 A 
HETATM    4  N   UNK     0       5.316   6.419  23.897  0.00  0.00    -0.361 N 
HETATM    5  C   UNK     0       4.255   5.593  23.784  0.00  0.00     0.022 A 
HETATM    6  C   UNK     0       4.705   4.285  23.639  0.00  0.00    -0.027 A 
HETATM    7  C   UNK     0       2.797   5.921  23.712  0.00  0.00     0.115 C 
HETATM    8  C   UNK     0       2.406   7.105  22.845  0.00  0.00     0.021 A 
HETATM    9  N   UNK     0       2.952   7.510  21.687  0.00  0.00    -0.361 N 
HETATM   10  C   UNK     0       2.348   8.659  21.318  0.00  0.00     0.022 A 
HETATM   11  C   UNK     0       1.380   8.999  22.258  0.00  0.00    -0.027 A 
HETATM   12  C   UNK     0       1.411   8.024  23.223  0.00  0.00    -0.031 A 
HETATM   13  C   UNK     0       0.523   7.976  24.446  0.00  0.00     0.051 C 
HETATM   14  C   UNK     0       2.694   9.507  20.097  0.00  0.00     0.115 C 
HETATM   15  C   UNK     0       4.118  10.038  20.100  0.00  0.00     0.021 A 
HETATM   16  N   UNK     0       5.260   9.327  20.150  0.00  0.00    -0.361 N 
HETATM   17  C   UNK     0       6.297  10.166  20.206  0.00  0.00     0.022 A 
HETATM   18  C   UNK     0       5.807  11.487  20.182  0.00  0.00    -0.027 A 
HETATM   19  C   UNK     0       4.442  11.394  20.114  0.00  0.00    -0.031 A 
HETATM   20  C   UNK     0       3.516  12.594  20.032  0.00  0.00     0.051 C 
HETATM   21  C   UNK     0       7.774   9.877  20.345  0.00  0.00     0.115 C 
HETATM   22  C   UNK     0       8.175   8.677  21.169  0.00  0.00     0.022 A 
HETATM   23  N   UNK     0       7.647   8.248  22.323  0.00  0.00    -0.361 N 
HETATM   24  C   UNK     0       8.210   7.062  22.631  0.00  0.00     0.021 A 
HETATM   25  C   UNK     0       9.130   6.724  21.658  0.00  0.00    -0.031 A 
HETATM   26  C   UNK     0      10.038   5.514  21.584  0.00  0.00     0.051 C 
HETATM   27  C   UNK     0       9.126   7.742  20.712  0.00  0.00    -0.027 A 
HETATM   28  C   UNK     0       7.869   6.146  23.794  0.00  0.00     0.115 C 
HETATM   29  H   UNK     0       5.277   7.519  24.070  0.00  0.00     0.165 HD
HETATM   30  H   UNK     0       3.730   6.960  21.103  0.00  0.00     0.165 HD
HETATM   31  H   UNK     0       5.339   8.210  20.096  0.00  0.00     0.165 HD
HETATM   32  H   UNK     0       6.902   8.800  22.953  0.00  0.00     0.165 HD
ENDROOT
BRANCH   6  33
HETATM   33  C   UNK     0       3.927   3.003  23.484  0.00  0.00     0.051 C 
BRANCH  33  34
HETATM   34  C   UNK     0       4.112   2.115  24.692  0.00  0.00     0.114 C 
BRANCH  34  35
HETATM   35  C   UNK     0       2.814   2.083  25.426  0.00  0.00     0.139 C 
HETATM   36  O   UNK     0       2.199   3.160  25.679  0.00  0.00    -0.650 OA
BRANCH  35  37
HETATM   37  O   UNK     0       2.226   0.901  25.857  0.00  0.00    -0.776 OA
HETATM   38  H   UNK     0       1.392   0.532  25.429  0.00  0.00     0.167 HD
ENDBRANCH  35  37
ENDBRANCH  34  35
ENDBRANCH  33  34
ENDBRANCH   6  33
BRANCH  27  39
HETATM   39  C   UNK     0      10.046   7.765  19.542  0.00  0.00     0.051 C 
BRANCH  39  40
HETATM   40  C   UNK     0      11.157   8.717  19.551  0.00  0.00     0.114 C 
BRANCH  40  41
HETATM   41  C   UNK     0      11.351   9.684  18.494  0.00  0.00     0.139 C 
HETATM   42  O   UNK     0      10.600  10.650  18.304  0.00  0.00    -0.650 OA
BRANCH  41  43
HETATM   43  O   UNK     0      12.460   9.532  17.614  0.00  0.00    -0.776 OA
HETATM   44  H   UNK     0      13.277   9.109  18.038  0.00  0.00     0.167 HD
ENDBRANCH  41  43
ENDBRANCH  40  41
ENDBRANCH  39  40
ENDBRANCH  27  39
BRANCH  11  45
HETATM   45  C   UNK     0       0.451  10.183  22.268  0.00  0.00     0.051 C 
BRANCH  45  46
HETATM   46  C   UNK     0      -0.561  10.169  21.181  0.00  0.00     0.114 C 
BRANCH  46  47
HETATM   47  C   UNK     0      -1.591   9.157  21.550  0.00  0.00     0.139 C 
HETATM   48  O   UNK     0      -2.544   9.512  22.257  0.00  0.00    -0.650 OA
BRANCH  47  49
HETATM   49  O   UNK     0      -1.487   7.859  21.118  0.00  0.00    -0.776 OA
HETATM   50  H   UNK     0      -1.835   7.069  21.676  0.00  0.00     0.167 HD
ENDBRANCH  47  49
ENDBRANCH  46  47
ENDBRANCH  45  46
ENDBRANCH  11  45
BRANCH  18  51
HETATM   51  C   UNK     0       6.599  12.769  20.200  0.00  0.00     0.051 C 
BRANCH  51  52
HETATM   52  C   UNK     0       7.246  12.851  21.575  0.00  0.00     0.114 C 
BRANCH  52  53
HETATM   53  C   UNK     0       8.704  12.631  21.511  0.00  0.00     0.139 C 
HETATM   54  O   UNK     0       9.309  12.784  20.438  0.00  0.00    -0.650 OA
BRANCH  53  55
HETATM   55  O   UNK     0       9.384  12.253  22.642  0.00  0.00    -0.776 OA
HETATM   56  H   UNK     0       8.978  11.923  23.486  0.00  0.00     0.167 HD
ENDBRANCH  53  55
ENDBRANCH  52  53
ENDBRANCH  51  52
ENDBRANCH  18  51
TORSDOF 16
ENDMDL
MODEL 11
REMARK VINA RESULT:      -9.4      3.193      8.087
REMARK  16 active torsions:
REMARK  status: ('A' for Active; 'I' for Inactive)
REMARK    1  A    between atoms: C_6  and  C_7 
REMARK    2  A    between atoms: C_7  and  C_8 
REMARK    3  A    between atoms: C_8  and  C_9 
REMARK    4  A    between atoms: C_9  and  O_11 
REMARK    5  A    between atoms: C_16  and  C_17 
REMARK    6  A    between atoms: C_17  and  C_18 
REMARK    7  A    between atoms: C_18  and  C_19 
REMARK    8  A    between atoms: C_19  and  O_21 
REMARK    9  A    between atoms: C_28  and  C_29 
REMARK   10  A    between atoms: C_29  and  C_30 
REMARK   11  A    between atoms: C_30  and  C_31 
REMARK   12  A    between atoms: C_31  and  O_33 
REMARK   13  A    between atoms: C_42  and  C_43 
REMARK   14  A    between atoms: C_43  and  C_44 
REMARK   15  A    between atoms: C_44  and  C_45 
REMARK   16  A    between atoms: C_45  and  O_47 
ROOT
HETATM    1  C   UNK     0       5.851   1.743  24.243  0.00  0.00     0.051 C 
HETATM    2  C   UNK     0       5.315   3.052  23.699  0.00  0.00    -0.031 A 
HETATM    3  C   UNK     0       4.101   3.318  23.085  0.00  0.00     0.021 A 
HETATM    4  N   UNK     0       4.062   4.625  22.732  0.00  0.00    -0.361 N 
HETATM    5  C   UNK     0       5.222   5.199  23.114  0.00  0.00     0.022 A 
HETATM    6  C   UNK     0       6.029   4.243  23.720  0.00  0.00    -0.027 A 
HETATM    7  C   UNK     0       5.643   6.634  23.042  0.00  0.00     0.115 C 
HETATM    8  C   UNK     0       4.601   7.670  23.428  0.00  0.00     0.021 A 
HETATM    9  N   UNK     0       3.654   7.591  24.374  0.00  0.00    -0.361 N 
HETATM   10  C   UNK     0       2.896   8.705  24.303  0.00  0.00     0.022 A 
HETATM   11  C   UNK     0       3.374   9.529  23.288  0.00  0.00    -0.027 A 
HETATM   12  C   UNK     0       4.449   8.883  22.733  0.00  0.00    -0.031 A 
HETATM   13  C   UNK     0       5.291   9.409  21.593  0.00  0.00     0.051 C 
HETATM   14  C   UNK     0       1.663   9.013  25.149  0.00  0.00     0.115 C 
HETATM   15  C   UNK     0       0.534   8.009  24.979  0.00  0.00     0.021 A 
HETATM   16  N   UNK     0       0.574   6.682  25.203  0.00  0.00    -0.361 N 
HETATM   17  C   UNK     0      -0.602   6.146  24.869  0.00  0.00     0.022 A 
HETATM   18  C   UNK     0      -1.452   7.173  24.416  0.00  0.00    -0.027 A 
HETATM   19  C   UNK     0      -0.729   8.336  24.491  0.00  0.00    -0.031 A 
HETATM   20  C   UNK     0      -1.286   9.700  24.128  0.00  0.00     0.051 C 
HETATM   21  C   UNK     0      -1.043   4.700  24.864  0.00  0.00     0.115 C 
HETATM   22  C   UNK     0      -0.007   3.655  24.525  0.00  0.00     0.022 A 
HETATM   23  N   UNK     0       0.951   3.708  23.591  0.00  0.00    -0.361 N 
HETATM   24  C   UNK     0       1.741   2.625  23.731  0.00  0.00     0.021 A 
HETATM   25  C   UNK     0       1.274   1.849  24.775  0.00  0.00    -0.031 A 
HETATM   26  C   UNK     0       1.800   0.524  25.288  0.00  0.00     0.051 C 
HETATM   27  C   UNK     0       0.156   2.488  25.299  0.00  0.00    -0.027 A 
HETATM   28  C   UNK     0       3.009   2.293  22.964  0.00  0.00     0.115 C 
HETATM   29  H   UNK     0       3.232   5.123  22.179  0.00  0.00     0.165 HD
HETATM   30  H   UNK     0       3.548   6.772  25.128  0.00  0.00     0.165 HD
HETATM   31  H   UNK     0       1.434   6.118  25.650  0.00  0.00     0.165 HD
HETATM   32  H   UNK     0       1.053   4.490  22.794  0.00  0.00     0.165 HD
ENDROOT
BRANCH   6  33
HETATM   33  C   UNK     0       7.412   4.372  24.307  0.00  0.00     0.051 C 
BRANCH  33  34
HETATM   34  C   UNK     0       8.446   4.520  23.216  0.00  0.00     0.114 C 
BRANCH  34  35
HETATM   35  C   UNK     0       9.259   5.729  23.532  0.00  0.00     0.139 C 
HETATM   36  O   UNK     0       8.989   6.430  24.551  0.00  0.00    -0.650 OA
BRANCH  35  37
HETATM   37  O   UNK     0      10.330   6.138  22.747  0.00  0.00    -0.776 OA
HETATM   38  H   UNK     0      10.961   6.866  23.041  0.00  0.00     0.167 HD
ENDBRANCH  35  37
ENDBRANCH  34  35
ENDBRANCH  33  34
ENDBRANCH   6  33
BRANCH  27  39
HETATM   39  C   UNK     0      -0.665   1.912  26.399  0.00  0.00     0.051 C 
BRANCH  39  40
HETATM   40  C   UNK     0      -0.262   2.180  27.779  0.00  0.00     0.114 C 
BRANCH  40  41
HETATM   41  C   UNK     0       0.662   3.238  28.121  0.00  0.00     0.139 C 
HETATM   42  O   UNK     0       0.316   4.412  28.312  0.00  0.00    -0.650 OA
BRANCH  41  43
HETATM   43  O   UNK     0       2.046   2.932  28.248  0.00  0.00    -0.776 OA
HETATM   44  H   UNK     0       2.314   2.570  29.156  0.00  0.00     0.167 HD
ENDBRANCH  41  43
ENDBRANCH  40  41
ENDBRANCH  39  40
ENDBRANCH  27  39
BRANCH  11  45
HETATM   45  C   UNK     0       2.860  10.872  22.845  0.00  0.00     0.051 C 
BRANCH  45  46
HETATM   46  C   UNK     0       1.771  10.802  21.837  0.00  0.00     0.114 C 
BRANCH  46  47
HETATM   47  C   UNK     0       1.038  12.099  21.888  0.00  0.00     0.139 C 
HETATM   48  O   UNK     0      -0.179  12.101  21.652  0.00  0.00    -0.650 OA
BRANCH  47  49
HETATM   49  O   UNK     0       1.694  13.266  22.188  0.00  0.00    -0.776 OA
HETATM   50  H   UNK     0       1.287  14.187  21.987  0.00  0.00     0.167 HD
ENDBRANCH  47  49
ENDBRANCH  46  47
ENDBRANCH  45  46
ENDBRANCH  11  45
BRANCH  18  51
HETATM   51  C   UNK     0      -2.882   7.057  23.956  0.00  0.00     0.051 C 
BRANCH  51  52
HETATM   52  C   UNK     0      -2.827   6.687  22.481  0.00  0.00     0.114 C 
BRANCH  52  53
HETATM   53  C   UNK     0      -3.390   7.750  21.626  0.00  0.00     0.139 C 
HETATM   54  O   UNK     0      -4.611   7.789  21.406  0.00  0.00    -0.650 OA
BRANCH  53  55
HETATM   55  O   UNK     0      -2.555   8.692  21.075  0.00  0.00    -0.776 OA
HETATM   56  H   UNK     0      -2.306   9.562  21.484  0.00  0.00     0.167 HD
ENDBRANCH  53  55
ENDBRANCH  52  53
ENDBRANCH  51  52
ENDBRANCH  18  51
TORSDOF 16
ENDMDL
MODEL 12
REMARK VINA RESULT:      -9.2      3.313      8.061
REMARK  16 active torsions:
REMARK  status: ('A' for Active; 'I' for Inactive)
REMARK    1  A    between atoms: C_6  and  C_7 
REMARK    2  A    between atoms: C_7  and  C_8 
REMARK    3  A    between atoms: C_8  and  C_9 
REMARK    4  A    between atoms: C_9  and  O_11 
REMARK    5  A    between atoms: C_16  and  C_17 
REMARK    6  A    between atoms: C_17  and  C_18 
REMARK    7  A    between atoms: C_18  and  C_19 
REMARK    8  A    between atoms: C_19  and  O_21 
REMARK    9  A    between atoms: C_28  and  C_29 
REMARK   10  A    between atoms: C_29  and  C_30 
REMARK   11  A    between atoms: C_30  and  C_31 
REMARK   12  A    between atoms: C_31  and  O_33 
REMARK   13  A    between atoms: C_42  and  C_43 
REMARK   14  A    between atoms: C_43  and  C_44 
REMARK   15  A    between atoms: C_44  and  C_45 
REMARK   16  A    between atoms: C_45  and  O_47 
ROOT
HETATM    1  C   UNK     0      -1.847   2.036  25.486  0.00  0.00     0.051 C 
HETATM    2  C   UNK     0      -0.574   2.305  24.710  0.00  0.00    -0.031 A 
HETATM    3  C   UNK     0      -0.391   3.035  23.547  0.00  0.00     0.021 A 
HETATM    4  N   UNK     0       0.915   2.980  23.192  0.00  0.00    -0.361 N 
HETATM    5  C   UNK     0       1.569   2.237  24.109  0.00  0.00     0.022 A 
HETATM    6  C   UNK     0       0.667   1.796  25.071  0.00  0.00    -0.027 A 
HETATM    7  C   UNK     0       3.033   1.948  24.231  0.00  0.00     0.115 C 
HETATM    8  C   UNK     0       3.980   3.111  23.991  0.00  0.00     0.021 A 
HETATM    9  N   UNK     0       3.812   4.405  24.305  0.00  0.00    -0.361 N 
HETATM   10  C   UNK     0       4.867   5.094  23.821  0.00  0.00     0.022 A 
HETATM   11  C   UNK     0       5.742   4.219  23.185  0.00  0.00    -0.027 A 
HETATM   12  C   UNK     0       5.190   2.968  23.288  0.00  0.00    -0.031 A 
HETATM   13  C   UNK     0       5.798   1.696  22.742  0.00  0.00     0.051 C 
HETATM   14  C   UNK     0       5.065   6.606  23.891  0.00  0.00     0.115 C 
HETATM   15  C   UNK     0       3.981   7.402  23.183  0.00  0.00     0.021 A 
HETATM   16  N   UNK     0       2.657   7.386  23.427  0.00  0.00    -0.361 N 
HETATM   17  C   UNK     0       2.038   8.171  22.543  0.00  0.00     0.022 A 
HETATM   18  C   UNK     0       3.006   8.733  21.687  0.00  0.00    -0.027 A 
HETATM   19  C   UNK     0       4.219   8.245  22.099  0.00  0.00    -0.031 A 
HETATM   20  C   UNK     0       5.543   8.629  21.464  0.00  0.00     0.051 C 
HETATM   21  C   UNK     0       0.563   8.437  22.344  0.00  0.00     0.115 C 
HETATM   22  C   UNK     0      -0.394   7.302  22.623  0.00  0.00     0.022 A 
HETATM   23  N   UNK     0      -0.251   6.004  22.324  0.00  0.00    -0.361 N 
HETATM   24  C   UNK     0      -1.274   5.326  22.884  0.00  0.00     0.021 A 
HETATM   25  C   UNK     0      -2.100   6.210  23.550  0.00  0.00    -0.031 A 
HETATM   26  C   UNK     0      -3.390   5.933  24.294  0.00  0.00     0.051 C 
HETATM   27  C   UNK     0      -1.558   7.481  23.397  0.00  0.00    -0.027 A 
HETATM   28  C   UNK     0      -1.494   3.823  22.899  0.00  0.00     0.115 C 
HETATM   29  H   UNK     0       1.358   3.434  22.275  0.00  0.00     0.165 HD
HETATM   30  H   UNK     0       2.975   4.828  24.913  0.00  0.00     0.165 HD
HETATM   31  H   UNK     0       2.153   6.848  24.272  0.00  0.00     0.165 HD
HETATM   32  H   UNK     0       0.550   5.559  21.679  0.00  0.00     0.165 HD
ENDROOT
BRANCH   6  33
HETATM   33  C   UNK     0       0.891   0.938  26.290  0.00  0.00     0.051 C 
BRANCH  33  34
HETATM   34  C   UNK     0       1.105  -0.504  25.897  0.00  0.00     0.114 C 
BRANCH  34  35
HETATM   35  C   UNK     0       0.391  -1.350  26.897  0.00  0.00     0.139 C 
HETATM   36  O   UNK     0       0.674  -2.578  27.011  0.00  0.00    -0.650 OA
BRANCH  35  37
HETATM   37  O   UNK     0      -0.595  -0.846  27.737  0.00  0.00    -0.776 OA
HETATM   38  H   UNK     0      -1.144  -1.443  28.334  0.00  0.00     0.167 HD
ENDBRANCH  35  37
ENDBRANCH  34  35
ENDBRANCH  33  34
ENDBRANCH   6  33
BRANCH  27  39
HETATM   39  C   UNK     0      -2.213   8.710  23.920  0.00  0.00     0.051 C 
BRANCH  39  40
HETATM   40  C   UNK     0      -1.697   9.300  25.155  0.00  0.00     0.114 C 
BRANCH  40  41
HETATM   41  C   UNK     0      -0.479   8.836  25.780  0.00  0.00     0.139 C 
HETATM   42  O   UNK     0      -0.418   7.822  26.489  0.00  0.00    -0.650 OA
BRANCH  41  43
HETATM   43  O   UNK     0       0.724   9.571  25.580  0.00  0.00    -0.776 OA
HETATM   44  H   UNK     0       1.452   9.060  25.095  0.00  0.00     0.167 HD
ENDBRANCH  41  43
ENDBRANCH  40  41
ENDBRANCH  39  40
ENDBRANCH  27  39
BRANCH  11  45
HETATM   45  C   UNK     0       7.050   4.524  22.505  0.00  0.00     0.051 C 
BRANCH  45  46
HETATM   46  C   UNK     0       8.232   4.440  23.399  0.00  0.00     0.114 C 
BRANCH  46  47
HETATM   47  C   UNK     0       8.548   5.827  23.845  0.00  0.00     0.139 C 
HETATM   48  O   UNK     0       8.694   6.041  25.057  0.00  0.00    -0.650 OA
BRANCH  47  49
HETATM   49  O   UNK     0       8.673   6.847  22.935  0.00  0.00    -0.776 OA
HETATM   50  H   UNK     0       8.380   6.743  21.957  0.00  0.00     0.167 HD
ENDBRANCH  47  49
ENDBRANCH  46  47
ENDBRANCH  45  46
ENDBRANCH  11  45
BRANCH  18  51
HETATM   51  C   UNK     0       2.789   9.700  20.551  0.00  0.00     0.051 C 
BRANCH  51  52
HETATM   52  C   UNK     0       3.257  11.058  21.053  0.00  0.00     0.114 C 
BRANCH  52  53
HETATM   53  C   UNK     0       2.299  11.653  22.004  0.00  0.00     0.139 C 
HETATM   54  O   UNK     0       1.127  11.866  21.655  0.00  0.00    -0.650 OA
BRANCH  53  55
HETATM   55  O   UNK     0       2.712  11.970  23.275  0.00  0.00    -0.776 OA
HETATM   56  H   UNK     0       2.469  11.484  24.107  0.00  0.00     0.167 HD
ENDBRANCH  53  55
ENDBRANCH  52  53
ENDBRANCH  51  52
ENDBRANCH  18  51
TORSDOF 16
ENDMDL
MODEL 13
REMARK VINA RESULT:      -9.0      4.096      8.316
REMARK  16 active torsions:
REMARK  status: ('A' for Active; 'I' for Inactive)
REMARK    1  A    between atoms: C_6  and  C_7 
REMARK    2  A    between atoms: C_7  and  C_8 
REMARK    3  A    between atoms: C_8  and  C_9 
REMARK    4  A    between atoms: C_9  and  O_11 
REMARK    5  A    between atoms: C_16  and  C_17 
REMARK    6  A    between atoms: C_17  and  C_18 
REMARK    7  A    between atoms: C_18  and  C_19 
REMARK    8  A    between atoms: C_19  and  O_21 
REMARK    9  A    between atoms: C_28  and  C_29 
REMARK   10  A    between atoms: C_29  and  C_30 
REMARK   11  A    between atoms: C_30  and  C_31 
REMARK   12  A    between atoms: C_31  and  O_33 
REMARK   13  A    between atoms: C_42  and  C_43 
REMARK   14  A    between atoms: C_43  and  C_44 
REMARK   15  A    between atoms: C_44  and  C_45 
REMARK   16  A    between atoms: C_45  and  O_47 
ROOT
HETATM    1  C   UNK     0      -2.418  -0.763  23.198  0.00  0.00     0.051 C 
HETATM    2  C   UNK     0      -2.356   0.718  23.513  0.00  0.00    -0.031 A 
HETATM    3  C   UNK     0      -1.445   1.414  24.292  0.00  0.00     0.021 A 
HETATM    4  N   UNK     0      -1.797   2.721  24.320  0.00  0.00    -0.361 N 
HETATM    5  C   UNK     0      -2.907   2.875  23.568  0.00  0.00     0.022 A 
HETATM    6  C   UNK     0      -3.285   1.641  23.051  0.00  0.00    -0.027 A 
HETATM    7  C   UNK     0      -3.640   4.126  23.199  0.00  0.00     0.115 C 
HETATM    8  C   UNK     0      -2.792   5.324  22.810  0.00  0.00     0.021 A 
HETATM    9  N   UNK     0      -1.630   5.344  22.139  0.00  0.00    -0.361 N 
HETATM   10  C   UNK     0      -1.189   6.619  22.102  0.00  0.00     0.022 A 
HETATM   11  C   UNK     0      -2.096   7.445  22.759  0.00  0.00    -0.027 A 
HETATM   12  C   UNK     0      -3.109   6.636  23.207  0.00  0.00    -0.031 A 
HETATM   13  C   UNK     0      -4.324   7.102  23.977  0.00  0.00     0.051 C 
HETATM   14  C   UNK     0       0.126   7.100  21.495  0.00  0.00     0.115 C 
HETATM   15  C   UNK     0       1.361   6.494  22.142  0.00  0.00     0.021 A 
HETATM   16  N   UNK     0       1.680   5.190  22.242  0.00  0.00    -0.361 N 
HETATM   17  C   UNK     0       2.810   5.068  22.942  0.00  0.00     0.022 A 
HETATM   18  C   UNK     0       3.254   6.355  23.307  0.00  0.00    -0.027 A 
HETATM   19  C   UNK     0       2.338   7.239  22.799  0.00  0.00    -0.031 A 
HETATM   20  C   UNK     0       2.456   8.746  22.934  0.00  0.00     0.051 C 
HETATM   21  C   UNK     0       3.545   3.826  23.391  0.00  0.00     0.115 C 
HETATM   22  C   UNK     0       2.716   2.612  23.739  0.00  0.00     0.022 A 
HETATM   23  N   UNK     0       1.554   2.563  24.402  0.00  0.00    -0.361 N 
HETATM   24  C   UNK     0       1.094   1.296  24.359  0.00  0.00     0.021 A 
HETATM   25  C   UNK     0       1.987   0.508  23.660  0.00  0.00    -0.031 A 
HETATM   26  C   UNK     0       1.930  -0.980  23.381  0.00  0.00     0.051 C 
HETATM   27  C   UNK     0       3.034   1.327  23.253  0.00  0.00    -0.027 A 
HETATM   28  C   UNK     0      -0.227   0.769  24.891  0.00  0.00     0.115 C 
HETATM   29  H   UNK     0      -1.281   3.520  24.902  0.00  0.00     0.165 HD
HETATM   30  H   UNK     0      -1.144   4.466  21.646  0.00  0.00     0.165 HD
HETATM   31  H   UNK     0       1.123   4.341  21.768  0.00  0.00     0.165 HD
HETATM   32  H   UNK     0       1.067   3.415  24.945  0.00  0.00     0.165 HD
ENDROOT
BRANCH   6  33
HETATM   33  C   UNK     0      -4.449   1.276  22.164  0.00  0.00     0.051 C 
BRANCH  33  34
HETATM   34  C   UNK     0      -5.759   1.616  22.834  0.00  0.00     0.114 C 
BRANCH  34  35
HETATM   35  C   UNK     0      -6.647   2.219  21.799  0.00  0.00     0.139 C 
HETATM   36  O   UNK     0      -7.891   1.985  21.812  0.00  0.00    -0.650 OA
BRANCH  35  37
HETATM   37  O   UNK     0      -6.168   3.050  20.794  0.00  0.00    -0.776 OA
HETATM   38  H   UNK     0      -6.783   3.506  20.139  0.00  0.00     0.167 HD
ENDBRANCH  35  37
ENDBRANCH  34  35
ENDBRANCH  33  34
ENDBRANCH   6  33
BRANCH  27  39
HETATM   39  C   UNK     0       4.230   0.816  22.530  0.00  0.00     0.051 C 
BRANCH  39  40
HETATM   40  C   UNK     0       5.404   0.434  23.313  0.00  0.00     0.114 C 
BRANCH  40  41
HETATM   41  C   UNK     0       6.249   1.412  23.962  0.00  0.00     0.139 C 
HETATM   42  O   UNK     0       6.384   1.490  25.191  0.00  0.00    -0.650 OA
BRANCH  41  43
HETATM   43  O   UNK     0       6.970   2.343  23.161  0.00  0.00    -0.776 OA
HETATM   44  H   UNK     0       7.800   1.963  22.723  0.00  0.00     0.167 HD
ENDBRANCH  41  43
ENDBRANCH  40  41
ENDBRANCH  39  40
ENDBRANCH  27  39
BRANCH  11  45
HETATM   45  C   UNK     0      -2.035   8.934  22.966  0.00  0.00     0.051 C 
BRANCH  45  46
HETATM   46  C   UNK     0      -0.837   9.393  23.716  0.00  0.00     0.114 C 
BRANCH  46  47
HETATM   47  C   UNK     0      -1.168   9.314  25.167  0.00  0.00     0.139 C 
HETATM   48  O   UNK     0      -0.778   8.329  25.810  0.00  0.00    -0.650 OA
BRANCH  47  49
HETATM   49  O   UNK     0      -1.889  10.308  25.779  0.00  0.00    -0.776 OA
HETATM   50  H   UNK     0      -1.481  10.908  26.506  0.00  0.00     0.167 HD
ENDBRANCH  47  49
ENDBRANCH  46  47
ENDBRANCH  45  46
ENDBRANCH  11  45
BRANCH  18  51
HETATM   51  C   UNK     0       4.494   6.722  24.080  0.00  0.00     0.051 C 
BRANCH  51  52
HETATM   52  C   UNK     0       5.602   6.895  23.051  0.00  0.00     0.114 C 
BRANCH  52  53
HETATM   53  C   UNK     0       6.852   6.236  23.473  0.00  0.00     0.139 C 
HETATM   54  O   UNK     0       7.946   6.787  23.267  0.00  0.00    -0.650 OA
BRANCH  53  55
HETATM   55  O   UNK     0       6.799   5.011  24.092  0.00  0.00    -0.776 OA
HETATM   56  H   UNK     0       7.511   4.319  24.079  0.00  0.00     0.167 HD
ENDBRANCH  53  55
ENDBRANCH  52  53
ENDBRANCH  51  52
ENDBRANCH  18  51
TORSDOF 16
ENDMDL
MODEL 14
REMARK VINA RESULT:      -8.8      2.901     10.142
REMARK  16 active torsions:
REMARK  status: ('A' for Active; 'I' for Inactive)
REMARK    1  A    between atoms: C_6  and  C_7 
REMARK    2  A    between atoms: C_7  and  C_8 
REMARK    3  A    between atoms: C_8  and  C_9 
REMARK    4  A    between atoms: C_9  and  O_11 
REMARK    5  A    between atoms: C_16  and  C_17 
REMARK    6  A    between atoms: C_17  and  C_18 
REMARK    7  A    between atoms: C_18  and  C_19 
REMARK    8  A    between atoms: C_19  and  O_21 
REMARK    9  A    between atoms: C_28  and  C_29 
REMARK   10  A    between atoms: C_29  and  C_30 
REMARK   11  A    between atoms: C_30  and  C_31 
REMARK   12  A    between atoms: C_31  and  O_33 
REMARK   13  A    between atoms: C_42  and  C_43 
REMARK   14  A    between atoms: C_43  and  C_44 
REMARK   15  A    between atoms: C_44  and  C_45 
REMARK   16  A    between atoms: C_45  and  O_47 
ROOT
HETATM    1  C   UNK     0       2.929  11.068  22.359  0.00  0.00     0.051 C 
HETATM    2  C   UNK     0       3.472   9.797  22.980  0.00  0.00    -0.031 A 
HETATM    3  C   UNK     0       3.045   9.117  24.109  0.00  0.00     0.021 A 
HETATM    4  N   UNK     0       3.847   8.045  24.309  0.00  0.00    -0.361 N 
HETATM    5  C   UNK     0       4.772   8.022  23.327  0.00  0.00     0.022 A 
HETATM    6  C   UNK     0       4.568   9.106  22.479  0.00  0.00    -0.027 A 
HETATM    7  C   UNK     0       5.827   7.001  23.036  0.00  0.00     0.115 C 
HETATM    8  C   UNK     0       5.417   5.544  23.157  0.00  0.00     0.021 A 
HETATM    9  N   UNK     0       4.237   4.979  22.856  0.00  0.00    -0.361 N 
HETATM   10  C   UNK     0       4.292   3.678  23.210  0.00  0.00     0.022 A 
HETATM   11  C   UNK     0       5.546   3.394  23.744  0.00  0.00    -0.027 A 
HETATM   12  C   UNK     0       6.259   4.565  23.714  0.00  0.00    -0.031 A 
HETATM   13  C   UNK     0       7.683   4.733  24.193  0.00  0.00     0.051 C 
HETATM   14  C   UNK     0       3.154   2.666  23.108  0.00  0.00     0.115 C 
HETATM   15  C   UNK     0       1.931   3.031  23.933  0.00  0.00     0.021 A 
HETATM   16  N   UNK     0       1.183   4.147  23.845  0.00  0.00    -0.361 N 
HETATM   17  C   UNK     0       0.242   4.121  24.791  0.00  0.00     0.022 A 
HETATM   18  C   UNK     0       0.376   2.925  25.525  0.00  0.00    -0.027 A 
HETATM   19  C   UNK     0       1.437   2.251  24.977  0.00  0.00    -0.031 A 
HETATM   20  C   UNK     0       1.905   0.887  25.449  0.00  0.00     0.051 C 
HETATM   21  C   UNK     0      -0.796   5.157  25.159  0.00  0.00     0.115 C 
HETATM   22  C   UNK     0      -0.416   6.611  25.001  0.00  0.00     0.022 A 
HETATM   23  N   UNK     0       0.752   7.199  25.289  0.00  0.00    -0.361 N 
HETATM   24  C   UNK     0       0.700   8.476  24.857  0.00  0.00     0.021 A 
HETATM   25  C   UNK     0      -0.535   8.717  24.286  0.00  0.00    -0.031 A 
HETATM   26  C   UNK     0      -1.078  10.004  23.700  0.00  0.00     0.051 C 
HETATM   27  C   UNK     0      -1.267   7.539  24.367  0.00  0.00    -0.027 A 
HETATM   28  C   UNK     0       1.814   9.509  24.876  0.00  0.00     0.115 C 
HETATM   29  H   UNK     0       3.779   7.334  25.165  0.00  0.00     0.165 HD
HETATM   30  H   UNK     0       3.380   5.485  22.348  0.00  0.00     0.165 HD
HETATM   31  H   UNK     0       1.291   4.949  23.069  0.00  0.00     0.165 HD
HETATM   32  H   UNK     0       1.609   6.731  25.839  0.00  0.00     0.165 HD
ENDROOT
BRANCH   6  33
HETATM   33  C   UNK     0       5.327   9.530  21.247  0.00  0.00     0.051 C 
BRANCH  33  34
HETATM   34  C   UNK     0       6.647  10.161  21.623  0.00  0.00     0.114 C 
BRANCH  34  35
HETATM   35  C   UNK     0       7.712   9.460  20.850  0.00  0.00     0.139 C 
HETATM   36  O   UNK     0       7.404   8.688  19.896  0.00  0.00    -0.650 OA
BRANCH  35  37
HETATM   37  O   UNK     0       9.065   9.615  21.128  0.00  0.00    -0.776 OA
HETATM   38  H   UNK     0       9.715   9.964  20.443  0.00  0.00     0.167 HD
ENDBRANCH  35  37
ENDBRANCH  34  35
ENDBRANCH  33  34
ENDBRANCH   6  33
BRANCH  27  39
HETATM   39  C   UNK     0      -2.681   7.431  23.916  0.00  0.00     0.051 C 
BRANCH  39  40
HETATM   40  C   UNK     0      -2.944   6.926  22.569  0.00  0.00     0.114 C 
BRANCH  40  41
HETATM   41  C   UNK     0      -2.335   7.511  21.395  0.00  0.00     0.139 C 
HETATM   42  O   UNK     0      -2.830   8.458  20.769  0.00  0.00    -0.650 OA
BRANCH  41  43
HETATM   43  O   UNK     0      -1.102   6.982  20.920  0.00  0.00    -0.776 OA
HETATM   44  H   UNK     0      -0.304   7.181  21.512  0.00  0.00     0.167 HD
ENDBRANCH  41  43
ENDBRANCH  40  41
ENDBRANCH  39  40
ENDBRANCH  27  39
BRANCH  11  45
HETATM   45  C   UNK     0       6.072   2.084  24.265  0.00  0.00     0.051 C 
BRANCH  45  46
HETATM   46  C   UNK     0       6.223   1.034  23.225  0.00  0.00     0.114 C 
BRANCH  46  47
HETATM   47  C   UNK     0       6.109  -0.286  23.909  0.00  0.00     0.139 C 
HETATM   48  O   UNK     0       5.492  -1.197  23.340  0.00  0.00    -0.650 OA
BRANCH  47  49
HETATM   49  O   UNK     0       6.675  -0.488  25.143  0.00  0.00    -0.776 OA
HETATM   50  H   UNK     0       6.318  -0.028  25.989  0.00  0.00     0.167 HD
ENDBRANCH  47  49
ENDBRANCH  46  47
ENDBRANCH  45  46
ENDBRANCH  11  45
BRANCH  18  51
HETATM   51  C   UNK     0      -0.473   2.442  26.672  0.00  0.00     0.051 C 
BRANCH  51  52
HETATM   52  C   UNK     0      -1.605   1.635  26.053  0.00  0.00     0.114 C 
BRANCH  52  53
HETATM   53  C   UNK     0      -1.754   0.315  26.696  0.00  0.00     0.139 C 
HETATM   54  O   UNK     0      -2.339   0.218  27.786  0.00  0.00    -0.650 OA
BRANCH  53  55
HETATM   55  O   UNK     0      -1.240  -0.801  26.082  0.00  0.00    -0.776 OA
HETATM   56  H   UNK     0      -1.019  -1.661  26.526  0.00  0.00     0.167 HD
ENDBRANCH  53  55
ENDBRANCH  52  53
ENDBRANCH  51  52
ENDBRANCH  18  51
TORSDOF 16
ENDMDL
MODEL 15
REMARK VINA RESULT:      -8.7      4.502      9.871
REMARK  16 active torsions:
REMARK  status: ('A' for Active; 'I' for Inactive)
REMARK    1  A    between atoms: C_6  and  C_7 
REMARK    2  A    between atoms: C_7  and  C_8 
REMARK    3  A    between atoms: C_8  and  C_9 
REMARK    4  A    between atoms: C_9  and  O_11 
REMARK    5  A    between atoms: C_16  and  C_17 
REMARK    6  A    between atoms: C_17  and  C_18 
REMARK    7  A    between atoms: C_18  and  C_19 
REMARK    8  A    between atoms: C_19  and  O_21 
REMARK    9  A    between atoms: C_28  and  C_29 
REMARK   10  A    between atoms: C_29  and  C_30 
REMARK   11  A    between atoms: C_30  and  C_31 
REMARK   12  A    between atoms: C_31  and  O_33 
REMARK   13  A    between atoms: C_42  and  C_43 
REMARK   14  A    between atoms: C_43  and  C_44 
REMARK   15  A    between atoms: C_44  and  C_45 
REMARK   16  A    between atoms: C_45  and  O_47 
ROOT
HETATM    1  C   UNK     0       6.153   0.200  23.799  0.00  0.00     0.051 C 
HETATM    2  C   UNK     0       5.161   1.283  23.427  0.00  0.00    -0.031 A 
HETATM    3  C   UNK     0       3.915   1.167  22.831  0.00  0.00     0.021 A 
HETATM    4  N   UNK     0       3.392   2.404  22.658  0.00  0.00    -0.361 N 
HETATM    5  C   UNK     0       4.274   3.305  23.139  0.00  0.00     0.022 A 
HETATM    6  C   UNK     0       5.393   2.638  23.625  0.00  0.00    -0.027 A 
HETATM    7  C   UNK     0       4.140   4.790  23.272  0.00  0.00     0.115 C 
HETATM    8  C   UNK     0       2.805   5.312  23.773  0.00  0.00     0.021 A 
HETATM    9  N   UNK     0       1.981   4.766  24.680  0.00  0.00    -0.361 N 
HETATM   10  C   UNK     0       0.867   5.526  24.746  0.00  0.00     0.022 A 
HETATM   11  C   UNK     0       0.981   6.596  23.863  0.00  0.00    -0.027 A 
HETATM   12  C   UNK     0       2.200   6.468  23.247  0.00  0.00    -0.031 A 
HETATM   13  C   UNK     0       2.757   7.413  22.207  0.00  0.00     0.051 C 
HETATM   14  C   UNK     0      -0.366   5.245  25.599  0.00  0.00     0.115 C 
HETATM   15  C   UNK     0      -1.056   3.931  25.271  0.00  0.00     0.021 A 
HETATM   16  N   UNK     0      -0.528   2.693  25.313  0.00  0.00    -0.361 N 
HETATM   17  C   UNK     0      -1.437   1.814  24.885  0.00  0.00     0.022 A 
HETATM   18  C   UNK     0      -2.617   2.511  24.558  0.00  0.00    -0.027 A 
HETATM   19  C   UNK     0      -2.366   3.836  24.806  0.00  0.00    -0.031 A 
HETATM   20  C   UNK     0      -3.393   4.939  24.620  0.00  0.00     0.051 C 
HETATM   21  C   UNK     0      -1.322   0.322  24.673  0.00  0.00     0.115 C 
HETATM   22  C   UNK     0       0.014  -0.217  24.217  0.00  0.00     0.022 A 
HETATM   23  N   UNK     0       0.857   0.308  23.319  0.00  0.00    -0.361 N 
HETATM   24  C   UNK     0       1.992  -0.421  23.327  0.00  0.00     0.021 A 
HETATM   25  C   UNK     0       1.872  -1.446  24.245  0.00  0.00    -0.031 A 
HETATM   26  C   UNK     0       2.860  -2.543  24.583  0.00  0.00     0.051 C 
HETATM   27  C   UNK     0       0.615  -1.336  24.828  0.00  0.00    -0.027 A 
HETATM   28  C   UNK     0       3.270  -0.160  22.548  0.00  0.00     0.115 C 
HETATM   29  H   UNK     0       2.421   2.635  22.161  0.00  0.00     0.165 HD
HETATM   30  H   UNK     0       2.204   3.872  25.313  0.00  0.00     0.165 HD
HETATM   31  H   UNK     0       0.491   2.428  25.697  0.00  0.00     0.165 HD
HETATM   32  H   UNK     0       0.643   1.173  22.638  0.00  0.00     0.165 HD
ENDROOT
BRANCH   6  33
HETATM   33  C   UNK     0       6.650   3.183  24.254  0.00  0.00     0.051 C 
BRANCH  33  34
HETATM   34  C   UNK     0       7.606   3.679  23.195  0.00  0.00     0.114 C 
BRANCH  34  35
HETATM   35  C   UNK     0       8.065   5.036  23.609  0.00  0.00     0.139 C 
HETATM   36  O   UNK     0       9.214   5.450  23.274  0.00  0.00    -0.650 OA
BRANCH  35  37
HETATM   37  O   UNK     0       7.276   5.897  24.362  0.00  0.00    -0.776 OA
HETATM   38  H   UNK     0       6.875   6.734  23.971  0.00  0.00     0.167 HD
ENDBRANCH  35  37
ENDBRANCH  34  35
ENDBRANCH  33  34
ENDBRANCH   6  33
BRANCH  27  39
HETATM   39  C   UNK     0       0.094  -2.314  25.821  0.00  0.00     0.051 C 
BRANCH  39  40
HETATM   40  C   UNK     0      -0.214  -1.837  27.169  0.00  0.00     0.114 C 
BRANCH  40  41
HETATM   41  C   UNK     0       0.485  -0.724  27.771  0.00  0.00     0.139 C 
HETATM   42  O   UNK     0       0.111   0.453  27.672  0.00  0.00    -0.650 OA
BRANCH  41  43
HETATM   43  O   UNK     0       1.670  -0.975  28.520  0.00  0.00    -0.776 OA
HETATM   44  H   UNK     0       2.529  -0.758  28.030  0.00  0.00     0.167 HD
ENDBRANCH  41  43
ENDBRANCH  40  41
ENDBRANCH  39  40
ENDBRANCH  27  39
BRANCH  11  45
HETATM   45  C   UNK     0      -0.001   7.705  23.596  0.00  0.00     0.051 C 
BRANCH  45  46
HETATM   46  C   UNK     0       0.201   8.910  24.441  0.00  0.00     0.114 C 
BRANCH  46  47
HETATM   47  C   UNK     0      -1.058   9.706  24.382  0.00  0.00     0.139 C 
HETATM   48  O   UNK     0      -1.903   9.545  25.274  0.00  0.00    -0.650 OA
BRANCH  47  49
HETATM   49  O   UNK     0      -1.278  10.598  23.363  0.00  0.00    -0.776 OA
HETATM   50  H   UNK     0      -2.221  10.915  23.110  0.00  0.00     0.167 HD
ENDBRANCH  47  49
ENDBRANCH  46  47
ENDBRANCH  45  46
ENDBRANCH  11  45
BRANCH  18  51
HETATM   51  C   UNK     0      -3.920   1.944  24.057  0.00  0.00     0.051 C 
BRANCH  51  52
HETATM   52  C   UNK     0      -3.796   1.863  22.543  0.00  0.00     0.114 C 
BRANCH  52  53
HETATM   53  C   UNK     0      -4.953   2.477  21.863  0.00  0.00     0.139 C 
HETATM   54  O   UNK     0      -5.688   3.266  22.477  0.00  0.00    -0.650 OA
BRANCH  53  55
HETATM   55  O   UNK     0      -5.212   2.166  20.550  0.00  0.00    -0.776 OA
HETATM   56  H   UNK     0      -5.874   2.617  19.963  0.00  0.00     0.167 HD
ENDBRANCH  53  55
ENDBRANCH  52  53
ENDBRANCH  51  52
ENDBRANCH  18  51
TORSDOF 16
ENDMDL
MODEL 16
REMARK VINA RESULT:      -8.5      4.569     11.903
REMARK  16 active torsions:
REMARK  status: ('A' for Active; 'I' for Inactive)
REMARK    1  A    between atoms: C_6  and  C_7 
REMARK    2  A    between atoms: C_7  and  C_8 
REMARK    3  A    between atoms: C_8  and  C_9 
REMARK    4  A    between atoms: C_9  and  O_11 
REMARK    5  A    between atoms: C_16  and  C_17 
REMARK    6  A    between atoms: C_17  and  C_18 
REMARK    7  A    between atoms: C_18  and  C_19 
REMARK    8  A    between atoms: C_19  and  O_21 
REMARK    9  A    between atoms: C_28  and  C_29 
REMARK   10  A    between atoms: C_29  and  C_30 
REMARK   11  A    between atoms: C_30  and  C_31 
REMARK   12  A    between atoms: C_31  and  O_33 
REMARK   13  A    between atoms: C_42  and  C_43 
REMARK   14  A    between atoms: C_43  and  C_44 
REMARK   15  A    between atoms: C_44  and  C_45 
REMARK   16  A    between atoms: C_45  and  O_47 
ROOT
HETATM    1  C   UNK     0      -0.443   7.719  23.801  0.00  0.00     0.051 C 
HETATM    2  C   UNK     0       0.629   6.687  24.088  0.00  0.00    -0.031 A 
HETATM    3  C   UNK     0       0.608   5.622  24.974  0.00  0.00     0.021 A 
HETATM    4  N   UNK     0       1.801   4.981  24.922  0.00  0.00    -0.361 N 
HETATM    5  C   UNK     0       2.577   5.611  24.015  0.00  0.00     0.022 A 
HETATM    6  C   UNK     0       1.876   6.684  23.477  0.00  0.00    -0.027 A 
HETATM    7  C   UNK     0       3.941   5.250  23.517  0.00  0.00     0.115 C 
HETATM    8  C   UNK     0       4.195   3.781  23.227  0.00  0.00     0.021 A 
HETATM    9  N   UNK     0       3.346   2.868  22.729  0.00  0.00    -0.361 N 
HETATM   10  C   UNK     0       3.970   1.672  22.727  0.00  0.00     0.022 A 
HETATM   11  C   UNK     0       5.260   1.819  23.229  0.00  0.00    -0.027 A 
HETATM   12  C   UNK     0       5.408   3.146  23.545  0.00  0.00    -0.031 A 
HETATM   13  C   UNK     0       6.658   3.773  24.121  0.00  0.00     0.051 C 
HETATM   14  C   UNK     0       3.362   0.338  22.304  0.00  0.00     0.115 C 
HETATM   15  C   UNK     0       2.160  -0.081  23.135  0.00  0.00     0.021 A 
HETATM   16  N   UNK     0       1.007   0.591  23.310  0.00  0.00    -0.361 N 
HETATM   17  C   UNK     0       0.233  -0.079  24.167  0.00  0.00     0.022 A 
HETATM   18  C   UNK     0       0.911  -1.249  24.563  0.00  0.00    -0.027 A 
HETATM   19  C   UNK     0       2.116  -1.239  23.909  0.00  0.00    -0.031 A 
HETATM   20  C   UNK     0       3.148  -2.346  24.026  0.00  0.00     0.051 C 
HETATM   21  C   UNK     0      -1.116   0.282  24.745  0.00  0.00     0.115 C 
HETATM   22  C   UNK     0      -1.398   1.745  24.997  0.00  0.00     0.022 A 
HETATM   23  N   UNK     0      -0.571   2.677  25.488  0.00  0.00    -0.361 N 
HETATM   24  C   UNK     0      -1.187   3.874  25.408  0.00  0.00     0.021 A 
HETATM   25  C   UNK     0      -2.445   3.707  24.862  0.00  0.00    -0.031 A 
HETATM   26  C   UNK     0      -3.521   4.743  24.611  0.00  0.00     0.051 C 
HETATM   27  C   UNK     0      -2.604   2.353  24.591  0.00  0.00    -0.027 A 
HETATM   28  C   UNK     0      -0.616   5.238  25.756  0.00  0.00     0.115 C 
HETATM   29  H   UNK     0       2.099   4.114  25.554  0.00  0.00     0.165 HD
HETATM   30  H   UNK     0       2.322   3.075  22.331  0.00  0.00     0.165 HD
HETATM   31  H   UNK     0       0.711   1.534  22.780  0.00  0.00     0.165 HD
HETATM   32  H   UNK     0       0.440   2.493  25.936  0.00  0.00     0.165 HD
ENDROOT
BRANCH   6  33
HETATM   33  C   UNK     0       2.296   7.696  22.441  0.00  0.00     0.051 C 
BRANCH  33  34
HETATM   34  C   UNK     0       3.377   8.601  22.984  0.00  0.00     0.114 C 
BRANCH  34  35
HETATM   35  C   UNK     0       2.745   9.491  23.999  0.00  0.00     0.139 C 
HETATM   36  O   UNK     0       1.919  10.380  23.641  0.00  0.00    -0.650 OA
BRANCH  35  37
HETATM   37  O   UNK     0       3.021   9.393  25.358  0.00  0.00    -0.776 OA
HETATM   38  H   UNK     0       2.706  10.085  26.018  0.00  0.00     0.167 HD
ENDBRANCH  35  37
ENDBRANCH  34  35
ENDBRANCH  33  34
ENDBRANCH   6  33
BRANCH  27  39
HETATM   39  C   UNK     0      -3.868   1.775  24.058  0.00  0.00     0.051 C 
BRANCH  39  40
HETATM   40  C   UNK     0      -3.906   1.365  22.655  0.00  0.00     0.114 C 
BRANCH  40  41
HETATM   41  C   UNK     0      -4.656   2.097  21.659  0.00  0.00     0.139 C 
HETATM   42  O   UNK     0      -4.605   3.328  21.532  0.00  0.00    -0.650 OA
BRANCH  41  43
HETATM   43  O   UNK     0      -5.504   1.380  20.768  0.00  0.00    -0.776 OA
HETATM   44  H   UNK     0      -5.045   1.048  19.928  0.00  0.00     0.167 HD
ENDBRANCH  41  43
ENDBRANCH  40  41
ENDBRANCH  39  40
ENDBRANCH  27  39
BRANCH  11  45
HETATM   45  C   UNK     0       6.326   0.772  23.409  0.00  0.00     0.051 C 
BRANCH  45  46
HETATM   46  C   UNK     0       6.385   0.196  24.777  0.00  0.00     0.114 C 
BRANCH  46  47
HETATM   47  C   UNK     0       6.850  -1.214  24.642  0.00  0.00     0.139 C 
HETATM   48  O   UNK     0       6.571  -1.834  23.606  0.00  0.00    -0.650 OA
BRANCH  47  49
HETATM   49  O   UNK     0       7.570  -1.815  25.643  0.00  0.00    -0.776 OA
HETATM   50  H   UNK     0       7.191  -1.937  26.590  0.00  0.00     0.167 HD
ENDBRANCH  47  49
ENDBRANCH  46  47
ENDBRANCH  45  46
ENDBRANCH  11  45
BRANCH  18  51
HETATM   51  C   UNK     0       0.428  -2.328  25.497  0.00  0.00     0.051 C 
BRANCH  51  52
HETATM   52  C   UNK     0       1.108  -2.070  26.834  0.00  0.00     0.114 C 
BRANCH  52  53
HETATM   53  C   UNK     0       0.524  -0.908  27.532  0.00  0.00     0.139 C 
HETATM   54  O   UNK     0      -0.680  -0.905  27.834  0.00  0.00    -0.650 OA
BRANCH  53  55
HETATM   55  O   UNK     0       1.319   0.169  27.842  0.00  0.00    -0.776 OA
HETATM   56  H   UNK     0       1.760   0.337  28.716  0.00  0.00     0.167 HD
ENDBRANCH  53  55
ENDBRANCH  52  53
ENDBRANCH  51  52
ENDBRANCH  18  51
TORSDOF 16
ENDMDL
MODEL 17
REMARK VINA RESULT:      -8.4      2.299      3.325
REMARK  16 active torsions:
REMARK  status: ('A' for Active; 'I' for Inactive)
REMARK    1  A    between atoms: C_6  and  C_7 
REMARK    2  A    between atoms: C_7  and  C_8 
REMARK    3  A    between atoms: C_8  and  C_9 
REMARK    4  A    between atoms: C_9  and  O_11 
REMARK    5  A    between atoms: C_16  and  C_17 
REMARK    6  A    between atoms: C_17  and  C_18 
REMARK    7  A    between atoms: C_18  and  C_19 
REMARK    8  A    between atoms: C_19  and  O_21 
REMARK    9  A    between atoms: C_28  and  C_29 
REMARK   10  A    between atoms: C_29  and  C_30 
REMARK   11  A    between atoms: C_30  and  C_31 
REMARK   12  A    between atoms: C_31  and  O_33 
REMARK   13  A    between atoms: C_42  and  C_43 
REMARK   14  A    between atoms: C_43  and  C_44 
REMARK   15  A    between atoms: C_44  and  C_45 
REMARK   16  A    between atoms: C_45  and  O_47 
ROOT
HETATM    1  C   UNK     0       8.123   4.531  22.496  0.00  0.00     0.051 C 
HETATM    2  C   UNK     0       6.767   4.855  23.089  0.00  0.00    -0.031 A 
HETATM    3  C   UNK     0       6.206   6.088  23.380  0.00  0.00     0.021 A 
HETATM    4  N   UNK     0       4.984   5.898  23.931  0.00  0.00    -0.361 N 
HETATM    5  C   UNK     0       4.750   4.571  23.989  0.00  0.00     0.022 A 
HETATM    6  C   UNK     0       5.847   3.888  23.473  0.00  0.00    -0.027 A 
HETATM    7  C   UNK     0       3.518   3.839  24.422  0.00  0.00     0.115 C 
HETATM    8  C   UNK     0       2.189   4.403  23.950  0.00  0.00     0.021 A 
HETATM    9  N   UNK     0       1.899   4.992  22.780  0.00  0.00    -0.361 N 
HETATM   10  C   UNK     0       0.620   5.420  22.832  0.00  0.00     0.022 A 
HETATM   11  C   UNK     0       0.068   5.089  24.066  0.00  0.00    -0.027 A 
HETATM   12  C   UNK     0       1.051   4.448  24.776  0.00  0.00    -0.031 A 
HETATM   13  C   UNK     0       0.902   3.901  26.177  0.00  0.00     0.051 C 
HETATM   14  C   UNK     0      -0.114   6.202  21.746  0.00  0.00     0.115 C 
HETATM   15  C   UNK     0       0.519   7.545  21.420  0.00  0.00     0.021 A 
HETATM   16  N   UNK     0       1.773   7.780  20.990  0.00  0.00    -0.361 N 
HETATM   17  C   UNK     0       1.962   9.098  20.888  0.00  0.00     0.022 A 
HETATM   18  C   UNK     0       0.771   9.752  21.260  0.00  0.00    -0.027 A 
HETATM   19  C   UNK     0      -0.125   8.769  21.590  0.00  0.00    -0.031 A 
HETATM   20  C   UNK     0      -1.556   9.040  22.017  0.00  0.00     0.051 C 
HETATM   21  C   UNK     0       3.205   9.875  20.520  0.00  0.00     0.115 C 
HETATM   22  C   UNK     0       4.537   9.303  20.944  0.00  0.00     0.022 A 
HETATM   23  N   UNK     0       4.853   8.707  22.102  0.00  0.00    -0.361 N 
HETATM   24  C   UNK     0       6.106   8.220  21.998  0.00  0.00     0.021 A 
HETATM   25  C   UNK     0       6.613   8.518  20.748  0.00  0.00    -0.031 A 
HETATM   26  C   UNK     0       7.984   8.218  20.179  0.00  0.00     0.051 C 
HETATM   27  C   UNK     0       5.627   9.212  20.055  0.00  0.00    -0.027 A 
HETATM   28  C   UNK     0       6.867   7.388  23.016  0.00  0.00     0.115 C 
HETATM   29  H   UNK     0       4.311   6.701  24.311  0.00  0.00     0.165 HD
HETATM   30  H   UNK     0       2.579   5.063  21.896  0.00  0.00     0.165 HD
HETATM   31  H   UNK     0       2.525   6.999  20.706  0.00  0.00     0.165 HD
HETATM   32  H   UNK     0       4.210   8.663  23.019  0.00  0.00     0.165 HD
ENDROOT
BRANCH   6  33
HETATM   33  C   UNK     0       6.084   2.407  23.322  0.00  0.00     0.051 C 
BRANCH  33  34
HETATM   34  C   UNK     0       4.944   1.756  22.574  0.00  0.00     0.114 C 
BRANCH  34  35
HETATM   35  C   UNK     0       4.655   0.456  23.244  0.00  0.00     0.139 C 
HETATM   36  O   UNK     0       3.891  -0.389  22.693  0.00  0.00    -0.650 OA
BRANCH  35  37
HETATM   37  O   UNK     0       5.199   0.111  24.476  0.00  0.00    -0.776 OA
HETATM   38  H   UNK     0       4.665  -0.377  25.178  0.00  0.00     0.167 HD
ENDBRANCH  35  37
ENDBRANCH  34  35
ENDBRANCH  33  34
ENDBRANCH   6  33
BRANCH  27  39
HETATM   39  C   UNK     0       5.833   9.765  18.689  0.00  0.00     0.051 C 
BRANCH  39  40
HETATM   40  C   UNK     0       6.539  11.039  18.556  0.00  0.00     0.114 C 
BRANCH  40  41
HETATM   41  C   UNK     0       6.461  12.073  19.564  0.00  0.00     0.139 C 
HETATM   42  O   UNK     0       5.403  12.620  19.900  0.00  0.00    -0.650 OA
BRANCH  41  43
HETATM   43  O   UNK     0       7.655  12.495  20.214  0.00  0.00    -0.776 OA
HETATM   44  H   UNK     0       8.040  11.820  20.863  0.00  0.00     0.167 HD
ENDBRANCH  41  43
ENDBRANCH  40  41
ENDBRANCH  39  40
ENDBRANCH  27  39
BRANCH  11  45
HETATM   45  C   UNK     0      -1.323   5.353  24.577  0.00  0.00     0.051 C 
BRANCH  45  46
HETATM   46  C   UNK     0      -2.394   4.694  23.786  0.00  0.00     0.114 C 
BRANCH  46  47
HETATM   47  C   UNK     0      -2.179   3.222  23.892  0.00  0.00     0.139 C 
HETATM   48  O   UNK     0      -1.945   2.582  22.858  0.00  0.00    -0.650 OA
BRANCH  47  49
HETATM   49  O   UNK     0      -2.239   2.589  25.108  0.00  0.00    -0.776 OA
HETATM   50  H   UNK     0      -1.436   2.559  25.747  0.00  0.00     0.167 HD
ENDBRANCH  47  49
ENDBRANCH  46  47
ENDBRANCH  45  46
ENDBRANCH  11  45
BRANCH  18  51
HETATM   51  C   UNK     0       0.496  11.234  21.280  0.00  0.00     0.051 C 
BRANCH  51  52
HETATM   52  C   UNK     0       0.807  11.706  22.692  0.00  0.00     0.114 C 
BRANCH  52  53
HETATM   53  C   UNK     0       2.207  12.154  22.826  0.00  0.00     0.139 C 
HETATM   54  O   UNK     0       2.649  13.042  22.079  0.00  0.00    -0.650 OA
BRANCH  53  55
HETATM   55  O   UNK     0       3.016  11.582  23.777  0.00  0.00    -0.776 OA
HETATM   56  H   UNK     0       3.941  11.864  24.004  0.00  0.00     0.167 HD
ENDBRANCH  53  55
ENDBRANCH  52  53
ENDBRANCH  51  52
ENDBRANCH  18  51
TORSDOF 16
ENDMDL
