MODEL 1
REMARK VINA RESULT:      -8.6      0.000      0.000
REMARK  28 active torsions:
REMARK  status: ('A' for Active; 'I' for Inactive)
REMARK    1  A    between atoms: C_2  and  O_3 
REMARK    2  A    between atoms: C_2  and  C_4 
REMARK    3  A    between atoms: C_4  and  C_5 
REMARK    4  A    between atoms: C_5  and  C_6 
REMARK    5  A    between atoms: C_7  and  C_8 
REMARK    6  A    between atoms: C_8  and  C_9 
REMARK    7  A    between atoms: C_9  and  O_11 
REMARK    8  A    between atoms: C_28  and  C_29 
REMARK    9  A    between atoms: C_29  and  C_30 
REMARK   10  A    between atoms: C_30  and  O_32 
REMARK   11  A    between atoms: C_33  and  C_34 
REMARK   12  A    between atoms: C_34  and  C_35 
REMARK   13  A    between atoms: C_35  and  C_36 
REMARK   14  A    between atoms: C_36  and  O_38 
REMARK   15  A    between atoms: C_39  and  C_40 
REMARK   16  A    between atoms: C_40  and  C_41 
REMARK   17  A    between atoms: C_41  and  C_42 
REMARK   18  A    between atoms: C_42  and  O_44 
REMARK   19  A    between atoms: C_45  and  C_46 
REMARK   20  A    between atoms: C_46  and  C_47 
REMARK   21  A    between atoms: C_47  and  O_49 
REMARK   22  A    between atoms: C_50  and  C_51 
REMARK   23  A    between atoms: C_51  and  C_52 
REMARK   24  A    between atoms: C_52  and  O_54 
REMARK   25  A    between atoms: C_55  and  C_56 
REMARK   26  A    between atoms: C_56  and  C_57 
REMARK   27  A    between atoms: C_57  and  C_58 
REMARK   28  A    between atoms: C_58  and  O_60 
ROOT
ATOM      1  O   UNK d   0     -13.994  -8.048  -6.685  0.00  0.00    -0.650 OA
ATOM      2  C   UNK d   0     -14.689  -7.247  -7.350  0.00  0.00     0.139 C 
ENDROOT
BRANCH   2   3
ATOM      3  O   UNK d   0     -16.029  -7.125  -7.068  0.00  0.00    -0.776 OA
ATOM      4  H   UNK d   0     -16.512  -7.819  -6.494  0.00  0.00     0.167 HD
ENDBRANCH   2   3
BRANCH   2   5
ATOM      5  C   UNK d   0     -14.067  -6.438  -8.435  0.00  0.00     0.115 C 
BRANCH   5   6
ATOM      6  C   UNK d   0     -13.827  -7.295  -9.648  0.00  0.00     0.052 C 
BRANCH   6   7
ATOM      7  C   UNK d   0     -15.092  -7.568 -10.426  0.00  0.00    -0.020 A 
ATOM      8  C   UNK d   0     -15.757  -6.736 -11.187  0.00  0.00    -0.011 A 
ATOM      9  C   UNK d   0     -16.909  -7.443 -11.719  0.00  0.00     0.067 A 
ATOM     10  C   UNK d   0     -17.972  -7.140 -12.585  0.00  0.00     0.062 C 
ATOM     11  N   UNK d   0     -16.872  -8.698 -11.226  0.00  0.00    -0.248 NA
ATOM     12  C   UNK d   0     -18.842  -8.043 -13.206  0.00  0.00     0.041 A 
ATOM     13  N   UNK d   0     -19.466  -9.139 -12.734  0.00  0.00    -0.355 N 
ATOM     14  C   UNK d   0     -19.128  -7.882 -14.574  0.00  0.00    -0.022 A 
ATOM     15  C   UNK d   0     -20.134  -9.682 -13.770  0.00  0.00     0.042 A 
ATOM     16  H   UNK d   0     -19.451  -9.511 -11.686  0.00  0.00     0.166 HD
ATOM     17  C   UNK d   0     -20.947 -10.831 -13.830  0.00  0.00     0.062 C 
ATOM     18  C   UNK d   0     -19.946  -8.922 -14.940  0.00  0.00    -0.013 A 
ATOM     19  C   UNK d   0     -20.722 -12.076 -13.300  0.00  0.00     0.067 A 
ATOM     20  N   UNK d   0     -19.704 -12.193 -12.443  0.00  0.00    -0.248 NA
ATOM     21  C   UNK d   0     -21.321 -13.393 -13.435  0.00  0.00    -0.011 A 
ATOM     22  C   UNK d   0     -19.593 -13.491 -12.010  0.00  0.00     0.066 A 
ATOM     23  C   UNK d   0     -18.594 -13.748 -11.082  0.00  0.00     0.062 C 
ATOM     24  C   UNK d   0     -20.653 -14.218 -12.681  0.00  0.00    -0.020 A 
ATOM     25  C   UNK d   0     -17.738 -12.825 -10.461  0.00  0.00     0.041 A 
ATOM     26  N   UNK d   0     -17.106 -11.744 -10.933  0.00  0.00    -0.355 N 
ATOM     27  C   UNK d   0     -17.455 -12.985  -9.087  0.00  0.00    -0.022 A 
ATOM     28  C   UNK d   0     -16.432 -11.205  -9.905  0.00  0.00     0.042 A 
ATOM     29  H   UNK d   0     -17.114 -11.378 -11.989  0.00  0.00     0.166 HD
ATOM     30  C   UNK d   0     -15.613 -10.068  -9.832  0.00  0.00     0.062 C 
ATOM     31  C   UNK d   0     -16.631 -11.964  -8.727  0.00  0.00    -0.013 A 
ATOM     32  C   UNK d   0     -15.803  -8.838 -10.441  0.00  0.00     0.066 A 
BRANCH   8  33
ATOM     33  C   UNK d   0     -15.418  -5.327 -11.464  0.00  0.00     0.151 C 
BRANCH  33  34
ATOM     34  C   UNK d   0     -15.028  -5.100 -12.868  0.00  0.00     0.143 C 
ATOM     35  O   UNK d   0     -15.520  -4.170 -13.523  0.00  0.00    -0.650 OA
BRANCH  34  36
ATOM     36  O   UNK d   0     -14.106  -5.935 -13.456  0.00  0.00    -0.776 OA
ATOM     37  H   UNK d   0     -13.697  -6.726 -12.941  0.00  0.00     0.167 HD
ENDBRANCH  34  36
ENDBRANCH  33  34
ENDBRANCH   8  33
BRANCH  31  38
ATOM     38  C   UNK d   0     -16.073 -11.714  -7.345  0.00  0.00     0.151 C 
BRANCH  38  39
ATOM     39  C   UNK d   0     -16.835 -10.734  -6.601  0.00  0.00     0.143 C 
ATOM     40  O   UNK d   0     -18.077 -10.685  -6.643  0.00  0.00    -0.650 OA
BRANCH  39  41
ATOM     41  O   UNK d   0     -16.166  -9.806  -5.804  0.00  0.00    -0.776 OA
ATOM     42  H   UNK d   0     -15.201 -10.032  -5.542  0.00  0.00     0.167 HD
ENDBRANCH  39  41
ENDBRANCH  38  39
ENDBRANCH  31  38
BRANCH  27  43
ATOM     43  C   UNK d   0     -17.928 -14.049  -8.129  0.00  0.00     0.052 C 
BRANCH  43  44
ATOM     44  C   UNK d   0     -17.033 -15.245  -8.085  0.00  0.00     0.115 C 
BRANCH  44  45
ATOM     45  C   UNK d   0     -17.861 -16.410  -8.494  0.00  0.00     0.139 C 
ATOM     46  O   UNK d   0     -17.283 -17.385  -9.035  0.00  0.00    -0.650 OA
BRANCH  45  47
ATOM     47  O   UNK d   0     -19.224 -16.463  -8.299  0.00  0.00    -0.776 OA
ATOM     48  H   UNK d   0     -19.751 -15.716  -7.819  0.00  0.00     0.167 HD
ENDBRANCH  45  47
ENDBRANCH  44  45
ENDBRANCH  43  44
ENDBRANCH  27  43
BRANCH  24  49
ATOM     49  C   UNK d   0     -20.944 -15.649 -12.488  0.00  0.00     0.052 C 
BRANCH  49  50
ATOM     50  C   UNK d   0     -22.304 -15.828 -11.863  0.00  0.00     0.115 C 
BRANCH  50  51
ATOM     51  C   UNK d   0     -22.549 -15.148 -10.599  0.00  0.00     0.139 C 
ATOM     52  O   UNK d   0     -23.584 -14.475 -10.382  0.00  0.00    -0.650 OA
BRANCH  51  53
ATOM     53  O   UNK d   0     -21.612 -15.234  -9.580  0.00  0.00    -0.776 OA
ATOM     54  H   UNK d   0     -21.853 -15.756  -8.756  0.00  0.00     0.167 HD
ENDBRANCH  51  53
ENDBRANCH  50  51
ENDBRANCH  49  50
ENDBRANCH  24  49
BRANCH  21  55
ATOM     55  C   UNK d   0     -22.501 -13.689 -14.300  0.00  0.00     0.151 C 
BRANCH  55  56
ATOM     56  C   UNK d   0     -23.654 -12.837 -13.971  0.00  0.00     0.143 C 
ATOM     57  O   UNK d   0     -24.009 -11.878 -14.683  0.00  0.00    -0.650 OA
BRANCH  56  58
ATOM     58  O   UNK d   0     -24.367 -13.130 -12.810  0.00  0.00    -0.776 OA
ATOM     59  H   UNK d   0     -25.395 -13.181 -12.930  0.00  0.00     0.167 HD
ENDBRANCH  56  58
ENDBRANCH  55  56
ENDBRANCH  21  55
BRANCH  18  60
ATOM     60  C   UNK d   0     -20.491  -9.145 -16.329  0.00  0.00     0.151 C 
BRANCH  60  61
ATOM     61  C   UNK d   0     -21.911  -8.768 -16.271  0.00  0.00     0.143 C 
ATOM     62  O   UNK d   0     -22.414  -7.872 -15.592  0.00  0.00    -0.650 OA
BRANCH  61  63
ATOM     63  O   UNK d   0     -22.772  -9.532 -17.095  0.00  0.00    -0.776 OA
ATOM     64  H   UNK d   0     -23.767  -9.399 -17.069  0.00  0.00     0.167 HD
ENDBRANCH  61  63
ENDBRANCH  60  61
ENDBRANCH  18  60
BRANCH  14  65
ATOM     65  C   UNK d   0     -18.771  -6.777 -15.527  0.00  0.00     0.052 C 
BRANCH  65  66
ATOM     66  C   UNK d   0     -17.622  -7.117 -16.408  0.00  0.00     0.115 C 
BRANCH  66  67
ATOM     67  C   UNK d   0     -16.283  -6.838 -15.970  0.00  0.00     0.139 C 
ATOM     68  O   UNK d   0     -15.686  -7.705 -15.232  0.00  0.00    -0.650 OA
BRANCH  67  69
ATOM     69  O   UNK d   0     -15.512  -5.710 -16.247  0.00  0.00    -0.776 OA
ATOM     70  H   UNK d   0     -15.534  -5.381 -17.223  0.00  0.00     0.167 HD
ENDBRANCH  67  69
ENDBRANCH  66  67
ENDBRANCH  65  66
ENDBRANCH  14  65
ENDBRANCH   6   7
ENDBRANCH   5   6
ENDBRANCH   2   5
TORSDOF 28
ENDMDL
MODEL 2
REMARK VINA RESULT:      -8.5      3.419      9.569
REMARK  28 active torsions:
REMARK  status: ('A' for Active; 'I' for Inactive)
REMARK    1  A    between atoms: C_2  and  O_3 
REMARK    2  A    between atoms: C_2  and  C_4 
REMARK    3  A    between atoms: C_4  and  C_5 
REMARK    4  A    between atoms: C_5  and  C_6 
REMARK    5  A    between atoms: C_7  and  C_8 
REMARK    6  A    between atoms: C_8  and  C_9 
REMARK    7  A    between atoms: C_9  and  O_11 
REMARK    8  A    between atoms: C_28  and  C_29 
REMARK    9  A    between atoms: C_29  and  C_30 
REMARK   10  A    between atoms: C_30  and  O_32 
REMARK   11  A    between atoms: C_33  and  C_34 
REMARK   12  A    between atoms: C_34  and  C_35 
REMARK   13  A    between atoms: C_35  and  C_36 
REMARK   14  A    between atoms: C_36  and  O_38 
REMARK   15  A    between atoms: C_39  and  C_40 
REMARK   16  A    between atoms: C_40  and  C_41 
REMARK   17  A    between atoms: C_41  and  C_42 
REMARK   18  A    between atoms: C_42  and  O_44 
REMARK   19  A    between atoms: C_45  and  C_46 
REMARK   20  A    between atoms: C_46  and  C_47 
REMARK   21  A    between atoms: C_47  and  O_49 
REMARK   22  A    between atoms: C_50  and  C_51 
REMARK   23  A    between atoms: C_51  and  C_52 
REMARK   24  A    between atoms: C_52  and  O_54 
REMARK   25  A    between atoms: C_55  and  C_56 
REMARK   26  A    between atoms: C_56  and  C_57 
REMARK   27  A    between atoms: C_57  and  C_58 
REMARK   28  A    between atoms: C_58  and  O_60 
ROOT
ATOM      1  O   UNK d   0     -18.057  -5.759  -4.602  0.00  0.00    -0.650 OA
ATOM      2  C   UNK d   0     -16.940  -6.318  -4.520  0.00  0.00     0.139 C 
ENDROOT
BRANCH   2   3
ATOM      3  O   UNK d   0     -15.827  -5.561  -4.243  0.00  0.00    -0.776 OA
ATOM      4  H   UNK d   0     -15.594  -5.298  -3.283  0.00  0.00     0.167 HD
ENDBRANCH   2   3
BRANCH   2   5
ATOM      5  C   UNK d   0     -16.823  -7.790  -4.723  0.00  0.00     0.115 C 
BRANCH   5   6
ATOM      6  C   UNK d   0     -15.495  -8.122  -5.348  0.00  0.00     0.052 C 
BRANCH   6   7
ATOM      7  C   UNK d   0     -15.571  -8.230  -6.852  0.00  0.00    -0.020 A 
ATOM      8  C   UNK d   0     -15.779  -9.308  -7.566  0.00  0.00    -0.011 A 
ATOM      9  C   UNK d   0     -15.760  -8.924  -8.967  0.00  0.00     0.067 A 
ATOM     10  C   UNK d   0     -15.932  -9.576 -10.198  0.00  0.00     0.062 C 
ATOM     11  N   UNK d   0     -15.528  -7.595  -9.015  0.00  0.00    -0.248 NA
ATOM     12  C   UNK d   0     -16.156  -8.984 -11.446  0.00  0.00     0.041 A 
ATOM     13  N   UNK d   0     -15.594  -7.910 -12.031  0.00  0.00    -0.355 N 
ATOM     14  C   UNK d   0     -17.164  -9.507 -12.276  0.00  0.00    -0.022 A 
ATOM     15  C   UNK d   0     -16.224  -7.733 -13.208  0.00  0.00     0.042 A 
ATOM     16  H   UNK d   0     -14.754  -7.300 -11.630  0.00  0.00     0.166 HD
ATOM     17  C   UNK d   0     -16.031  -6.762 -14.211  0.00  0.00     0.062 C 
ATOM     18  C   UNK d   0     -17.216  -8.715 -13.396  0.00  0.00    -0.013 A 
ATOM     19  C   UNK d   0     -15.859  -5.408 -14.079  0.00  0.00     0.067 A 
ATOM     20  N   UNK d   0     -15.647  -4.943 -12.845  0.00  0.00    -0.248 NA
ATOM     21  C   UNK d   0     -15.859  -4.263 -14.974  0.00  0.00    -0.011 A 
ATOM     22  C   UNK d   0     -15.510  -3.577 -12.868  0.00  0.00     0.066 A 
ATOM     23  C   UNK d   0     -15.246  -2.963 -11.652  0.00  0.00     0.062 C 
ATOM     24  C   UNK d   0     -15.658  -3.194 -14.259  0.00  0.00    -0.020 A 
ATOM     25  C   UNK d   0     -15.012  -3.577 -10.412  0.00  0.00     0.041 A 
ATOM     26  N   UNK d   0     -15.581  -4.635  -9.824  0.00  0.00    -0.355 N 
ATOM     27  C   UNK d   0     -13.997  -3.054  -9.581  0.00  0.00    -0.022 A 
ATOM     28  C   UNK d   0     -14.960  -4.808  -8.646  0.00  0.00     0.042 A 
ATOM     29  H   UNK d   0     -16.432  -5.240 -10.224  0.00  0.00     0.166 HD
ATOM     30  C   UNK d   0     -15.148  -5.764  -7.635  0.00  0.00     0.062 C 
ATOM     31  C   UNK d   0     -13.957  -3.827  -8.462  0.00  0.00    -0.013 A 
ATOM     32  C   UNK d   0     -15.406  -7.118  -7.776  0.00  0.00     0.066 A 
BRANCH   8  33
ATOM     33  C   UNK d   0     -15.990 -10.677  -7.060  0.00  0.00     0.151 C 
BRANCH  33  34
ATOM     34  C   UNK d   0     -17.417 -11.007  -6.889  0.00  0.00     0.143 C 
ATOM     35  O   UNK d   0     -18.277 -10.116  -6.853  0.00  0.00    -0.650 OA
BRANCH  34  36
ATOM     36  O   UNK d   0     -17.795 -12.324  -6.766  0.00  0.00    -0.776 OA
ATOM     37  H   UNK d   0     -18.785 -12.590  -6.679  0.00  0.00     0.167 HD
ENDBRANCH  34  36
ENDBRANCH  33  34
ENDBRANCH   8  33
BRANCH  31  38
ATOM     38  C   UNK d   0     -13.015  -3.656  -7.293  0.00  0.00     0.151 C 
BRANCH  38  39
ATOM     39  C   UNK d   0     -11.685  -4.159  -7.565  0.00  0.00     0.143 C 
ATOM     40  O   UNK d   0     -10.677  -3.722  -6.983  0.00  0.00    -0.650 OA
BRANCH  39  41
ATOM     41  O   UNK d   0     -11.514  -5.170  -8.511  0.00  0.00    -0.776 OA
ATOM     42  H   UNK d   0     -10.554  -5.358  -8.816  0.00  0.00     0.167 HD
ENDBRANCH  39  41
ENDBRANCH  38  39
ENDBRANCH  31  38
BRANCH  27  43
ATOM     43  C   UNK d   0     -13.087  -1.872  -9.808  0.00  0.00     0.052 C 
BRANCH  43  44
ATOM     44  C   UNK d   0     -13.210  -0.821  -8.752  0.00  0.00     0.115 C 
BRANCH  44  45
ATOM     45  C   UNK d   0     -11.832  -0.351  -8.459  0.00  0.00     0.139 C 
ATOM     46  O   UNK d   0     -11.689   0.799  -7.974  0.00  0.00    -0.650 OA
BRANCH  45  47
ATOM     47  O   UNK d   0     -10.714  -1.122  -8.691  0.00  0.00    -0.776 OA
ATOM     48  H   UNK d   0      -9.830  -0.999  -8.171  0.00  0.00     0.167 HD
ENDBRANCH  45  47
ENDBRANCH  44  45
ENDBRANCH  43  44
ENDBRANCH  27  43
BRANCH  24  49
ATOM     49  C   UNK d   0     -15.546  -1.816 -14.768  0.00  0.00     0.052 C 
BRANCH  49  50
ATOM     50  C   UNK d   0     -16.831  -1.064 -14.533  0.00  0.00     0.115 C 
BRANCH  50  51
ATOM     51  C   UNK d   0     -16.805   0.377 -14.744  0.00  0.00     0.139 C 
ATOM     52  O   UNK d   0     -16.759   0.893 -15.886  0.00  0.00    -0.650 OA
BRANCH  51  53
ATOM     53  O   UNK d   0     -16.830   1.231 -13.652  0.00  0.00    -0.776 OA
ATOM     54  H   UNK d   0     -16.053   1.211 -13.016  0.00  0.00     0.167 HD
ENDBRANCH  51  53
ENDBRANCH  50  51
ENDBRANCH  49  50
ENDBRANCH  24  49
BRANCH  21  55
ATOM     55  C   UNK d   0     -16.055  -4.357 -16.451  0.00  0.00     0.151 C 
BRANCH  55  56
ATOM     56  C   UNK d   0     -17.350  -4.964 -16.797  0.00  0.00     0.143 C 
ATOM     57  O   UNK d   0     -17.455  -5.924 -17.586  0.00  0.00    -0.650 OA
BRANCH  56  58
ATOM     58  O   UNK d   0     -18.495  -4.431 -16.209  0.00  0.00    -0.776 OA
ATOM     59  H   UNK d   0     -19.006  -5.079 -15.583  0.00  0.00     0.167 HD
ENDBRANCH  56  58
ENDBRANCH  55  56
ENDBRANCH  21  55
BRANCH  18  60
ATOM     60  C   UNK d   0     -18.166  -8.912 -14.551  0.00  0.00     0.151 C 
BRANCH  60  61
ATOM     61  C   UNK d   0     -19.389  -8.175 -14.198  0.00  0.00     0.143 C 
ATOM     62  O   UNK d   0     -20.424  -8.640 -13.720  0.00  0.00    -0.650 OA
BRANCH  61  63
ATOM     63  O   UNK d   0     -19.344  -6.782 -14.445  0.00  0.00    -0.776 OA
ATOM     64  H   UNK d   0     -18.755  -6.401 -15.164  0.00  0.00     0.167 HD
ENDBRANCH  61  63
ENDBRANCH  60  61
ENDBRANCH  18  60
BRANCH  14  65
ATOM     65  C   UNK d   0     -18.006 -10.744 -12.137  0.00  0.00     0.052 C 
BRANCH  65  66
ATOM     66  C   UNK d   0     -17.205 -11.997 -12.149  0.00  0.00     0.115 C 
BRANCH  66  67
ATOM     67  C   UNK d   0     -17.298 -12.912 -11.047  0.00  0.00     0.139 C 
ATOM     68  O   UNK d   0     -17.629 -12.451  -9.893  0.00  0.00    -0.650 OA
BRANCH  67  69
ATOM     69  O   UNK d   0     -17.069 -14.288 -11.058  0.00  0.00    -0.776 OA
ATOM     70  H   UNK d   0     -17.858 -14.871 -11.372  0.00  0.00     0.167 HD
ENDBRANCH  67  69
ENDBRANCH  66  67
ENDBRANCH  65  66
ENDBRANCH  14  65
ENDBRANCH   6   7
ENDBRANCH   5   6
ENDBRANCH   2   5
TORSDOF 28
ENDMDL
MODEL 3
REMARK VINA RESULT:      -8.5      3.742      8.207
REMARK  28 active torsions:
REMARK  status: ('A' for Active; 'I' for Inactive)
REMARK    1  A    between atoms: C_2  and  O_3 
REMARK    2  A    between atoms: C_2  and  C_4 
REMARK    3  A    between atoms: C_4  and  C_5 
REMARK    4  A    between atoms: C_5  and  C_6 
REMARK    5  A    between atoms: C_7  and  C_8 
REMARK    6  A    between atoms: C_8  and  C_9 
REMARK    7  A    between atoms: C_9  and  O_11 
REMARK    8  A    between atoms: C_28  and  C_29 
REMARK    9  A    between atoms: C_29  and  C_30 
REMARK   10  A    between atoms: C_30  and  O_32 
REMARK   11  A    between atoms: C_33  and  C_34 
REMARK   12  A    between atoms: C_34  and  C_35 
REMARK   13  A    between atoms: C_35  and  C_36 
REMARK   14  A    between atoms: C_36  and  O_38 
REMARK   15  A    between atoms: C_39  and  C_40 
REMARK   16  A    between atoms: C_40  and  C_41 
REMARK   17  A    between atoms: C_41  and  C_42 
REMARK   18  A    between atoms: C_42  and  O_44 
REMARK   19  A    between atoms: C_45  and  C_46 
REMARK   20  A    between atoms: C_46  and  C_47 
REMARK   21  A    between atoms: C_47  and  O_49 
REMARK   22  A    between atoms: C_50  and  C_51 
REMARK   23  A    between atoms: C_51  and  C_52 
REMARK   24  A    between atoms: C_52  and  O_54 
REMARK   25  A    between atoms: C_55  and  C_56 
REMARK   26  A    between atoms: C_56  and  C_57 
REMARK   27  A    between atoms: C_57  and  C_58 
REMARK   28  A    between atoms: C_58  and  O_60 
ROOT
ATOM      1  O   UNK d   0     -17.921  -7.178 -23.352  0.00  0.00    -0.650 OA
ATOM      2  C   UNK d   0     -17.216  -6.667 -22.454  0.00  0.00     0.139 C 
ENDROOT
BRANCH   2   3
ATOM      3  O   UNK d   0     -16.708  -5.403 -22.634  0.00  0.00    -0.776 OA
ATOM      4  H   UNK d   0     -17.233  -4.576 -22.340  0.00  0.00     0.167 HD
ENDBRANCH   2   3
BRANCH   2   5
ATOM      5  C   UNK d   0     -16.933  -7.425 -21.202  0.00  0.00     0.115 C 
BRANCH   5   6
ATOM      6  C   UNK d   0     -17.953  -7.087 -20.150  0.00  0.00     0.052 C 
BRANCH   6   7
ATOM      7  C   UNK d   0     -17.575  -7.609 -18.784  0.00  0.00    -0.020 A 
ATOM      8  C   UNK d   0     -16.712  -7.096 -17.945  0.00  0.00    -0.011 A 
ATOM      9  C   UNK d   0     -16.677  -7.947 -16.767  0.00  0.00     0.067 A 
ATOM     10  C   UNK d   0     -16.002  -7.946 -15.537  0.00  0.00     0.062 C 
ATOM     11  N   UNK d   0     -17.545  -8.959 -16.978  0.00  0.00    -0.248 NA
ATOM     12  C   UNK d   0     -16.306  -8.707 -14.403  0.00  0.00     0.041 A 
ATOM     13  N   UNK d   0     -16.658 -10.000 -14.271  0.00  0.00    -0.355 N 
ATOM     14  C   UNK d   0     -16.324  -8.077 -13.145  0.00  0.00    -0.022 A 
ATOM     15  C   UNK d   0     -16.906 -10.205 -12.963  0.00  0.00     0.042 A 
ATOM     16  H   UNK d   0     -16.712 -10.758 -15.083  0.00  0.00     0.166 HD
ATOM     17  C   UNK d   0     -17.306 -11.371 -12.281  0.00  0.00     0.062 C 
ATOM     18  C   UNK d   0     -16.707  -9.022 -12.226  0.00  0.00    -0.013 A 
ATOM     19  C   UNK d   0     -18.270 -12.284 -12.625  0.00  0.00     0.067 A 
ATOM     20  N   UNK d   0     -18.779 -12.191 -13.857  0.00  0.00    -0.248 NA
ATOM     21  C   UNK d   0     -18.944 -13.390 -11.966  0.00  0.00    -0.011 A 
ATOM     22  C   UNK d   0     -19.738 -13.155 -14.050  0.00  0.00     0.066 A 
ATOM     23  C   UNK d   0     -20.325 -13.197 -15.306  0.00  0.00     0.062 C 
ATOM     24  C   UNK d   0     -19.805 -13.893 -12.804  0.00  0.00    -0.020 A 
ATOM     25  C   UNK d   0     -19.996 -12.432 -16.436  0.00  0.00     0.041 A 
ATOM     26  N   UNK d   0     -19.661 -11.143 -16.568  0.00  0.00    -0.355 N 
ATOM     27  C   UNK d   0     -19.975 -13.066 -17.697  0.00  0.00    -0.022 A 
ATOM     28  C   UNK d   0     -19.422 -10.935 -17.873  0.00  0.00     0.042 A 
ATOM     29  H   UNK d   0     -19.618 -10.381 -15.752  0.00  0.00     0.166 HD
ATOM     30  C   UNK d   0     -19.033  -9.778 -18.566  0.00  0.00     0.062 C 
ATOM     31  C   UNK d   0     -19.612 -12.126 -18.612  0.00  0.00    -0.013 A 
ATOM     32  C   UNK d   0     -18.118  -8.813 -18.174  0.00  0.00     0.066 A 
BRANCH   8  33
ATOM     33  C   UNK d   0     -15.906  -5.877 -18.139  0.00  0.00     0.151 C 
BRANCH  33  34
ATOM     34  C   UNK d   0     -16.528  -4.680 -17.544  0.00  0.00     0.143 C 
ATOM     35  O   UNK d   0     -16.148  -4.243 -16.449  0.00  0.00    -0.650 OA
BRANCH  34  36
ATOM     36  O   UNK d   0     -17.546  -4.043 -18.216  0.00  0.00    -0.776 OA
ATOM     37  H   UNK d   0     -18.094  -3.295 -17.771  0.00  0.00     0.167 HD
ENDBRANCH  34  36
ENDBRANCH  33  34
ENDBRANCH   8  33
BRANCH  31  38
ATOM     38  C   UNK d   0     -19.442 -12.346 -20.097  0.00  0.00     0.151 C 
BRANCH  38  39
ATOM     39  C   UNK d   0     -18.095 -12.738 -20.456  0.00  0.00     0.143 C 
ATOM     40  O   UNK d   0     -17.097 -12.079 -20.115  0.00  0.00    -0.650 OA
BRANCH  39  41
ATOM     41  O   UNK d   0     -17.896 -13.894 -21.210  0.00  0.00    -0.776 OA
ATOM     42  H   UNK d   0     -17.090 -14.475 -20.959  0.00  0.00     0.167 HD
ENDBRANCH  39  41
ENDBRANCH  38  39
ENDBRANCH  31  38
BRANCH  27  43
ATOM     43  C   UNK d   0     -20.282 -14.499 -18.055  0.00  0.00     0.052 C 
BRANCH  43  44
ATOM     44  C   UNK d   0     -19.060 -15.350 -18.189  0.00  0.00     0.115 C 
BRANCH  44  45
ATOM     45  C   UNK d   0     -19.356 -16.354 -19.243  0.00  0.00     0.139 C 
ATOM     46  O   UNK d   0     -19.830 -15.946 -20.333  0.00  0.00    -0.650 OA
BRANCH  45  47
ATOM     47  O   UNK d   0     -19.128 -17.703 -19.076  0.00  0.00    -0.776 OA
ATOM     48  H   UNK d   0     -19.885 -18.405 -19.089  0.00  0.00     0.167 HD
ENDBRANCH  45  47
ENDBRANCH  44  45
ENDBRANCH  43  44
ENDBRANCH  27  43
BRANCH  24  49
ATOM     49  C   UNK d   0     -20.677 -15.055 -12.560  0.00  0.00     0.052 C 
BRANCH  49  50
ATOM     50  C   UNK d   0     -22.049 -14.600 -12.135  0.00  0.00     0.115 C 
BRANCH  50  51
ATOM     51  C   UNK d   0     -22.757 -15.433 -11.171  0.00  0.00     0.139 C 
ATOM     52  O   UNK d   0     -23.158 -16.589 -11.442  0.00  0.00    -0.650 OA
BRANCH  51  53
ATOM     53  O   UNK d   0     -23.008 -14.946  -9.898  0.00  0.00    -0.776 OA
ATOM     54  H   UNK d   0     -23.565 -15.506  -9.276  0.00  0.00     0.167 HD
ENDBRANCH  51  53
ENDBRANCH  50  51
ENDBRANCH  49  50
ENDBRANCH  24  49
BRANCH  21  55
ATOM     55  C   UNK d   0     -18.655 -13.831 -10.570  0.00  0.00     0.151 C 
BRANCH  55  56
ATOM     56  C   UNK d   0     -17.695 -14.945 -10.531  0.00  0.00     0.143 C 
ATOM     57  O   UNK d   0     -18.037 -16.136 -10.669  0.00  0.00    -0.650 OA
BRANCH  56  58
ATOM     58  O   UNK d   0     -16.350 -14.636 -10.332  0.00  0.00    -0.776 OA
ATOM     59  H   UNK d   0     -16.161 -14.011  -9.528  0.00  0.00     0.167 HD
ENDBRANCH  56  58
ENDBRANCH  55  56
ENDBRANCH  21  55
BRANCH  18  60
ATOM     60  C   UNK d   0     -16.866  -8.774 -10.746  0.00  0.00     0.151 C 
BRANCH  60  61
ATOM     61  C   UNK d   0     -15.826  -9.579 -10.088  0.00  0.00     0.143 C 
ATOM     62  O   UNK d   0     -15.991 -10.445  -9.228  0.00  0.00    -0.650 OA
BRANCH  61  63
ATOM     63  O   UNK d   0     -14.500  -9.310 -10.507  0.00  0.00    -0.776 OA
ATOM     64  H   UNK d   0     -14.127  -8.378 -10.481  0.00  0.00     0.167 HD
ENDBRANCH  61  63
ENDBRANCH  60  61
ENDBRANCH  18  60
BRANCH  14  65
ATOM     65  C   UNK d   0     -15.914  -6.691 -12.737  0.00  0.00     0.052 C 
BRANCH  65  66
ATOM     66  C   UNK d   0     -14.512  -6.619 -12.244  0.00  0.00     0.115 C 
BRANCH  66  67
ATOM     67  C   UNK d   0     -13.448  -7.155 -13.046  0.00  0.00     0.139 C 
ATOM     68  O   UNK d   0     -13.006  -6.453 -14.028  0.00  0.00    -0.650 OA
BRANCH  67  69
ATOM     69  O   UNK d   0     -12.804  -8.383 -12.898  0.00  0.00    -0.776 OA
ATOM     70  H   UNK d   0     -11.955  -8.514 -13.467  0.00  0.00     0.167 HD
ENDBRANCH  67  69
ENDBRANCH  66  67
ENDBRANCH  65  66
ENDBRANCH  14  65
ENDBRANCH   6   7
ENDBRANCH   5   6
ENDBRANCH   2   5
TORSDOF 28
ENDMDL
MODEL 4
REMARK VINA RESULT:      -8.3      2.986      7.508
REMARK  28 active torsions:
REMARK  status: ('A' for Active; 'I' for Inactive)
REMARK    1  A    between atoms: C_2  and  O_3 
REMARK    2  A    between atoms: C_2  and  C_4 
REMARK    3  A    between atoms: C_4  and  C_5 
REMARK    4  A    between atoms: C_5  and  C_6 
REMARK    5  A    between atoms: C_7  and  C_8 
REMARK    6  A    between atoms: C_8  and  C_9 
REMARK    7  A    between atoms: C_9  and  O_11 
REMARK    8  A    between atoms: C_28  and  C_29 
REMARK    9  A    between atoms: C_29  and  C_30 
REMARK   10  A    between atoms: C_30  and  O_32 
REMARK   11  A    between atoms: C_33  and  C_34 
REMARK   12  A    between atoms: C_34  and  C_35 
REMARK   13  A    between atoms: C_35  and  C_36 
REMARK   14  A    between atoms: C_36  and  O_38 
REMARK   15  A    between atoms: C_39  and  C_40 
REMARK   16  A    between atoms: C_40  and  C_41 
REMARK   17  A    between atoms: C_41  and  C_42 
REMARK   18  A    between atoms: C_42  and  O_44 
REMARK   19  A    between atoms: C_45  and  C_46 
REMARK   20  A    between atoms: C_46  and  C_47 
REMARK   21  A    between atoms: C_47  and  O_49 
REMARK   22  A    between atoms: C_50  and  C_51 
REMARK   23  A    between atoms: C_51  and  C_52 
REMARK   24  A    between atoms: C_52  and  O_54 
REMARK   25  A    between atoms: C_55  and  C_56 
REMARK   26  A    between atoms: C_56  and  C_57 
REMARK   27  A    between atoms: C_57  and  C_58 
REMARK   28  A    between atoms: C_58  and  O_60 
ROOT
ATOM      1  O   UNK d   0     -17.897  -3.513 -18.961  0.00  0.00    -0.650 OA
ATOM      2  C   UNK d   0     -17.010  -4.183 -18.387  0.00  0.00     0.139 C 
ENDROOT
BRANCH   2   3
ATOM      3  O   UNK d   0     -15.697  -3.789 -18.489  0.00  0.00    -0.776 OA
ATOM      4  H   UNK d   0     -15.032  -4.313 -19.060  0.00  0.00     0.167 HD
ENDBRANCH   2   3
BRANCH   2   5
ATOM      5  C   UNK d   0     -17.377  -5.397 -17.604  0.00  0.00     0.115 C 
BRANCH   5   6
ATOM      6  C   UNK d   0     -16.274  -6.417 -17.683  0.00  0.00     0.052 C 
BRANCH   6   7
ATOM      7  C   UNK d   0     -16.204  -7.293 -16.455  0.00  0.00    -0.020 A 
ATOM      8  C   UNK d   0     -15.413  -7.156 -15.421  0.00  0.00    -0.011 A 
ATOM      9  C   UNK d   0     -15.701  -8.239 -14.495  0.00  0.00     0.067 A 
ATOM     10  C   UNK d   0     -15.236  -8.643 -13.233  0.00  0.00     0.062 C 
ATOM     11  N   UNK d   0     -16.676  -8.991 -15.048  0.00  0.00    -0.248 NA
ATOM     12  C   UNK d   0     -15.834  -9.563 -12.365  0.00  0.00     0.041 A 
ATOM     13  N   UNK d   0     -16.405 -10.760 -12.599  0.00  0.00    -0.355 N 
ATOM     14  C   UNK d   0     -15.947  -9.238 -11.001  0.00  0.00    -0.022 A 
ATOM     15  C   UNK d   0     -16.885 -11.199 -11.420  0.00  0.00     0.042 A 
ATOM     16  H   UNK d   0     -16.451 -11.293 -13.574  0.00  0.00     0.166 HD
ATOM     17  C   UNK d   0     -17.569 -12.388 -11.098  0.00  0.00     0.062 C 
ATOM     18  C   UNK d   0     -16.617 -10.271 -10.395  0.00  0.00    -0.013 A 
ATOM     19  C   UNK d   0     -18.601 -12.997 -11.765  0.00  0.00     0.067 A 
ATOM     20  N   UNK d   0     -18.888 -12.536 -12.985  0.00  0.00    -0.248 NA
ATOM     21  C   UNK d   0     -19.539 -14.070 -11.482  0.00  0.00    -0.011 A 
ATOM     22  C   UNK d   0     -19.947 -13.228 -13.519  0.00  0.00     0.066 A 
ATOM     23  C   UNK d   0     -20.328 -12.875 -14.805  0.00  0.00     0.062 C 
ATOM     24  C   UNK d   0     -20.327 -14.197 -12.511  0.00  0.00    -0.020 A 
ATOM     25  C   UNK d   0     -19.707 -11.956 -15.666  0.00  0.00     0.041 A 
ATOM     26  N   UNK d   0     -19.152 -10.760 -15.436  0.00  0.00    -0.355 N 
ATOM     27  C   UNK d   0     -19.590 -12.286 -17.034  0.00  0.00    -0.022 A 
ATOM     28  C   UNK d   0     -18.681 -10.316 -16.612  0.00  0.00     0.042 A 
ATOM     29  H   UNK d   0     -19.116 -10.221 -14.457  0.00  0.00     0.166 HD
ATOM     30  C   UNK d   0     -18.007  -9.132 -16.948  0.00  0.00     0.062 C 
ATOM     31  C   UNK d   0     -18.941 -11.254 -17.640  0.00  0.00    -0.013 A 
ATOM     32  C   UNK d   0     -17.023  -8.474 -16.227  0.00  0.00     0.066 A 
BRANCH   8  33
ATOM     33  C   UNK d   0     -14.401  -6.104 -15.214  0.00  0.00     0.151 C 
BRANCH  33  34
ATOM     34  C   UNK d   0     -14.983  -4.840 -14.730  0.00  0.00     0.143 C 
ATOM     35  O   UNK d   0     -15.474  -4.759 -13.595  0.00  0.00    -0.650 OA
BRANCH  34  36
ATOM     36  O   UNK d   0     -14.981  -3.737 -15.552  0.00  0.00    -0.776 OA
ATOM     37  H   UNK d   0     -15.382  -3.775 -16.499  0.00  0.00     0.167 HD
ENDBRANCH  34  36
ENDBRANCH  33  34
ENDBRANCH   8  33
BRANCH  31  38
ATOM     38  C   UNK d   0     -18.577 -11.166 -19.103  0.00  0.00     0.151 C 
BRANCH  38  39
ATOM     39  C   UNK d   0     -17.349 -11.863 -19.419  0.00  0.00     0.143 C 
ATOM     40  O   UNK d   0     -16.426 -11.992 -18.596  0.00  0.00    -0.650 OA
BRANCH  39  41
ATOM     41  O   UNK d   0     -17.180 -12.416 -20.689  0.00  0.00    -0.776 OA
ATOM     42  H   UNK d   0     -16.980 -11.763 -21.453  0.00  0.00     0.167 HD
ENDBRANCH  39  41
ENDBRANCH  38  39
ENDBRANCH  31  38
BRANCH  27  43
ATOM     43  C   UNK d   0     -20.063 -13.515 -17.767  0.00  0.00     0.052 C 
BRANCH  43  44
ATOM     44  C   UNK d   0     -19.000 -14.554 -17.926  0.00  0.00     0.115 C 
BRANCH  44  45
ATOM     45  C   UNK d   0     -19.283 -15.258 -19.204  0.00  0.00     0.139 C 
ATOM     46  O   UNK d   0     -19.675 -16.450 -19.149  0.00  0.00    -0.650 OA
BRANCH  45  47
ATOM     47  O   UNK d   0     -19.137 -14.658 -20.436  0.00  0.00    -0.776 OA
ATOM     48  H   UNK d   0     -19.768 -14.850 -21.231  0.00  0.00     0.167 HD
ENDBRANCH  45  47
ENDBRANCH  44  45
ENDBRANCH  43  44
ENDBRANCH  27  43
BRANCH  24  49
ATOM     49  C   UNK d   0     -21.401 -15.193 -12.664  0.00  0.00     0.052 C 
BRANCH  49  50
ATOM     50  C   UNK d   0     -22.731 -14.593 -12.284  0.00  0.00     0.115 C 
BRANCH  50  51
ATOM     51  C   UNK d   0     -23.208 -14.836 -10.930  0.00  0.00     0.139 C 
ATOM     52  O   UNK d   0     -22.815 -15.805 -10.238  0.00  0.00    -0.650 OA
BRANCH  51  53
ATOM     53  O   UNK d   0     -24.137 -13.976 -10.364  0.00  0.00    -0.776 OA
ATOM     54  H   UNK d   0     -25.094 -14.049 -10.660  0.00  0.00     0.167 HD
ENDBRANCH  51  53
ENDBRANCH  50  51
ENDBRANCH  49  50
ENDBRANCH  24  49
BRANCH  21  55
ATOM     55  C   UNK d   0     -19.548 -14.859 -10.215  0.00  0.00     0.151 C 
BRANCH  55  56
ATOM     56  C   UNK d   0     -19.014 -16.216 -10.406  0.00  0.00     0.143 C 
ATOM     57  O   UNK d   0     -19.615 -17.238 -10.021  0.00  0.00    -0.650 OA
BRANCH  56  58
ATOM     58  O   UNK d   0     -17.783 -16.345 -11.047  0.00  0.00    -0.776 OA
ATOM     59  H   UNK d   0     -17.242 -17.189 -10.786  0.00  0.00     0.167 HD
ENDBRANCH  56  58
ENDBRANCH  55  56
ENDBRANCH  21  55
BRANCH  18  60
ATOM     60  C   UNK d   0     -16.964 -10.333  -8.928  0.00  0.00     0.151 C 
BRANCH  60  61
ATOM     61  C   UNK d   0     -15.869 -11.074  -8.284  0.00  0.00     0.143 C 
ATOM     62  O   UNK d   0     -15.794 -12.291  -8.116  0.00  0.00    -0.650 OA
BRANCH  61  63
ATOM     63  O   UNK d   0     -14.796 -10.277  -7.817  0.00  0.00    -0.776 OA
ATOM     64  H   UNK d   0     -14.935  -9.313  -7.569  0.00  0.00     0.167 HD
ENDBRANCH  61  63
ENDBRANCH  60  61
ENDBRANCH  18  60
BRANCH  14  65
ATOM     65  C   UNK d   0     -15.389  -8.083 -10.219  0.00  0.00     0.052 C 
BRANCH  65  66
ATOM     66  C   UNK d   0     -13.902  -8.054 -10.204  0.00  0.00     0.115 C 
BRANCH  66  67
ATOM     67  C   UNK d   0     -13.208  -6.887 -10.671  0.00  0.00     0.139 C 
ATOM     68  O   UNK d   0     -11.994  -6.702 -10.291  0.00  0.00    -0.650 OA
BRANCH  67  69
ATOM     69  O   UNK d   0     -13.692  -5.887 -11.514  0.00  0.00    -0.776 OA
ATOM     70  H   UNK d   0     -13.024  -5.141 -11.754  0.00  0.00     0.167 HD
ENDBRANCH  67  69
ENDBRANCH  66  67
ENDBRANCH  65  66
ENDBRANCH  14  65
ENDBRANCH   6   7
ENDBRANCH   5   6
ENDBRANCH   2   5
TORSDOF 28
ENDMDL
MODEL 5
REMARK VINA RESULT:      -8.2      2.305      8.504
REMARK  28 active torsions:
REMARK  status: ('A' for Active; 'I' for Inactive)
REMARK    1  A    between atoms: C_2  and  O_3 
REMARK    2  A    between atoms: C_2  and  C_4 
REMARK    3  A    between atoms: C_4  and  C_5 
REMARK    4  A    between atoms: C_5  and  C_6 
REMARK    5  A    between atoms: C_7  and  C_8 
REMARK    6  A    between atoms: C_8  and  C_9 
REMARK    7  A    between atoms: C_9  and  O_11 
REMARK    8  A    between atoms: C_28  and  C_29 
REMARK    9  A    between atoms: C_29  and  C_30 
REMARK   10  A    between atoms: C_30  and  O_32 
REMARK   11  A    between atoms: C_33  and  C_34 
REMARK   12  A    between atoms: C_34  and  C_35 
REMARK   13  A    between atoms: C_35  and  C_36 
REMARK   14  A    between atoms: C_36  and  O_38 
REMARK   15  A    between atoms: C_39  and  C_40 
REMARK   16  A    between atoms: C_40  and  C_41 
REMARK   17  A    between atoms: C_41  and  C_42 
REMARK   18  A    between atoms: C_42  and  O_44 
REMARK   19  A    between atoms: C_45  and  C_46 
REMARK   20  A    between atoms: C_46  and  C_47 
REMARK   21  A    between atoms: C_47  and  O_49 
REMARK   22  A    between atoms: C_50  and  C_51 
REMARK   23  A    between atoms: C_51  and  C_52 
REMARK   24  A    between atoms: C_52  and  O_54 
REMARK   25  A    between atoms: C_55  and  C_56 
REMARK   26  A    between atoms: C_56  and  C_57 
REMARK   27  A    between atoms: C_57  and  C_58 
REMARK   28  A    between atoms: C_58  and  O_60 
ROOT
ATOM      1  O   UNK d   0     -19.596 -10.653  -5.648  0.00  0.00    -0.650 OA
ATOM      2  C   UNK d   0     -18.783  -9.904  -6.234  0.00  0.00     0.139 C 
ENDROOT
BRANCH   2   3
ATOM      3  O   UNK d   0     -19.256  -8.861  -6.993  0.00  0.00    -0.776 OA
ATOM      4  H   UNK d   0     -19.704  -9.026  -7.897  0.00  0.00     0.167 HD
ENDBRANCH   2   3
BRANCH   2   5
ATOM      5  C   UNK d   0     -17.318 -10.145  -6.107  0.00  0.00     0.115 C 
BRANCH   5   6
ATOM      6  C   UNK d   0     -16.952 -11.456  -6.750  0.00  0.00     0.052 C 
BRANCH   6   7
ATOM      7  C   UNK d   0     -16.866 -11.361  -8.254  0.00  0.00    -0.020 A 
ATOM      8  C   UNK d   0     -17.136 -12.295  -9.130  0.00  0.00    -0.011 A 
ATOM      9  C   UNK d   0     -16.900 -11.746 -10.454  0.00  0.00     0.067 A 
ATOM     10  C   UNK d   0     -17.017 -12.204 -11.776  0.00  0.00     0.062 C 
ATOM     11  N   UNK d   0     -16.481 -10.473 -10.291  0.00  0.00    -0.248 NA
ATOM     12  C   UNK d   0     -17.008 -11.433 -12.943  0.00  0.00     0.041 A 
ATOM     13  N   UNK d   0     -16.236 -10.393 -13.313  0.00  0.00    -0.355 N 
ATOM     14  C   UNK d   0     -17.974 -11.686 -13.934  0.00  0.00    -0.022 A 
ATOM     15  C   UNK d   0     -16.693  -9.975 -14.509  0.00  0.00     0.042 A 
ATOM     16  H   UNK d   0     -15.373  -9.975 -12.750  0.00  0.00     0.166 HD
ATOM     17  C   UNK d   0     -16.250  -8.927 -15.340  0.00  0.00     0.062 C 
ATOM     18  C   UNK d   0     -17.783 -10.761 -14.930  0.00  0.00    -0.013 A 
ATOM     19  C   UNK d   0     -15.908  -7.643 -15.002  0.00  0.00     0.067 A 
ATOM     20  N   UNK d   0     -15.779  -7.375 -13.700  0.00  0.00    -0.248 NA
ATOM     21  C   UNK d   0     -15.643  -6.408 -15.721  0.00  0.00    -0.011 A 
ATOM     22  C   UNK d   0     -15.450  -6.054 -13.516  0.00  0.00     0.066 A 
ATOM     23  C   UNK d   0     -15.248  -5.646 -12.206  0.00  0.00     0.062 C 
ATOM     24  C   UNK d   0     -15.380  -5.481 -14.846  0.00  0.00    -0.020 A 
ATOM     25  C   UNK d   0     -15.249  -6.439 -11.048  0.00  0.00     0.041 A 
ATOM     26  N   UNK d   0     -16.025  -7.463 -10.673  0.00  0.00    -0.355 N 
ATOM     27  C   UNK d   0     -14.275  -6.188 -10.057  0.00  0.00    -0.022 A 
ATOM     28  C   UNK d   0     -15.577  -7.876  -9.478  0.00  0.00     0.042 A 
ATOM     29  H   UNK d   0     -16.899  -7.875 -11.236  0.00  0.00     0.166 HD
ATOM     30  C   UNK d   0     -16.014  -8.910  -8.635  0.00  0.00     0.062 C 
ATOM     31  C   UNK d   0     -14.475  -7.093  -9.060  0.00  0.00    -0.013 A 
ATOM     32  C   UNK d   0     -16.440 -10.180  -8.991  0.00  0.00     0.066 A 
BRANCH   8  33
ATOM     33  C   UNK d   0     -17.595 -13.668  -8.846  0.00  0.00     0.151 C 
BRANCH  33  34
ATOM     34  C   UNK d   0     -16.481 -14.610  -8.636  0.00  0.00     0.143 C 
ATOM     35  O   UNK d   0     -15.852 -14.623  -7.568  0.00  0.00    -0.650 OA
BRANCH  34  36
ATOM     36  O   UNK d   0     -16.136 -15.484  -9.641  0.00  0.00    -0.776 OA
ATOM     37  H   UNK d   0     -16.741 -15.617 -10.463  0.00  0.00     0.167 HD
ENDBRANCH  34  36
ENDBRANCH  33  34
ENDBRANCH   8  33
BRANCH  31  38
ATOM     38  C   UNK d   0     -13.662  -7.217  -7.792  0.00  0.00     0.151 C 
BRANCH  38  39
ATOM     39  C   UNK d   0     -14.255  -6.515  -6.674  0.00  0.00     0.143 C 
ATOM     40  O   UNK d   0     -13.784  -6.576  -5.525  0.00  0.00    -0.650 OA
BRANCH  39  41
ATOM     41  O   UNK d   0     -15.394  -5.736  -6.878  0.00  0.00    -0.776 OA
ATOM     42  H   UNK d   0     -15.767  -5.705  -7.832  0.00  0.00     0.167 HD
ENDBRANCH  39  41
ENDBRANCH  38  39
ENDBRANCH  31  38
BRANCH  27  43
ATOM     43  C   UNK d   0     -13.189  -5.141 -10.023  0.00  0.00     0.052 C 
BRANCH  43  44
ATOM     44  C   UNK d   0     -13.559  -3.931  -9.228  0.00  0.00     0.115 C 
BRANCH  44  45
ATOM     45  C   UNK d   0     -12.402  -3.636  -8.343  0.00  0.00     0.139 C 
ATOM     46  O   UNK d   0     -12.622  -3.464  -7.118  0.00  0.00    -0.650 OA
BRANCH  45  47
ATOM     47  O   UNK d   0     -11.108  -3.549  -8.809  0.00  0.00    -0.776 OA
ATOM     48  H   UNK d   0     -10.658  -4.300  -9.358  0.00  0.00     0.167 HD
ENDBRANCH  45  47
ENDBRANCH  44  45
ENDBRANCH  43  44
ENDBRANCH  27  43
BRANCH  24  49
ATOM     49  C   UNK d   0     -15.018  -4.085 -15.142  0.00  0.00     0.052 C 
BRANCH  49  50
ATOM     50  C   UNK d   0     -16.162  -3.163 -14.805  0.00  0.00     0.115 C 
BRANCH  50  51
ATOM     51  C   UNK d   0     -15.833  -1.913 -14.134  0.00  0.00     0.139 C 
ATOM     52  O   UNK d   0     -16.705  -1.165 -13.632  0.00  0.00    -0.650 OA
BRANCH  51  53
ATOM     53  O   UNK d   0     -14.509  -1.513 -14.038  0.00  0.00    -0.776 OA
ATOM     54  H   UNK d   0     -13.819  -2.023 -14.561  0.00  0.00     0.167 HD
ENDBRANCH  51  53
ENDBRANCH  50  51
ENDBRANCH  49  50
ENDBRANCH  24  49
BRANCH  21  55
ATOM     55  C   UNK d   0     -15.676  -6.285 -17.209  0.00  0.00     0.151 C 
BRANCH  55  56
ATOM     56  C   UNK d   0     -17.023  -5.965 -17.706  0.00  0.00     0.143 C 
ATOM     57  O   UNK d   0     -17.443  -4.795 -17.812  0.00  0.00    -0.650 OA
BRANCH  56  58
ATOM     58  O   UNK d   0     -17.850  -7.026 -18.069  0.00  0.00    -0.776 OA
ATOM     59  H   UNK d   0     -17.391  -7.764 -18.633  0.00  0.00     0.167 HD
ENDBRANCH  56  58
ENDBRANCH  55  56
ENDBRANCH  21  55
BRANCH  18  60
ATOM     60  C   UNK d   0     -18.610 -10.662 -16.188  0.00  0.00     0.151 C 
BRANCH  60  61
ATOM     61  C   UNK d   0     -19.717  -9.746 -15.873  0.00  0.00     0.143 C 
ATOM     62  O   UNK d   0     -20.746 -10.012 -15.252  0.00  0.00    -0.650 OA
BRANCH  61  63
ATOM     63  O   UNK d   0     -19.556  -8.422 -16.346  0.00  0.00    -0.776 OA
ATOM     64  H   UNK d   0     -20.284  -7.739 -16.232  0.00  0.00     0.167 HD
ENDBRANCH  61  63
ENDBRANCH  60  61
ENDBRANCH  18  60
BRANCH  14  65
ATOM     65  C   UNK d   0     -18.991 -12.785 -14.053  0.00  0.00     0.052 C 
BRANCH  65  66
ATOM     66  C   UNK d   0     -20.027 -12.738 -12.987  0.00  0.00     0.115 C 
BRANCH  66  67
ATOM     67  C   UNK d   0     -20.558 -13.962 -12.456  0.00  0.00     0.139 C 
ATOM     68  O   UNK d   0     -20.517 -14.148 -11.184  0.00  0.00    -0.650 OA
BRANCH  67  69
ATOM     69  O   UNK d   0     -21.134 -15.019 -13.161  0.00  0.00    -0.776 OA
ATOM     70  H   UNK d   0     -21.257 -15.895 -12.633  0.00  0.00     0.167 HD
ENDBRANCH  67  69
ENDBRANCH  66  67
ENDBRANCH  65  66
ENDBRANCH  14  65
ENDBRANCH   6   7
ENDBRANCH   5   6
ENDBRANCH   2   5
TORSDOF 28
ENDMDL
MODEL 6
REMARK VINA RESULT:      -8.2      2.438      7.884
REMARK  28 active torsions:
REMARK  status: ('A' for Active; 'I' for Inactive)
REMARK    1  A    between atoms: C_2  and  O_3 
REMARK    2  A    between atoms: C_2  and  C_4 
REMARK    3  A    between atoms: C_4  and  C_5 
REMARK    4  A    between atoms: C_5  and  C_6 
REMARK    5  A    between atoms: C_7  and  C_8 
REMARK    6  A    between atoms: C_8  and  C_9 
REMARK    7  A    between atoms: C_9  and  O_11 
REMARK    8  A    between atoms: C_28  and  C_29 
REMARK    9  A    between atoms: C_29  and  C_30 
REMARK   10  A    between atoms: C_30  and  O_32 
REMARK   11  A    between atoms: C_33  and  C_34 
REMARK   12  A    between atoms: C_34  and  C_35 
REMARK   13  A    between atoms: C_35  and  C_36 
REMARK   14  A    between atoms: C_36  and  O_38 
REMARK   15  A    between atoms: C_39  and  C_40 
REMARK   16  A    between atoms: C_40  and  C_41 
REMARK   17  A    between atoms: C_41  and  C_42 
REMARK   18  A    between atoms: C_42  and  O_44 
REMARK   19  A    between atoms: C_45  and  C_46 
REMARK   20  A    between atoms: C_46  and  C_47 
REMARK   21  A    between atoms: C_47  and  O_49 
REMARK   22  A    between atoms: C_50  and  C_51 
REMARK   23  A    between atoms: C_51  and  C_52 
REMARK   24  A    between atoms: C_52  and  O_54 
REMARK   25  A    between atoms: C_55  and  C_56 
REMARK   26  A    between atoms: C_56  and  C_57 
REMARK   27  A    between atoms: C_57  and  C_58 
REMARK   28  A    between atoms: C_58  and  O_60 
ROOT
ATOM      1  O   UNK d   0     -15.383  -6.789  -5.974  0.00  0.00    -0.650 OA
ATOM      2  C   UNK d   0     -16.475  -7.269  -6.352  0.00  0.00     0.139 C 
ENDROOT
BRANCH   2   3
ATOM      3  O   UNK d   0     -17.215  -8.029  -5.479  0.00  0.00    -0.776 OA
ATOM      4  H   UNK d   0     -17.901  -8.706  -5.819  0.00  0.00     0.167 HD
ENDBRANCH   2   3
BRANCH   2   5
ATOM      5  C   UNK d   0     -16.963  -7.018  -7.738  0.00  0.00     0.115 C 
BRANCH   5   6
ATOM      6  C   UNK d   0     -15.915  -7.426  -8.738  0.00  0.00     0.052 C 
BRANCH   6   7
ATOM      7  C   UNK d   0     -16.353  -8.588  -9.596  0.00  0.00    -0.020 A 
ATOM      8  C   UNK d   0     -16.298  -9.863  -9.304  0.00  0.00    -0.011 A 
ATOM      9  C   UNK d   0     -16.822 -10.603 -10.439  0.00  0.00     0.067 A 
ATOM     10  C   UNK d   0     -17.050 -11.953 -10.749  0.00  0.00     0.062 C 
ATOM     11  N   UNK d   0     -17.169  -9.701 -11.380  0.00  0.00    -0.248 NA
ATOM     12  C   UNK d   0     -17.828 -12.462 -11.795  0.00  0.00     0.041 A 
ATOM     13  N   UNK d   0     -17.931 -12.091 -13.085  0.00  0.00    -0.355 N 
ATOM     14  C   UNK d   0     -18.726 -13.511 -11.526  0.00  0.00    -0.022 A 
ATOM     15  C   UNK d   0     -18.877 -12.871 -13.640  0.00  0.00     0.042 A 
ATOM     16  H   UNK d   0     -17.333 -11.306 -13.598  0.00  0.00     0.166 HD
ATOM     17  C   UNK d   0     -19.376 -12.905 -14.958  0.00  0.00     0.062 C 
ATOM     18  C   UNK d   0     -19.399 -13.774 -12.694  0.00  0.00    -0.013 A 
ATOM     19  C   UNK d   0     -19.735 -11.861 -15.771  0.00  0.00     0.067 A 
ATOM     20  N   UNK d   0     -19.397 -10.634 -15.365  0.00  0.00    -0.248 NA
ATOM     21  C   UNK d   0     -20.443 -11.714 -17.032  0.00  0.00    -0.011 A 
ATOM     22  C   UNK d   0     -19.833  -9.696 -16.268  0.00  0.00     0.066 A 
ATOM     23  C   UNK d   0     -19.515  -8.376 -15.988  0.00  0.00     0.062 C 
ATOM     24  C   UNK d   0     -20.501 -10.445 -17.315  0.00  0.00    -0.020 A 
ATOM     25  C   UNK d   0     -18.721  -7.886 -14.939  0.00  0.00     0.041 A 
ATOM     26  N   UNK d   0     -18.629  -8.245 -13.653  0.00  0.00    -0.355 N 
ATOM     27  C   UNK d   0     -17.817  -6.836 -15.210  0.00  0.00    -0.022 A 
ATOM     28  C   UNK d   0     -17.693  -7.462 -13.095  0.00  0.00     0.042 A 
ATOM     29  H   UNK d   0     -19.239  -9.027 -13.136  0.00  0.00     0.166 HD
ATOM     30  C   UNK d   0     -17.193  -7.411 -11.784  0.00  0.00     0.062 C 
ATOM     31  C   UNK d   0     -17.161  -6.562 -14.049  0.00  0.00    -0.013 A 
ATOM     32  C   UNK d   0     -16.912  -8.470 -10.935  0.00  0.00     0.066 A 
BRANCH   8  33
ATOM     33  C   UNK d   0     -15.792 -10.462  -8.055  0.00  0.00     0.151 C 
BRANCH  33  34
ATOM     34  C   UNK d   0     -16.851 -11.118  -7.267  0.00  0.00     0.143 C 
ATOM     35  O   UNK d   0     -17.907 -10.526  -7.004  0.00  0.00    -0.650 OA
BRANCH  34  36
ATOM     36  O   UNK d   0     -16.661 -12.404  -6.818  0.00  0.00    -0.776 OA
ATOM     37  H   UNK d   0     -16.450 -12.599  -5.829  0.00  0.00     0.167 HD
ENDBRANCH  34  36
ENDBRANCH  33  34
ENDBRANCH   8  33
BRANCH  31  38
ATOM     38  C   UNK d   0     -16.086  -5.519 -13.857  0.00  0.00     0.151 C 
BRANCH  38  39
ATOM     39  C   UNK d   0     -14.773  -5.987 -14.249  0.00  0.00     0.143 C 
ATOM     40  O   UNK d   0     -14.368  -7.131 -13.982  0.00  0.00    -0.650 OA
BRANCH  39  41
ATOM     41  O   UNK d   0     -13.923  -5.134 -14.953  0.00  0.00    -0.776 OA
ATOM     42  H   UNK d   0     -13.887  -4.158 -14.643  0.00  0.00     0.167 HD
ENDBRANCH  39  41
ENDBRANCH  38  39
ENDBRANCH  31  38
BRANCH  27  43
ATOM     43  C   UNK d   0     -17.561  -6.101 -16.502  0.00  0.00     0.052 C 
BRANCH  43  44
ATOM     44  C   UNK d   0     -16.469  -6.708 -17.321  0.00  0.00     0.115 C 
BRANCH  44  45
ATOM     45  C   UNK d   0     -17.037  -6.953 -18.672  0.00  0.00     0.139 C 
ATOM     46  O   UNK d   0     -17.551  -5.982 -19.282  0.00  0.00    -0.650 OA
BRANCH  45  47
ATOM     47  O   UNK d   0     -17.017  -8.190 -19.279  0.00  0.00    -0.776 OA
ATOM     48  H   UNK d   0     -17.872  -8.745 -19.448  0.00  0.00     0.167 HD
ENDBRANCH  45  47
ENDBRANCH  44  45
ENDBRANCH  43  44
ENDBRANCH  27  43
BRANCH  24  49
ATOM     49  C   UNK d   0     -21.098  -9.851 -18.523  0.00  0.00     0.052 C 
BRANCH  49  50
ATOM     50  C   UNK d   0     -20.090  -9.817 -19.644  0.00  0.00     0.115 C 
BRANCH  50  51
ATOM     51  C   UNK d   0     -20.285  -8.814 -20.682  0.00  0.00     0.139 C 
ATOM     52  O   UNK d   0     -19.355  -8.085 -21.100  0.00  0.00    -0.650 OA
BRANCH  51  53
ATOM     53  O   UNK d   0     -21.541  -8.641 -21.243  0.00  0.00    -0.776 OA
ATOM     54  H   UNK d   0     -22.192  -9.405 -21.194  0.00  0.00     0.167 HD
ENDBRANCH  51  53
ENDBRANCH  50  51
ENDBRANCH  49  50
ENDBRANCH  24  49
BRANCH  21  55
ATOM     55  C   UNK d   0     -20.984 -12.858 -17.824  0.00  0.00     0.151 C 
BRANCH  55  56
ATOM     56  C   UNK d   0     -19.919 -13.611 -18.504  0.00  0.00     0.143 C 
ATOM     57  O   UNK d   0     -19.373 -13.211 -19.551  0.00  0.00    -0.650 OA
BRANCH  56  58
ATOM     58  O   UNK d   0     -19.515 -14.819 -17.938  0.00  0.00    -0.776 OA
ATOM     59  H   UNK d   0     -19.074 -15.484 -18.599  0.00  0.00     0.167 HD
ENDBRANCH  56  58
ENDBRANCH  55  56
ENDBRANCH  21  55
BRANCH  18  60
ATOM     60  C   UNK d   0     -20.468 -14.826 -12.857  0.00  0.00     0.151 C 
BRANCH  60  61
ATOM     61  C   UNK d   0     -21.742 -14.158 -12.550  0.00  0.00     0.143 C 
ATOM     62  O   UNK d   0     -22.371 -13.390 -13.278  0.00  0.00    -0.650 OA
BRANCH  61  63
ATOM     63  O   UNK d   0     -22.282 -14.448 -11.274  0.00  0.00    -0.776 OA
ATOM     64  H   UNK d   0     -21.685 -14.667 -10.496  0.00  0.00     0.167 HD
ENDBRANCH  61  63
ENDBRANCH  60  61
ENDBRANCH  18  60
BRANCH  14  65
ATOM     65  C   UNK d   0     -18.925 -14.340 -10.290  0.00  0.00     0.052 C 
BRANCH  65  66
ATOM     66  C   UNK d   0     -18.053 -15.545 -10.250  0.00  0.00     0.115 C 
BRANCH  66  67
ATOM     67  C   UNK d   0     -16.808 -15.499  -9.535  0.00  0.00     0.139 C 
ATOM     68  O   UNK d   0     -16.659 -14.608  -8.620  0.00  0.00    -0.650 OA
BRANCH  67  69
ATOM     69  O   UNK d   0     -15.696 -16.323  -9.706  0.00  0.00    -0.776 OA
ATOM     70  H   UNK d   0     -15.711 -16.929 -10.538  0.00  0.00     0.167 HD
ENDBRANCH  67  69
ENDBRANCH  66  67
ENDBRANCH  65  66
ENDBRANCH  14  65
ENDBRANCH   6   7
ENDBRANCH   5   6
ENDBRANCH   2   5
TORSDOF 28
ENDMDL
MODEL 7
REMARK VINA RESULT:      -8.2      2.421      5.247
REMARK  28 active torsions:
REMARK  status: ('A' for Active; 'I' for Inactive)
REMARK    1  A    between atoms: C_2  and  O_3 
REMARK    2  A    between atoms: C_2  and  C_4 
REMARK    3  A    between atoms: C_4  and  C_5 
REMARK    4  A    between atoms: C_5  and  C_6 
REMARK    5  A    between atoms: C_7  and  C_8 
REMARK    6  A    between atoms: C_8  and  C_9 
REMARK    7  A    between atoms: C_9  and  O_11 
REMARK    8  A    between atoms: C_28  and  C_29 
REMARK    9  A    between atoms: C_29  and  C_30 
REMARK   10  A    between atoms: C_30  and  O_32 
REMARK   11  A    between atoms: C_33  and  C_34 
REMARK   12  A    between atoms: C_34  and  C_35 
REMARK   13  A    between atoms: C_35  and  C_36 
REMARK   14  A    between atoms: C_36  and  O_38 
REMARK   15  A    between atoms: C_39  and  C_40 
REMARK   16  A    between atoms: C_40  and  C_41 
REMARK   17  A    between atoms: C_41  and  C_42 
REMARK   18  A    between atoms: C_42  and  O_44 
REMARK   19  A    between atoms: C_45  and  C_46 
REMARK   20  A    between atoms: C_46  and  C_47 
REMARK   21  A    between atoms: C_47  and  O_49 
REMARK   22  A    between atoms: C_50  and  C_51 
REMARK   23  A    between atoms: C_51  and  C_52 
REMARK   24  A    between atoms: C_52  and  O_54 
REMARK   25  A    between atoms: C_55  and  C_56 
REMARK   26  A    between atoms: C_56  and  C_57 
REMARK   27  A    between atoms: C_57  and  C_58 
REMARK   28  A    between atoms: C_58  and  O_60 
ROOT
ATOM      1  O   UNK d   0     -16.171  -0.618 -13.629  0.00  0.00    -0.650 OA
ATOM      2  C   UNK d   0     -15.950  -1.850 -13.624  0.00  0.00     0.139 C 
ENDROOT
BRANCH   2   3
ATOM      3  O   UNK d   0     -15.425  -2.436 -12.498  0.00  0.00    -0.776 OA
ATOM      4  H   UNK d   0     -14.514  -2.152 -12.131  0.00  0.00     0.167 HD
ENDBRANCH   2   3
BRANCH   2   5
ATOM      5  C   UNK d   0     -16.255  -2.669 -14.832  0.00  0.00     0.115 C 
BRANCH   5   6
ATOM      6  C   UNK d   0     -15.451  -3.940 -14.811  0.00  0.00     0.052 C 
BRANCH   6   7
ATOM      7  C   UNK d   0     -16.315  -5.176 -14.898  0.00  0.00    -0.020 A 
ATOM      8  C   UNK d   0     -17.159  -5.494 -15.846  0.00  0.00    -0.011 A 
ATOM      9  C   UNK d   0     -17.765  -6.767 -15.493  0.00  0.00     0.067 A 
ATOM     10  C   UNK d   0     -18.700  -7.639 -16.072  0.00  0.00     0.062 C 
ATOM     11  N   UNK d   0     -17.235  -7.149 -14.311  0.00  0.00    -0.248 NA
ATOM     12  C   UNK d   0     -18.956  -8.967 -15.714  0.00  0.00     0.041 A 
ATOM     13  N   UNK d   0     -19.075  -9.552 -14.507  0.00  0.00    -0.355 N 
ATOM     14  C   UNK d   0     -19.069  -9.936 -16.728  0.00  0.00    -0.022 A 
ATOM     15  C   UNK d   0     -19.253 -10.869 -14.729  0.00  0.00     0.042 A 
ATOM     16  H   UNK d   0     -19.054  -9.043 -13.519  0.00  0.00     0.166 HD
ATOM     17  C   UNK d   0     -19.431 -11.932 -13.822  0.00  0.00     0.062 C 
ATOM     18  C   UNK d   0     -19.254 -11.147 -16.110  0.00  0.00    -0.013 A 
ATOM     19  C   UNK d   0     -18.748 -12.201 -12.663  0.00  0.00     0.067 A 
ATOM     20  N   UNK d   0     -17.935 -11.246 -12.205  0.00  0.00    -0.248 NA
ATOM     21  C   UNK d   0     -18.651 -13.323 -11.744  0.00  0.00    -0.011 A 
ATOM     22  C   UNK d   0     -17.312 -11.663 -11.054  0.00  0.00     0.066 A 
ATOM     23  C   UNK d   0     -16.463 -10.749 -10.447  0.00  0.00     0.062 C 
ATOM     24  C   UNK d   0     -17.806 -13.003 -10.807  0.00  0.00    -0.020 A 
ATOM     25  C   UNK d   0     -16.230  -9.415 -10.816  0.00  0.00     0.041 A 
ATOM     26  N   UNK d   0     -16.096  -8.835 -12.015  0.00  0.00    -0.355 N 
ATOM     27  C   UNK d   0     -16.121  -8.443  -9.798  0.00  0.00    -0.022 A 
ATOM     28  C   UNK d   0     -15.910  -7.524 -11.796  0.00  0.00     0.042 A 
ATOM     29  H   UNK d   0     -16.108  -9.350 -13.007  0.00  0.00     0.166 HD
ATOM     30  C   UNK d   0     -15.722  -6.457 -12.688  0.00  0.00     0.062 C 
ATOM     31  C   UNK d   0     -15.920  -7.243 -10.409  0.00  0.00    -0.013 A 
ATOM     32  C   UNK d   0     -16.356  -6.234 -13.901  0.00  0.00     0.066 A 
BRANCH   8  33
ATOM     33  C   UNK d   0     -17.462  -4.714 -17.060  0.00  0.00     0.151 C 
BRANCH  33  34
ATOM     34  C   UNK d   0     -16.400  -4.807 -18.078  0.00  0.00     0.143 C 
ATOM     35  O   UNK d   0     -16.249  -3.914 -18.923  0.00  0.00    -0.650 OA
BRANCH  34  36
ATOM     36  O   UNK d   0     -15.568  -5.903 -18.087  0.00  0.00    -0.776 OA
ATOM     37  H   UNK d   0     -15.945  -6.860 -18.067  0.00  0.00     0.167 HD
ENDBRANCH  34  36
ENDBRANCH  33  34
ENDBRANCH   8  33
BRANCH  31  38
ATOM     38  C   UNK d   0     -15.758  -5.908  -9.721  0.00  0.00     0.151 C 
BRANCH  38  39
ATOM     39  C   UNK d   0     -14.372  -5.547  -9.512  0.00  0.00     0.143 C 
ATOM     40  O   UNK d   0     -13.766  -4.769 -10.269  0.00  0.00    -0.650 OA
BRANCH  39  41
ATOM     41  O   UNK d   0     -13.679  -6.084  -8.428  0.00  0.00    -0.776 OA
ATOM     42  H   UNK d   0     -13.481  -5.450  -7.647  0.00  0.00     0.167 HD
ENDBRANCH  39  41
ENDBRANCH  38  39
ENDBRANCH  31  38
BRANCH  27  43
ATOM     43  C   UNK d   0     -16.198  -8.610  -8.301  0.00  0.00     0.052 C 
BRANCH  43  44
ATOM     44  C   UNK d   0     -17.454  -8.058  -7.708  0.00  0.00     0.115 C 
BRANCH  44  45
ATOM     45  C   UNK d   0     -18.066  -9.155  -6.914  0.00  0.00     0.139 C 
ATOM     46  O   UNK d   0     -17.833 -10.339  -7.262  0.00  0.00    -0.650 OA
BRANCH  45  47
ATOM     47  O   UNK d   0     -18.868  -8.925  -5.817  0.00  0.00    -0.776 OA
ATOM     48  H   UNK d   0     -19.741  -9.449  -5.642  0.00  0.00     0.167 HD
ENDBRANCH  45  47
ENDBRANCH  44  45
ENDBRANCH  43  44
ENDBRANCH  27  43
BRANCH  24  49
ATOM     49  C   UNK d   0     -17.438 -13.835  -9.649  0.00  0.00     0.052 C 
BRANCH  49  50
ATOM     50  C   UNK d   0     -16.405 -14.859 -10.045  0.00  0.00     0.115 C 
BRANCH  50  51
ATOM     51  C   UNK d   0     -16.637 -16.234  -9.624  0.00  0.00     0.139 C 
ATOM     52  O   UNK d   0     -17.785 -16.731  -9.538  0.00  0.00    -0.650 OA
BRANCH  51  53
ATOM     53  O   UNK d   0     -15.559 -17.043  -9.299  0.00  0.00    -0.776 OA
ATOM     54  H   UNK d   0     -15.716 -18.032  -9.213  0.00  0.00     0.167 HD
ENDBRANCH  51  53
ENDBRANCH  50  51
ENDBRANCH  49  50
ENDBRANCH  24  49
BRANCH  21  55
ATOM     55  C   UNK d   0     -19.417 -14.596 -11.896  0.00  0.00     0.151 C 
BRANCH  55  56
ATOM     56  C   UNK d   0     -20.736 -14.526 -11.249  0.00  0.00     0.143 C 
ATOM     57  O   UNK d   0     -21.772 -14.199 -11.861  0.00  0.00    -0.650 OA
BRANCH  56  58
ATOM     58  O   UNK d   0     -20.811 -14.844  -9.894  0.00  0.00    -0.776 OA
ATOM     59  H   UNK d   0     -20.789 -15.858  -9.681  0.00  0.00     0.167 HD
ENDBRANCH  56  58
ENDBRANCH  55  56
ENDBRANCH  21  55
BRANCH  18  60
ATOM     60  C   UNK d   0     -19.416 -12.466 -16.823  0.00  0.00     0.151 C 
BRANCH  60  61
ATOM     61  C   UNK d   0     -20.848 -12.792 -16.751  0.00  0.00     0.143 C 
ATOM     62  O   UNK d   0     -21.791 -12.001 -16.765  0.00  0.00    -0.650 OA
BRANCH  61  63
ATOM     63  O   UNK d   0     -21.148 -14.173 -16.655  0.00  0.00    -0.776 OA
ATOM     64  H   UNK d   0     -21.502 -14.682 -17.445  0.00  0.00     0.167 HD
ENDBRANCH  61  63
ENDBRANCH  60  61
ENDBRANCH  18  60
BRANCH  14  65
ATOM     65  C   UNK d   0     -19.113  -9.790 -18.222  0.00  0.00     0.052 C 
BRANCH  65  66
ATOM     66  C   UNK d   0     -17.766  -9.617 -18.830  0.00  0.00     0.115 C 
BRANCH  66  67
ATOM     67  C   UNK d   0     -16.995 -10.772 -19.193  0.00  0.00     0.139 C 
ATOM     68  O   UNK d   0     -15.995 -11.099 -18.454  0.00  0.00    -0.650 OA
BRANCH  67  69
ATOM     69  O   UNK d   0     -17.191 -11.622 -20.281  0.00  0.00    -0.776 OA
ATOM     70  H   UNK d   0     -16.395 -12.229 -20.524  0.00  0.00     0.167 HD
ENDBRANCH  67  69
ENDBRANCH  66  67
ENDBRANCH  65  66
ENDBRANCH  14  65
ENDBRANCH   6   7
ENDBRANCH   5   6
ENDBRANCH   2   5
TORSDOF 28
ENDMDL
MODEL 8
REMARK VINA RESULT:      -8.2      3.462      7.934
REMARK  28 active torsions:
REMARK  status: ('A' for Active; 'I' for Inactive)
REMARK    1  A    between atoms: C_2  and  O_3 
REMARK    2  A    between atoms: C_2  and  C_4 
REMARK    3  A    between atoms: C_4  and  C_5 
REMARK    4  A    between atoms: C_5  and  C_6 
REMARK    5  A    between atoms: C_7  and  C_8 
REMARK    6  A    between atoms: C_8  and  C_9 
REMARK    7  A    between atoms: C_9  and  O_11 
REMARK    8  A    between atoms: C_28  and  C_29 
REMARK    9  A    between atoms: C_29  and  C_30 
REMARK   10  A    between atoms: C_30  and  O_32 
REMARK   11  A    between atoms: C_33  and  C_34 
REMARK   12  A    between atoms: C_34  and  C_35 
REMARK   13  A    between atoms: C_35  and  C_36 
REMARK   14  A    between atoms: C_36  and  O_38 
REMARK   15  A    between atoms: C_39  and  C_40 
REMARK   16  A    between atoms: C_40  and  C_41 
REMARK   17  A    between atoms: C_41  and  C_42 
REMARK   18  A    between atoms: C_42  and  O_44 
REMARK   19  A    between atoms: C_45  and  C_46 
REMARK   20  A    between atoms: C_46  and  C_47 
REMARK   21  A    between atoms: C_47  and  O_49 
REMARK   22  A    between atoms: C_50  and  C_51 
REMARK   23  A    between atoms: C_51  and  C_52 
REMARK   24  A    between atoms: C_52  and  O_54 
REMARK   25  A    between atoms: C_55  and  C_56 
REMARK   26  A    between atoms: C_56  and  C_57 
REMARK   27  A    between atoms: C_57  and  C_58 
REMARK   28  A    between atoms: C_58  and  O_60 
ROOT
ATOM      1  O   UNK d   0     -21.262  -9.678 -22.426  0.00  0.00    -0.650 OA
ATOM      2  C   UNK d   0     -20.965  -9.005 -21.414  0.00  0.00     0.139 C 
ENDROOT
BRANCH   2   3
ATOM      3  O   UNK d   0     -20.681  -7.668 -21.553  0.00  0.00    -0.776 OA
ATOM      4  H   UNK d   0     -21.042  -6.980 -20.888  0.00  0.00     0.167 HD
ENDBRANCH   2   3
BRANCH   2   5
ATOM      5  C   UNK d   0     -20.919  -9.653 -20.072  0.00  0.00     0.115 C 
BRANCH   5   6
ATOM      6  C   UNK d   0     -19.885 -10.746 -20.060  0.00  0.00     0.052 C 
BRANCH   6   7
ATOM      7  C   UNK d   0     -19.106 -10.794 -18.767  0.00  0.00    -0.020 A 
ATOM      8  C   UNK d   0     -18.047 -10.096 -18.446  0.00  0.00    -0.011 A 
ATOM      9  C   UNK d   0     -17.643 -10.489 -17.107  0.00  0.00     0.067 A 
ATOM     10  C   UNK d   0     -16.634 -10.119 -16.204  0.00  0.00     0.062 C 
ATOM     11  N   UNK d   0     -18.509 -11.437 -16.690  0.00  0.00    -0.248 NA
ATOM     12  C   UNK d   0     -16.570 -10.415 -14.838  0.00  0.00     0.041 A 
ATOM     13  N   UNK d   0     -16.834 -11.550 -14.163  0.00  0.00    -0.355 N 
ATOM     14  C   UNK d   0     -16.230  -9.391 -13.935  0.00  0.00    -0.022 A 
ATOM     15  C   UNK d   0     -16.679 -11.271 -12.855  0.00  0.00     0.042 A 
ATOM     16  H   UNK d   0     -17.107 -12.535 -14.604  0.00  0.00     0.166 HD
ATOM     17  C   UNK d   0     -16.829 -12.094 -11.721  0.00  0.00     0.062 C 
ATOM     18  C   UNK d   0     -16.301  -9.927 -12.673  0.00  0.00    -0.013 A 
ATOM     19  C   UNK d   0     -17.828 -12.987 -11.430  0.00  0.00     0.067 A 
ATOM     20  N   UNK d   0     -18.681 -13.283 -12.415  0.00  0.00    -0.248 NA
ATOM     21  C   UNK d   0     -18.249 -13.739 -10.260  0.00  0.00    -0.011 A 
ATOM     22  C   UNK d   0     -19.629 -14.172 -11.973  0.00  0.00     0.066 A 
ATOM     23  C   UNK d   0     -20.561 -14.596 -12.909  0.00  0.00     0.062 C 
ATOM     24  C   UNK d   0     -19.306 -14.427 -10.583  0.00  0.00    -0.020 A 
ATOM     25  C   UNK d   0     -20.600 -14.297 -14.280  0.00  0.00     0.041 A 
ATOM     26  N   UNK d   0     -20.352 -13.165 -14.949  0.00  0.00    -0.355 N 
ATOM     27  C   UNK d   0     -20.937 -15.327 -15.185  0.00  0.00    -0.022 A 
ATOM     28  C   UNK d   0     -20.515 -13.439 -16.253  0.00  0.00     0.042 A 
ATOM     29  H   UNK d   0     -20.089 -12.174 -14.504  0.00  0.00     0.166 HD
ATOM     30  C   UNK d   0     -20.378 -12.628 -17.390  0.00  0.00     0.062 C 
ATOM     31  C   UNK d   0     -20.885 -14.792 -16.436  0.00  0.00    -0.013 A 
ATOM     32  C   UNK d   0     -19.414 -11.665 -17.643  0.00  0.00     0.066 A 
BRANCH   8  33
ATOM     33  C   UNK d   0     -17.365  -9.088 -19.280  0.00  0.00     0.151 C 
BRANCH  33  34
ATOM     34  C   UNK d   0     -17.922  -7.734 -19.109  0.00  0.00     0.143 C 
ATOM     35  O   UNK d   0     -18.340  -7.090 -20.082  0.00  0.00    -0.650 OA
BRANCH  34  36
ATOM     36  O   UNK d   0     -17.975  -7.180 -17.851  0.00  0.00    -0.776 OA
ATOM     37  H   UNK d   0     -17.187  -7.269 -17.194  0.00  0.00     0.167 HD
ENDBRANCH  34  36
ENDBRANCH  33  34
ENDBRANCH   8  33
BRANCH  31  38
ATOM     38  C   UNK d   0     -21.157 -15.524 -17.730  0.00  0.00     0.151 C 
BRANCH  38  39
ATOM     39  C   UNK d   0     -19.972 -16.146 -18.283  0.00  0.00     0.143 C 
ATOM     40  O   UNK d   0     -19.730 -17.358 -18.144  0.00  0.00    -0.650 OA
BRANCH  39  41
ATOM     41  O   UNK d   0     -19.061 -15.370 -19.000  0.00  0.00    -0.776 OA
ATOM     42  H   UNK d   0     -18.102 -15.335 -18.640  0.00  0.00     0.167 HD
ENDBRANCH  39  41
ENDBRANCH  38  39
ENDBRANCH  31  38
BRANCH  27  43
ATOM     43  C   UNK d   0     -21.300 -16.765 -14.910  0.00  0.00     0.052 C 
BRANCH  43  44
ATOM     44  C   UNK d   0     -20.751 -17.276 -13.618  0.00  0.00     0.115 C 
BRANCH  44  45
ATOM     45  C   UNK d   0     -20.138 -18.598 -13.910  0.00  0.00     0.139 C 
ATOM     46  O   UNK d   0     -19.365 -19.094 -13.053  0.00  0.00    -0.650 OA
BRANCH  45  47
ATOM     47  O   UNK d   0     -20.388 -19.297 -15.071  0.00  0.00    -0.776 OA
ATOM     48  H   UNK d   0     -21.339 -19.565 -15.370  0.00  0.00     0.167 HD
ENDBRANCH  45  47
ENDBRANCH  44  45
ENDBRANCH  43  44
ENDBRANCH  27  43
BRANCH  24  49
ATOM     49  C   UNK d   0     -20.037 -15.359  -9.706  0.00  0.00     0.052 C 
BRANCH  49  50
ATOM     50  C   UNK d   0     -19.758 -16.784 -10.107  0.00  0.00     0.115 C 
BRANCH  50  51
ATOM     51  C   UNK d   0     -20.863 -17.729 -10.015  0.00  0.00     0.139 C 
ATOM     52  O   UNK d   0     -22.001 -17.401  -9.604  0.00  0.00    -0.650 OA
BRANCH  51  53
ATOM     53  O   UNK d   0     -20.669 -19.050 -10.390  0.00  0.00    -0.776 OA
ATOM     54  H   UNK d   0     -19.765 -19.460 -10.236  0.00  0.00     0.167 HD
ENDBRANCH  51  53
ENDBRANCH  50  51
ENDBRANCH  49  50
ENDBRANCH  24  49
BRANCH  21  55
ATOM     55  C   UNK d   0     -17.548 -13.694  -8.942  0.00  0.00     0.151 C 
BRANCH  55  56
ATOM     56  C   UNK d   0     -16.473 -14.694  -8.856  0.00  0.00     0.143 C 
ATOM     57  O   UNK d   0     -15.792 -14.866  -7.825  0.00  0.00    -0.650 OA
BRANCH  56  58
ATOM     58  O   UNK d   0     -16.218 -15.473  -9.983  0.00  0.00    -0.776 OA
ATOM     59  H   UNK d   0     -17.023 -15.588 -10.625  0.00  0.00     0.167 HD
ENDBRANCH  56  58
ENDBRANCH  55  56
ENDBRANCH  21  55
BRANCH  18  60
ATOM     60  C   UNK d   0     -16.020  -9.172 -11.397  0.00  0.00     0.151 C 
BRANCH  60  61
ATOM     61  C   UNK d   0     -17.214  -8.352 -11.142  0.00  0.00     0.143 C 
ATOM     62  O   UNK d   0     -17.243  -7.179 -10.769  0.00  0.00    -0.650 OA
BRANCH  61  63
ATOM     63  O   UNK d   0     -18.452  -9.005 -11.358  0.00  0.00    -0.776 OA
ATOM     64  H   UNK d   0     -19.063  -9.223 -10.591  0.00  0.00     0.167 HD
ENDBRANCH  61  63
ENDBRANCH  60  61
ENDBRANCH  18  60
BRANCH  14  65
ATOM     65  C   UNK d   0     -15.754  -7.987 -14.178  0.00  0.00     0.052 C 
BRANCH  65  66
ATOM     66  C   UNK d   0     -14.305  -7.914 -14.506  0.00  0.00     0.115 C 
BRANCH  66  67
ATOM     67  C   UNK d   0     -13.592  -6.684 -14.306  0.00  0.00     0.139 C 
ATOM     68  O   UNK d   0     -12.714  -6.628 -13.368  0.00  0.00    -0.650 OA
BRANCH  67  69
ATOM     69  O   UNK d   0     -13.727  -5.493 -15.020  0.00  0.00    -0.776 OA
ATOM     70  H   UNK d   0     -14.026  -5.591 -16.001  0.00  0.00     0.167 HD
ENDBRANCH  67  69
ENDBRANCH  66  67
ENDBRANCH  65  66
ENDBRANCH  14  65
ENDBRANCH   6   7
ENDBRANCH   5   6
ENDBRANCH   2   5
TORSDOF 28
ENDMDL
MODEL 9
REMARK VINA RESULT:      -8.2      3.960      9.404
REMARK  28 active torsions:
REMARK  status: ('A' for Active; 'I' for Inactive)
REMARK    1  A    between atoms: C_2  and  O_3 
REMARK    2  A    between atoms: C_2  and  C_4 
REMARK    3  A    between atoms: C_4  and  C_5 
REMARK    4  A    between atoms: C_5  and  C_6 
REMARK    5  A    between atoms: C_7  and  C_8 
REMARK    6  A    between atoms: C_8  and  C_9 
REMARK    7  A    between atoms: C_9  and  O_11 
REMARK    8  A    between atoms: C_28  and  C_29 
REMARK    9  A    between atoms: C_29  and  C_30 
REMARK   10  A    between atoms: C_30  and  O_32 
REMARK   11  A    between atoms: C_33  and  C_34 
REMARK   12  A    between atoms: C_34  and  C_35 
REMARK   13  A    between atoms: C_35  and  C_36 
REMARK   14  A    between atoms: C_36  and  O_38 
REMARK   15  A    between atoms: C_39  and  C_40 
REMARK   16  A    between atoms: C_40  and  C_41 
REMARK   17  A    between atoms: C_41  and  C_42 
REMARK   18  A    between atoms: C_42  and  O_44 
REMARK   19  A    between atoms: C_45  and  C_46 
REMARK   20  A    between atoms: C_46  and  C_47 
REMARK   21  A    between atoms: C_47  and  O_49 
REMARK   22  A    between atoms: C_50  and  C_51 
REMARK   23  A    between atoms: C_51  and  C_52 
REMARK   24  A    between atoms: C_52  and  O_54 
REMARK   25  A    between atoms: C_55  and  C_56 
REMARK   26  A    between atoms: C_56  and  C_57 
REMARK   27  A    between atoms: C_57  and  C_58 
REMARK   28  A    between atoms: C_58  and  O_60 
ROOT
ATOM      1  O   UNK d   0     -14.497  -7.547  -9.514  0.00  0.00    -0.650 OA
ATOM      2  C   UNK d   0     -15.532  -8.232  -9.357  0.00  0.00     0.139 C 
ENDROOT
BRANCH   2   3
ATOM      3  O   UNK d   0     -16.650  -7.649  -8.811  0.00  0.00    -0.776 OA
ATOM      4  H   UNK d   0     -17.122  -6.873  -9.279  0.00  0.00     0.167 HD
ENDBRANCH   2   3
BRANCH   2   5
ATOM      5  C   UNK d   0     -15.547  -9.667  -9.759  0.00  0.00     0.115 C 
BRANCH   5   6
ATOM      6  C   UNK d   0     -16.905 -10.044 -10.284  0.00  0.00     0.052 C 
BRANCH   6   7
ATOM      7  C   UNK d   0     -16.911 -10.260 -11.779  0.00  0.00    -0.020 A 
ATOM      8  C   UNK d   0     -16.994 -11.397 -12.420  0.00  0.00    -0.011 A 
ATOM      9  C   UNK d   0     -16.953 -11.109 -13.844  0.00  0.00     0.067 A 
ATOM     10  C   UNK d   0     -17.018 -11.856 -15.031  0.00  0.00     0.062 C 
ATOM     11  N   UNK d   0     -16.838  -9.771 -13.979  0.00  0.00    -0.248 NA
ATOM     12  C   UNK d   0     -17.242 -11.373 -16.325  0.00  0.00     0.041 A 
ATOM     13  N   UNK d   0     -16.753 -10.294 -16.965  0.00  0.00    -0.355 N 
ATOM     14  C   UNK d   0     -18.166 -12.040 -17.150  0.00  0.00    -0.022 A 
ATOM     15  C   UNK d   0     -17.349 -10.255 -18.172  0.00  0.00     0.042 A 
ATOM     16  H   UNK d   0     -15.988  -9.585 -16.580  0.00  0.00     0.166 HD
ATOM     17  C   UNK d   0     -17.202  -9.341 -19.235  0.00  0.00     0.062 C 
ATOM     18  C   UNK d   0     -18.242 -11.334 -18.324  0.00  0.00    -0.013 A 
ATOM     19  C   UNK d   0     -17.156  -7.971 -19.193  0.00  0.00     0.067 A 
ATOM     20  N   UNK d   0     -17.035  -7.406 -17.989  0.00  0.00    -0.248 NA
ATOM     21  C   UNK d   0     -17.221  -6.894 -20.167  0.00  0.00    -0.011 A 
ATOM     22  C   UNK d   0     -17.018  -6.038 -18.104  0.00  0.00     0.066 A 
ATOM     23  C   UNK d   0     -16.858  -5.322 -16.927  0.00  0.00     0.062 C 
ATOM     24  C   UNK d   0     -17.144  -5.765 -19.523  0.00  0.00    -0.020 A 
ATOM     25  C   UNK d   0     -16.621  -5.826 -15.639  0.00  0.00     0.041 A 
ATOM     26  N   UNK d   0     -17.118  -6.890 -14.997  0.00  0.00    -0.355 N 
ATOM     27  C   UNK d   0     -15.690  -5.158 -14.814  0.00  0.00    -0.022 A 
ATOM     28  C   UNK d   0     -16.532  -6.926 -13.789  0.00  0.00     0.042 A 
ATOM     29  H   UNK d   0     -17.895  -7.595 -15.381  0.00  0.00     0.166 HD
ATOM     30  C   UNK d   0     -16.676  -7.824 -12.720  0.00  0.00     0.062 C 
ATOM     31  C   UNK d   0     -15.627  -5.848 -13.642  0.00  0.00    -0.013 A 
ATOM     32  C   UNK d   0     -16.808  -9.202 -12.773  0.00  0.00     0.066 A 
BRANCH   8  33
ATOM     33  C   UNK d   0     -17.105 -12.742 -11.826  0.00  0.00     0.151 C 
BRANCH  33  34
ATOM     34  C   UNK d   0     -18.492 -13.238 -11.791  0.00  0.00     0.143 C 
ATOM     35  O   UNK d   0     -18.734 -14.444 -11.635  0.00  0.00    -0.650 OA
BRANCH  34  36
ATOM     36  O   UNK d   0     -19.532 -12.349 -11.937  0.00  0.00    -0.776 OA
ATOM     37  H   UNK d   0     -19.915 -12.122 -12.864  0.00  0.00     0.167 HD
ENDBRANCH  34  36
ENDBRANCH  33  34
ENDBRANCH   8  33
BRANCH  31  38
ATOM     38  C   UNK d   0     -14.752  -5.513 -12.457  0.00  0.00     0.151 C 
BRANCH  38  39
ATOM     39  C   UNK d   0     -15.407  -4.644 -11.502  0.00  0.00     0.143 C 
ATOM     40  O   UNK d   0     -15.298  -3.406 -11.545  0.00  0.00    -0.650 OA
BRANCH  39  41
ATOM     41  O   UNK d   0     -16.192  -5.201 -10.493  0.00  0.00    -0.776 OA
ATOM     42  H   UNK d   0     -15.789  -5.989  -9.976  0.00  0.00     0.167 HD
ENDBRANCH  39  41
ENDBRANCH  38  39
ENDBRANCH  31  38
BRANCH  27  43
ATOM     43  C   UNK d   0     -14.880  -3.917 -15.092  0.00  0.00     0.052 C 
BRANCH  43  44
ATOM     44  C   UNK d   0     -15.710  -2.678 -15.184  0.00  0.00     0.115 C 
BRANCH  44  45
ATOM     45  C   UNK d   0     -15.127  -1.704 -14.226  0.00  0.00     0.139 C 
ATOM     46  O   UNK d   0     -13.900  -1.449 -14.314  0.00  0.00    -0.650 OA
BRANCH  45  47
ATOM     47  O   UNK d   0     -15.874  -1.070 -13.256  0.00  0.00    -0.776 OA
ATOM     48  H   UNK d   0     -16.906  -1.043 -13.273  0.00  0.00     0.167 HD
ENDBRANCH  45  47
ENDBRANCH  44  45
ENDBRANCH  43  44
ENDBRANCH  27  43
BRANCH  24  49
ATOM     49  C   UNK d   0     -17.133  -4.421 -20.125  0.00  0.00     0.052 C 
BRANCH  49  50
ATOM     50  C   UNK d   0     -18.495  -4.080 -20.671  0.00  0.00     0.115 C 
BRANCH  50  51
ATOM     51  C   UNK d   0     -18.547  -3.466 -21.991  0.00  0.00     0.139 C 
ATOM     52  O   UNK d   0     -18.184  -4.065 -23.031  0.00  0.00    -0.650 OA
BRANCH  51  53
ATOM     53  O   UNK d   0     -19.012  -2.166 -22.126  0.00  0.00    -0.776 OA
ATOM     54  H   UNK d   0     -19.906  -1.937 -21.728  0.00  0.00     0.167 HD
ENDBRANCH  51  53
ENDBRANCH  50  51
ENDBRANCH  49  50
ENDBRANCH  24  49
BRANCH  21  55
ATOM     55  C   UNK d   0     -17.348  -7.105 -21.639  0.00  0.00     0.151 C 
BRANCH  55  56
ATOM     56  C   UNK d   0     -18.752  -7.249 -22.056  0.00  0.00     0.143 C 
ATOM     57  O   UNK d   0     -19.626  -7.751 -21.322  0.00  0.00    -0.650 OA
BRANCH  56  58
ATOM     58  O   UNK d   0     -19.100  -6.798 -23.328  0.00  0.00    -0.776 OA
ATOM     59  H   UNK d   0     -19.027  -7.509 -24.078  0.00  0.00     0.167 HD
ENDBRANCH  56  58
ENDBRANCH  55  56
ENDBRANCH  21  55
BRANCH  18  60
ATOM     60  C   UNK d   0     -19.124 -11.694 -19.494  0.00  0.00     0.151 C 
BRANCH  60  61
ATOM     61  C   UNK d   0     -18.384 -12.707 -20.261  0.00  0.00     0.143 C 
ATOM     62  O   UNK d   0     -17.302 -12.562 -20.832  0.00  0.00    -0.650 OA
BRANCH  61  63
ATOM     63  O   UNK d   0     -19.004 -13.977 -20.336  0.00  0.00    -0.776 OA
ATOM     64  H   UNK d   0     -20.001 -14.073 -20.265  0.00  0.00     0.167 HD
ENDBRANCH  61  63
ENDBRANCH  60  61
ENDBRANCH  18  60
BRANCH  14  65
ATOM     65  C   UNK d   0     -18.901 -13.336 -16.952  0.00  0.00     0.052 C 
BRANCH  65  66
ATOM     66  C   UNK d   0     -20.309 -13.144 -16.512  0.00  0.00     0.115 C 
BRANCH  66  67
ATOM     67  C   UNK d   0     -20.599 -12.947 -15.120  0.00  0.00     0.139 C 
ATOM     68  O   UNK d   0     -20.507 -11.759 -14.636  0.00  0.00    -0.650 OA
BRANCH  67  69
ATOM     69  O   UNK d   0     -20.983 -13.906 -14.184  0.00  0.00    -0.776 OA
ATOM     70  H   UNK d   0     -20.777 -13.680 -13.200  0.00  0.00     0.167 HD
ENDBRANCH  67  69
ENDBRANCH  66  67
ENDBRANCH  65  66
ENDBRANCH  14  65
ENDBRANCH   6   7
ENDBRANCH   5   6
ENDBRANCH   2   5
TORSDOF 28
ENDMDL
MODEL 10
REMARK VINA RESULT:      -8.1      2.901      5.619
REMARK  28 active torsions:
REMARK  status: ('A' for Active; 'I' for Inactive)
REMARK    1  A    between atoms: C_2  and  O_3 
REMARK    2  A    between atoms: C_2  and  C_4 
REMARK    3  A    between atoms: C_4  and  C_5 
REMARK    4  A    between atoms: C_5  and  C_6 
REMARK    5  A    between atoms: C_7  and  C_8 
REMARK    6  A    between atoms: C_8  and  C_9 
REMARK    7  A    between atoms: C_9  and  O_11 
REMARK    8  A    between atoms: C_28  and  C_29 
REMARK    9  A    between atoms: C_29  and  C_30 
REMARK   10  A    between atoms: C_30  and  O_32 
REMARK   11  A    between atoms: C_33  and  C_34 
REMARK   12  A    between atoms: C_34  and  C_35 
REMARK   13  A    between atoms: C_35  and  C_36 
REMARK   14  A    between atoms: C_36  and  O_38 
REMARK   15  A    between atoms: C_39  and  C_40 
REMARK   16  A    between atoms: C_40  and  C_41 
REMARK   17  A    between atoms: C_41  and  C_42 
REMARK   18  A    between atoms: C_42  and  O_44 
REMARK   19  A    between atoms: C_45  and  C_46 
REMARK   20  A    between atoms: C_46  and  C_47 
REMARK   21  A    between atoms: C_47  and  O_49 
REMARK   22  A    between atoms: C_50  and  C_51 
REMARK   23  A    between atoms: C_51  and  C_52 
REMARK   24  A    between atoms: C_52  and  O_54 
REMARK   25  A    between atoms: C_55  and  C_56 
REMARK   26  A    between atoms: C_56  and  C_57 
REMARK   27  A    between atoms: C_57  and  C_58 
REMARK   28  A    between atoms: C_58  and  O_60 
ROOT
ATOM      1  O   UNK d   0     -13.638  -5.564 -14.515  0.00  0.00    -0.650 OA
ATOM      2  C   UNK d   0     -14.808  -5.122 -14.518  0.00  0.00     0.139 C 
ENDROOT
BRANCH   2   3
ATOM      3  O   UNK d   0     -15.323  -4.571 -13.369  0.00  0.00    -0.776 OA
ATOM      4  H   UNK d   0     -15.115  -3.605 -13.109  0.00  0.00     0.167 HD
ENDBRANCH   2   3
BRANCH   2   5
ATOM      5  C   UNK d   0     -15.633  -5.195 -15.758  0.00  0.00     0.115 C 
BRANCH   5   6
ATOM      6  C   UNK d   0     -15.306  -6.448 -16.524  0.00  0.00     0.052 C 
BRANCH   6   7
ATOM      7  C   UNK d   0     -16.386  -7.497 -16.411  0.00  0.00    -0.020 A 
ATOM      8  C   UNK d   0     -17.316  -7.782 -17.285  0.00  0.00    -0.011 A 
ATOM      9  C   UNK d   0     -18.130  -8.854 -16.735  0.00  0.00     0.067 A 
ATOM     10  C   UNK d   0     -19.235  -9.607 -17.162  0.00  0.00     0.062 C 
ATOM     11  N   UNK d   0     -17.627  -9.156 -15.520  0.00  0.00    -0.248 NA
ATOM     12  C   UNK d   0     -19.715 -10.798 -16.605  0.00  0.00     0.041 A 
ATOM     13  N   UNK d   0     -19.885 -11.171 -15.322  0.00  0.00    -0.355 N 
ATOM     14  C   UNK d   0     -20.050 -11.862 -17.461  0.00  0.00    -0.022 A 
ATOM     15  C   UNK d   0     -20.312 -12.447 -15.342  0.00  0.00     0.042 A 
ATOM     16  H   UNK d   0     -19.725 -10.538 -14.422  0.00  0.00     0.166 HD
ATOM     17  C   UNK d   0     -20.643 -13.317 -14.283  0.00  0.00     0.062 C 
ATOM     18  C   UNK d   0     -20.427 -12.916 -16.665  0.00  0.00    -0.013 A 
ATOM     19  C   UNK d   0     -19.969 -13.541 -13.110  0.00  0.00     0.067 A 
ATOM     20  N   UNK d   0     -18.974 -12.702 -12.814  0.00  0.00    -0.248 NA
ATOM     21  C   UNK d   0     -20.040 -14.518 -12.036  0.00  0.00    -0.011 A 
ATOM     22  C   UNK d   0     -18.387 -13.059 -11.624  0.00  0.00     0.066 A 
ATOM     23  C   UNK d   0     -17.358 -12.245 -11.176  0.00  0.00     0.062 C 
ATOM     24  C   UNK d   0     -19.108 -14.232 -11.172  0.00  0.00    -0.020 A 
ATOM     25  C   UNK d   0     -16.900 -11.046 -11.743  0.00  0.00     0.041 A 
ATOM     26  N   UNK d   0     -16.716 -10.680 -13.018  0.00  0.00    -0.355 N 
ATOM     27  C   UNK d   0     -16.567  -9.976 -10.884  0.00  0.00    -0.022 A 
ATOM     28  C   UNK d   0     -16.281  -9.410 -13.000  0.00  0.00     0.042 A 
ATOM     29  H   UNK d   0     -16.867 -11.320 -13.921  0.00  0.00     0.166 HD
ATOM     30  C   UNK d   0     -15.940  -8.537 -14.045  0.00  0.00     0.062 C 
ATOM     31  C   UNK d   0     -16.176  -8.937 -11.671  0.00  0.00    -0.013 A 
ATOM     32  C   UNK d   0     -16.576  -8.375 -15.266  0.00  0.00     0.066 A 
BRANCH   8  33
ATOM     33  C   UNK d   0     -17.525  -7.141 -18.597  0.00  0.00     0.151 C 
BRANCH  33  34
ATOM     34  C   UNK d   0     -17.241  -8.046 -19.725  0.00  0.00     0.143 C 
ATOM     35  O   UNK d   0     -16.228  -8.760 -19.730  0.00  0.00    -0.650 OA
BRANCH  34  36
ATOM     36  O   UNK d   0     -18.113  -8.094 -20.788  0.00  0.00    -0.776 OA
ATOM     37  H   UNK d   0     -18.753  -7.314 -20.990  0.00  0.00     0.167 HD
ENDBRANCH  34  36
ENDBRANCH  33  34
ENDBRANCH   8  33
BRANCH  31  38
ATOM     38  C   UNK d   0     -15.740  -7.571 -11.192  0.00  0.00     0.151 C 
BRANCH  38  39
ATOM     39  C   UNK d   0     -14.301  -7.416 -11.173  0.00  0.00     0.143 C 
ATOM     40  O   UNK d   0     -13.746  -6.329 -11.412  0.00  0.00    -0.650 OA
BRANCH  39  41
ATOM     41  O   UNK d   0     -13.496  -8.515 -10.878  0.00  0.00    -0.776 OA
ATOM     42  H   UNK d   0     -13.901  -9.234 -10.270  0.00  0.00     0.167 HD
ENDBRANCH  39  41
ENDBRANCH  38  39
ENDBRANCH  31  38
BRANCH  27  43
ATOM     43  C   UNK d   0     -16.606  -9.909  -9.377  0.00  0.00     0.052 C 
BRANCH  43  44
ATOM     44  C   UNK d   0     -15.347 -10.390  -8.732  0.00  0.00     0.115 C 
BRANCH  44  45
ATOM     45  C   UNK d   0     -15.593 -10.387  -7.267  0.00  0.00     0.139 C 
ATOM     46  O   UNK d   0     -15.193  -9.399  -6.602  0.00  0.00    -0.650 OA
BRANCH  45  47
ATOM     47  O   UNK d   0     -16.242 -11.414  -6.616  0.00  0.00    -0.776 OA
ATOM     48  H   UNK d   0     -15.743 -12.215  -6.197  0.00  0.00     0.167 HD
ENDBRANCH  45  47
ENDBRANCH  44  45
ENDBRANCH  43  44
ENDBRANCH  27  43
BRANCH  24  49
ATOM     49  C   UNK d   0     -18.848 -14.944  -9.908  0.00  0.00     0.052 C 
BRANCH  49  50
ATOM     50  C   UNK d   0     -17.389 -14.848  -9.544  0.00  0.00     0.115 C 
BRANCH  50  51
ATOM     51  C   UNK d   0     -17.060 -14.192  -8.286  0.00  0.00     0.139 C 
ATOM     52  O   UNK d   0     -17.841 -13.396  -7.714  0.00  0.00    -0.650 OA
BRANCH  51  53
ATOM     53  O   UNK d   0     -15.838 -14.443  -7.680  0.00  0.00    -0.776 OA
ATOM     54  H   UNK d   0     -15.832 -14.701  -6.709  0.00  0.00     0.167 HD
ENDBRANCH  51  53
ENDBRANCH  50  51
ENDBRANCH  49  50
ENDBRANCH  24  49
BRANCH  21  55
ATOM     55  C   UNK d   0     -21.033 -15.631 -11.982  0.00  0.00     0.151 C 
BRANCH  55  56
ATOM     56  C   UNK d   0     -22.266 -15.237 -11.284  0.00  0.00     0.143 C 
ATOM     57  O   UNK d   0     -23.153 -14.544 -11.819  0.00  0.00    -0.650 OA
BRANCH  56  58
ATOM     58  O   UNK d   0     -22.432 -15.667  -9.968  0.00  0.00    -0.776 OA
ATOM     59  H   UNK d   0     -21.574 -16.034  -9.518  0.00  0.00     0.167 HD
ENDBRANCH  56  58
ENDBRANCH  55  56
ENDBRANCH  21  55
BRANCH  18  60
ATOM     60  C   UNK d   0     -20.861 -14.269 -17.172  0.00  0.00     0.151 C 
BRANCH  60  61
ATOM     61  C   UNK d   0     -19.650 -14.907 -17.707  0.00  0.00     0.143 C 
ATOM     62  O   UNK d   0     -18.486 -14.536 -17.554  0.00  0.00    -0.650 OA
BRANCH  61  63
ATOM     63  O   UNK d   0     -19.874 -16.072 -18.480  0.00  0.00    -0.776 OA
ATOM     64  H   UNK d   0     -20.773 -16.520 -18.493  0.00  0.00     0.167 HD
ENDBRANCH  61  63
ENDBRANCH  60  61
ENDBRANCH  18  60
BRANCH  14  65
ATOM     65  C   UNK d   0     -20.134 -11.927 -18.959  0.00  0.00     0.052 C 
BRANCH  65  66
ATOM     66  C   UNK d   0     -18.938 -11.356 -19.634  0.00  0.00     0.115 C 
BRANCH  66  67
ATOM     67  C   UNK d   0     -17.723 -12.118 -19.695  0.00  0.00     0.139 C 
ATOM     68  O   UNK d   0     -17.407 -12.681 -20.807  0.00  0.00    -0.650 OA
BRANCH  67  69
ATOM     69  O   UNK d   0     -16.802 -12.339 -18.671  0.00  0.00    -0.776 OA
ATOM     70  H   UNK d   0     -16.633 -11.542 -18.041  0.00  0.00     0.167 HD
ENDBRANCH  67  69
ENDBRANCH  66  67
ENDBRANCH  65  66
ENDBRANCH  14  65
ENDBRANCH   6   7
ENDBRANCH   5   6
ENDBRANCH   2   5
TORSDOF 28
ENDMDL
MODEL 11
REMARK VINA RESULT:      -8.1      1.799      7.162
REMARK  28 active torsions:
REMARK  status: ('A' for Active; 'I' for Inactive)
REMARK    1  A    between atoms: C_2  and  O_3 
REMARK    2  A    between atoms: C_2  and  C_4 
REMARK    3  A    between atoms: C_4  and  C_5 
REMARK    4  A    between atoms: C_5  and  C_6 
REMARK    5  A    between atoms: C_7  and  C_8 
REMARK    6  A    between atoms: C_8  and  C_9 
REMARK    7  A    between atoms: C_9  and  O_11 
REMARK    8  A    between atoms: C_28  and  C_29 
REMARK    9  A    between atoms: C_29  and  C_30 
REMARK   10  A    between atoms: C_30  and  O_32 
REMARK   11  A    between atoms: C_33  and  C_34 
REMARK   12  A    between atoms: C_34  and  C_35 
REMARK   13  A    between atoms: C_35  and  C_36 
REMARK   14  A    between atoms: C_36  and  O_38 
REMARK   15  A    between atoms: C_39  and  C_40 
REMARK   16  A    between atoms: C_40  and  C_41 
REMARK   17  A    between atoms: C_41  and  C_42 
REMARK   18  A    between atoms: C_42  and  O_44 
REMARK   19  A    between atoms: C_45  and  C_46 
REMARK   20  A    between atoms: C_46  and  C_47 
REMARK   21  A    between atoms: C_47  and  O_49 
REMARK   22  A    between atoms: C_50  and  C_51 
REMARK   23  A    between atoms: C_51  and  C_52 
REMARK   24  A    between atoms: C_52  and  O_54 
REMARK   25  A    between atoms: C_55  and  C_56 
REMARK   26  A    between atoms: C_56  and  C_57 
REMARK   27  A    between atoms: C_57  and  C_58 
REMARK   28  A    between atoms: C_58  and  O_60 
ROOT
ATOM      1  O   UNK d   0     -15.640  -3.672 -13.749  0.00  0.00    -0.650 OA
ATOM      2  C   UNK d   0     -15.383  -4.739 -14.350  0.00  0.00     0.139 C 
ENDROOT
BRANCH   2   3
ATOM      3  O   UNK d   0     -15.275  -4.731 -15.720  0.00  0.00    -0.776 OA
ATOM      4  H   UNK d   0     -14.744  -4.004 -16.203  0.00  0.00     0.167 HD
ENDBRANCH   2   3
BRANCH   2   5
ATOM      5  C   UNK d   0     -15.197  -6.004 -13.584  0.00  0.00     0.115 C 
BRANCH   5   6
ATOM      6  C   UNK d   0     -15.955  -5.939 -12.286  0.00  0.00     0.052 C 
BRANCH   6   7
ATOM      7  C   UNK d   0     -16.043  -7.279 -11.596  0.00  0.00    -0.020 A 
ATOM      8  C   UNK d   0     -15.406  -7.668 -10.522  0.00  0.00    -0.011 A 
ATOM      9  C   UNK d   0     -15.803  -9.037 -10.239  0.00  0.00     0.067 A 
ATOM     10  C   UNK d   0     -15.513  -9.993  -9.253  0.00  0.00     0.062 C 
ATOM     11  N   UNK d   0     -16.681  -9.405 -11.196  0.00  0.00    -0.248 NA
ATOM     12  C   UNK d   0     -16.212 -11.176  -8.988  0.00  0.00     0.041 A 
ATOM     13  N   UNK d   0     -16.728 -12.105  -9.815  0.00  0.00    -0.355 N 
ATOM     14  C   UNK d   0     -16.518 -11.501  -7.654  0.00  0.00    -0.022 A 
ATOM     15  C   UNK d   0     -17.360 -13.007  -9.041  0.00  0.00     0.042 A 
ATOM     16  H   UNK d   0     -16.630 -12.133 -10.923  0.00  0.00     0.166 HD
ATOM     17  C   UNK d   0     -18.065 -14.176  -9.390  0.00  0.00     0.062 C 
ATOM     18  C   UNK d   0     -17.251 -12.662  -7.680  0.00  0.00    -0.013 A 
ATOM     19  C   UNK d   0     -18.986 -14.362 -10.390  0.00  0.00     0.067 A 
ATOM     20  N   UNK d   0     -19.107 -13.382 -11.290  0.00  0.00    -0.248 NA
ATOM     21  C   UNK d   0     -19.939 -15.397 -10.753  0.00  0.00    -0.011 A 
ATOM     22  C   UNK d   0     -20.071 -13.701 -12.214  0.00  0.00     0.066 A 
ATOM     23  C   UNK d   0     -20.276 -12.784 -13.234  0.00  0.00     0.062 C 
ATOM     24  C   UNK d   0     -20.574 -15.003 -11.819  0.00  0.00    -0.020 A 
ATOM     25  C   UNK d   0     -19.554 -11.607 -13.490  0.00  0.00     0.041 A 
ATOM     26  N   UNK d   0     -19.054 -10.676 -12.669  0.00  0.00    -0.355 N 
ATOM     27  C   UNK d   0     -19.243 -11.284 -14.829  0.00  0.00    -0.022 A 
ATOM     28  C   UNK d   0     -18.431  -9.771 -13.439  0.00  0.00     0.042 A 
ATOM     29  H   UNK d   0     -19.162 -10.643 -11.557  0.00  0.00     0.166 HD
ATOM     30  C   UNK d   0     -17.734  -8.599 -13.106  0.00  0.00     0.062 C 
ATOM     31  C   UNK d   0     -18.532 -10.124 -14.806  0.00  0.00    -0.013 A 
ATOM     32  C   UNK d   0     -16.869  -8.392 -12.043  0.00  0.00     0.066 A 
BRANCH   8  33
ATOM     33  C   UNK d   0     -14.447  -6.878  -9.727  0.00  0.00     0.151 C 
BRANCH  33  34
ATOM     34  C   UNK d   0     -13.046  -7.135 -10.103  0.00  0.00     0.143 C 
ATOM     35  O   UNK d   0     -12.764  -7.654 -11.193  0.00  0.00    -0.650 OA
BRANCH  34  36
ATOM     36  O   UNK d   0     -12.039  -6.795  -9.230  0.00  0.00    -0.776 OA
ATOM     37  H   UNK d   0     -11.669  -7.474  -8.550  0.00  0.00     0.167 HD
ENDBRANCH  34  36
ENDBRANCH  33  34
ENDBRANCH   8  33
BRANCH  31  38
ATOM     38  C   UNK d   0     -17.970  -9.399 -16.006  0.00  0.00     0.151 C 
BRANCH  38  39
ATOM     39  C   UNK d   0     -16.669  -9.895 -16.403  0.00  0.00     0.143 C 
ATOM     40  O   UNK d   0     -16.486 -10.498 -17.475  0.00  0.00    -0.650 OA
BRANCH  39  41
ATOM     41  O   UNK d   0     -15.574  -9.696 -15.564  0.00  0.00    -0.776 OA
ATOM     42  H   UNK d   0     -15.175 -10.529 -15.119  0.00  0.00     0.167 HD
ENDBRANCH  39  41
ENDBRANCH  38  39
ENDBRANCH  31  38
BRANCH  27  43
ATOM     43  C   UNK d   0     -19.592 -12.020 -16.098  0.00  0.00     0.052 C 
BRANCH  43  44
ATOM     44  C   UNK d   0     -20.716 -11.391 -16.856  0.00  0.00     0.115 C 
BRANCH  44  45
ATOM     45  C   UNK d   0     -21.970 -11.998 -16.337  0.00  0.00     0.139 C 
ATOM     46  O   UNK d   0     -22.028 -13.249 -16.245  0.00  0.00    -0.650 OA
BRANCH  45  47
ATOM     47  O   UNK d   0     -23.059 -11.247 -15.951  0.00  0.00    -0.776 OA
ATOM     48  H   UNK d   0     -23.515 -10.560 -16.573  0.00  0.00     0.167 HD
ENDBRANCH  45  47
ENDBRANCH  44  45
ENDBRANCH  43  44
ENDBRANCH  27  43
BRANCH  24  49
ATOM     49  C   UNK d   0     -21.602 -15.764 -12.549  0.00  0.00     0.052 C 
BRANCH  49  50
ATOM     50  C   UNK d   0     -22.861 -15.866 -11.726  0.00  0.00     0.115 C 
BRANCH  50  51
ATOM     51  C   UNK d   0     -23.529 -14.620 -11.376  0.00  0.00     0.139 C 
ATOM     52  O   UNK d   0     -23.842 -14.328 -10.198  0.00  0.00    -0.650 OA
BRANCH  51  53
ATOM     53  O   UNK d   0     -23.843 -13.706 -12.371  0.00  0.00    -0.776 OA
ATOM     54  H   UNK d   0     -23.091 -13.206 -12.811  0.00  0.00     0.167 HD
ENDBRANCH  51  53
ENDBRANCH  50  51
ENDBRANCH  49  50
ENDBRANCH  24  49
BRANCH  21  55
ATOM     55  C   UNK d   0     -20.112 -16.674 -10.000  0.00  0.00     0.151 C 
BRANCH  55  56
ATOM     56  C   UNK d   0     -19.010 -17.616 -10.251  0.00  0.00     0.143 C 
ATOM     57  O   UNK d   0     -18.438 -17.707 -11.355  0.00  0.00    -0.650 OA
BRANCH  56  58
ATOM     58  O   UNK d   0     -18.603 -18.434  -9.198  0.00  0.00    -0.776 OA
ATOM     59  H   UNK d   0     -19.232 -18.431  -8.375  0.00  0.00     0.167 HD
ENDBRANCH  56  58
ENDBRANCH  55  56
ENDBRANCH  21  55
BRANCH  18  60
ATOM     60  C   UNK d   0     -17.797 -13.366  -6.463  0.00  0.00     0.151 C 
BRANCH  60  61
ATOM     61  C   UNK d   0     -17.200 -14.710  -6.472  0.00  0.00     0.143 C 
ATOM     62  O   UNK d   0     -16.026 -14.998  -6.706  0.00  0.00    -0.650 OA
BRANCH  61  63
ATOM     63  O   UNK d   0     -18.092 -15.768  -6.174  0.00  0.00    -0.776 OA
ATOM     64  H   UNK d   0     -18.915 -15.923  -6.728  0.00  0.00     0.167 HD
ENDBRANCH  61  63
ENDBRANCH  60  61
ENDBRANCH  18  60
BRANCH  14  65
ATOM     65  C   UNK d   0     -16.091 -10.858  -6.365  0.00  0.00     0.052 C 
BRANCH  65  66
ATOM     66  C   UNK d   0     -16.837  -9.606  -6.065  0.00  0.00     0.115 C 
BRANCH  66  67
ATOM     67  C   UNK d   0     -18.113  -9.373  -6.680  0.00  0.00     0.139 C 
ATOM     68  O   UNK d   0     -19.138 -10.000  -6.223  0.00  0.00    -0.650 OA
BRANCH  67  69
ATOM     69  O   UNK d   0     -18.403  -8.525  -7.749  0.00  0.00    -0.776 OA
ATOM     70  H   UNK d   0     -19.145  -7.831  -7.581  0.00  0.00     0.167 HD
ENDBRANCH  67  69
ENDBRANCH  66  67
ENDBRANCH  65  66
ENDBRANCH  14  65
ENDBRANCH   6   7
ENDBRANCH   5   6
ENDBRANCH   2   5
TORSDOF 28
ENDMDL
MODEL 12
REMARK VINA RESULT:      -8.1      2.799      7.878
REMARK  28 active torsions:
REMARK  status: ('A' for Active; 'I' for Inactive)
REMARK    1  A    between atoms: C_2  and  O_3 
REMARK    2  A    between atoms: C_2  and  C_4 
REMARK    3  A    between atoms: C_4  and  C_5 
REMARK    4  A    between atoms: C_5  and  C_6 
REMARK    5  A    between atoms: C_7  and  C_8 
REMARK    6  A    between atoms: C_8  and  C_9 
REMARK    7  A    between atoms: C_9  and  O_11 
REMARK    8  A    between atoms: C_28  and  C_29 
REMARK    9  A    between atoms: C_29  and  C_30 
REMARK   10  A    between atoms: C_30  and  O_32 
REMARK   11  A    between atoms: C_33  and  C_34 
REMARK   12  A    between atoms: C_34  and  C_35 
REMARK   13  A    between atoms: C_35  and  C_36 
REMARK   14  A    between atoms: C_36  and  O_38 
REMARK   15  A    between atoms: C_39  and  C_40 
REMARK   16  A    between atoms: C_40  and  C_41 
REMARK   17  A    between atoms: C_41  and  C_42 
REMARK   18  A    between atoms: C_42  and  O_44 
REMARK   19  A    between atoms: C_45  and  C_46 
REMARK   20  A    between atoms: C_46  and  C_47 
REMARK   21  A    between atoms: C_47  and  O_49 
REMARK   22  A    between atoms: C_50  and  C_51 
REMARK   23  A    between atoms: C_51  and  C_52 
REMARK   24  A    between atoms: C_52  and  O_54 
REMARK   25  A    between atoms: C_55  and  C_56 
REMARK   26  A    between atoms: C_56  and  C_57 
REMARK   27  A    between atoms: C_57  and  C_58 
REMARK   28  A    between atoms: C_58  and  O_60 
ROOT
ATOM      1  O   UNK d   0     -18.354  -2.987 -19.648  0.00  0.00    -0.650 OA
ATOM      2  C   UNK d   0     -17.666  -4.005 -19.412  0.00  0.00     0.139 C 
ENDROOT
BRANCH   2   3
ATOM      3  O   UNK d   0     -17.772  -5.096 -20.241  0.00  0.00    -0.776 OA
ATOM      4  H   UNK d   0     -18.681  -5.519 -20.443  0.00  0.00     0.167 HD
ENDBRANCH   2   3
BRANCH   2   5
ATOM      5  C   UNK d   0     -16.743  -4.030 -18.242  0.00  0.00     0.115 C 
BRANCH   5   6
ATOM      6  C   UNK d   0     -17.527  -3.930 -16.962  0.00  0.00     0.052 C 
BRANCH   6   7
ATOM      7  C   UNK d   0     -16.990  -4.835 -15.879  0.00  0.00    -0.020 A 
ATOM      8  C   UNK d   0     -16.077  -4.555 -14.985  0.00  0.00    -0.011 A 
ATOM      9  C   UNK d   0     -15.883  -5.737 -14.162  0.00  0.00     0.067 A 
ATOM     10  C   UNK d   0     -15.092  -6.082 -13.055  0.00  0.00     0.062 C 
ATOM     11  N   UNK d   0     -16.715  -6.692 -14.629  0.00  0.00    -0.248 NA
ATOM     12  C   UNK d   0     -15.244  -7.192 -12.217  0.00  0.00     0.041 A 
ATOM     13  N   UNK d   0     -15.515  -8.482 -12.495  0.00  0.00    -0.355 N 
ATOM     14  C   UNK d   0     -15.170  -7.009 -10.824  0.00  0.00    -0.022 A 
ATOM     15  C   UNK d   0     -15.623  -9.119 -11.314  0.00  0.00     0.042 A 
ATOM     16  H   UNK d   0     -15.610  -8.936 -13.506  0.00  0.00     0.166 HD
ATOM     17  C   UNK d   0     -15.894 -10.472 -11.028  0.00  0.00     0.062 C 
ATOM     18  C   UNK d   0     -15.413  -8.228 -10.244  0.00  0.00    -0.013 A 
ATOM     19  C   UNK d   0     -16.840 -11.298 -11.580  0.00  0.00     0.067 A 
ATOM     20  N   UNK d   0     -17.471 -10.851 -12.669  0.00  0.00    -0.248 NA
ATOM     21  C   UNK d   0     -17.389 -12.608 -11.275  0.00  0.00    -0.011 A 
ATOM     22  C   UNK d   0     -18.394 -11.773 -13.097  0.00  0.00     0.066 A 
ATOM     23  C   UNK d   0     -19.099 -11.452 -14.248  0.00  0.00     0.062 C 
ATOM     24  C   UNK d   0     -18.301 -12.879 -12.164  0.00  0.00    -0.020 A 
ATOM     25  C   UNK d   0     -18.921 -10.338 -15.082  0.00  0.00     0.041 A 
ATOM     26  N   UNK d   0     -18.666  -9.053 -14.806  0.00  0.00    -0.355 N 
ATOM     27  C   UNK d   0     -18.992 -10.523 -16.480  0.00  0.00    -0.022 A 
ATOM     28  C   UNK d   0     -18.568  -8.413 -15.982  0.00  0.00     0.042 A 
ATOM     29  H   UNK d   0     -18.583  -8.596 -13.789  0.00  0.00     0.166 HD
ATOM     30  C   UNK d   0     -18.308  -7.066 -16.281  0.00  0.00     0.062 C 
ATOM     31  C   UNK d   0     -18.768  -9.311 -17.057  0.00  0.00    -0.013 A 
ATOM     32  C   UNK d   0     -17.409  -6.211 -15.662  0.00  0.00     0.066 A 
BRANCH   8  33
ATOM     33  C   UNK d   0     -15.356  -3.279 -14.825  0.00  0.00     0.151 C 
BRANCH  33  34
ATOM     34  C   UNK d   0     -16.090  -2.310 -13.991  0.00  0.00     0.143 C 
ATOM     35  O   UNK d   0     -15.888  -2.239 -12.771  0.00  0.00    -0.650 OA
BRANCH  34  36
ATOM     36  O   UNK d   0     -17.012  -1.474 -14.579  0.00  0.00    -0.776 OA
ATOM     37  H   UNK d   0     -17.829  -1.849 -15.079  0.00  0.00     0.167 HD
ENDBRANCH  34  36
ENDBRANCH  33  34
ENDBRANCH   8  33
BRANCH  31  38
ATOM     38  C   UNK d   0     -18.734  -9.022 -18.540  0.00  0.00     0.151 C 
BRANCH  38  39
ATOM     39  C   UNK d   0     -17.399  -9.094 -19.095  0.00  0.00     0.143 C 
ATOM     40  O   UNK d   0     -16.411  -9.419 -18.413  0.00  0.00    -0.650 OA
BRANCH  39  41
ATOM     41  O   UNK d   0     -17.199  -8.793 -20.442  0.00  0.00    -0.776 OA
ATOM     42  H   UNK d   0     -16.419  -8.166 -20.663  0.00  0.00     0.167 HD
ENDBRANCH  39  41
ENDBRANCH  38  39
ENDBRANCH  31  38
BRANCH  27  43
ATOM     43  C   UNK d   0     -19.259 -11.782 -17.267  0.00  0.00     0.052 C 
BRANCH  43  44
ATOM     44  C   UNK d   0     -18.016 -12.434 -17.780  0.00  0.00     0.115 C 
BRANCH  44  45
ATOM     45  C   UNK d   0     -18.190 -12.583 -19.248  0.00  0.00     0.139 C 
ATOM     46  O   UNK d   0     -19.170 -13.250 -19.664  0.00  0.00    -0.650 OA
BRANCH  45  47
ATOM     47  O   UNK d   0     -17.328 -12.018 -20.164  0.00  0.00    -0.776 OA
ATOM     48  H   UNK d   0     -17.655 -11.478 -20.981  0.00  0.00     0.167 HD
ENDBRANCH  45  47
ENDBRANCH  44  45
ENDBRANCH  43  44
ENDBRANCH  27  43
BRANCH  24  49
ATOM     49  C   UNK d   0     -19.085 -14.123 -12.253  0.00  0.00     0.052 C 
BRANCH  49  50
ATOM     50  C   UNK d   0     -20.352 -14.003 -11.446  0.00  0.00     0.115 C 
BRANCH  50  51
ATOM     51  C   UNK d   0     -20.530 -14.939 -10.344  0.00  0.00     0.139 C 
ATOM     52  O   UNK d   0     -19.676 -15.810 -10.052  0.00  0.00    -0.650 OA
BRANCH  51  53
ATOM     53  O   UNK d   0     -21.683 -14.884  -9.576  0.00  0.00    -0.776 OA
ATOM     54  H   UNK d   0     -22.200 -14.023  -9.556  0.00  0.00     0.167 HD
ENDBRANCH  51  53
ENDBRANCH  50  51
ENDBRANCH  49  50
ENDBRANCH  24  49
BRANCH  21  55
ATOM     55  C   UNK d   0     -16.942 -13.455 -10.130  0.00  0.00     0.151 C 
BRANCH  55  56
ATOM     56  C   UNK d   0     -17.534 -13.017  -8.856  0.00  0.00     0.143 C 
ATOM     57  O   UNK d   0     -17.388 -11.864  -8.405  0.00  0.00    -0.650 OA
BRANCH  56  58
ATOM     58  O   UNK d   0     -18.287 -13.944  -8.137  0.00  0.00    -0.776 OA
ATOM     59  H   UNK d   0     -18.931 -13.535  -7.437  0.00  0.00     0.167 HD
ENDBRANCH  56  58
ENDBRANCH  55  56
ENDBRANCH  21  55
BRANCH  18  60
ATOM     60  C   UNK d   0     -15.438  -8.489  -8.758  0.00  0.00     0.151 C 
BRANCH  60  61
ATOM     61  C   UNK d   0     -16.760  -8.043  -8.292  0.00  0.00     0.143 C 
ATOM     62  O   UNK d   0     -17.031  -6.978  -7.737  0.00  0.00    -0.650 OA
BRANCH  61  63
ATOM     63  O   UNK d   0     -17.818  -8.956  -8.520  0.00  0.00    -0.776 OA
ATOM     64  H   UNK d   0     -18.701  -8.853  -8.052  0.00  0.00     0.167 HD
ENDBRANCH  61  63
ENDBRANCH  60  61
ENDBRANCH  18  60
BRANCH  14  65
ATOM     65  C   UNK d   0     -14.793  -5.802 -10.013  0.00  0.00     0.052 C 
BRANCH  65  66
ATOM     66  C   UNK d   0     -13.339  -5.494 -10.069  0.00  0.00     0.115 C 
BRANCH  66  67
ATOM     67  C   UNK d   0     -12.464  -6.001  -9.049  0.00  0.00     0.139 C 
ATOM     68  O   UNK d   0     -12.237  -5.269  -8.017  0.00  0.00    -0.650 OA
BRANCH  67  69
ATOM     69  O   UNK d   0     -11.801  -7.227  -9.027  0.00  0.00    -0.776 OA
ATOM     70  H   UNK d   0     -11.908  -7.778  -8.163  0.00  0.00     0.167 HD
ENDBRANCH  67  69
ENDBRANCH  66  67
ENDBRANCH  65  66
ENDBRANCH  14  65
ENDBRANCH   6   7
ENDBRANCH   5   6
ENDBRANCH   2   5
TORSDOF 28
ENDMDL
MODEL 13
REMARK VINA RESULT:      -8.1      2.637      7.961
REMARK  28 active torsions:
REMARK  status: ('A' for Active; 'I' for Inactive)
REMARK    1  A    between atoms: C_2  and  O_3 
REMARK    2  A    between atoms: C_2  and  C_4 
REMARK    3  A    between atoms: C_4  and  C_5 
REMARK    4  A    between atoms: C_5  and  C_6 
REMARK    5  A    between atoms: C_7  and  C_8 
REMARK    6  A    between atoms: C_8  and  C_9 
REMARK    7  A    between atoms: C_9  and  O_11 
REMARK    8  A    between atoms: C_28  and  C_29 
REMARK    9  A    between atoms: C_29  and  C_30 
REMARK   10  A    between atoms: C_30  and  O_32 
REMARK   11  A    between atoms: C_33  and  C_34 
REMARK   12  A    between atoms: C_34  and  C_35 
REMARK   13  A    between atoms: C_35  and  C_36 
REMARK   14  A    between atoms: C_36  and  O_38 
REMARK   15  A    between atoms: C_39  and  C_40 
REMARK   16  A    between atoms: C_40  and  C_41 
REMARK   17  A    between atoms: C_41  and  C_42 
REMARK   18  A    between atoms: C_42  and  O_44 
REMARK   19  A    between atoms: C_45  and  C_46 
REMARK   20  A    between atoms: C_46  and  C_47 
REMARK   21  A    between atoms: C_47  and  O_49 
REMARK   22  A    between atoms: C_50  and  C_51 
REMARK   23  A    between atoms: C_51  and  C_52 
REMARK   24  A    between atoms: C_52  and  O_54 
REMARK   25  A    between atoms: C_55  and  C_56 
REMARK   26  A    between atoms: C_56  and  C_57 
REMARK   27  A    between atoms: C_57  and  C_58 
REMARK   28  A    between atoms: C_58  and  O_60 
ROOT
ATOM      1  O   UNK d   0     -18.205  -7.794 -20.356  0.00  0.00    -0.650 OA
ATOM      2  C   UNK d   0     -17.312  -8.498 -19.835  0.00  0.00     0.139 C 
ENDROOT
BRANCH   2   3
ATOM      3  O   UNK d   0     -16.335  -9.046 -20.632  0.00  0.00    -0.776 OA
ATOM      4  H   UNK d   0     -15.836  -9.891 -20.348  0.00  0.00     0.167 HD
ENDBRANCH   2   3
BRANCH   2   5
ATOM      5  C   UNK d   0     -17.311  -8.738 -18.364  0.00  0.00     0.115 C 
BRANCH   5   6
ATOM      6  C   UNK d   0     -18.674  -8.458 -17.793  0.00  0.00     0.052 C 
BRANCH   6   7
ATOM      7  C   UNK d   0     -19.197  -9.597 -16.952  0.00  0.00    -0.020 A 
ATOM      8  C   UNK d   0     -20.153 -10.439 -17.253  0.00  0.00    -0.011 A 
ATOM      9  C   UNK d   0     -20.311 -11.352 -16.133  0.00  0.00     0.067 A 
ATOM     10  C   UNK d   0     -21.118 -12.462 -15.838  0.00  0.00     0.062 C 
ATOM     11  N   UNK d   0     -19.415 -10.990 -15.191  0.00  0.00    -0.248 NA
ATOM     12  C   UNK d   0     -20.934 -13.393 -14.810  0.00  0.00     0.041 A 
ATOM     13  N   UNK d   0     -20.587 -13.232 -13.519  0.00  0.00    -0.355 N 
ATOM     14  C   UNK d   0     -21.063 -14.763 -15.103  0.00  0.00    -0.022 A 
ATOM     15  C   UNK d   0     -20.484 -14.465 -12.987  0.00  0.00     0.042 A 
ATOM     16  H   UNK d   0     -20.437 -12.266 -12.989  0.00  0.00     0.166 HD
ATOM     17  C   UNK d   0     -20.152 -14.871 -11.680  0.00  0.00     0.062 C 
ATOM     18  C   UNK d   0     -20.775 -15.451 -13.950  0.00  0.00    -0.013 A 
ATOM     19  C   UNK d   0     -19.147 -14.416 -10.865  0.00  0.00     0.067 A 
ATOM     20  N   UNK d   0     -18.505 -13.312 -11.255  0.00  0.00    -0.248 NA
ATOM     21  C   UNK d   0     -18.540 -14.845  -9.616  0.00  0.00    -0.011 A 
ATOM     22  C   UNK d   0     -17.522 -12.988 -10.353  0.00  0.00     0.066 A 
ATOM     23  C   UNK d   0     -16.798 -11.835 -10.617  0.00  0.00     0.062 C 
ATOM     24  C   UNK d   0     -17.586 -14.008  -9.324  0.00  0.00    -0.020 A 
ATOM     25  C   UNK d   0     -17.007 -10.905 -11.647  0.00  0.00     0.041 A 
ATOM     26  N   UNK d   0     -17.337 -11.066 -12.934  0.00  0.00    -0.355 N 
ATOM     27  C   UNK d   0     -16.882  -9.530 -11.352  0.00  0.00    -0.022 A 
ATOM     28  C   UNK d   0     -17.432  -9.838 -13.469  0.00  0.00     0.042 A 
ATOM     29  H   UNK d   0     -17.478 -12.038 -13.468  0.00  0.00     0.166 HD
ATOM     30  C   UNK d   0     -17.752  -9.420 -14.770  0.00  0.00     0.062 C 
ATOM     31  C   UNK d   0     -17.149  -8.848 -12.498  0.00  0.00    -0.013 A 
ATOM     32  C   UNK d   0     -18.714  -9.940 -15.623  0.00  0.00     0.066 A 
BRANCH   8  33
ATOM     33  C   UNK d   0     -20.944 -10.471 -18.497  0.00  0.00     0.151 C 
BRANCH  33  34
ATOM     34  C   UNK d   0     -20.153 -10.895 -19.666  0.00  0.00     0.143 C 
ATOM     35  O   UNK d   0     -20.246 -10.298 -20.748  0.00  0.00    -0.650 OA
BRANCH  34  36
ATOM     36  O   UNK d   0     -19.301 -11.969 -19.552  0.00  0.00    -0.776 OA
ATOM     37  H   UNK d   0     -19.640 -12.888 -19.234  0.00  0.00     0.167 HD
ENDBRANCH  34  36
ENDBRANCH  33  34
ENDBRANCH   8  33
BRANCH  31  38
ATOM     38  C   UNK d   0     -17.151  -7.346 -12.662  0.00  0.00     0.151 C 
BRANCH  38  39
ATOM     39  C   UNK d   0     -15.891  -6.834 -13.158  0.00  0.00     0.143 C 
ATOM     40  O   UNK d   0     -14.842  -7.500 -13.123  0.00  0.00    -0.650 OA
BRANCH  39  41
ATOM     41  O   UNK d   0     -15.838  -5.549 -13.699  0.00  0.00    -0.776 OA
ATOM     42  H   UNK d   0     -15.918  -5.474 -14.718  0.00  0.00     0.167 HD
ENDBRANCH  39  41
ENDBRANCH  38  39
ENDBRANCH  31  38
BRANCH  27  43
ATOM     43  C   UNK d   0     -16.523  -8.859 -10.050  0.00  0.00     0.052 C 
BRANCH  43  44
ATOM     44  C   UNK d   0     -15.050  -8.771  -9.816  0.00  0.00     0.115 C 
BRANCH  44  45
ATOM     45  C   UNK d   0     -14.868  -8.164  -8.472  0.00  0.00     0.139 C 
ATOM     46  O   UNK d   0     -15.767  -8.347  -7.614  0.00  0.00    -0.650 OA
BRANCH  45  47
ATOM     47  O   UNK d   0     -13.760  -7.419  -8.132  0.00  0.00    -0.776 OA
ATOM     48  H   UNK d   0     -13.651  -6.426  -8.391  0.00  0.00     0.167 HD
ENDBRANCH  45  47
ENDBRANCH  44  45
ENDBRANCH  43  44
ENDBRANCH  27  43
BRANCH  24  49
ATOM     49  C   UNK d   0     -16.736 -14.045  -8.122  0.00  0.00     0.052 C 
BRANCH  49  50
ATOM     50  C   UNK d   0     -17.322 -13.177  -7.038  0.00  0.00     0.115 C 
BRANCH  50  51
ATOM     51  C   UNK d   0     -16.996 -11.757  -7.074  0.00  0.00     0.139 C 
ATOM     52  O   UNK d   0     -17.868 -10.861  -6.993  0.00  0.00    -0.650 OA
BRANCH  51  53
ATOM     53  O   UNK d   0     -15.674 -11.360  -7.205  0.00  0.00    -0.776 OA
ATOM     54  H   UNK d   0     -15.321 -10.667  -6.569  0.00  0.00     0.167 HD
ENDBRANCH  51  53
ENDBRANCH  50  51
ENDBRANCH  49  50
ENDBRANCH  24  49
BRANCH  21  55
ATOM     55  C   UNK d   0     -18.978 -16.044  -8.843  0.00  0.00     0.151 C 
BRANCH  55  56
ATOM     56  C   UNK d   0     -18.154 -17.225  -9.142  0.00  0.00     0.143 C 
ATOM     57  O   UNK d   0     -17.154 -17.539  -8.467  0.00  0.00    -0.650 OA
BRANCH  56  58
ATOM     58  O   UNK d   0     -18.521 -18.015 -10.231  0.00  0.00    -0.776 OA
ATOM     59  H   UNK d   0     -17.943 -18.863 -10.370  0.00  0.00     0.167 HD
ENDBRANCH  56  58
ENDBRANCH  55  56
ENDBRANCH  21  55
BRANCH  18  60
ATOM     60  C   UNK d   0     -20.785 -16.953 -13.815  0.00  0.00     0.151 C 
BRANCH  60  61
ATOM     61  C   UNK d   0     -21.625 -17.248 -12.644  0.00  0.00     0.143 C 
ATOM     62  O   UNK d   0     -22.761 -16.829 -12.421  0.00  0.00    -0.650 OA
BRANCH  61  63
ATOM     63  O   UNK d   0     -21.040 -18.110 -11.685  0.00  0.00    -0.776 OA
ATOM     64  H   UNK d   0     -20.501 -17.745 -10.920  0.00  0.00     0.167 HD
ENDBRANCH  61  63
ENDBRANCH  60  61
ENDBRANCH  18  60
BRANCH  14  65
ATOM     65  C   UNK d   0     -21.529 -15.460 -16.350  0.00  0.00     0.052 C 
BRANCH  65  66
ATOM     66  C   UNK d   0     -20.407 -15.937 -17.203  0.00  0.00     0.115 C 
BRANCH  66  67
ATOM     67  C   UNK d   0     -19.829 -15.054 -18.177  0.00  0.00     0.139 C 
ATOM     68  O   UNK d   0     -18.845 -14.307 -17.821  0.00  0.00    -0.650 OA
BRANCH  67  69
ATOM     69  O   UNK d   0     -20.206 -14.891 -19.510  0.00  0.00    -0.776 OA
ATOM     70  H   UNK d   0     -19.747 -15.519 -20.185  0.00  0.00     0.167 HD
ENDBRANCH  67  69
ENDBRANCH  66  67
ENDBRANCH  65  66
ENDBRANCH  14  65
ENDBRANCH   6   7
ENDBRANCH   5   6
ENDBRANCH   2   5
TORSDOF 28
ENDMDL
MODEL 14
REMARK VINA RESULT:      -8.1      2.351      8.474
REMARK  28 active torsions:
REMARK  status: ('A' for Active; 'I' for Inactive)
REMARK    1  A    between atoms: C_2  and  O_3 
REMARK    2  A    between atoms: C_2  and  C_4 
REMARK    3  A    between atoms: C_4  and  C_5 
REMARK    4  A    between atoms: C_5  and  C_6 
REMARK    5  A    between atoms: C_7  and  C_8 
REMARK    6  A    between atoms: C_8  and  C_9 
REMARK    7  A    between atoms: C_9  and  O_11 
REMARK    8  A    between atoms: C_28  and  C_29 
REMARK    9  A    between atoms: C_29  and  C_30 
REMARK   10  A    between atoms: C_30  and  O_32 
REMARK   11  A    between atoms: C_33  and  C_34 
REMARK   12  A    between atoms: C_34  and  C_35 
REMARK   13  A    between atoms: C_35  and  C_36 
REMARK   14  A    between atoms: C_36  and  O_38 
REMARK   15  A    between atoms: C_39  and  C_40 
REMARK   16  A    between atoms: C_40  and  C_41 
REMARK   17  A    between atoms: C_41  and  C_42 
REMARK   18  A    between atoms: C_42  and  O_44 
REMARK   19  A    between atoms: C_45  and  C_46 
REMARK   20  A    between atoms: C_46  and  C_47 
REMARK   21  A    between atoms: C_47  and  O_49 
REMARK   22  A    between atoms: C_50  and  C_51 
REMARK   23  A    between atoms: C_51  and  C_52 
REMARK   24  A    between atoms: C_52  and  O_54 
REMARK   25  A    between atoms: C_55  and  C_56 
REMARK   26  A    between atoms: C_56  and  C_57 
REMARK   27  A    between atoms: C_57  and  C_58 
REMARK   28  A    between atoms: C_58  and  O_60 
ROOT
ATOM      1  O   UNK d   0     -16.233 -15.938  -8.014  0.00  0.00    -0.650 OA
ATOM      2  C   UNK d   0     -16.216 -16.385  -9.182  0.00  0.00     0.139 C 
ENDROOT
BRANCH   2   3
ATOM      3  O   UNK d   0     -15.211 -17.241  -9.561  0.00  0.00    -0.776 OA
ATOM      4  H   UNK d   0     -14.240 -17.065  -9.296  0.00  0.00     0.167 HD
ENDBRANCH   2   3
BRANCH   2   5
ATOM      5  C   UNK d   0     -17.278 -15.988 -10.150  0.00  0.00     0.115 C 
BRANCH   5   6
ATOM      6  C   UNK d   0     -18.166 -14.937  -9.542  0.00  0.00     0.052 C 
BRANCH   6   7
ATOM      7  C   UNK d   0     -17.807 -13.541  -9.992  0.00  0.00    -0.020 A 
ATOM      8  C   UNK d   0     -17.179 -12.619  -9.308  0.00  0.00    -0.011 A 
ATOM      9  C   UNK d   0     -17.069 -11.439 -10.149  0.00  0.00     0.067 A 
ATOM     10  C   UNK d   0     -16.508 -10.158 -10.028  0.00  0.00     0.062 C 
ATOM     11  N   UNK d   0     -17.662 -11.729 -11.326  0.00  0.00    -0.248 NA
ATOM     12  C   UNK d   0     -16.256  -9.243 -11.056  0.00  0.00     0.041 A 
ATOM     13  N   UNK d   0     -16.996  -8.878 -12.120  0.00  0.00    -0.355 N 
ATOM     14  C   UNK d   0     -15.014  -8.583 -11.090  0.00  0.00    -0.022 A 
ATOM     15  C   UNK d   0     -16.253  -8.011 -12.833  0.00  0.00     0.042 A 
ATOM     16  H   UNK d   0     -18.031  -9.213 -12.353  0.00  0.00     0.166 HD
ATOM     17  C   UNK d   0     -16.544  -7.326 -14.030  0.00  0.00     0.062 C 
ATOM     18  C   UNK d   0     -15.003  -7.801 -12.218  0.00  0.00    -0.013 A 
ATOM     19  C   UNK d   0     -17.119  -7.805 -15.179  0.00  0.00     0.067 A 
ATOM     20  N   UNK d   0     -17.664  -9.024 -15.120  0.00  0.00    -0.248 NA
ATOM     21  C   UNK d   0     -17.298  -7.322 -16.538  0.00  0.00    -0.011 A 
ATOM     22  C   UNK d   0     -18.184  -9.372 -16.343  0.00  0.00     0.066 A 
ATOM     23  C   UNK d   0     -18.816 -10.605 -16.415  0.00  0.00     0.062 C 
ATOM     24  C   UNK d   0     -17.917  -8.245 -17.215  0.00  0.00    -0.020 A 
ATOM     25  C   UNK d   0     -19.071 -11.503 -15.367  0.00  0.00     0.041 A 
ATOM     26  N   UNK d   0     -18.329 -11.877 -14.318  0.00  0.00    -0.355 N 
ATOM     27  C   UNK d   0     -20.320 -12.161 -15.331  0.00  0.00    -0.022 A 
ATOM     28  C   UNK d   0     -19.065 -12.749 -13.610  0.00  0.00     0.042 A 
ATOM     29  H   UNK d   0     -17.285 -11.548 -14.091  0.00  0.00     0.166 HD
ATOM     30  C   UNK d   0     -18.784 -13.444 -12.424  0.00  0.00     0.062 C 
ATOM     31  C   UNK d   0     -20.325 -12.951 -14.223  0.00  0.00    -0.013 A 
ATOM     32  C   UNK d   0     -18.126 -12.979 -11.296  0.00  0.00     0.066 A 
BRANCH   8  33
ATOM     33  C   UNK d   0     -16.671 -12.732  -7.929  0.00  0.00     0.151 C 
BRANCH  33  34
ATOM     34  C   UNK d   0     -16.814 -11.481  -7.163  0.00  0.00     0.143 C 
ATOM     35  O   UNK d   0     -17.933 -11.003  -6.928  0.00  0.00    -0.650 OA
BRANCH  34  36
ATOM     36  O   UNK d   0     -15.688 -10.836  -6.705  0.00  0.00    -0.776 OA
ATOM     37  H   UNK d   0     -15.376  -9.947  -7.120  0.00  0.00     0.167 HD
ENDBRANCH  34  36
ENDBRANCH  33  34
ENDBRANCH   8  33
BRANCH  31  38
ATOM     38  C   UNK d   0     -21.460 -13.835 -13.763  0.00  0.00     0.151 C 
BRANCH  38  39
ATOM     39  C   UNK d   0     -21.297 -15.215 -14.166  0.00  0.00     0.143 C 
ATOM     40  O   UNK d   0     -21.456 -16.163 -13.377  0.00  0.00    -0.650 OA
BRANCH  39  41
ATOM     41  O   UNK d   0     -20.949 -15.508 -15.485  0.00  0.00    -0.776 OA
ATOM     42  H   UNK d   0     -21.713 -15.771 -16.116  0.00  0.00     0.167 HD
ENDBRANCH  39  41
ENDBRANCH  38  39
ENDBRANCH  31  38
BRANCH  27  43
ATOM     43  C   UNK d   0     -21.479 -12.070 -16.292  0.00  0.00     0.052 C 
BRANCH  43  44
ATOM     44  C   UNK d   0     -22.553 -11.138 -15.834  0.00  0.00     0.115 C 
BRANCH  44  45
ATOM     45  C   UNK d   0     -22.486  -9.945 -16.718  0.00  0.00     0.139 C 
ATOM     46  O   UNK d   0     -22.154 -10.116 -17.918  0.00  0.00    -0.650 OA
BRANCH  45  47
ATOM     47  O   UNK d   0     -22.775  -8.672 -16.279  0.00  0.00    -0.776 OA
ATOM     48  H   UNK d   0     -23.015  -8.459 -15.297  0.00  0.00     0.167 HD
ENDBRANCH  45  47
ENDBRANCH  44  45
ENDBRANCH  43  44
ENDBRANCH  27  43
BRANCH  24  49
ATOM     49  C   UNK d   0     -18.334  -8.156 -18.625  0.00  0.00     0.052 C 
BRANCH  49  50
ATOM     50  C   UNK d   0     -17.231  -8.644 -19.529  0.00  0.00     0.115 C 
BRANCH  50  51
ATOM     51  C   UNK d   0     -16.899 -10.061 -19.467  0.00  0.00     0.139 C 
ATOM     52  O   UNK d   0     -15.854 -10.487 -18.921  0.00  0.00    -0.650 OA
BRANCH  51  53
ATOM     53  O   UNK d   0     -17.757 -10.993 -20.031  0.00  0.00    -0.776 OA
ATOM     54  H   UNK d   0     -18.740 -10.786 -20.044  0.00  0.00     0.167 HD
ENDBRANCH  51  53
ENDBRANCH  50  51
ENDBRANCH  49  50
ENDBRANCH  24  49
BRANCH  21  55
ATOM     55  C   UNK d   0     -16.834  -5.986 -17.017  0.00  0.00     0.151 C 
BRANCH  55  56
ATOM     56  C   UNK d   0     -17.480  -4.884 -16.287  0.00  0.00     0.143 C 
ATOM     57  O   UNK d   0     -16.836  -3.975 -15.729  0.00  0.00    -0.650 OA
BRANCH  56  58
ATOM     58  O   UNK d   0     -18.873  -4.873 -16.229  0.00  0.00    -0.776 OA
ATOM     59  H   UNK d   0     -19.296  -5.698 -15.767  0.00  0.00     0.167 HD
ENDBRANCH  56  58
ENDBRANCH  55  56
ENDBRANCH  21  55
BRANCH  18  60
ATOM     60  C   UNK d   0     -13.854  -6.925 -12.652  0.00  0.00     0.151 C 
BRANCH  60  61
ATOM     61  C   UNK d   0     -12.763  -7.841 -13.016  0.00  0.00     0.143 C 
ATOM     62  O   UNK d   0     -12.850  -8.870 -13.686  0.00  0.00    -0.650 OA
BRANCH  61  63
ATOM     63  O   UNK d   0     -11.483  -7.477 -12.532  0.00  0.00    -0.776 OA
ATOM     64  H   UNK d   0     -11.381  -6.955 -11.679  0.00  0.00     0.167 HD
ENDBRANCH  61  63
ENDBRANCH  60  61
ENDBRANCH  18  60
BRANCH  14  65
ATOM     65  C   UNK d   0     -13.887  -8.561 -10.096  0.00  0.00     0.052 C 
BRANCH  65  66
ATOM     66  C   UNK d   0     -13.987  -7.435  -9.129  0.00  0.00     0.115 C 
BRANCH  66  67
ATOM     67  C   UNK d   0     -12.982  -6.410  -9.124  0.00  0.00     0.139 C 
ATOM     68  O   UNK d   0     -13.242  -5.298  -8.533  0.00  0.00    -0.650 OA
BRANCH  67  69
ATOM     69  O   UNK d   0     -11.711  -6.458  -9.696  0.00  0.00    -0.776 OA
ATOM     70  H   UNK d   0     -11.673  -6.316 -10.716  0.00  0.00     0.167 HD
ENDBRANCH  67  69
ENDBRANCH  66  67
ENDBRANCH  65  66
ENDBRANCH  14  65
ENDBRANCH   6   7
ENDBRANCH   5   6
ENDBRANCH   2   5
TORSDOF 28
ENDMDL
MODEL 15
REMARK VINA RESULT:      -8.1      3.053      8.571
REMARK  28 active torsions:
REMARK  status: ('A' for Active; 'I' for Inactive)
REMARK    1  A    between atoms: C_2  and  O_3 
REMARK    2  A    between atoms: C_2  and  C_4 
REMARK    3  A    between atoms: C_4  and  C_5 
REMARK    4  A    between atoms: C_5  and  C_6 
REMARK    5  A    between atoms: C_7  and  C_8 
REMARK    6  A    between atoms: C_8  and  C_9 
REMARK    7  A    between atoms: C_9  and  O_11 
REMARK    8  A    between atoms: C_28  and  C_29 
REMARK    9  A    between atoms: C_29  and  C_30 
REMARK   10  A    between atoms: C_30  and  O_32 
REMARK   11  A    between atoms: C_33  and  C_34 
REMARK   12  A    between atoms: C_34  and  C_35 
REMARK   13  A    between atoms: C_35  and  C_36 
REMARK   14  A    between atoms: C_36  and  O_38 
REMARK   15  A    between atoms: C_39  and  C_40 
REMARK   16  A    between atoms: C_40  and  C_41 
REMARK   17  A    between atoms: C_41  and  C_42 
REMARK   18  A    between atoms: C_42  and  O_44 
REMARK   19  A    between atoms: C_45  and  C_46 
REMARK   20  A    between atoms: C_46  and  C_47 
REMARK   21  A    between atoms: C_47  and  O_49 
REMARK   22  A    between atoms: C_50  and  C_51 
REMARK   23  A    between atoms: C_51  and  C_52 
REMARK   24  A    between atoms: C_52  and  O_54 
REMARK   25  A    between atoms: C_55  and  C_56 
REMARK   26  A    between atoms: C_56  and  C_57 
REMARK   27  A    between atoms: C_57  and  C_58 
REMARK   28  A    between atoms: C_58  and  O_60 
ROOT
ATOM      1  O   UNK d   0     -13.786  -7.011  -7.775  0.00  0.00    -0.650 OA
ATOM      2  C   UNK d   0     -13.358  -6.749  -8.921  0.00  0.00     0.139 C 
ENDROOT
BRANCH   2   3
ATOM      3  O   UNK d   0     -12.041  -7.000  -9.222  0.00  0.00    -0.776 OA
ATOM      4  H   UNK d   0     -11.286  -6.615  -8.650  0.00  0.00     0.167 HD
ENDBRANCH   2   3
BRANCH   2   5
ATOM      5  C   UNK d   0     -14.271  -6.170  -9.947  0.00  0.00     0.115 C 
BRANCH   5   6
ATOM      6  C   UNK d   0     -15.683  -6.627  -9.699  0.00  0.00     0.052 C 
BRANCH   6   7
ATOM      7  C   UNK d   0     -16.089  -7.772 -10.596  0.00  0.00    -0.020 A 
ATOM      8  C   UNK d   0     -16.173  -9.040 -10.283  0.00  0.00    -0.011 A 
ATOM      9  C   UNK d   0     -16.594  -9.764 -11.471  0.00  0.00     0.067 A 
ATOM     10  C   UNK d   0     -16.882 -11.100 -11.793  0.00  0.00     0.062 C 
ATOM     11  N   UNK d   0     -16.738  -8.860 -12.462  0.00  0.00    -0.248 NA
ATOM     12  C   UNK d   0     -17.547 -11.572 -12.929  0.00  0.00     0.041 A 
ATOM     13  N   UNK d   0     -17.445 -11.223 -14.226  0.00  0.00    -0.355 N 
ATOM     14  C   UNK d   0     -18.553 -12.544 -12.775  0.00  0.00    -0.022 A 
ATOM     15  C   UNK d   0     -18.364 -11.943 -14.896  0.00  0.00     0.042 A 
ATOM     16  H   UNK d   0     -16.724 -10.497 -14.661  0.00  0.00     0.166 HD
ATOM     17  C   UNK d   0     -18.680 -11.969 -16.269  0.00  0.00     0.062 C 
ATOM     18  C   UNK d   0     -19.079 -12.782 -14.020  0.00  0.00    -0.013 A 
ATOM     19  C   UNK d   0     -18.843 -10.919 -17.137  0.00  0.00     0.067 A 
ATOM     20  N   UNK d   0     -18.469  -9.713 -16.703  0.00  0.00    -0.248 NA
ATOM     21  C   UNK d   0     -19.360 -10.748 -18.485  0.00  0.00    -0.011 A 
ATOM     22  C   UNK d   0     -18.705  -8.765 -17.669  0.00  0.00     0.066 A 
ATOM     23  C   UNK d   0     -18.326  -7.466 -17.363  0.00  0.00     0.062 C 
ATOM     24  C   UNK d   0     -19.280  -9.484 -18.788  0.00  0.00    -0.020 A 
ATOM     25  C   UNK d   0     -17.647  -7.014 -16.221  0.00  0.00     0.041 A 
ATOM     26  N   UNK d   0     -17.759  -7.350 -14.931  0.00  0.00    -0.355 N 
ATOM     27  C   UNK d   0     -16.635  -6.042 -16.378  0.00  0.00    -0.022 A 
ATOM     28  C   UNK d   0     -16.849  -6.627 -14.259  0.00  0.00     0.042 A 
ATOM     29  H   UNK d   0     -18.491  -8.072 -14.493  0.00  0.00     0.166 HD
ATOM     30  C   UNK d   0     -16.530  -6.585 -12.892  0.00  0.00     0.062 C 
ATOM     31  C   UNK d   0     -16.124  -5.792 -15.142  0.00  0.00    -0.013 A 
ATOM     32  C   UNK d   0     -16.450  -7.642 -12.000  0.00  0.00     0.066 A 
BRANCH   8  33
ATOM     33  C   UNK d   0     -15.890  -9.648  -8.970  0.00  0.00     0.151 C 
BRANCH  33  34
ATOM     34  C   UNK d   0     -17.106  -9.854  -8.162  0.00  0.00     0.143 C 
ATOM     35  O   UNK d   0     -17.375 -10.968  -7.691  0.00  0.00    -0.650 OA
BRANCH  34  36
ATOM     36  O   UNK d   0     -17.951  -8.794  -7.932  0.00  0.00    -0.776 OA
ATOM     37  H   UNK d   0     -18.850  -8.922  -7.447  0.00  0.00     0.167 HD
ENDBRANCH  34  36
ENDBRANCH  33  34
ENDBRANCH   8  33
BRANCH  31  38
ATOM     38  C   UNK d   0     -15.007  -4.828 -14.817  0.00  0.00     0.151 C 
BRANCH  38  39
ATOM     39  C   UNK d   0     -15.488  -3.560 -14.312  0.00  0.00     0.143 C 
ATOM     40  O   UNK d   0     -16.025  -2.712 -15.047  0.00  0.00    -0.650 OA
BRANCH  39  41
ATOM     41  O   UNK d   0     -15.353  -3.265 -12.956  0.00  0.00    -0.776 OA
ATOM     42  H   UNK d   0     -14.469  -3.530 -12.512  0.00  0.00     0.167 HD
ENDBRANCH  39  41
ENDBRANCH  38  39
ENDBRANCH  31  38
BRANCH  27  43
ATOM     43  C   UNK d   0     -16.150  -5.357 -17.632  0.00  0.00     0.052 C 
BRANCH  43  44
ATOM     44  C   UNK d   0     -16.856  -4.071 -17.914  0.00  0.00     0.115 C 
BRANCH  44  45
ATOM     45  C   UNK d   0     -17.265  -4.116 -19.342  0.00  0.00     0.139 C 
ATOM     46  O   UNK d   0     -16.577  -4.807 -20.133  0.00  0.00    -0.650 OA
BRANCH  45  47
ATOM     47  O   UNK d   0     -18.364  -3.439 -19.826  0.00  0.00    -0.776 OA
ATOM     48  H   UNK d   0     -19.285  -3.459 -19.359  0.00  0.00     0.167 HD
ENDBRANCH  45  47
ENDBRANCH  44  45
ENDBRANCH  43  44
ENDBRANCH  27  43
BRANCH  24  49
ATOM     49  C   UNK d   0     -19.659  -8.875 -20.074  0.00  0.00     0.052 C 
BRANCH  49  50
ATOM     50  C   UNK d   0     -18.682  -7.790 -20.449  0.00  0.00     0.115 C 
BRANCH  50  51
ATOM     51  C   UNK d   0     -19.046  -6.923 -21.561  0.00  0.00     0.139 C 
ATOM     52  O   UNK d   0     -19.522  -5.775 -21.395  0.00  0.00    -0.650 OA
BRANCH  51  53
ATOM     53  O   UNK d   0     -18.869  -7.365 -22.863  0.00  0.00    -0.776 OA
ATOM     54  H   UNK d   0     -18.730  -8.348 -23.017  0.00  0.00     0.167 HD
ENDBRANCH  51  53
ENDBRANCH  50  51
ENDBRANCH  49  50
ENDBRANCH  24  49
BRANCH  21  55
ATOM     55  C   UNK d   0     -19.875 -11.865 -19.330  0.00  0.00     0.151 C 
BRANCH  55  56
ATOM     56  C   UNK d   0     -18.786 -12.635 -19.950  0.00  0.00     0.143 C 
ATOM     57  O   UNK d   0     -17.794 -12.095 -20.479  0.00  0.00    -0.650 OA
BRANCH  56  58
ATOM     58  O   UNK d   0     -18.884 -14.025 -19.937  0.00  0.00    -0.776 OA
ATOM     59  H   UNK d   0     -19.666 -14.402 -19.371  0.00  0.00     0.167 HD
ENDBRANCH  56  58
ENDBRANCH  55  56
ENDBRANCH  21  55
BRANCH  18  60
ATOM     60  C   UNK d   0     -20.194 -13.754 -14.316  0.00  0.00     0.151 C 
BRANCH  60  61
ATOM     61  C   UNK d   0     -21.444 -13.030 -14.042  0.00  0.00     0.143 C 
ATOM     62  O   UNK d   0     -21.833 -11.992 -14.578  0.00  0.00    -0.650 OA
BRANCH  61  63
ATOM     63  O   UNK d   0     -22.272 -13.610 -13.051  0.00  0.00    -0.776 OA
ATOM     64  H   UNK d   0     -22.371 -13.187 -12.145  0.00  0.00     0.167 HD
ENDBRANCH  61  63
ENDBRANCH  60  61
ENDBRANCH  18  60
BRANCH  14  65
ATOM     65  C   UNK d   0     -18.981 -13.328 -11.567  0.00  0.00     0.052 C 
BRANCH  65  66
ATOM     66  C   UNK d   0     -17.858 -14.055 -10.916  0.00  0.00     0.115 C 
BRANCH  66  67
ATOM     67  C   UNK d   0     -17.776 -14.104  -9.484  0.00  0.00     0.139 C 
ATOM     68  O   UNK d   0     -18.681 -14.751  -8.839  0.00  0.00    -0.650 OA
BRANCH  67  69
ATOM     69  O   UNK d   0     -16.810 -13.521  -8.664  0.00  0.00    -0.776 OA
ATOM     70  H   UNK d   0     -17.168 -13.009  -7.844  0.00  0.00     0.167 HD
ENDBRANCH  67  69
ENDBRANCH  66  67
ENDBRANCH  65  66
ENDBRANCH  14  65
ENDBRANCH   6   7
ENDBRANCH   5   6
ENDBRANCH   2   5
TORSDOF 28
ENDMDL
MODEL 16
REMARK VINA RESULT:      -8.0      2.741      7.570
REMARK  28 active torsions:
REMARK  status: ('A' for Active; 'I' for Inactive)
REMARK    1  A    between atoms: C_2  and  O_3 
REMARK    2  A    between atoms: C_2  and  C_4 
REMARK    3  A    between atoms: C_4  and  C_5 
REMARK    4  A    between atoms: C_5  and  C_6 
REMARK    5  A    between atoms: C_7  and  C_8 
REMARK    6  A    between atoms: C_8  and  C_9 
REMARK    7  A    between atoms: C_9  and  O_11 
REMARK    8  A    between atoms: C_28  and  C_29 
REMARK    9  A    between atoms: C_29  and  C_30 
REMARK   10  A    between atoms: C_30  and  O_32 
REMARK   11  A    between atoms: C_33  and  C_34 
REMARK   12  A    between atoms: C_34  and  C_35 
REMARK   13  A    between atoms: C_35  and  C_36 
REMARK   14  A    between atoms: C_36  and  O_38 
REMARK   15  A    between atoms: C_39  and  C_40 
REMARK   16  A    between atoms: C_40  and  C_41 
REMARK   17  A    between atoms: C_41  and  C_42 
REMARK   18  A    between atoms: C_42  and  O_44 
REMARK   19  A    between atoms: C_45  and  C_46 
REMARK   20  A    between atoms: C_46  and  C_47 
REMARK   21  A    between atoms: C_47  and  O_49 
REMARK   22  A    between atoms: C_50  and  C_51 
REMARK   23  A    between atoms: C_51  and  C_52 
REMARK   24  A    between atoms: C_52  and  O_54 
REMARK   25  A    between atoms: C_55  and  C_56 
REMARK   26  A    between atoms: C_56  and  C_57 
REMARK   27  A    between atoms: C_57  and  C_58 
REMARK   28  A    between atoms: C_58  and  O_60 
ROOT
ATOM      1  O   UNK d   0     -18.361  -6.520 -20.288  0.00  0.00    -0.650 OA
ATOM      2  C   UNK d   0     -17.209  -7.003 -20.215  0.00  0.00     0.139 C 
ENDROOT
BRANCH   2   3
ATOM      3  O   UNK d   0     -16.791  -7.895 -21.174  0.00  0.00    -0.776 OA
ATOM      4  H   UNK d   0     -16.530  -8.852 -20.927  0.00  0.00     0.167 HD
ENDBRANCH   2   3
BRANCH   2   5
ATOM      5  C   UNK d   0     -16.303  -6.614 -19.098  0.00  0.00     0.115 C 
BRANCH   5   6
ATOM      6  C   UNK d   0     -17.105  -6.075 -17.945  0.00  0.00     0.052 C 
BRANCH   6   7
ATOM      7  C   UNK d   0     -16.809  -6.788 -16.647  0.00  0.00    -0.020 A 
ATOM      8  C   UNK d   0     -16.037  -6.382 -15.671  0.00  0.00    -0.011 A 
ATOM      9  C   UNK d   0     -16.053  -7.403 -14.637  0.00  0.00     0.067 A 
ATOM     10  C   UNK d   0     -15.475  -7.569 -13.369  0.00  0.00     0.062 C 
ATOM     11  N   UNK d   0     -16.856  -8.398 -15.069  0.00  0.00    -0.248 NA
ATOM     12  C   UNK d   0     -15.831  -8.505 -12.392  0.00  0.00     0.041 A 
ATOM     13  N   UNK d   0     -16.133  -9.814 -12.486  0.00  0.00    -0.355 N 
ATOM     14  C   UNK d   0     -15.973  -8.077 -11.059  0.00  0.00    -0.022 A 
ATOM     15  C   UNK d   0     -16.470 -10.226 -11.249  0.00  0.00     0.042 A 
ATOM     16  H   UNK d   0     -16.089 -10.439 -13.405  0.00  0.00     0.166 HD
ATOM     17  C   UNK d   0     -16.867 -11.496 -10.786  0.00  0.00     0.062 C 
ATOM     18  C   UNK d   0     -16.382  -9.164 -10.328  0.00  0.00    -0.013 A 
ATOM     19  C   UNK d   0     -17.760 -12.376 -11.342  0.00  0.00     0.067 A 
ATOM     20  N   UNK d   0     -18.177 -12.111 -12.583  0.00  0.00    -0.248 NA
ATOM     21  C   UNK d   0     -18.432 -13.592 -10.915  0.00  0.00    -0.011 A 
ATOM     22  C   UNK d   0     -19.074 -13.065 -12.998  0.00  0.00     0.066 A 
ATOM     23  C   UNK d   0     -19.561 -12.933 -14.290  0.00  0.00     0.062 C 
ATOM     24  C   UNK d   0     -19.202 -13.988 -11.887  0.00  0.00    -0.020 A 
ATOM     25  C   UNK d   0     -19.181 -11.993 -15.260  0.00  0.00     0.041 A 
ATOM     26  N   UNK d   0     -18.896 -10.689 -15.169  0.00  0.00    -0.355 N 
ATOM     27  C   UNK d   0     -19.035 -12.424 -16.597  0.00  0.00    -0.022 A 
ATOM     28  C   UNK d   0     -18.567 -10.274 -16.403  0.00  0.00     0.042 A 
ATOM     29  H   UNK d   0     -18.950 -10.060 -14.247  0.00  0.00     0.166 HD
ATOM     30  C   UNK d   0     -18.179  -9.012 -16.879  0.00  0.00     0.062 C 
ATOM     31  C   UNK d   0     -18.646 -11.343 -17.326  0.00  0.00    -0.013 A 
ATOM     32  C   UNK d   0     -17.342  -8.089 -16.272  0.00  0.00     0.066 A 
BRANCH   8  33
ATOM     33  C   UNK d   0     -15.274  -5.121 -15.612  0.00  0.00     0.151 C 
BRANCH  33  34
ATOM     34  C   UNK d   0     -15.920  -4.103 -14.765  0.00  0.00     0.143 C 
ATOM     35  O   UNK d   0     -15.611  -3.979 -13.571  0.00  0.00    -0.650 OA
BRANCH  34  36
ATOM     36  O   UNK d   0     -16.880  -3.281 -15.309  0.00  0.00    -0.776 OA
ATOM     37  H   UNK d   0     -17.471  -2.684 -14.715  0.00  0.00     0.167 HD
ENDBRANCH  34  36
ENDBRANCH  33  34
ENDBRANCH   8  33
BRANCH  31  38
ATOM     38  C   UNK d   0     -18.353 -11.326 -18.809  0.00  0.00     0.151 C 
BRANCH  38  39
ATOM     39  C   UNK d   0     -16.949 -11.131 -19.101  0.00  0.00     0.143 C 
ATOM     40  O   UNK d   0     -16.559 -10.489 -20.092  0.00  0.00    -0.650 OA
BRANCH  39  41
ATOM     41  O   UNK d   0     -15.989 -11.678 -18.251  0.00  0.00    -0.776 OA
ATOM     42  H   UNK d   0     -15.074 -11.215 -18.230  0.00  0.00     0.167 HD
ENDBRANCH  39  41
ENDBRANCH  38  39
ENDBRANCH  31  38
BRANCH  27  43
ATOM     43  C   UNK d   0     -19.249 -13.794 -17.191  0.00  0.00     0.052 C 
BRANCH  43  44
ATOM     44  C   UNK d   0     -20.622 -13.989 -17.747  0.00  0.00     0.115 C 
BRANCH  44  45
ATOM     45  C   UNK d   0     -21.264 -15.052 -16.929  0.00  0.00     0.139 C 
ATOM     46  O   UNK d   0     -21.942 -14.702 -15.932  0.00  0.00    -0.650 OA
BRANCH  45  47
ATOM     47  O   UNK d   0     -21.149 -16.393 -17.224  0.00  0.00    -0.776 OA
ATOM     48  H   UNK d   0     -21.165 -16.758 -18.190  0.00  0.00     0.167 HD
ENDBRANCH  45  47
ENDBRANCH  44  45
ENDBRANCH  43  44
ENDBRANCH  27  43
BRANCH  24  49
ATOM     49  C   UNK d   0     -20.037 -15.202 -11.894  0.00  0.00     0.052 C 
BRANCH  49  50
ATOM     50  C   UNK d   0     -21.480 -14.848 -11.639  0.00  0.00     0.115 C 
BRANCH  50  51
ATOM     51  C   UNK d   0     -22.128 -15.482 -10.500  0.00  0.00     0.139 C 
ATOM     52  O   UNK d   0     -22.199 -16.727 -10.369  0.00  0.00    -0.650 OA
BRANCH  51  53
ATOM     53  O   UNK d   0     -22.700 -14.697  -9.510  0.00  0.00    -0.776 OA
ATOM     54  H   UNK d   0     -23.407 -15.108  -8.927  0.00  0.00     0.167 HD
ENDBRANCH  51  53
ENDBRANCH  50  51
ENDBRANCH  49  50
ENDBRANCH  24  49
BRANCH  21  55
ATOM     55  C   UNK d   0     -18.231 -14.233  -9.582  0.00  0.00     0.151 C 
BRANCH  55  56
ATOM     56  C   UNK d   0     -16.936 -14.927  -9.494  0.00  0.00     0.143 C 
ATOM     57  O   UNK d   0     -16.542 -15.733 -10.359  0.00  0.00    -0.650 OA
BRANCH  56  58
ATOM     58  O   UNK d   0     -16.130 -14.658  -8.389  0.00  0.00    -0.776 OA
ATOM     59  H   UNK d   0     -15.296 -14.077  -8.588  0.00  0.00     0.167 HD
ENDBRANCH  56  58
ENDBRANCH  55  56
ENDBRANCH  21  55
BRANCH  18  60
ATOM     60  C   UNK d   0     -16.664  -9.153  -8.846  0.00  0.00     0.151 C 
BRANCH  60  61
ATOM     61  C   UNK d   0     -15.368  -9.372  -8.186  0.00  0.00     0.143 C 
ATOM     62  O   UNK d   0     -14.608  -8.512  -7.739  0.00  0.00    -0.650 OA
BRANCH  61  63
ATOM     63  O   UNK d   0     -14.976 -10.727  -8.064  0.00  0.00    -0.776 OA
ATOM     64  H   UNK d   0     -14.006 -10.989  -8.081  0.00  0.00     0.167 HD
ENDBRANCH  61  63
ENDBRANCH  60  61
ENDBRANCH  18  60
BRANCH  14  65
ATOM     65  C   UNK d   0     -15.659  -6.757 -10.414  0.00  0.00     0.052 C 
BRANCH  65  66
ATOM     66  C   UNK d   0     -14.316  -6.234 -10.783  0.00  0.00     0.115 C 
BRANCH  66  67
ATOM     67  C   UNK d   0     -13.138  -6.948 -10.379  0.00  0.00     0.139 C 
ATOM     68  O   UNK d   0     -12.309  -6.365  -9.587  0.00  0.00    -0.650 OA
BRANCH  67  69
ATOM     69  O   UNK d   0     -12.756  -8.239 -10.742  0.00  0.00    -0.776 OA
ATOM     70  H   UNK d   0     -12.411  -8.349 -11.707  0.00  0.00     0.167 HD
ENDBRANCH  67  69
ENDBRANCH  66  67
ENDBRANCH  65  66
ENDBRANCH  14  65
ENDBRANCH   6   7
ENDBRANCH   5   6
ENDBRANCH   2   5
TORSDOF 28
ENDMDL
MODEL 17
REMARK VINA RESULT:      -8.0      2.461      7.595
REMARK  28 active torsions:
REMARK  status: ('A' for Active; 'I' for Inactive)
REMARK    1  A    between atoms: C_2  and  O_3 
REMARK    2  A    between atoms: C_2  and  C_4 
REMARK    3  A    between atoms: C_4  and  C_5 
REMARK    4  A    between atoms: C_5  and  C_6 
REMARK    5  A    between atoms: C_7  and  C_8 
REMARK    6  A    between atoms: C_8  and  C_9 
REMARK    7  A    between atoms: C_9  and  O_11 
REMARK    8  A    between atoms: C_28  and  C_29 
REMARK    9  A    between atoms: C_29  and  C_30 
REMARK   10  A    between atoms: C_30  and  O_32 
REMARK   11  A    between atoms: C_33  and  C_34 
REMARK   12  A    between atoms: C_34  and  C_35 
REMARK   13  A    between atoms: C_35  and  C_36 
REMARK   14  A    between atoms: C_36  and  O_38 
REMARK   15  A    between atoms: C_39  and  C_40 
REMARK   16  A    between atoms: C_40  and  C_41 
REMARK   17  A    between atoms: C_41  and  C_42 
REMARK   18  A    between atoms: C_42  and  O_44 
REMARK   19  A    between atoms: C_45  and  C_46 
REMARK   20  A    between atoms: C_46  and  C_47 
REMARK   21  A    between atoms: C_47  and  O_49 
REMARK   22  A    between atoms: C_50  and  C_51 
REMARK   23  A    between atoms: C_51  and  C_52 
REMARK   24  A    between atoms: C_52  and  O_54 
REMARK   25  A    between atoms: C_55  and  C_56 
REMARK   26  A    between atoms: C_56  and  C_57 
REMARK   27  A    between atoms: C_57  and  C_58 
REMARK   28  A    between atoms: C_58  and  O_60 
ROOT
ATOM      1  O   UNK d   0     -17.754 -16.652  -9.288  0.00  0.00    -0.650 OA
ATOM      2  C   UNK d   0     -16.595 -16.291  -8.984  0.00  0.00     0.139 C 
ENDROOT
BRANCH   2   3
ATOM      3  O   UNK d   0     -15.521 -16.991  -9.479  0.00  0.00    -0.776 OA
ATOM      4  H   UNK d   0     -14.596 -16.561  -9.545  0.00  0.00     0.167 HD
ENDBRANCH   2   3
BRANCH   2   5
ATOM      5  C   UNK d   0     -16.386 -15.114  -8.094  0.00  0.00     0.115 C 
BRANCH   5   6
ATOM      6  C   UNK d   0     -17.578 -14.198  -8.159  0.00  0.00     0.052 C 
BRANCH   6   7
ATOM      7  C   UNK d   0     -17.372 -13.042  -9.108  0.00  0.00    -0.020 A 
ATOM      8  C   UNK d   0     -16.677 -11.953  -8.900  0.00  0.00    -0.011 A 
ATOM      9  C   UNK d   0     -16.775 -11.129 -10.093  0.00  0.00     0.067 A 
ATOM     10  C   UNK d   0     -16.264  -9.891 -10.514  0.00  0.00     0.062 C 
ATOM     11  N   UNK d   0     -17.554 -11.790 -10.975  0.00  0.00    -0.248 NA
ATOM     12  C   UNK d   0     -16.243  -9.381 -11.816  0.00  0.00     0.041 A 
ATOM     13  N   UNK d   0     -17.177  -9.387 -12.786  0.00  0.00    -0.355 N 
ATOM     14  C   UNK d   0     -15.060  -8.791 -12.297  0.00  0.00    -0.022 A 
ATOM     15  C   UNK d   0     -16.615  -8.823 -13.872  0.00  0.00     0.042 A 
ATOM     16  H   UNK d   0     -18.220  -9.764 -12.698  0.00  0.00     0.166 HD
ATOM     17  C   UNK d   0     -17.147  -8.579 -15.153  0.00  0.00     0.062 C 
ATOM     18  C   UNK d   0     -15.287  -8.437 -13.604  0.00  0.00    -0.013 A 
ATOM     19  C   UNK d   0     -17.894  -9.410 -15.949  0.00  0.00     0.067 A 
ATOM     20  N   UNK d   0     -18.361 -10.528 -15.387  0.00  0.00    -0.248 NA
ATOM     21  C   UNK d   0     -18.335  -9.411 -17.334  0.00  0.00    -0.011 A 
ATOM     22  C   UNK d   0     -19.072 -11.261 -16.304  0.00  0.00     0.066 A 
ATOM     23  C   UNK d   0     -19.648 -12.435 -15.842  0.00  0.00     0.062 C 
ATOM     24  C   UNK d   0     -19.020 -10.500 -17.537  0.00  0.00    -0.020 A 
ATOM     25  C   UNK d   0     -19.669 -12.923 -14.526  0.00  0.00     0.041 A 
ATOM     26  N   UNK d   0     -18.735 -12.931 -13.567  0.00  0.00    -0.355 N 
ATOM     27  C   UNK d   0     -20.858 -13.511 -14.043  0.00  0.00    -0.022 A 
ATOM     28  C   UNK d   0     -19.290 -13.501 -12.486  0.00  0.00     0.042 A 
ATOM     29  H   UNK d   0     -17.684 -12.561 -13.660  0.00  0.00     0.166 HD
ATOM     30  C   UNK d   0     -18.770 -13.758 -11.208  0.00  0.00     0.062 C 
ATOM     31  C   UNK d   0     -20.628 -13.879 -12.753  0.00  0.00    -0.013 A 
ATOM     32  C   UNK d   0     -17.945 -12.949 -10.443  0.00  0.00     0.066 A 
BRANCH   8  33
ATOM     33  C   UNK d   0     -15.926 -11.601  -7.681  0.00  0.00     0.151 C 
BRANCH  33  34
ATOM     34  C   UNK d   0     -16.656 -10.659  -6.813  0.00  0.00     0.143 C 
ATOM     35  O   UNK d   0     -17.895 -10.631  -6.805  0.00  0.00    -0.650 OA
BRANCH  34  36
ATOM     36  O   UNK d   0     -15.949  -9.800  -6.004  0.00  0.00    -0.776 OA
ATOM     37  H   UNK d   0     -16.394  -8.970  -5.589  0.00  0.00     0.167 HD
ENDBRANCH  34  36
ENDBRANCH  33  34
ENDBRANCH   8  33
BRANCH  31  38
ATOM     38  C   UNK d   0     -21.620 -14.537 -11.823  0.00  0.00     0.151 C 
BRANCH  38  39
ATOM     39  C   UNK d   0     -21.732 -15.964 -12.040  0.00  0.00     0.143 C 
ATOM     40  O   UNK d   0     -20.779 -16.652 -12.446  0.00  0.00    -0.650 OA
BRANCH  39  41
ATOM     41  O   UNK d   0     -22.946 -16.603 -11.789  0.00  0.00    -0.776 OA
ATOM     42  H   UNK d   0     -22.954 -17.299 -11.037  0.00  0.00     0.167 HD
ENDBRANCH  39  41
ENDBRANCH  38  39
ENDBRANCH  31  38
BRANCH  27  43
ATOM     43  C   UNK d   0     -22.173 -13.732 -14.748  0.00  0.00     0.052 C 
BRANCH  43  44
ATOM     44  C   UNK d   0     -23.250 -12.799 -14.296  0.00  0.00     0.115 C 
BRANCH  44  45
ATOM     45  C   UNK d   0     -22.991 -11.497 -14.964  0.00  0.00     0.139 C 
ATOM     46  O   UNK d   0     -22.566 -10.546 -14.262  0.00  0.00    -0.650 OA
BRANCH  45  47
ATOM     47  O   UNK d   0     -23.191 -11.296 -16.313  0.00  0.00    -0.776 OA
ATOM     48  H   UNK d   0     -24.131 -11.268 -16.741  0.00  0.00     0.167 HD
ENDBRANCH  45  47
ENDBRANCH  44  45
ENDBRANCH  43  44
ENDBRANCH  27  43
BRANCH  24  49
ATOM     49  C   UNK d   0     -19.685 -10.886 -18.793  0.00  0.00     0.052 C 
BRANCH  49  50
ATOM     50  C   UNK d   0     -19.179 -12.226 -19.264  0.00  0.00     0.115 C 
BRANCH  50  51
ATOM     51  C   UNK d   0     -17.753 -12.339 -19.538  0.00  0.00     0.139 C 
ATOM     52  O   UNK d   0     -16.923 -12.696 -18.669  0.00  0.00    -0.650 OA
BRANCH  51  53
ATOM     53  O   UNK d   0     -17.272 -12.043 -20.805  0.00  0.00    -0.776 OA
ATOM     54  H   UNK d   0     -17.746 -11.337 -21.340  0.00  0.00     0.167 HD
ENDBRANCH  51  53
ENDBRANCH  50  51
ENDBRANCH  49  50
ENDBRANCH  24  49
BRANCH  21  55
ATOM     55  C   UNK d   0     -18.028  -8.324 -18.309  0.00  0.00     0.151 C 
BRANCH  55  56
ATOM     56  C   UNK d   0     -17.124  -8.778 -19.377  0.00  0.00     0.143 C 
ATOM     57  O   UNK d   0     -17.247  -8.419 -20.564  0.00  0.00    -0.650 OA
BRANCH  56  58
ATOM     58  O   UNK d   0     -16.092  -9.648 -19.027  0.00  0.00    -0.776 OA
ATOM     59  H   UNK d   0     -15.908 -10.404 -19.711  0.00  0.00     0.167 HD
ENDBRANCH  56  58
ENDBRANCH  55  56
ENDBRANCH  21  55
BRANCH  18  60
ATOM     60  C   UNK d   0     -14.277  -7.777 -14.509  0.00  0.00     0.151 C 
BRANCH  60  61
ATOM     61  C   UNK d   0     -14.474  -6.328 -14.345  0.00  0.00     0.143 C 
ATOM     62  O   UNK d   0     -13.772  -5.427 -14.805  0.00  0.00    -0.650 OA
BRANCH  61  63
ATOM     63  O   UNK d   0     -15.598  -5.957 -13.569  0.00  0.00    -0.776 OA
ATOM     64  H   UNK d   0     -15.653  -5.053 -13.135  0.00  0.00     0.167 HD
ENDBRANCH  61  63
ENDBRANCH  60  61
ENDBRANCH  18  60
BRANCH  14  65
ATOM     65  C   UNK d   0     -13.777  -8.452 -11.593  0.00  0.00     0.052 C 
BRANCH  65  66
ATOM     66  C   UNK d   0     -13.840  -7.159 -10.860  0.00  0.00     0.115 C 
BRANCH  66  67
ATOM     67  C   UNK d   0     -13.226  -7.043  -9.567  0.00  0.00     0.139 C 
ATOM     68  O   UNK d   0     -13.984  -6.997  -8.529  0.00  0.00    -0.650 OA
BRANCH  67  69
ATOM     69  O   UNK d   0     -11.865  -6.971  -9.273  0.00  0.00    -0.776 OA
ATOM     70  H   UNK d   0     -11.580  -7.372  -8.368  0.00  0.00     0.167 HD
ENDBRANCH  67  69
ENDBRANCH  66  67
ENDBRANCH  65  66
ENDBRANCH  14  65
ENDBRANCH   6   7
ENDBRANCH   5   6
ENDBRANCH   2   5
TORSDOF 28
ENDMDL
MODEL 18
REMARK VINA RESULT:      -7.9      2.624      3.600
REMARK  28 active torsions:
REMARK  status: ('A' for Active; 'I' for Inactive)
REMARK    1  A    between atoms: C_2  and  O_3 
REMARK    2  A    between atoms: C_2  and  C_4 
REMARK    3  A    between atoms: C_4  and  C_5 
REMARK    4  A    between atoms: C_5  and  C_6 
REMARK    5  A    between atoms: C_7  and  C_8 
REMARK    6  A    between atoms: C_8  and  C_9 
REMARK    7  A    between atoms: C_9  and  O_11 
REMARK    8  A    between atoms: C_28  and  C_29 
REMARK    9  A    between atoms: C_29  and  C_30 
REMARK   10  A    between atoms: C_30  and  O_32 
REMARK   11  A    between atoms: C_33  and  C_34 
REMARK   12  A    between atoms: C_34  and  C_35 
REMARK   13  A    between atoms: C_35  and  C_36 
REMARK   14  A    between atoms: C_36  and  O_38 
REMARK   15  A    between atoms: C_39  and  C_40 
REMARK   16  A    between atoms: C_40  and  C_41 
REMARK   17  A    between atoms: C_41  and  C_42 
REMARK   18  A    between atoms: C_42  and  O_44 
REMARK   19  A    between atoms: C_45  and  C_46 
REMARK   20  A    between atoms: C_46  and  C_47 
REMARK   21  A    between atoms: C_47  and  O_49 
REMARK   22  A    between atoms: C_50  and  C_51 
REMARK   23  A    between atoms: C_51  and  C_52 
REMARK   24  A    between atoms: C_52  and  O_54 
REMARK   25  A    between atoms: C_55  and  C_56 
REMARK   26  A    between atoms: C_56  and  C_57 
REMARK   27  A    between atoms: C_57  and  C_58 
REMARK   28  A    between atoms: C_58  and  O_60 
ROOT
ATOM      1  O   UNK d   0     -11.886  -7.512 -12.266  0.00  0.00    -0.650 OA
ATOM      2  C   UNK d   0     -13.070  -7.698 -11.908  0.00  0.00     0.139 C 
ENDROOT
BRANCH   2   3
ATOM      3  O   UNK d   0     -13.327  -8.493 -10.817  0.00  0.00    -0.776 OA
ATOM      4  H   UNK d   0     -12.569  -8.948 -10.305  0.00  0.00     0.167 HD
ENDBRANCH   2   3
BRANCH   2   5
ATOM      5  C   UNK d   0     -14.188  -7.063 -12.661  0.00  0.00     0.115 C 
BRANCH   5   6
ATOM      6  C   UNK d   0     -15.441  -7.063 -11.827  0.00  0.00     0.052 C 
BRANCH   6   7
ATOM      7  C   UNK d   0     -16.508  -7.975 -12.383  0.00  0.00    -0.020 A 
ATOM      8  C   UNK d   0     -17.338  -7.728 -13.364  0.00  0.00    -0.011 A 
ATOM      9  C   UNK d   0     -18.185  -8.897 -13.535  0.00  0.00     0.067 A 
ATOM     10  C   UNK d   0     -19.227  -9.275 -14.396  0.00  0.00     0.062 C 
ATOM     11  N   UNK d   0     -17.806  -9.805 -12.611  0.00  0.00    -0.248 NA
ATOM     12  C   UNK d   0     -19.741 -10.561 -14.590  0.00  0.00     0.041 A 
ATOM     13  N   UNK d   0     -20.038 -11.539 -13.713  0.00  0.00    -0.355 N 
ATOM     14  C   UNK d   0     -19.967 -11.013 -15.903  0.00  0.00    -0.022 A 
ATOM     15  C   UNK d   0     -20.438 -12.602 -14.436  0.00  0.00     0.042 A 
ATOM     16  H   UNK d   0     -19.983 -11.473 -12.604  0.00  0.00     0.166 HD
ATOM     17  C   UNK d   0     -20.862 -13.881 -14.022  0.00  0.00     0.062 C 
ATOM     18  C   UNK d   0     -20.407 -12.311 -15.813  0.00  0.00    -0.013 A 
ATOM     19  C   UNK d   0     -20.311 -14.708 -13.077  0.00  0.00     0.067 A 
ATOM     20  N   UNK d   0     -19.366 -14.184 -12.292  0.00  0.00    -0.248 NA
ATOM     21  C   UNK d   0     -20.475 -16.097 -12.680  0.00  0.00    -0.011 A 
ATOM     22  C   UNK d   0     -18.900 -15.130 -11.411  0.00  0.00     0.066 A 
ATOM     23  C   UNK d   0     -17.937 -14.708 -10.507  0.00  0.00     0.062 C 
ATOM     24  C   UNK d   0     -19.644 -16.338 -11.708  0.00  0.00    -0.020 A 
ATOM     25  C   UNK d   0     -17.443 -13.408 -10.319  0.00  0.00     0.041 A 
ATOM     26  N   UNK d   0     -17.134 -12.441 -11.192  0.00  0.00    -0.355 N 
ATOM     27  C   UNK d   0     -17.221 -12.953  -9.001  0.00  0.00    -0.022 A 
ATOM     28  C   UNK d   0     -16.726 -11.383 -10.474  0.00  0.00     0.042 A 
ATOM     29  H   UNK d   0     -17.179 -12.513 -12.307  0.00  0.00     0.166 HD
ATOM     30  C   UNK d   0     -16.293 -10.109 -10.873  0.00  0.00     0.062 C 
ATOM     31  C   UNK d   0     -16.768 -11.673  -9.090  0.00  0.00    -0.013 A 
ATOM     32  C   UNK d   0     -16.801  -9.312 -11.886  0.00  0.00     0.066 A 
BRANCH   8  33
ATOM     33  C   UNK d   0     -17.420  -6.492 -14.164  0.00  0.00     0.151 C 
BRANCH  33  34
ATOM     34  C   UNK d   0     -17.151  -6.720 -15.595  0.00  0.00     0.143 C 
ATOM     35  O   UNK d   0     -16.021  -7.044 -15.987  0.00  0.00    -0.650 OA
BRANCH  34  36
ATOM     36  O   UNK d   0     -18.171  -6.567 -16.506  0.00  0.00    -0.776 OA
ATOM     37  H   UNK d   0     -19.156  -6.554 -16.208  0.00  0.00     0.167 HD
ENDBRANCH  34  36
ENDBRANCH  33  34
ENDBRANCH   8  33
BRANCH  31  38
ATOM     38  C   UNK d   0     -16.408 -10.773  -7.931  0.00  0.00     0.151 C 
BRANCH  38  39
ATOM     39  C   UNK d   0     -17.536 -10.010  -7.441  0.00  0.00     0.143 C 
ATOM     40  O   UNK d   0     -18.276 -10.425  -6.532  0.00  0.00    -0.650 OA
BRANCH  39  41
ATOM     41  O   UNK d   0     -17.815  -8.762  -7.999  0.00  0.00    -0.776 OA
ATOM     42  H   UNK d   0     -18.609  -8.713  -8.646  0.00  0.00     0.167 HD
ENDBRANCH  39  41
ENDBRANCH  38  39
ENDBRANCH  31  38
BRANCH  27  43
ATOM     43  C   UNK d   0     -17.417 -13.677  -7.692  0.00  0.00     0.052 C 
BRANCH  43  44
ATOM     44  C   UNK d   0     -16.369 -14.707  -7.424  0.00  0.00     0.115 C 
BRANCH  44  45
ATOM     45  C   UNK d   0     -17.010 -15.758  -6.592  0.00  0.00     0.139 C 
ATOM     46  O   UNK d   0     -16.280 -16.432  -5.823  0.00  0.00    -0.650 OA
BRANCH  45  47
ATOM     47  O   UNK d   0     -18.363 -16.017  -6.627  0.00  0.00    -0.776 OA
ATOM     48  H   UNK d   0     -18.753 -16.971  -6.557  0.00  0.00     0.167 HD
ENDBRANCH  45  47
ENDBRANCH  44  45
ENDBRANCH  43  44
ENDBRANCH  27  43
BRANCH  24  49
ATOM     49  C   UNK d   0     -19.504 -17.612 -10.981  0.00  0.00     0.052 C 
BRANCH  49  50
ATOM     50  C   UNK d   0     -20.060 -17.483  -9.586  0.00  0.00     0.115 C 
BRANCH  50  51
ATOM     51  C   UNK d   0     -21.510 -17.477  -9.447  0.00  0.00     0.139 C 
ATOM     52  O   UNK d   0     -22.194 -18.528  -9.440  0.00  0.00    -0.650 OA
BRANCH  51  53
ATOM     53  O   UNK d   0     -22.182 -16.271  -9.317  0.00  0.00    -0.776 OA
ATOM     54  H   UNK d   0     -22.597 -15.867 -10.138  0.00  0.00     0.167 HD
ENDBRANCH  51  53
ENDBRANCH  50  51
ENDBRANCH  49  50
ENDBRANCH  24  49
BRANCH  21  55
ATOM     55  C   UNK d   0     -21.449 -17.036 -13.312  0.00  0.00     0.151 C 
BRANCH  55  56
ATOM     56  C   UNK d   0     -20.874 -17.726 -14.477  0.00  0.00     0.143 C 
ATOM     57  O   UNK d   0     -20.372 -18.865 -14.406  0.00  0.00    -0.650 OA
BRANCH  56  58
ATOM     58  O   UNK d   0     -20.900 -17.063 -15.702  0.00  0.00    -0.776 OA
ATOM     59  H   UNK d   0     -21.777 -16.547 -15.900  0.00  0.00     0.167 HD
ENDBRANCH  56  58
ENDBRANCH  55  56
ENDBRANCH  21  55
BRANCH  18  60
ATOM     60  C   UNK d   0     -20.763 -13.186 -16.989  0.00  0.00     0.151 C 
BRANCH  60  61
ATOM     61  C   UNK d   0     -19.548 -13.955 -17.301  0.00  0.00     0.143 C 
ATOM     62  O   UNK d   0     -18.388 -13.543 -17.300  0.00  0.00    -0.650 OA
BRANCH  61  63
ATOM     63  O   UNK d   0     -19.765 -15.314 -17.636  0.00  0.00    -0.776 OA
ATOM     64  H   UNK d   0     -19.442 -15.690 -18.510  0.00  0.00     0.167 HD
ENDBRANCH  61  63
ENDBRANCH  60  61
ENDBRANCH  18  60
BRANCH  14  65
ATOM     65  C   UNK d   0     -19.894 -10.288 -17.216  0.00  0.00     0.052 C 
BRANCH  65  66
ATOM     66  C   UNK d   0     -18.508 -10.180 -17.745  0.00  0.00     0.115 C 
BRANCH  66  67
ATOM     67  C   UNK d   0     -18.230  -9.296 -18.842  0.00  0.00     0.139 C 
ATOM     68  O   UNK d   0     -17.639  -9.772 -19.879  0.00  0.00    -0.650 OA
BRANCH  67  69
ATOM     69  O   UNK d   0     -18.527  -7.937 -18.938  0.00  0.00    -0.776 OA
ATOM     70  H   UNK d   0     -18.349  -7.378 -18.090  0.00  0.00     0.167 HD
ENDBRANCH  67  69
ENDBRANCH  66  67
ENDBRANCH  65  66
ENDBRANCH  14  65
ENDBRANCH   6   7
ENDBRANCH   5   6
ENDBRANCH   2   5
TORSDOF 28
ENDMDL
MODEL 19
REMARK VINA RESULT:      -7.9      3.179     10.460
REMARK  28 active torsions:
REMARK  status: ('A' for Active; 'I' for Inactive)
REMARK    1  A    between atoms: C_2  and  O_3 
REMARK    2  A    between atoms: C_2  and  C_4 
REMARK    3  A    between atoms: C_4  and  C_5 
REMARK    4  A    between atoms: C_5  and  C_6 
REMARK    5  A    between atoms: C_7  and  C_8 
REMARK    6  A    between atoms: C_8  and  C_9 
REMARK    7  A    between atoms: C_9  and  O_11 
REMARK    8  A    between atoms: C_28  and  C_29 
REMARK    9  A    between atoms: C_29  and  C_30 
REMARK   10  A    between atoms: C_30  and  O_32 
REMARK   11  A    between atoms: C_33  and  C_34 
REMARK   12  A    between atoms: C_34  and  C_35 
REMARK   13  A    between atoms: C_35  and  C_36 
REMARK   14  A    between atoms: C_36  and  O_38 
REMARK   15  A    between atoms: C_39  and  C_40 
REMARK   16  A    between atoms: C_40  and  C_41 
REMARK   17  A    between atoms: C_41  and  C_42 
REMARK   18  A    between atoms: C_42  and  O_44 
REMARK   19  A    between atoms: C_45  and  C_46 
REMARK   20  A    between atoms: C_46  and  C_47 
REMARK   21  A    between atoms: C_47  and  O_49 
REMARK   22  A    between atoms: C_50  and  C_51 
REMARK   23  A    between atoms: C_51  and  C_52 
REMARK   24  A    between atoms: C_52  and  O_54 
REMARK   25  A    between atoms: C_55  and  C_56 
REMARK   26  A    between atoms: C_56  and  C_57 
REMARK   27  A    between atoms: C_57  and  C_58 
REMARK   28  A    between atoms: C_58  and  O_60 
ROOT
ATOM      1  O   UNK d   0     -19.598  -7.394 -22.798  0.00  0.00    -0.650 OA
ATOM      2  C   UNK d   0     -19.257  -6.586 -21.905  0.00  0.00     0.139 C 
ENDROOT
BRANCH   2   3
ATOM      3  O   UNK d   0     -20.091  -5.542 -21.588  0.00  0.00    -0.776 OA
ATOM      4  H   UNK d   0     -19.728  -4.594 -21.469  0.00  0.00     0.167 HD
ENDBRANCH   2   3
BRANCH   2   5
ATOM      5  C   UNK d   0     -17.958  -6.759 -21.196  0.00  0.00     0.115 C 
BRANCH   5   6
ATOM      6  C   UNK d   0     -17.744  -8.209 -20.853  0.00  0.00     0.052 C 
BRANCH   6   7
ATOM      7  C   UNK d   0     -18.135  -8.533 -19.431  0.00  0.00    -0.020 A 
ATOM      8  C   UNK d   0     -19.030  -9.397 -19.026  0.00  0.00    -0.011 A 
ATOM      9  C   UNK d   0     -19.063  -9.356 -17.574  0.00  0.00     0.067 A 
ATOM     10  C   UNK d   0     -19.763 -10.025 -16.557  0.00  0.00     0.062 C 
ATOM     11  N   UNK d   0     -18.161  -8.433 -17.178  0.00  0.00    -0.248 NA
ATOM     12  C   UNK d   0     -19.459 -10.046 -15.192  0.00  0.00     0.041 A 
ATOM     13  N   UNK d   0     -19.071  -9.066 -14.355  0.00  0.00    -0.355 N 
ATOM     14  C   UNK d   0     -19.487 -11.275 -14.508  0.00  0.00    -0.022 A 
ATOM     15  C   UNK d   0     -18.844  -9.642 -13.159  0.00  0.00     0.042 A 
ATOM     16  H   UNK d   0     -18.978  -7.984 -14.599  0.00  0.00     0.166 HD
ATOM     17  C   UNK d   0     -18.423  -9.078 -11.938  0.00  0.00     0.062 C 
ATOM     18  C   UNK d   0     -19.094 -11.027 -13.216  0.00  0.00    -0.013 A 
ATOM     19  C   UNK d   0     -17.425  -8.166 -11.709  0.00  0.00     0.067 A 
ATOM     20  N   UNK d   0     -16.894  -7.568 -12.778  0.00  0.00    -0.248 NA
ATOM     21  C   UNK d   0     -16.731  -7.649 -10.541  0.00  0.00    -0.011 A 
ATOM     22  C   UNK d   0     -15.902  -6.699 -12.395  0.00  0.00     0.066 A 
ATOM     23  C   UNK d   0     -15.288  -5.979 -13.409  0.00  0.00     0.062 C 
ATOM     24  C   UNK d   0     -15.838  -6.794 -10.950  0.00  0.00    -0.020 A 
ATOM     25  C   UNK d   0     -15.617  -5.962 -14.773  0.00  0.00     0.041 A 
ATOM     26  N   UNK d   0     -15.988  -6.939 -15.609  0.00  0.00    -0.355 N 
ATOM     27  C   UNK d   0     -15.593  -4.727 -15.458  0.00  0.00    -0.022 A 
ATOM     28  C   UNK d   0     -16.206  -6.368 -16.804  0.00  0.00     0.042 A 
ATOM     29  H   UNK d   0     -16.071  -8.026 -15.365  0.00  0.00     0.166 HD
ATOM     30  C   UNK d   0     -16.616  -6.919 -18.029  0.00  0.00     0.062 C 
ATOM     31  C   UNK d   0     -15.965  -4.975 -16.744  0.00  0.00    -0.013 A 
ATOM     32  C   UNK d   0     -17.568  -7.902 -18.248  0.00  0.00     0.066 A 
BRANCH   8  33
ATOM     33  C   UNK d   0     -19.869 -10.265 -19.873  0.00  0.00     0.151 C 
BRANCH  33  34
ATOM     34  C   UNK d   0     -21.196  -9.684 -20.146  0.00  0.00     0.143 C 
ATOM     35  O   UNK d   0     -22.086  -9.697 -19.284  0.00  0.00    -0.650 OA
BRANCH  34  36
ATOM     36  O   UNK d   0     -21.447  -9.122 -21.377  0.00  0.00    -0.776 OA
ATOM     37  H   UNK d   0     -21.802  -9.687 -22.160  0.00  0.00     0.167 HD
ENDBRANCH  34  36
ENDBRANCH  33  34
ENDBRANCH   8  33
BRANCH  31  38
ATOM     38  C   UNK d   0     -16.098  -3.951 -17.846  0.00  0.00     0.151 C 
BRANCH  38  39
ATOM     39  C   UNK d   0     -17.474  -3.694 -18.211  0.00  0.00     0.143 C 
ATOM     40  O   UNK d   0     -17.802  -3.320 -19.352  0.00  0.00    -0.650 OA
BRANCH  39  41
ATOM     41  O   UNK d   0     -18.480  -3.867 -17.261  0.00  0.00    -0.776 OA
ATOM     42  H   UNK d   0     -19.000  -4.749 -17.295  0.00  0.00     0.167 HD
ENDBRANCH  39  41
ENDBRANCH  38  39
ENDBRANCH  31  38
BRANCH  27  43
ATOM     43  C   UNK d   0     -15.235  -3.354 -14.947  0.00  0.00     0.052 C 
BRANCH  43  44
ATOM     44  C   UNK d   0     -16.423  -2.554 -14.521  0.00  0.00     0.115 C 
BRANCH  44  45
ATOM     45  C   UNK d   0     -16.014  -1.126 -14.576  0.00  0.00     0.139 C 
ATOM     46  O   UNK d   0     -14.786  -0.863 -14.602  0.00  0.00    -0.650 OA
BRANCH  45  47
ATOM     47  O   UNK d   0     -16.922  -0.090 -14.604  0.00  0.00    -0.776 OA
ATOM     48  H   UNK d   0     -16.655   0.883 -14.829  0.00  0.00     0.167 HD
ENDBRANCH  45  47
ENDBRANCH  44  45
ENDBRANCH  43  44
ENDBRANCH  27  43
BRANCH  24  49
ATOM     49  C   UNK d   0     -14.936  -6.004 -10.094  0.00  0.00     0.052 C 
BRANCH  49  50
ATOM     50  C   UNK d   0     -15.356  -4.556 -10.086  0.00  0.00     0.115 C 
BRANCH  50  51
ATOM     51  C   UNK d   0     -16.341  -4.155  -9.091  0.00  0.00     0.139 C 
ATOM     52  O   UNK d   0     -16.489  -4.760  -8.003  0.00  0.00    -0.650 OA
BRANCH  51  53
ATOM     53  O   UNK d   0     -17.160  -3.063  -9.337  0.00  0.00    -0.776 OA
ATOM     54  H   UNK d   0     -17.958  -3.193  -9.933  0.00  0.00     0.167 HD
ENDBRANCH  51  53
ENDBRANCH  50  51
ENDBRANCH  49  50
ENDBRANCH  24  49
BRANCH  21  55
ATOM     55  C   UNK d   0     -17.035  -8.060  -9.139  0.00  0.00     0.151 C 
BRANCH  55  56
ATOM     56  C   UNK d   0     -16.406  -9.343  -8.791  0.00  0.00     0.143 C 
ATOM     57  O   UNK d   0     -17.063 -10.384  -8.590  0.00  0.00    -0.650 OA
BRANCH  56  58
ATOM     58  O   UNK d   0     -15.017  -9.378  -8.687  0.00  0.00    -0.776 OA
ATOM     59  H   UNK d   0     -14.545  -8.470  -8.845  0.00  0.00     0.167 HD
ENDBRANCH  56  58
ENDBRANCH  55  56
ENDBRANCH  21  55
BRANCH  18  60
ATOM     60  C   UNK d   0     -18.974 -12.070 -12.133  0.00  0.00     0.151 C 
BRANCH  60  61
ATOM     61  C   UNK d   0     -17.534 -12.214 -11.870  0.00  0.00     0.143 C 
ATOM     62  O   UNK d   0     -16.625 -12.224 -12.700  0.00  0.00    -0.650 OA
BRANCH  61  63
ATOM     63  O   UNK d   0     -17.182 -12.354 -10.506  0.00  0.00    -0.776 OA
ATOM     64  H   UNK d   0     -17.499 -13.141  -9.967  0.00  0.00     0.167 HD
ENDBRANCH  61  63
ENDBRANCH  60  61
ENDBRANCH  18  60
BRANCH  14  65
ATOM     65  C   UNK d   0     -19.947 -12.635 -14.952  0.00  0.00     0.052 C 
BRANCH  65  66
ATOM     66  C   UNK d   0     -21.396 -12.867 -14.707  0.00  0.00     0.115 C 
BRANCH  66  67
ATOM     67  C   UNK d   0     -21.832 -14.112 -14.139  0.00  0.00     0.139 C 
ATOM     68  O   UNK d   0     -21.555 -15.201 -14.764  0.00  0.00    -0.650 OA
BRANCH  67  69
ATOM     69  O   UNK d   0     -22.542 -14.307 -12.955  0.00  0.00    -0.776 OA
ATOM     70  H   UNK d   0     -22.979 -13.466 -12.552  0.00  0.00     0.167 HD
ENDBRANCH  67  69
ENDBRANCH  66  67
ENDBRANCH  65  66
ENDBRANCH  14  65
ENDBRANCH   6   7
ENDBRANCH   5   6
ENDBRANCH   2   5
TORSDOF 28
ENDMDL
MODEL 20
REMARK VINA RESULT:      -7.9      2.532      7.760
REMARK  28 active torsions:
REMARK  status: ('A' for Active; 'I' for Inactive)
REMARK    1  A    between atoms: C_2  and  O_3 
REMARK    2  A    between atoms: C_2  and  C_4 
REMARK    3  A    between atoms: C_4  and  C_5 
REMARK    4  A    between atoms: C_5  and  C_6 
REMARK    5  A    between atoms: C_7  and  C_8 
REMARK    6  A    between atoms: C_8  and  C_9 
REMARK    7  A    between atoms: C_9  and  O_11 
REMARK    8  A    between atoms: C_28  and  C_29 
REMARK    9  A    between atoms: C_29  and  C_30 
REMARK   10  A    between atoms: C_30  and  O_32 
REMARK   11  A    between atoms: C_33  and  C_34 
REMARK   12  A    between atoms: C_34  and  C_35 
REMARK   13  A    between atoms: C_35  and  C_36 
REMARK   14  A    between atoms: C_36  and  O_38 
REMARK   15  A    between atoms: C_39  and  C_40 
REMARK   16  A    between atoms: C_40  and  C_41 
REMARK   17  A    between atoms: C_41  and  C_42 
REMARK   18  A    between atoms: C_42  and  O_44 
REMARK   19  A    between atoms: C_45  and  C_46 
REMARK   20  A    between atoms: C_46  and  C_47 
REMARK   21  A    between atoms: C_47  and  O_49 
REMARK   22  A    between atoms: C_50  and  C_51 
REMARK   23  A    between atoms: C_51  and  C_52 
REMARK   24  A    between atoms: C_52  and  O_54 
REMARK   25  A    between atoms: C_55  and  C_56 
REMARK   26  A    between atoms: C_56  and  C_57 
REMARK   27  A    between atoms: C_57  and  C_58 
REMARK   28  A    between atoms: C_58  and  O_60 
ROOT
ATOM      1  O   UNK d   0     -22.802 -11.597 -16.538  0.00  0.00    -0.650 OA
ATOM      2  C   UNK d   0     -22.606 -12.167 -15.442  0.00  0.00     0.139 C 
ENDROOT
BRANCH   2   3
ATOM      3  O   UNK d   0     -22.618 -11.424 -14.286  0.00  0.00    -0.776 OA
ATOM      4  H   UNK d   0     -21.776 -11.321 -13.716  0.00  0.00     0.167 HD
ENDBRANCH   2   3
BRANCH   2   5
ATOM      5  C   UNK d   0     -22.362 -13.636 -15.395  0.00  0.00     0.115 C 
BRANCH   5   6
ATOM      6  C   UNK d   0     -21.234 -14.004 -16.320  0.00  0.00     0.052 C 
BRANCH   6   7
ATOM      7  C   UNK d   0     -20.054 -13.069 -16.196  0.00  0.00    -0.020 A 
ATOM      8  C   UNK d   0     -19.430 -12.440 -17.159  0.00  0.00    -0.011 A 
ATOM      9  C   UNK d   0     -18.356 -11.665 -16.561  0.00  0.00     0.067 A 
ATOM     10  C   UNK d   0     -17.364 -10.785 -17.022  0.00  0.00     0.062 C 
ATOM     11  N   UNK d   0     -18.395 -11.886 -15.231  0.00  0.00    -0.248 NA
ATOM     12  C   UNK d   0     -16.586  -9.910 -16.257  0.00  0.00     0.041 A 
ATOM     13  N   UNK d   0     -15.963 -10.080 -15.075  0.00  0.00    -0.355 N 
ATOM     14  C   UNK d   0     -16.417  -8.585 -16.700  0.00  0.00    -0.022 A 
ATOM     15  C   UNK d   0     -15.411  -8.895 -14.753  0.00  0.00     0.042 A 
ATOM     16  H   UNK d   0     -15.899 -11.023 -14.490  0.00  0.00     0.166 HD
ATOM     17  C   UNK d   0     -14.649  -8.518 -13.629  0.00  0.00     0.062 C 
ATOM     18  C   UNK d   0     -15.674  -7.933 -15.747  0.00  0.00    -0.013 A 
ATOM     19  C   UNK d   0     -14.872  -8.795 -12.304  0.00  0.00     0.067 A 
ATOM     20  N   UNK d   0     -15.813  -9.701 -12.025  0.00  0.00    -0.248 NA
ATOM     21  C   UNK d   0     -14.336  -8.331 -11.035  0.00  0.00    -0.011 A 
ATOM     22  C   UNK d   0     -15.933  -9.861 -10.667  0.00  0.00     0.066 A 
ATOM     23  C   UNK d   0     -16.854 -10.805 -10.236  0.00  0.00     0.062 C 
ATOM     24  C   UNK d   0     -14.965  -8.955 -10.081  0.00  0.00    -0.020 A 
ATOM     25  C   UNK d   0     -17.617 -11.683 -11.021  0.00  0.00     0.041 A 
ATOM     26  N   UNK d   0     -18.248 -11.510 -12.189  0.00  0.00    -0.355 N 
ATOM     27  C   UNK d   0     -17.782 -13.013 -10.578  0.00  0.00    -0.022 A 
ATOM     28  C   UNK d   0     -18.808 -12.688 -12.508  0.00  0.00     0.042 A 
ATOM     29  H   UNK d   0     -18.320 -10.558 -12.770  0.00  0.00     0.166 HD
ATOM     30  C   UNK d   0     -19.575 -13.074 -13.618  0.00  0.00     0.062 C 
ATOM     31  C   UNK d   0     -18.534 -13.656 -11.514  0.00  0.00    -0.013 A 
ATOM     32  C   UNK d   0     -19.395 -12.721 -14.946  0.00  0.00     0.066 A 
BRANCH   8  33
ATOM     33  C   UNK d   0     -19.740 -12.498 -18.600  0.00  0.00     0.151 C 
BRANCH  33  34
ATOM     34  C   UNK d   0     -20.088 -11.180 -19.161  0.00  0.00     0.143 C 
ATOM     35  O   UNK d   0     -19.527 -10.754 -20.180  0.00  0.00    -0.650 OA
BRANCH  34  36
ATOM     36  O   UNK d   0     -21.049 -10.415 -18.542  0.00  0.00    -0.776 OA
ATOM     37  H   UNK d   0     -22.035 -10.455 -18.835  0.00  0.00     0.167 HD
ENDBRANCH  34  36
ENDBRANCH  33  34
ENDBRANCH   8  33
BRANCH  31  38
ATOM     38  C   UNK d   0     -18.956 -15.106 -11.474  0.00  0.00     0.151 C 
BRANCH  38  39
ATOM     39  C   UNK d   0     -20.291 -15.288 -10.943  0.00  0.00     0.143 C 
ATOM     40  O   UNK d   0     -21.209 -15.797 -11.610  0.00  0.00    -0.650 OA
BRANCH  39  41
ATOM     41  O   UNK d   0     -20.571 -14.883  -9.639  0.00  0.00    -0.776 OA
ATOM     42  H   UNK d   0     -21.097 -15.540  -9.054  0.00  0.00     0.167 HD
ENDBRANCH  39  41
ENDBRANCH  38  39
ENDBRANCH  31  38
BRANCH  27  43
ATOM     43  C   UNK d   0     -17.265 -13.678  -9.327  0.00  0.00     0.052 C 
BRANCH  43  44
ATOM     44  C   UNK d   0     -16.452 -14.901  -9.601  0.00  0.00     0.115 C 
BRANCH  44  45
ATOM     45  C   UNK d   0     -16.199 -15.546  -8.286  0.00  0.00     0.139 C 
ATOM     46  O   UNK d   0     -16.219 -16.800  -8.228  0.00  0.00    -0.650 OA
BRANCH  45  47
ATOM     47  O   UNK d   0     -15.940 -14.827  -7.139  0.00  0.00    -0.776 OA
ATOM     48  H   UNK d   0     -16.512 -14.020  -6.842  0.00  0.00     0.167 HD
ENDBRANCH  45  47
ENDBRANCH  44  45
ENDBRANCH  43  44
ENDBRANCH  27  43
BRANCH  24  49
ATOM     49  C   UNK d   0     -14.710  -8.815  -8.637  0.00  0.00     0.052 C 
BRANCH  49  50
ATOM     50  C   UNK d   0     -15.683  -7.840  -8.025  0.00  0.00     0.115 C 
BRANCH  50  51
ATOM     51  C   UNK d   0     -16.837  -8.397  -7.333  0.00  0.00     0.139 C 
ATOM     52  O   UNK d   0     -16.803  -8.735  -6.126  0.00  0.00    -0.650 OA
BRANCH  51  53
ATOM     53  O   UNK d   0     -18.030  -8.572  -8.018  0.00  0.00    -0.776 OA
ATOM     54  H   UNK d   0     -18.000  -8.611  -9.022  0.00  0.00     0.167 HD
ENDBRANCH  51  53
ENDBRANCH  50  51
ENDBRANCH  49  50
ENDBRANCH  24  49
BRANCH  21  55
ATOM     55  C   UNK d   0     -13.250  -7.315 -10.909  0.00  0.00     0.151 C 
BRANCH  55  56
ATOM     56  C   UNK d   0     -13.779  -5.974 -10.616  0.00  0.00     0.143 C 
ATOM     57  O   UNK d   0     -13.561  -5.383  -9.541  0.00  0.00    -0.650 OA
BRANCH  56  58
ATOM     58  O   UNK d   0     -14.556  -5.355 -11.594  0.00  0.00    -0.776 OA
ATOM     59  H   UNK d   0     -14.710  -5.918 -12.450  0.00  0.00     0.167 HD
ENDBRANCH  56  58
ENDBRANCH  55  56
ENDBRANCH  21  55
BRANCH  18  60
ATOM     60  C   UNK d   0     -15.263  -6.483 -15.814  0.00  0.00     0.151 C 
BRANCH  60  61
ATOM     61  C   UNK d   0     -16.336  -5.728 -15.149  0.00  0.00     0.143 C 
ATOM     62  O   UNK d   0     -17.451  -5.467 -15.602  0.00  0.00    -0.650 OA
BRANCH  61  63
ATOM     63  O   UNK d   0     -16.028  -5.264 -13.848  0.00  0.00    -0.776 OA
ATOM     64  H   UNK d   0     -15.075  -5.151 -13.550  0.00  0.00     0.167 HD
ENDBRANCH  61  63
ENDBRANCH  60  61
ENDBRANCH  18  60
BRANCH  14  65
ATOM     65  C   UNK d   0     -16.816  -7.923 -17.988  0.00  0.00     0.052 C 
BRANCH  65  66
ATOM     66  C   UNK d   0     -15.826  -8.128 -19.079  0.00  0.00     0.115 C 
BRANCH  66  67
ATOM     67  C   UNK d   0     -16.161  -8.965 -20.196  0.00  0.00     0.139 C 
ATOM     68  O   UNK d   0     -16.083  -8.468 -21.380  0.00  0.00    -0.650 OA
BRANCH  67  69
ATOM     69  O   UNK d   0     -16.578 -10.295 -20.172  0.00  0.00    -0.776 OA
ATOM     70  H   UNK d   0     -16.229 -10.859 -19.384  0.00  0.00     0.167 HD
ENDBRANCH  67  69
ENDBRANCH  66  67
ENDBRANCH  65  66
ENDBRANCH  14  65
ENDBRANCH   6   7
ENDBRANCH   5   6
ENDBRANCH   2   5
TORSDOF 28
ENDMDL
