MODEL 1
REMARK VINA RESULT:      -9.6      0.000      0.000
REMARK  28 active torsions:
REMARK  status: ('A' for Active; 'I' for Inactive)
REMARK    1  A    between atoms: C_2  and  O_3 
REMARK    2  A    between atoms: C_2  and  C_4 
REMARK    3  A    between atoms: C_4  and  C_5 
REMARK    4  A    between atoms: C_5  and  C_6 
REMARK    5  A    between atoms: C_7  and  C_8 
REMARK    6  A    between atoms: C_8  and  C_9 
REMARK    7  A    between atoms: C_9  and  O_11 
REMARK    8  A    between atoms: C_28  and  C_29 
REMARK    9  A    between atoms: C_29  and  C_30 
REMARK   10  A    between atoms: C_30  and  O_32 
REMARK   11  A    between atoms: C_33  and  C_34 
REMARK   12  A    between atoms: C_34  and  C_35 
REMARK   13  A    between atoms: C_35  and  C_36 
REMARK   14  A    between atoms: C_36  and  O_38 
REMARK   15  A    between atoms: C_39  and  C_40 
REMARK   16  A    between atoms: C_40  and  C_41 
REMARK   17  A    between atoms: C_41  and  C_42 
REMARK   18  A    between atoms: C_42  and  O_44 
REMARK   19  A    between atoms: C_45  and  C_46 
REMARK   20  A    between atoms: C_46  and  C_47 
REMARK   21  A    between atoms: C_47  and  O_49 
REMARK   22  A    between atoms: C_50  and  C_51 
REMARK   23  A    between atoms: C_51  and  C_52 
REMARK   24  A    between atoms: C_52  and  O_54 
REMARK   25  A    between atoms: C_55  and  C_56 
REMARK   26  A    between atoms: C_56  and  C_57 
REMARK   27  A    between atoms: C_57  and  C_58 
REMARK   28  A    between atoms: C_58  and  O_60 
ROOT
ATOM      1  O   UNK d   0     -24.865  -7.355 -18.822  0.00  0.00    -0.650 OA
ATOM      2  C   UNK d   0     -25.726  -7.010 -19.662  0.00  0.00     0.139 C 
ENDROOT
BRANCH   2   3
ATOM      3  O   UNK d   0     -26.863  -6.366 -19.237  0.00  0.00    -0.776 OA
ATOM      4  H   UNK d   0     -27.061  -6.249 -18.241  0.00  0.00     0.167 HD
ENDBRANCH   2   3
BRANCH   2   5
ATOM      5  C   UNK d   0     -25.516  -7.299 -21.109  0.00  0.00     0.115 C 
BRANCH   5   6
ATOM      6  C   UNK d   0     -24.256  -8.098 -21.300  0.00  0.00     0.052 C 
BRANCH   6   7
ATOM      7  C   UNK d   0     -23.309  -7.462 -22.289  0.00  0.00    -0.020 A 
ATOM      8  C   UNK d   0     -22.418  -6.532 -22.057  0.00  0.00    -0.011 A 
ATOM      9  C   UNK d   0     -21.751  -6.231 -23.313  0.00  0.00     0.067 A 
ATOM     10  C   UNK d   0     -20.721  -5.375 -23.733  0.00  0.00     0.062 C 
ATOM     11  N   UNK d   0     -22.303  -7.020 -24.259  0.00  0.00    -0.248 NA
ATOM     12  C   UNK d   0     -20.019  -5.423 -24.942  0.00  0.00     0.041 A 
ATOM     13  N   UNK d   0     -20.442  -5.624 -26.205  0.00  0.00    -0.355 N 
ATOM     14  C   UNK d   0     -18.618  -5.304 -24.921  0.00  0.00    -0.022 A 
ATOM     15  C   UNK d   0     -19.344  -5.643 -26.984  0.00  0.00     0.042 A 
ATOM     16  H   UNK d   0     -21.497  -5.731 -26.541  0.00  0.00     0.166 HD
ATOM     17  C   UNK d   0     -19.216  -5.817 -28.377  0.00  0.00     0.062 C 
ATOM     18  C   UNK d   0     -18.181  -5.446 -26.215  0.00  0.00    -0.013 A 
ATOM     19  C   UNK d   0     -19.833  -6.730 -29.193  0.00  0.00     0.067 A 
ATOM     20  N   UNK d   0     -20.838  -7.432 -28.663  0.00  0.00    -0.248 NA
ATOM     21  C   UNK d   0     -19.671  -7.183 -30.564  0.00  0.00    -0.011 A 
ATOM     22  C   UNK d   0     -21.344  -8.312 -29.588  0.00  0.00     0.066 A 
ATOM     23  C   UNK d   0     -22.424  -9.082 -29.180  0.00  0.00     0.062 C 
ATOM     24  C   UNK d   0     -20.556  -8.112 -30.788  0.00  0.00    -0.020 A 
ATOM     25  C   UNK d   0     -23.122  -9.009 -27.965  0.00  0.00     0.041 A 
ATOM     26  N   UNK d   0     -22.701  -8.824 -26.709  0.00  0.00    -0.355 N 
ATOM     27  C   UNK d   0     -24.529  -9.124 -27.988  0.00  0.00    -0.022 A 
ATOM     28  C   UNK d   0     -23.793  -8.814 -25.928  0.00  0.00     0.042 A 
ATOM     29  H   UNK d   0     -21.640  -8.728 -26.371  0.00  0.00     0.166 HD
ATOM     30  C   UNK d   0     -23.935  -8.651 -24.541  0.00  0.00     0.062 C 
ATOM     31  C   UNK d   0     -24.962  -9.001 -26.703  0.00  0.00    -0.013 A 
ATOM     32  C   UNK d   0     -23.247  -7.784 -23.707  0.00  0.00     0.066 A 
BRANCH   8  33
ATOM     33  C   UNK d   0     -22.128  -5.888 -20.763  0.00  0.00     0.151 C 
BRANCH  33  34
ATOM     34  C   UNK d   0     -22.912  -4.657 -20.551  0.00  0.00     0.143 C 
ATOM     35  O   UNK d   0     -23.394  -4.037 -21.509  0.00  0.00    -0.650 OA
BRANCH  34  36
ATOM     36  O   UNK d   0     -23.106  -4.192 -19.271  0.00  0.00    -0.776 OA
ATOM     37  H   UNK d   0     -23.984  -3.730 -18.997  0.00  0.00     0.167 HD
ENDBRANCH  34  36
ENDBRANCH  33  34
ENDBRANCH   8  33
BRANCH  31  38
ATOM     38  C   UNK d   0     -26.399  -9.045 -26.239  0.00  0.00     0.151 C 
BRANCH  38  39
ATOM     39  C   UNK d   0     -26.997  -7.731 -26.138  0.00  0.00     0.143 C 
ATOM     40  O   UNK d   0     -27.108  -6.974 -27.118  0.00  0.00    -0.650 OA
BRANCH  39  41
ATOM     41  O   UNK d   0     -27.472  -7.286 -24.905  0.00  0.00    -0.776 OA
ATOM     42  H   UNK d   0     -28.434  -6.933 -24.880  0.00  0.00     0.167 HD
ENDBRANCH  39  41
ENDBRANCH  38  39
ENDBRANCH  31  38
BRANCH  27  43
ATOM     43  C   UNK d   0     -25.454  -9.344 -29.159  0.00  0.00     0.052 C 
BRANCH  43  44
ATOM     44  C   UNK d   0     -26.040 -10.718 -29.199  0.00  0.00     0.115 C 
BRANCH  44  45
ATOM     45  C   UNK d   0     -24.924 -11.646 -29.517  0.00  0.00     0.139 C 
ATOM     46  O   UNK d   0     -24.685 -12.581 -28.713  0.00  0.00    -0.650 OA
BRANCH  45  47
ATOM     47  O   UNK d   0     -24.151 -11.525 -30.652  0.00  0.00    -0.776 OA
ATOM     48  H   UNK d   0     -23.967 -12.315 -31.291  0.00  0.00     0.167 HD
ENDBRANCH  45  47
ENDBRANCH  44  45
ENDBRANCH  43  44
ENDBRANCH  27  43
BRANCH  24  49
ATOM     49  C   UNK d   0     -20.769  -8.818 -32.063  0.00  0.00     0.052 C 
BRANCH  49  50
ATOM     50  C   UNK d   0     -21.931  -8.215 -32.809  0.00  0.00     0.115 C 
BRANCH  50  51
ATOM     51  C   UNK d   0     -23.099  -9.061 -33.018  0.00  0.00     0.139 C 
ATOM     52  O   UNK d   0     -24.162  -8.918 -32.369  0.00  0.00    -0.650 OA
BRANCH  51  53
ATOM     53  O   UNK d   0     -23.053 -10.071 -33.965  0.00  0.00    -0.776 OA
ATOM     54  H   UNK d   0     -23.914 -10.525 -34.219  0.00  0.00     0.167 HD
ENDBRANCH  51  53
ENDBRANCH  50  51
ENDBRANCH  49  50
ENDBRANCH  24  49
BRANCH  21  55
ATOM     55  C   UNK d   0     -18.652  -6.638 -31.509  0.00  0.00     0.151 C 
BRANCH  55  56
ATOM     56  C   UNK d   0     -17.512  -7.552 -31.679  0.00  0.00     0.143 C 
ATOM     57  O   UNK d   0     -17.261  -8.123 -32.759  0.00  0.00    -0.650 OA
BRANCH  56  58
ATOM     58  O   UNK d   0     -16.690  -7.777 -30.576  0.00  0.00    -0.776 OA
ATOM     59  H   UNK d   0     -15.851  -7.172 -30.528  0.00  0.00     0.167 HD
ENDBRANCH  56  58
ENDBRANCH  55  56
ENDBRANCH  21  55
BRANCH  18  60
ATOM     60  C   UNK d   0     -16.738  -5.394 -26.651  0.00  0.00     0.151 C 
BRANCH  60  61
ATOM     61  C   UNK d   0     -16.275  -6.790 -26.683  0.00  0.00     0.143 C 
ATOM     62  O   UNK d   0     -16.155  -7.554 -25.725  0.00  0.00    -0.650 OA
BRANCH  61  63
ATOM     63  O   UNK d   0     -15.940  -7.284 -27.967  0.00  0.00    -0.776 OA
ATOM     64  H   UNK d   0     -16.166  -6.766 -28.797  0.00  0.00     0.167 HD
ENDBRANCH  61  63
ENDBRANCH  60  61
ENDBRANCH  18  60
BRANCH  14  65
ATOM     65  C   UNK d   0     -17.678  -4.972 -23.797  0.00  0.00     0.052 C 
BRANCH  65  66
ATOM     66  C   UNK d   0     -17.729  -3.538 -23.402  0.00  0.00     0.115 C 
BRANCH  66  67
ATOM     67  C   UNK d   0     -16.610  -2.683 -23.682  0.00  0.00     0.139 C 
ATOM     68  O   UNK d   0     -15.425  -3.131 -23.462  0.00  0.00    -0.650 OA
BRANCH  67  69
ATOM     69  O   UNK d   0     -16.635  -1.381 -24.180  0.00  0.00    -0.776 OA
ATOM     70  H   UNK d   0     -16.995  -1.275 -25.140  0.00  0.00     0.167 HD
ENDBRANCH  67  69
ENDBRANCH  66  67
ENDBRANCH  65  66
ENDBRANCH  14  65
ENDBRANCH   6   7
ENDBRANCH   5   6
ENDBRANCH   2   5
TORSDOF 28
ENDMDL
MODEL 2
REMARK VINA RESULT:      -9.4      1.306      7.336
REMARK  28 active torsions:
REMARK  status: ('A' for Active; 'I' for Inactive)
REMARK    1  A    between atoms: C_2  and  O_3 
REMARK    2  A    between atoms: C_2  and  C_4 
REMARK    3  A    between atoms: C_4  and  C_5 
REMARK    4  A    between atoms: C_5  and  C_6 
REMARK    5  A    between atoms: C_7  and  C_8 
REMARK    6  A    between atoms: C_8  and  C_9 
REMARK    7  A    between atoms: C_9  and  O_11 
REMARK    8  A    between atoms: C_28  and  C_29 
REMARK    9  A    between atoms: C_29  and  C_30 
REMARK   10  A    between atoms: C_30  and  O_32 
REMARK   11  A    between atoms: C_33  and  C_34 
REMARK   12  A    between atoms: C_34  and  C_35 
REMARK   13  A    between atoms: C_35  and  C_36 
REMARK   14  A    between atoms: C_36  and  O_38 
REMARK   15  A    between atoms: C_39  and  C_40 
REMARK   16  A    between atoms: C_40  and  C_41 
REMARK   17  A    between atoms: C_41  and  C_42 
REMARK   18  A    between atoms: C_42  and  O_44 
REMARK   19  A    between atoms: C_45  and  C_46 
REMARK   20  A    between atoms: C_46  and  C_47 
REMARK   21  A    between atoms: C_47  and  O_49 
REMARK   22  A    between atoms: C_50  and  C_51 
REMARK   23  A    between atoms: C_51  and  C_52 
REMARK   24  A    between atoms: C_52  and  O_54 
REMARK   25  A    between atoms: C_55  and  C_56 
REMARK   26  A    between atoms: C_56  and  C_57 
REMARK   27  A    between atoms: C_57  and  C_58 
REMARK   28  A    between atoms: C_58  and  O_60 
ROOT
ATOM      1  O   UNK d   0     -23.036  -3.358 -19.590  0.00  0.00    -0.650 OA
ATOM      2  C   UNK d   0     -23.032  -3.728 -20.785  0.00  0.00     0.139 C 
ENDROOT
BRANCH   2   3
ATOM      3  O   UNK d   0     -24.153  -3.530 -21.555  0.00  0.00    -0.776 OA
ATOM      4  H   UNK d   0     -24.147  -3.732 -22.557  0.00  0.00     0.167 HD
ENDBRANCH   2   3
BRANCH   2   5
ATOM      5  C   UNK d   0     -21.821  -4.376 -21.363  0.00  0.00     0.115 C 
BRANCH   5   6
ATOM      6  C   UNK d   0     -21.896  -5.868 -21.181  0.00  0.00     0.052 C 
BRANCH   6   7
ATOM      7  C   UNK d   0     -22.263  -6.591 -22.454  0.00  0.00    -0.020 A 
ATOM      8  C   UNK d   0     -23.192  -7.498 -22.617  0.00  0.00    -0.011 A 
ATOM      9  C   UNK d   0     -23.170  -7.912 -24.011  0.00  0.00     0.067 A 
ATOM     10  C   UNK d   0     -23.898  -8.804 -24.814  0.00  0.00     0.062 C 
ATOM     11  N   UNK d   0     -22.193  -7.210 -24.622  0.00  0.00    -0.248 NA
ATOM     12  C   UNK d   0     -23.915  -8.865 -26.211  0.00  0.00     0.041 A 
ATOM     13  N   UNK d   0     -22.920  -8.777 -27.114  0.00  0.00    -0.355 N 
ATOM     14  C   UNK d   0     -25.151  -8.985 -26.872  0.00  0.00    -0.022 A 
ATOM     15  C   UNK d   0     -23.494  -8.830 -28.331  0.00  0.00     0.042 A 
ATOM     16  H   UNK d   0     -21.832  -8.699 -26.896  0.00  0.00     0.166 HD
ATOM     17  C   UNK d   0     -22.916  -8.782 -29.616  0.00  0.00     0.062 C 
ATOM     18  C   UNK d   0     -24.891  -8.960 -28.220  0.00  0.00    -0.013 A 
ATOM     19  C   UNK d   0     -21.941  -7.944 -30.092  0.00  0.00     0.067 A 
ATOM     20  N   UNK d   0     -21.295  -7.195 -29.194  0.00  0.00    -0.248 NA
ATOM     21  C   UNK d   0     -21.391  -7.615 -31.397  0.00  0.00    -0.011 A 
ATOM     22  C   UNK d   0     -20.364  -6.401 -29.817  0.00  0.00     0.066 A 
ATOM     23  C   UNK d   0     -19.591  -5.595 -28.994  0.00  0.00     0.062 C 
ATOM     24  C   UNK d   0     -20.472  -6.709 -31.230  0.00  0.00    -0.020 A 
ATOM     25  C   UNK d   0     -19.581  -5.558 -27.591  0.00  0.00     0.041 A 
ATOM     26  N   UNK d   0     -20.571  -5.630 -26.693  0.00  0.00    -0.355 N 
ATOM     27  C   UNK d   0     -18.339  -5.443 -26.928  0.00  0.00    -0.022 A 
ATOM     28  C   UNK d   0     -20.002  -5.569 -25.479  0.00  0.00     0.042 A 
ATOM     29  H   UNK d   0     -21.665  -5.698 -26.914  0.00  0.00     0.166 HD
ATOM     30  C   UNK d   0     -20.565  -5.607 -24.193  0.00  0.00     0.062 C 
ATOM     31  C   UNK d   0     -18.597  -5.449 -25.591  0.00  0.00    -0.013 A 
ATOM     32  C   UNK d   0     -21.609  -6.397 -23.740  0.00  0.00     0.066 A 
BRANCH   8  33
ATOM     33  C   UNK d   0     -24.105  -8.025 -21.586  0.00  0.00     0.151 C 
BRANCH  33  34
ATOM     34  C   UNK d   0     -24.701  -6.964 -20.755  0.00  0.00     0.143 C 
ATOM     35  O   UNK d   0     -24.385  -6.835 -19.564  0.00  0.00    -0.650 OA
BRANCH  34  36
ATOM     36  O   UNK d   0     -25.622  -6.107 -21.313  0.00  0.00    -0.776 OA
ATOM     37  H   UNK d   0     -26.535  -6.446 -21.644  0.00  0.00     0.167 HD
ENDBRANCH  34  36
ENDBRANCH  33  34
ENDBRANCH   8  33
BRANCH  31  38
ATOM     38  C   UNK d   0     -17.571  -5.361 -24.486  0.00  0.00     0.151 C 
BRANCH  38  39
ATOM     39  C   UNK d   0     -17.152  -4.002 -24.215  0.00  0.00     0.143 C 
ATOM     40  O   UNK d   0     -17.926  -3.147 -23.752  0.00  0.00    -0.650 OA
BRANCH  39  41
ATOM     41  O   UNK d   0     -15.836  -3.625 -24.479  0.00  0.00    -0.776 OA
ATOM     42  H   UNK d   0     -15.702  -2.813 -25.090  0.00  0.00     0.167 HD
ENDBRANCH  39  41
ENDBRANCH  38  39
ENDBRANCH  31  38
BRANCH  27  43
ATOM     43  C   UNK d   0     -16.951  -5.327 -27.506  0.00  0.00     0.052 C 
BRANCH  43  44
ATOM     44  C   UNK d   0     -16.081  -6.501 -27.195  0.00  0.00     0.115 C 
BRANCH  44  45
ATOM     45  C   UNK d   0     -14.721  -5.964 -26.933  0.00  0.00     0.139 C 
ATOM     46  O   UNK d   0     -14.063  -5.518 -27.906  0.00  0.00    -0.650 OA
BRANCH  45  47
ATOM     47  O   UNK d   0     -14.160  -5.931 -25.675  0.00  0.00    -0.776 OA
ATOM     48  H   UNK d   0     -14.725  -5.915 -24.810  0.00  0.00     0.167 HD
ENDBRANCH  45  47
ENDBRANCH  44  45
ENDBRANCH  43  44
ENDBRANCH  27  43
BRANCH  24  49
ATOM     49  C   UNK d   0     -19.632  -6.118 -32.286  0.00  0.00     0.052 C 
BRANCH  49  50
ATOM     50  C   UNK d   0     -18.880  -7.197 -33.023  0.00  0.00     0.115 C 
BRANCH  50  51
ATOM     51  C   UNK d   0     -17.505  -7.448 -32.612  0.00  0.00     0.139 C 
ATOM     52  O   UNK d   0     -16.567  -7.575 -33.434  0.00  0.00    -0.650 OA
BRANCH  51  53
ATOM     53  O   UNK d   0     -17.201  -7.557 -31.264  0.00  0.00    -0.776 OA
ATOM     54  H   UNK d   0     -17.789  -7.080 -30.604  0.00  0.00     0.167 HD
ENDBRANCH  51  53
ENDBRANCH  50  51
ENDBRANCH  49  50
ENDBRANCH  24  49
BRANCH  21  55
ATOM     55  C   UNK d   0     -21.839  -8.245 -32.674  0.00  0.00     0.151 C 
BRANCH  55  56
ATOM     56  C   UNK d   0     -22.939  -9.198 -32.463  0.00  0.00     0.143 C 
ATOM     57  O   UNK d   0     -24.139  -8.857 -32.473  0.00  0.00    -0.650 OA
BRANCH  56  58
ATOM     58  O   UNK d   0     -22.608 -10.534 -32.245  0.00  0.00    -0.776 OA
ATOM     59  H   UNK d   0     -21.708 -10.686 -31.754  0.00  0.00     0.167 HD
ENDBRANCH  56  58
ENDBRANCH  55  56
ENDBRANCH  21  55
BRANCH  18  60
ATOM     60  C   UNK d   0     -25.937  -9.053 -29.303  0.00  0.00     0.151 C 
BRANCH  60  61
ATOM     61  C   UNK d   0     -26.297  -7.667 -29.638  0.00  0.00     0.143 C 
ATOM     62  O   UNK d   0     -26.966  -6.888 -28.957  0.00  0.00    -0.650 OA
BRANCH  61  63
ATOM     63  O   UNK d   0     -25.808  -7.201 -30.882  0.00  0.00    -0.776 OA
ATOM     64  H   UNK d   0     -25.578  -6.233 -31.019  0.00  0.00     0.167 HD
ENDBRANCH  61  63
ENDBRANCH  60  61
ENDBRANCH  18  60
BRANCH  14  65
ATOM     65  C   UNK d   0     -26.533  -9.217 -26.333  0.00  0.00     0.052 C 
BRANCH  65  66
ATOM     66  C   UNK d   0     -27.168  -7.979 -25.807  0.00  0.00     0.115 C 
BRANCH  66  67
ATOM     67  C   UNK d   0     -27.573  -7.916 -24.430  0.00  0.00     0.139 C 
ATOM     68  O   UNK d   0     -28.658  -8.510 -24.082  0.00  0.00    -0.650 OA
BRANCH  67  69
ATOM     69  O   UNK d   0     -26.922  -7.272 -23.379  0.00  0.00    -0.776 OA
ATOM     70  H   UNK d   0     -25.913  -7.463 -23.292  0.00  0.00     0.167 HD
ENDBRANCH  67  69
ENDBRANCH  66  67
ENDBRANCH  65  66
ENDBRANCH  14  65
ENDBRANCH   6   7
ENDBRANCH   5   6
ENDBRANCH   2   5
TORSDOF 28
ENDMDL
MODEL 3
REMARK VINA RESULT:      -9.1      1.776      8.230
REMARK  28 active torsions:
REMARK  status: ('A' for Active; 'I' for Inactive)
REMARK    1  A    between atoms: C_2  and  O_3 
REMARK    2  A    between atoms: C_2  and  C_4 
REMARK    3  A    between atoms: C_4  and  C_5 
REMARK    4  A    between atoms: C_5  and  C_6 
REMARK    5  A    between atoms: C_7  and  C_8 
REMARK    6  A    between atoms: C_8  and  C_9 
REMARK    7  A    between atoms: C_9  and  O_11 
REMARK    8  A    between atoms: C_28  and  C_29 
REMARK    9  A    between atoms: C_29  and  C_30 
REMARK   10  A    between atoms: C_30  and  O_32 
REMARK   11  A    between atoms: C_33  and  C_34 
REMARK   12  A    between atoms: C_34  and  C_35 
REMARK   13  A    between atoms: C_35  and  C_36 
REMARK   14  A    between atoms: C_36  and  O_38 
REMARK   15  A    between atoms: C_39  and  C_40 
REMARK   16  A    between atoms: C_40  and  C_41 
REMARK   17  A    between atoms: C_41  and  C_42 
REMARK   18  A    between atoms: C_42  and  O_44 
REMARK   19  A    between atoms: C_45  and  C_46 
REMARK   20  A    between atoms: C_46  and  C_47 
REMARK   21  A    between atoms: C_47  and  O_49 
REMARK   22  A    between atoms: C_50  and  C_51 
REMARK   23  A    between atoms: C_51  and  C_52 
REMARK   24  A    between atoms: C_52  and  O_54 
REMARK   25  A    between atoms: C_55  and  C_56 
REMARK   26  A    between atoms: C_56  and  C_57 
REMARK   27  A    between atoms: C_57  and  C_58 
REMARK   28  A    between atoms: C_58  and  O_60 
ROOT
ATOM      1  O   UNK d   0     -20.347  -9.218 -32.397  0.00  0.00    -0.650 OA
ATOM      2  C   UNK d   0     -20.261  -7.993 -32.636  0.00  0.00     0.139 C 
ENDROOT
BRANCH   2   3
ATOM      3  O   UNK d   0     -21.099  -7.428 -33.567  0.00  0.00    -0.776 OA
ATOM      4  H   UNK d   0     -20.766  -7.199 -34.505  0.00  0.00     0.167 HD
ENDBRANCH   2   3
BRANCH   2   5
ATOM      5  C   UNK d   0     -19.257  -7.159 -31.916  0.00  0.00     0.115 C 
BRANCH   5   6
ATOM      6  C   UNK d   0     -19.932  -5.980 -31.269  0.00  0.00     0.052 C 
BRANCH   6   7
ATOM      7  C   UNK d   0     -20.079  -6.142 -29.775  0.00  0.00    -0.020 A 
ATOM      8  C   UNK d   0     -19.253  -5.741 -28.844  0.00  0.00    -0.011 A 
ATOM      9  C   UNK d   0     -19.811  -6.127 -27.558  0.00  0.00     0.067 A 
ATOM     10  C   UNK d   0     -19.444  -5.981 -26.211  0.00  0.00     0.062 C 
ATOM     11  N   UNK d   0     -20.976  -6.762 -27.801  0.00  0.00    -0.248 NA
ATOM     12  C   UNK d   0     -20.254  -6.177 -25.087  0.00  0.00     0.041 A 
ATOM     13  N   UNK d   0     -21.151  -7.139 -24.797  0.00  0.00    -0.355 N 
ATOM     14  C   UNK d   0     -20.229  -5.221 -24.055  0.00  0.00    -0.022 A 
ATOM     15  C   UNK d   0     -21.701  -6.813 -23.612  0.00  0.00     0.042 A 
ATOM     16  H   UNK d   0     -21.376  -8.040 -25.408  0.00  0.00     0.166 HD
ATOM     17  C   UNK d   0     -22.687  -7.472 -22.851  0.00  0.00     0.062 C 
ATOM     18  C   UNK d   0     -21.149  -5.616 -23.116  0.00  0.00    -0.013 A 
ATOM     19  C   UNK d   0     -23.870  -8.028 -23.268  0.00  0.00     0.067 A 
ATOM     20  N   UNK d   0     -24.048  -8.152 -24.585  0.00  0.00    -0.248 NA
ATOM     21  C   UNK d   0     -25.067  -8.542 -22.624  0.00  0.00    -0.011 A 
ATOM     22  C   UNK d   0     -25.276  -8.707 -24.850  0.00  0.00     0.066 A 
ATOM     23  C   UNK d   0     -25.579  -8.928 -26.185  0.00  0.00     0.062 C 
ATOM     24  C   UNK d   0     -25.888  -8.933 -23.555  0.00  0.00    -0.020 A 
ATOM     25  C   UNK d   0     -24.746  -8.737 -27.299  0.00  0.00     0.041 A 
ATOM     26  N   UNK d   0     -23.866  -7.773 -27.594  0.00  0.00    -0.355 N 
ATOM     27  C   UNK d   0     -24.768  -9.699 -28.331  0.00  0.00    -0.022 A 
ATOM     28  C   UNK d   0     -23.322  -8.090 -28.779  0.00  0.00     0.042 A 
ATOM     29  H   UNK d   0     -23.648  -6.862 -26.984  0.00  0.00     0.166 HD
ATOM     30  C   UNK d   0     -22.347  -7.440 -29.552  0.00  0.00     0.062 C 
ATOM     31  C   UNK d   0     -23.870  -9.299 -29.272  0.00  0.00    -0.013 A 
ATOM     32  C   UNK d   0     -21.195  -6.804 -29.116  0.00  0.00     0.066 A 
BRANCH   8  33
ATOM     33  C   UNK d   0     -17.976  -5.030 -29.040  0.00  0.00     0.151 C 
BRANCH  33  34
ATOM     34  C   UNK d   0     -16.826  -5.755 -28.470  0.00  0.00     0.143 C 
ATOM     35  O   UNK d   0     -16.612  -6.940 -28.763  0.00  0.00    -0.650 OA
BRANCH  34  36
ATOM     36  O   UNK d   0     -15.981  -5.104 -27.600  0.00  0.00    -0.776 OA
ATOM     37  H   UNK d   0     -14.972  -5.306 -27.584  0.00  0.00     0.167 HD
ENDBRANCH  34  36
ENDBRANCH  33  34
ENDBRANCH   8  33
BRANCH  31  38
ATOM     38  C   UNK d   0     -23.539 -10.024 -30.555  0.00  0.00     0.151 C 
BRANCH  38  39
ATOM     39  C   UNK d   0     -23.980  -9.309 -31.734  0.00  0.00     0.143 C 
ATOM     40  O   UNK d   0     -24.936  -8.514 -31.711  0.00  0.00    -0.650 OA
BRANCH  39  41
ATOM     41  O   UNK d   0     -23.318  -9.509 -32.945  0.00  0.00    -0.776 OA
ATOM     42  H   UNK d   0     -23.894  -9.502 -33.793  0.00  0.00     0.167 HD
ENDBRANCH  39  41
ENDBRANCH  38  39
ENDBRANCH  31  38
BRANCH  27  43
ATOM     43  C   UNK d   0     -25.595 -10.955 -28.453  0.00  0.00     0.052 C 
BRANCH  43  44
ATOM     44  C   UNK d   0     -24.791 -12.207 -28.322  0.00  0.00     0.115 C 
BRANCH  44  45
ATOM     45  C   UNK d   0     -25.754 -13.338 -28.369  0.00  0.00     0.139 C 
ATOM     46  O   UNK d   0     -25.362 -14.430 -28.849  0.00  0.00    -0.650 OA
BRANCH  45  47
ATOM     47  O   UNK d   0     -27.048 -13.236 -27.905  0.00  0.00    -0.776 OA
ATOM     48  H   UNK d   0     -27.832 -12.916 -28.497  0.00  0.00     0.167 HD
ENDBRANCH  45  47
ENDBRANCH  44  45
ENDBRANCH  43  44
ENDBRANCH  27  43
BRANCH  24  49
ATOM     49  C   UNK d   0     -27.207  -9.555 -23.345  0.00  0.00     0.052 C 
BRANCH  49  50
ATOM     50  C   UNK d   0     -28.250  -8.498 -23.087  0.00  0.00     0.115 C 
BRANCH  50  51
ATOM     51  C   UNK d   0     -28.969  -8.567 -21.822  0.00  0.00     0.139 C 
ATOM     52  O   UNK d   0     -28.432  -8.961 -20.760  0.00  0.00    -0.650 OA
BRANCH  51  53
ATOM     53  O   UNK d   0     -30.302  -8.189 -21.769  0.00  0.00    -0.776 OA
ATOM     54  H   UNK d   0     -30.959  -8.680 -22.350  0.00  0.00     0.167 HD
ENDBRANCH  51  53
ENDBRANCH  50  51
ENDBRANCH  49  50
ENDBRANCH  24  49
BRANCH  21  55
ATOM     55  C   UNK d   0     -25.264  -8.591 -21.145  0.00  0.00     0.151 C 
BRANCH  55  56
ATOM     56  C   UNK d   0     -25.413  -7.248 -20.563  0.00  0.00     0.143 C 
ATOM     57  O   UNK d   0     -25.031  -6.965 -19.410  0.00  0.00    -0.650 OA
BRANCH  56  58
ATOM     58  O   UNK d   0     -26.009  -6.263 -21.349  0.00  0.00    -0.776 OA
ATOM     59  H   UNK d   0     -27.045  -6.293 -21.375  0.00  0.00     0.167 HD
ENDBRANCH  56  58
ENDBRANCH  55  56
ENDBRANCH  21  55
BRANCH  18  60
ATOM     60  C   UNK d   0     -21.456  -4.872 -21.840  0.00  0.00     0.151 C 
BRANCH  60  61
ATOM     61  C   UNK d   0     -22.645  -4.055 -22.126  0.00  0.00     0.143 C 
ATOM     62  O   UNK d   0     -22.775  -3.222 -23.023  0.00  0.00    -0.650 OA
BRANCH  61  63
ATOM     63  O   UNK d   0     -23.745  -4.269 -21.261  0.00  0.00    -0.776 OA
ATOM     64  H   UNK d   0     -23.690  -4.928 -20.505  0.00  0.00     0.167 HD
ENDBRANCH  61  63
ENDBRANCH  60  61
ENDBRANCH  18  60
BRANCH  14  65
ATOM     65  C   UNK d   0     -19.342  -4.027 -23.846  0.00  0.00     0.052 C 
BRANCH  65  66
ATOM     66  C   UNK d   0     -17.993  -4.388 -23.334  0.00  0.00     0.115 C 
BRANCH  66  67
ATOM     67  C   UNK d   0     -17.028  -3.355 -23.080  0.00  0.00     0.139 C 
ATOM     68  O   UNK d   0     -16.889  -2.417 -23.950  0.00  0.00    -0.650 OA
BRANCH  67  69
ATOM     69  O   UNK d   0     -16.187  -3.226 -21.976  0.00  0.00    -0.776 OA
ATOM     70  H   UNK d   0     -16.343  -2.393 -21.389  0.00  0.00     0.167 HD
ENDBRANCH  67  69
ENDBRANCH  66  67
ENDBRANCH  65  66
ENDBRANCH  14  65
ENDBRANCH   6   7
ENDBRANCH   5   6
ENDBRANCH   2   5
TORSDOF 28
ENDMDL
MODEL 4
REMARK VINA RESULT:      -9.0     30.072     33.625
REMARK  28 active torsions:
REMARK  status: ('A' for Active; 'I' for Inactive)
REMARK    1  A    between atoms: C_2  and  O_3 
REMARK    2  A    between atoms: C_2  and  C_4 
REMARK    3  A    between atoms: C_4  and  C_5 
REMARK    4  A    between atoms: C_5  and  C_6 
REMARK    5  A    between atoms: C_7  and  C_8 
REMARK    6  A    between atoms: C_8  and  C_9 
REMARK    7  A    between atoms: C_9  and  O_11 
REMARK    8  A    between atoms: C_28  and  C_29 
REMARK    9  A    between atoms: C_29  and  C_30 
REMARK   10  A    between atoms: C_30  and  O_32 
REMARK   11  A    between atoms: C_33  and  C_34 
REMARK   12  A    between atoms: C_34  and  C_35 
REMARK   13  A    between atoms: C_35  and  C_36 
REMARK   14  A    between atoms: C_36  and  O_38 
REMARK   15  A    between atoms: C_39  and  C_40 
REMARK   16  A    between atoms: C_40  and  C_41 
REMARK   17  A    between atoms: C_41  and  C_42 
REMARK   18  A    between atoms: C_42  and  O_44 
REMARK   19  A    between atoms: C_45  and  C_46 
REMARK   20  A    between atoms: C_46  and  C_47 
REMARK   21  A    between atoms: C_47  and  O_49 
REMARK   22  A    between atoms: C_50  and  C_51 
REMARK   23  A    between atoms: C_51  and  C_52 
REMARK   24  A    between atoms: C_52  and  O_54 
REMARK   25  A    between atoms: C_55  and  C_56 
REMARK   26  A    between atoms: C_56  and  C_57 
REMARK   27  A    between atoms: C_57  and  C_58 
REMARK   28  A    between atoms: C_58  and  O_60 
ROOT
ATOM      1  O   UNK d   0       0.347 -18.070  -7.032  0.00  0.00    -0.650 OA
ATOM      2  C   UNK d   0      -0.703 -17.445  -6.767  0.00  0.00     0.139 C 
ENDROOT
BRANCH   2   3
ATOM      3  O   UNK d   0      -1.337 -16.740  -7.761  0.00  0.00    -0.776 OA
ATOM      4  H   UNK d   0      -1.673 -15.788  -7.600  0.00  0.00     0.167 HD
ENDBRANCH   2   3
BRANCH   2   5
ATOM      5  C   UNK d   0      -1.258 -17.468  -5.383  0.00  0.00     0.115 C 
BRANCH   5   6
ATOM      6  C   UNK d   0      -0.308 -18.177  -4.456  0.00  0.00     0.052 C 
BRANCH   6   7
ATOM      7  C   UNK d   0      -1.021 -18.953  -3.375  0.00  0.00    -0.020 A 
ATOM      8  C   UNK d   0      -0.785 -18.930  -2.088  0.00  0.00    -0.011 A 
ATOM      9  C   UNK d   0      -1.716 -19.844  -1.449  0.00  0.00     0.067 A 
ATOM     10  C   UNK d   0      -1.994 -20.252  -0.134  0.00  0.00     0.062 C 
ATOM     11  N   UNK d   0      -2.479 -20.385  -2.422  0.00  0.00    -0.248 NA
ATOM     12  C   UNK d   0      -3.124 -20.941   0.318  0.00  0.00     0.041 A 
ATOM     13  N   UNK d   0      -3.795 -21.985  -0.206  0.00  0.00    -0.355 N 
ATOM     14  C   UNK d   0      -3.767 -20.499   1.489  0.00  0.00    -0.022 A 
ATOM     15  C   UNK d   0      -4.851 -22.211   0.598  0.00  0.00     0.042 A 
ATOM     16  H   UNK d   0      -3.516 -22.562  -1.115  0.00  0.00     0.166 HD
ATOM     17  C   UNK d   0      -5.870 -23.180   0.514  0.00  0.00     0.062 C 
ATOM     18  C   UNK d   0      -4.867 -21.300   1.671  0.00  0.00    -0.013 A 
ATOM     19  C   UNK d   0      -6.595 -23.578  -0.580  0.00  0.00     0.067 A 
ATOM     20  N   UNK d   0      -6.171 -23.153  -1.773  0.00  0.00    -0.248 NA
ATOM     21  C   UNK d   0      -7.787 -24.378  -0.810  0.00  0.00    -0.011 A 
ATOM     22  C   UNK d   0      -7.000 -23.615  -2.766  0.00  0.00     0.066 A 
ATOM     23  C   UNK d   0      -6.652 -23.278  -4.066  0.00  0.00     0.062 C 
ATOM     24  C   UNK d   0      -8.020 -24.392  -2.091  0.00  0.00    -0.020 A 
ATOM     25  C   UNK d   0      -5.505 -22.595  -4.500  0.00  0.00     0.041 A 
ATOM     26  N   UNK d   0      -4.847 -21.549  -3.987  0.00  0.00    -0.355 N 
ATOM     27  C   UNK d   0      -4.858 -23.042  -5.673  0.00  0.00    -0.022 A 
ATOM     28  C   UNK d   0      -3.798 -21.315  -4.792  0.00  0.00     0.042 A 
ATOM     29  H   UNK d   0      -5.134 -20.963  -3.080  0.00  0.00     0.166 HD
ATOM     30  C   UNK d   0      -2.782 -20.349  -4.726  0.00  0.00     0.062 C 
ATOM     31  C   UNK d   0      -3.777 -22.238  -5.865  0.00  0.00    -0.013 A 
ATOM     32  C   UNK d   0      -2.111 -19.889  -3.604  0.00  0.00     0.066 A 
BRANCH   8  33
ATOM     33  C   UNK d   0       0.240 -18.132  -1.391  0.00  0.00     0.151 C 
BRANCH  33  34
ATOM     34  C   UNK d   0       1.565 -18.779  -1.391  0.00  0.00     0.143 C 
ATOM     35  O   UNK d   0       1.781 -19.788  -0.705  0.00  0.00    -0.650 OA
BRANCH  34  36
ATOM     36  O   UNK d   0       2.574 -18.251  -2.164  0.00  0.00    -0.776 OA
ATOM     37  H   UNK d   0       3.420 -17.850  -1.737  0.00  0.00     0.167 HD
ENDBRANCH  34  36
ENDBRANCH  33  34
ENDBRANCH   8  33
BRANCH  31  38
ATOM     38  C   UNK d   0      -2.774 -22.345  -6.990  0.00  0.00     0.151 C 
BRANCH  38  39
ATOM     39  C   UNK d   0      -3.093 -21.486  -8.110  0.00  0.00     0.143 C 
ATOM     40  O   UNK d   0      -2.801 -20.277  -8.125  0.00  0.00    -0.650 OA
BRANCH  39  41
ATOM     41  O   UNK d   0      -3.750 -22.019  -9.219  0.00  0.00    -0.776 OA
ATOM     42  H   UNK d   0      -3.367 -21.782 -10.139  0.00  0.00     0.167 HD
ENDBRANCH  39  41
ENDBRANCH  38  39
ENDBRANCH  31  38
BRANCH  27  43
ATOM     43  C   UNK d   0      -5.224 -24.177  -6.596  0.00  0.00     0.052 C 
BRANCH  43  44
ATOM     44  C   UNK d   0      -6.661 -24.168  -7.003  0.00  0.00     0.115 C 
BRANCH  44  45
ATOM     45  C   UNK d   0      -6.684 -24.293  -8.484  0.00  0.00     0.139 C 
ATOM     46  O   UNK d   0      -7.256 -25.293  -8.985  0.00  0.00    -0.650 OA
BRANCH  45  47
ATOM     47  O   UNK d   0      -6.112 -23.360  -9.321  0.00  0.00    -0.776 OA
ATOM     48  H   UNK d   0      -5.118 -23.392  -9.600  0.00  0.00     0.167 HD
ENDBRANCH  45  47
ENDBRANCH  44  45
ENDBRANCH  43  44
ENDBRANCH  27  43
BRANCH  24  49
ATOM     49  C   UNK d   0      -9.110 -25.117  -2.766  0.00  0.00     0.052 C 
BRANCH  49  50
ATOM     50  C   UNK d   0      -8.549 -26.078  -3.783  0.00  0.00     0.115 C 
BRANCH  50  51
ATOM     51  C   UNK d   0      -9.141 -27.407  -3.839  0.00  0.00     0.139 C 
ATOM     52  O   UNK d   0      -8.723 -28.302  -4.611  0.00  0.00    -0.650 OA
BRANCH  51  53
ATOM     53  O   UNK d   0     -10.213 -27.717  -3.015  0.00  0.00    -0.776 OA
ATOM     54  H   UNK d   0     -11.139 -27.503  -3.341  0.00  0.00     0.167 HD
ENDBRANCH  51  53
ENDBRANCH  50  51
ENDBRANCH  49  50
ENDBRANCH  24  49
BRANCH  21  55
ATOM     55  C   UNK d   0      -8.564 -25.048   0.274  0.00  0.00     0.151 C 
BRANCH  55  56
ATOM     56  C   UNK d   0      -8.262 -26.484   0.362  0.00  0.00     0.143 C 
ATOM     57  O   UNK d   0      -7.235 -26.925   0.914  0.00  0.00    -0.650 OA
BRANCH  56  58
ATOM     58  O   UNK d   0      -9.175 -27.376  -0.199  0.00  0.00    -0.776 OA
ATOM     59  H   UNK d   0      -9.737 -27.913   0.485  0.00  0.00     0.167 HD
ENDBRANCH  56  58
ENDBRANCH  55  56
ENDBRANCH  21  55
BRANCH  18  60
ATOM     60  C   UNK d   0      -5.851 -21.171   2.808  0.00  0.00     0.151 C 
BRANCH  60  61
ATOM     61  C   UNK d   0      -6.912 -20.276   2.324  0.00  0.00     0.143 C 
ATOM     62  O   UNK d   0      -6.768 -19.186   1.768  0.00  0.00    -0.650 OA
BRANCH  61  63
ATOM     63  O   UNK d   0      -8.233 -20.740   2.530  0.00  0.00    -0.776 OA
ATOM     64  H   UNK d   0      -8.995 -20.098   2.660  0.00  0.00     0.167 HD
ENDBRANCH  61  63
ENDBRANCH  60  61
ENDBRANCH  18  60
BRANCH  14  65
ATOM     65  C   UNK d   0      -3.370 -19.453   2.491  0.00  0.00     0.052 C 
BRANCH  65  66
ATOM     66  C   UNK d   0      -3.856 -18.093   2.136  0.00  0.00     0.115 C 
BRANCH  66  67
ATOM     67  C   UNK d   0      -3.001 -17.200   1.406  0.00  0.00     0.139 C 
ATOM     68  O   UNK d   0      -3.411 -16.744   0.276  0.00  0.00    -0.650 OA
BRANCH  67  69
ATOM     69  O   UNK d   0      -1.735 -16.741   1.771  0.00  0.00    -0.776 OA
ATOM     70  H   UNK d   0      -1.555 -16.682   2.783  0.00  0.00     0.167 HD
ENDBRANCH  67  69
ENDBRANCH  66  67
ENDBRANCH  65  66
ENDBRANCH  14  65
ENDBRANCH   6   7
ENDBRANCH   5   6
ENDBRANCH   2   5
TORSDOF 28
ENDMDL
MODEL 5
REMARK VINA RESULT:      -8.8      1.688     10.109
REMARK  28 active torsions:
REMARK  status: ('A' for Active; 'I' for Inactive)
REMARK    1  A    between atoms: C_2  and  O_3 
REMARK    2  A    between atoms: C_2  and  C_4 
REMARK    3  A    between atoms: C_4  and  C_5 
REMARK    4  A    between atoms: C_5  and  C_6 
REMARK    5  A    between atoms: C_7  and  C_8 
REMARK    6  A    between atoms: C_8  and  C_9 
REMARK    7  A    between atoms: C_9  and  O_11 
REMARK    8  A    between atoms: C_28  and  C_29 
REMARK    9  A    between atoms: C_29  and  C_30 
REMARK   10  A    between atoms: C_30  and  O_32 
REMARK   11  A    between atoms: C_33  and  C_34 
REMARK   12  A    between atoms: C_34  and  C_35 
REMARK   13  A    between atoms: C_35  and  C_36 
REMARK   14  A    between atoms: C_36  and  O_38 
REMARK   15  A    between atoms: C_39  and  C_40 
REMARK   16  A    between atoms: C_40  and  C_41 
REMARK   17  A    between atoms: C_41  and  C_42 
REMARK   18  A    between atoms: C_42  and  O_44 
REMARK   19  A    between atoms: C_45  and  C_46 
REMARK   20  A    between atoms: C_46  and  C_47 
REMARK   21  A    between atoms: C_47  and  O_49 
REMARK   22  A    between atoms: C_50  and  C_51 
REMARK   23  A    between atoms: C_51  and  C_52 
REMARK   24  A    between atoms: C_52  and  O_54 
REMARK   25  A    between atoms: C_55  and  C_56 
REMARK   26  A    between atoms: C_56  and  C_57 
REMARK   27  A    between atoms: C_57  and  C_58 
REMARK   28  A    between atoms: C_58  and  O_60 
ROOT
ATOM      1  O   UNK d   0     -14.813  -5.404 -26.156  0.00  0.00    -0.650 OA
ATOM      2  C   UNK d   0     -14.620  -5.948 -27.265  0.00  0.00     0.139 C 
ENDROOT
BRANCH   2   3
ATOM      3  O   UNK d   0     -13.588  -5.510 -28.060  0.00  0.00    -0.776 OA
ATOM      4  H   UNK d   0     -12.614  -5.630 -27.775  0.00  0.00     0.167 HD
ENDBRANCH   2   3
BRANCH   2   5
ATOM      5  C   UNK d   0     -15.503  -7.061 -27.716  0.00  0.00     0.115 C 
BRANCH   5   6
ATOM      6  C   UNK d   0     -16.169  -6.699 -29.016  0.00  0.00     0.052 C 
BRANCH   6   7
ATOM      7  C   UNK d   0     -17.634  -7.064 -29.039  0.00  0.00    -0.020 A 
ATOM      8  C   UNK d   0     -18.342  -7.460 -30.066  0.00  0.00    -0.011 A 
ATOM      9  C   UNK d   0     -19.702  -7.686 -29.608  0.00  0.00     0.067 A 
ATOM     10  C   UNK d   0     -20.905  -8.123 -30.185  0.00  0.00     0.062 C 
ATOM     11  N   UNK d   0     -19.735  -7.398 -28.290  0.00  0.00    -0.248 NA
ATOM     12  C   UNK d   0     -22.060  -8.547 -29.518  0.00  0.00     0.041 A 
ATOM     13  N   UNK d   0     -22.693  -8.049 -28.439  0.00  0.00    -0.355 N 
ATOM     14  C   UNK d   0     -22.704  -9.720 -29.951  0.00  0.00    -0.022 A 
ATOM     15  C   UNK d   0     -23.718  -8.881 -28.171  0.00  0.00     0.042 A 
ATOM     16  H   UNK d   0     -22.433  -7.118 -27.889  0.00  0.00     0.166 HD
ATOM     17  C   UNK d   0     -24.695  -8.830 -27.157  0.00  0.00     0.062 C 
ATOM     18  C   UNK d   0     -23.757  -9.941 -29.098  0.00  0.00    -0.013 A 
ATOM     19  C   UNK d   0     -24.538  -8.565 -25.821  0.00  0.00     0.067 A 
ATOM     20  N   UNK d   0     -23.348  -8.099 -25.432  0.00  0.00    -0.248 NA
ATOM     21  C   UNK d   0     -25.364  -8.674 -24.630  0.00  0.00    -0.011 A 
ATOM     22  C   UNK d   0     -23.335  -7.896 -24.074  0.00  0.00     0.066 A 
ATOM     23  C   UNK d   0     -22.167  -7.375 -23.539  0.00  0.00     0.062 C 
ATOM     24  C   UNK d   0     -24.653  -8.285 -23.611  0.00  0.00    -0.020 A 
ATOM     25  C   UNK d   0     -21.023  -6.944 -24.228  0.00  0.00     0.041 A 
ATOM     26  N   UNK d   0     -20.384  -7.446 -25.292  0.00  0.00    -0.355 N 
ATOM     27  C   UNK d   0     -20.379  -5.763 -23.796  0.00  0.00    -0.022 A 
ATOM     28  C   UNK d   0     -19.357  -6.624 -25.555  0.00  0.00     0.042 A 
ATOM     29  H   UNK d   0     -20.641  -8.388 -25.837  0.00  0.00     0.166 HD
ATOM     30  C   UNK d   0     -18.372  -6.667 -26.554  0.00  0.00     0.062 C 
ATOM     31  C   UNK d   0     -19.325  -5.553 -24.630  0.00  0.00    -0.013 A 
ATOM     32  C   UNK d   0     -18.521  -7.019 -27.887  0.00  0.00     0.066 A 
BRANCH   8  33
ATOM     33  C   UNK d   0     -17.867  -7.644 -31.450  0.00  0.00     0.151 C 
BRANCH  33  34
ATOM     34  C   UNK d   0     -18.458  -6.675 -32.390  0.00  0.00     0.143 C 
ATOM     35  O   UNK d   0     -19.580  -6.191 -32.183  0.00  0.00    -0.650 OA
BRANCH  34  36
ATOM     36  O   UNK d   0     -17.753  -6.306 -33.512  0.00  0.00    -0.776 OA
ATOM     37  H   UNK d   0     -18.216  -6.209 -34.426  0.00  0.00     0.167 HD
ENDBRANCH  34  36
ENDBRANCH  33  34
ENDBRANCH   8  33
BRANCH  31  38
ATOM     38  C   UNK d   0     -18.351  -4.400 -24.563  0.00  0.00     0.151 C 
BRANCH  38  39
ATOM     39  C   UNK d   0     -17.283  -4.620 -23.611  0.00  0.00     0.143 C 
ATOM     40  O   UNK d   0     -17.015  -3.805 -22.711  0.00  0.00    -0.650 OA
BRANCH  39  41
ATOM     41  O   UNK d   0     -16.520  -5.784 -23.695  0.00  0.00    -0.776 OA
ATOM     42  H   UNK d   0     -15.965  -6.033 -22.869  0.00  0.00     0.167 HD
ENDBRANCH  39  41
ENDBRANCH  38  39
ENDBRANCH  31  38
BRANCH  27  43
ATOM     43  C   UNK d   0     -20.722  -4.852 -22.644  0.00  0.00     0.052 C 
BRANCH  43  44
ATOM     44  C   UNK d   0     -21.941  -4.022 -22.889  0.00  0.00     0.115 C 
BRANCH  44  45
ATOM     45  C   UNK d   0     -22.733  -4.050 -21.633  0.00  0.00     0.139 C 
ATOM     46  O   UNK d   0     -22.205  -4.554 -20.611  0.00  0.00    -0.650 OA
BRANCH  45  47
ATOM     47  O   UNK d   0     -24.012  -3.543 -21.544  0.00  0.00    -0.776 OA
ATOM     48  H   UNK d   0     -24.631  -3.721 -20.737  0.00  0.00     0.167 HD
ENDBRANCH  45  47
ENDBRANCH  44  45
ENDBRANCH  43  44
ENDBRANCH  27  43
BRANCH  24  49
ATOM     49  C   UNK d   0     -25.112  -8.199 -22.214  0.00  0.00     0.052 C 
BRANCH  49  50
ATOM     50  C   UNK d   0     -25.619  -9.538 -21.744  0.00  0.00     0.115 C 
BRANCH  50  51
ATOM     51  C   UNK d   0     -26.752  -9.537 -20.829  0.00  0.00     0.139 C 
ATOM     52  O   UNK d   0     -26.804 -10.274 -19.816  0.00  0.00    -0.650 OA
BRANCH  51  53
ATOM     53  O   UNK d   0     -27.828  -8.697 -21.070  0.00  0.00    -0.776 OA
ATOM     54  H   UNK d   0     -27.644  -7.786 -21.452  0.00  0.00     0.167 HD
ENDBRANCH  51  53
ENDBRANCH  50  51
ENDBRANCH  49  50
ENDBRANCH  24  49
BRANCH  21  55
ATOM     55  C   UNK d   0     -26.778  -9.151 -24.635  0.00  0.00     0.151 C 
BRANCH  55  56
ATOM     56  C   UNK d   0     -27.735  -8.037 -24.714  0.00  0.00     0.143 C 
ATOM     57  O   UNK d   0     -27.875  -7.337 -25.736  0.00  0.00    -0.650 OA
BRANCH  56  58
ATOM     58  O   UNK d   0     -28.511  -7.767 -23.587  0.00  0.00    -0.776 OA
ATOM     59  H   UNK d   0     -28.125  -8.126 -22.696  0.00  0.00     0.167 HD
ENDBRANCH  56  58
ENDBRANCH  55  56
ENDBRANCH  21  55
BRANCH  18  60
ATOM     60  C   UNK d   0     -24.716 -11.102 -29.191  0.00  0.00     0.151 C 
BRANCH  60  61
ATOM     61  C   UNK d   0     -24.045 -12.233 -28.533  0.00  0.00     0.143 C 
ATOM     62  O   UNK d   0     -22.883 -12.272 -28.126  0.00  0.00    -0.650 OA
BRANCH  61  63
ATOM     63  O   UNK d   0     -24.843 -13.390 -28.362  0.00  0.00    -0.776 OA
ATOM     64  H   UNK d   0     -24.456 -14.234 -27.979  0.00  0.00     0.167 HD
ENDBRANCH  61  63
ENDBRANCH  60  61
ENDBRANCH  18  60
BRANCH  14  65
ATOM     65  C   UNK d   0     -22.461 -10.585 -31.155  0.00  0.00     0.052 C 
BRANCH  65  66
ATOM     66  C   UNK d   0     -23.110 -10.061 -32.387  0.00  0.00     0.115 C 
BRANCH  66  67
ATOM     67  C   UNK d   0     -23.189  -8.643 -32.602  0.00  0.00     0.139 C 
ATOM     68  O   UNK d   0     -24.238  -8.019 -32.199  0.00  0.00    -0.650 OA
BRANCH  67  69
ATOM     69  O   UNK d   0     -22.245  -7.819 -33.213  0.00  0.00    -0.776 OA
ATOM     70  H   UNK d   0     -22.057  -6.924 -32.739  0.00  0.00     0.167 HD
ENDBRANCH  67  69
ENDBRANCH  66  67
ENDBRANCH  65  66
ENDBRANCH  14  65
ENDBRANCH   6   7
ENDBRANCH   5   6
ENDBRANCH   2   5
TORSDOF 28
ENDMDL
MODEL 6
REMARK VINA RESULT:      -8.8     30.107     33.888
REMARK  28 active torsions:
REMARK  status: ('A' for Active; 'I' for Inactive)
REMARK    1  A    between atoms: C_2  and  O_3 
REMARK    2  A    between atoms: C_2  and  C_4 
REMARK    3  A    between atoms: C_4  and  C_5 
REMARK    4  A    between atoms: C_5  and  C_6 
REMARK    5  A    between atoms: C_7  and  C_8 
REMARK    6  A    between atoms: C_8  and  C_9 
REMARK    7  A    between atoms: C_9  and  O_11 
REMARK    8  A    between atoms: C_28  and  C_29 
REMARK    9  A    between atoms: C_29  and  C_30 
REMARK   10  A    between atoms: C_30  and  O_32 
REMARK   11  A    between atoms: C_33  and  C_34 
REMARK   12  A    between atoms: C_34  and  C_35 
REMARK   13  A    between atoms: C_35  and  C_36 
REMARK   14  A    between atoms: C_36  and  O_38 
REMARK   15  A    between atoms: C_39  and  C_40 
REMARK   16  A    between atoms: C_40  and  C_41 
REMARK   17  A    between atoms: C_41  and  C_42 
REMARK   18  A    between atoms: C_42  and  O_44 
REMARK   19  A    between atoms: C_45  and  C_46 
REMARK   20  A    between atoms: C_46  and  C_47 
REMARK   21  A    between atoms: C_47  and  O_49 
REMARK   22  A    between atoms: C_50  and  C_51 
REMARK   23  A    between atoms: C_51  and  C_52 
REMARK   24  A    between atoms: C_52  and  O_54 
REMARK   25  A    between atoms: C_55  and  C_56 
REMARK   26  A    between atoms: C_56  and  C_57 
REMARK   27  A    between atoms: C_57  and  C_58 
REMARK   28  A    between atoms: C_58  and  O_60 
ROOT
ATOM      1  O   UNK d   0       2.151 -16.812  -0.205  0.00  0.00    -0.650 OA
ATOM      2  C   UNK d   0       1.279 -16.414  -1.008  0.00  0.00     0.139 C 
ENDROOT
BRANCH   2   3
ATOM      3  O   UNK d   0       1.519 -15.289  -1.760  0.00  0.00    -0.776 OA
ATOM      4  H   UNK d   0       2.133 -14.547  -1.419  0.00  0.00     0.167 HD
ENDBRANCH   2   3
BRANCH   2   5
ATOM      5  C   UNK d   0      -0.008 -17.154  -1.143  0.00  0.00     0.115 C 
BRANCH   5   6
ATOM      6  C   UNK d   0       0.258 -18.609  -1.416  0.00  0.00     0.052 C 
BRANCH   6   7
ATOM      7  C   UNK d   0      -0.855 -19.267  -2.195  0.00  0.00    -0.020 A 
ATOM      8  C   UNK d   0      -1.018 -19.287  -3.493  0.00  0.00    -0.011 A 
ATOM      9  C   UNK d   0      -2.234 -20.031  -3.778  0.00  0.00     0.067 A 
ATOM     10  C   UNK d   0      -2.935 -20.422  -4.929  0.00  0.00     0.062 C 
ATOM     11  N   UNK d   0      -2.749 -20.424  -2.594  0.00  0.00    -0.248 NA
ATOM     12  C   UNK d   0      -3.949 -21.383  -5.018  0.00  0.00     0.041 A 
ATOM     13  N   UNK d   0      -5.006 -21.633  -4.222  0.00  0.00    -0.355 N 
ATOM     14  C   UNK d   0      -3.903 -22.325  -6.061  0.00  0.00    -0.022 A 
ATOM     15  C   UNK d   0      -5.627 -22.715  -4.728  0.00  0.00     0.042 A 
ATOM     16  H   UNK d   0      -5.317 -21.044  -3.331  0.00  0.00     0.166 HD
ATOM     17  C   UNK d   0      -6.780 -23.395  -4.288  0.00  0.00     0.062 C 
ATOM     18  C   UNK d   0      -4.965 -23.177  -5.882  0.00  0.00    -0.013 A 
ATOM     19  C   UNK d   0      -7.127 -23.769  -3.015  0.00  0.00     0.067 A 
ATOM     20  N   UNK d   0      -6.396 -23.267  -2.016  0.00  0.00    -0.248 NA
ATOM     21  C   UNK d   0      -8.132 -24.632  -2.417  0.00  0.00    -0.011 A 
ATOM     22  C   UNK d   0      -6.849 -23.740  -0.809  0.00  0.00     0.066 A 
ATOM     23  C   UNK d   0      -6.200 -23.267   0.321  0.00  0.00     0.062 C 
ATOM     24  C   UNK d   0      -7.961 -24.614  -1.126  0.00  0.00    -0.020 A 
ATOM     25  C   UNK d   0      -5.192 -22.292   0.390  0.00  0.00     0.041 A 
ATOM     26  N   UNK d   0      -4.134 -22.053  -0.393  0.00  0.00    -0.355 N 
ATOM     27  C   UNK d   0      -5.241 -21.343   1.435  0.00  0.00    -0.022 A 
ATOM     28  C   UNK d   0      -3.507 -20.980   0.115  0.00  0.00     0.042 A 
ATOM     29  H   UNK d   0      -3.816 -22.651  -1.282  0.00  0.00     0.166 HD
ATOM     30  C   UNK d   0      -2.355 -20.298  -0.307  0.00  0.00     0.062 C 
ATOM     31  C   UNK d   0      -4.179 -20.509   1.268  0.00  0.00    -0.013 A 
ATOM     32  C   UNK d   0      -1.967 -19.997  -1.603  0.00  0.00     0.066 A 
BRANCH   8  33
ATOM     33  C   UNK d   0      -0.143 -18.666  -4.505  0.00  0.00     0.151 C 
BRANCH  33  34
ATOM     34  C   UNK d   0      -0.523 -17.276  -4.813  0.00  0.00     0.143 C 
ATOM     35  O   UNK d   0      -1.616 -17.015  -5.335  0.00  0.00    -0.650 OA
BRANCH  34  36
ATOM     36  O   UNK d   0       0.351 -16.255  -4.516  0.00  0.00    -0.776 OA
ATOM     37  H   UNK d   0       1.094 -16.375  -3.815  0.00  0.00     0.167 HD
ENDBRANCH  34  36
ENDBRANCH  33  34
ENDBRANCH   8  33
BRANCH  31  38
ATOM     38  C   UNK d   0      -3.829 -19.327   2.141  0.00  0.00     0.151 C 
BRANCH  38  39
ATOM     39  C   UNK d   0      -4.166 -18.058   1.531  0.00  0.00     0.143 C 
ATOM     40  O   UNK d   0      -3.493 -17.029   1.721  0.00  0.00    -0.650 OA
BRANCH  39  41
ATOM     41  O   UNK d   0      -5.281 -17.972   0.698  0.00  0.00    -0.776 OA
ATOM     42  H   UNK d   0      -6.057 -17.388   1.024  0.00  0.00     0.167 HD
ENDBRANCH  39  41
ENDBRANCH  38  39
ENDBRANCH  31  38
BRANCH  27  43
ATOM     43  C   UNK d   0      -6.237 -21.207   2.560  0.00  0.00     0.052 C 
BRANCH  43  44
ATOM     44  C   UNK d   0      -7.316 -20.214   2.277  0.00  0.00     0.115 C 
BRANCH  44  45
ATOM     45  C   UNK d   0      -7.261 -19.204   3.366  0.00  0.00     0.139 C 
ATOM     46  O   UNK d   0      -7.348 -17.991   3.054  0.00  0.00    -0.650 OA
BRANCH  45  47
ATOM     47  O   UNK d   0      -7.124 -19.545   4.694  0.00  0.00    -0.776 OA
ATOM     48  H   UNK d   0      -7.431 -18.930   5.465  0.00  0.00     0.167 HD
ENDBRANCH  45  47
ENDBRANCH  44  45
ENDBRANCH  43  44
ENDBRANCH  27  43
BRANCH  24  49
ATOM     49  C   UNK d   0      -8.787 -25.319  -0.131  0.00  0.00     0.052 C 
BRANCH  49  50
ATOM     50  C   UNK d   0      -8.423 -26.781  -0.090  0.00  0.00     0.115 C 
BRANCH  50  51
ATOM     51  C   UNK d   0      -7.012 -27.112   0.054  0.00  0.00     0.139 C 
ATOM     52  O   UNK d   0      -6.303 -26.659   0.984  0.00  0.00    -0.650 OA
BRANCH  51  53
ATOM     53  O   UNK d   0      -6.408 -27.956  -0.864  0.00  0.00    -0.776 OA
ATOM     54  H   UNK d   0      -5.731 -28.619  -0.528  0.00  0.00     0.167 HD
ENDBRANCH  51  53
ENDBRANCH  50  51
ENDBRANCH  49  50
ENDBRANCH  24  49
BRANCH  21  55
ATOM     55  C   UNK d   0      -9.161 -25.381  -3.197  0.00  0.00     0.151 C 
BRANCH  55  56
ATOM     56  C   UNK d   0      -8.568 -26.469  -3.990  0.00  0.00     0.143 C 
ATOM     57  O   UNK d   0      -8.399 -26.392  -5.223  0.00  0.00    -0.650 OA
BRANCH  56  58
ATOM     58  O   UNK d   0      -8.185 -27.628  -3.317  0.00  0.00    -0.776 OA
ATOM     59  H   UNK d   0      -7.216 -27.942  -3.506  0.00  0.00     0.167 HD
ENDBRANCH  56  58
ENDBRANCH  55  56
ENDBRANCH  21  55
BRANCH  18  60
ATOM     60  C   UNK d   0      -5.293 -24.350  -6.773  0.00  0.00     0.151 C 
BRANCH  60  61
ATOM     61  C   UNK d   0      -6.324 -23.871  -7.706  0.00  0.00     0.143 C 
ATOM     62  O   UNK d   0      -7.526 -23.734  -7.478  0.00  0.00    -0.650 OA
BRANCH  61  63
ATOM     63  O   UNK d   0      -5.857 -23.538  -9.000  0.00  0.00    -0.776 OA
ATOM     64  H   UNK d   0      -5.758 -24.240  -9.713  0.00  0.00     0.167 HD
ENDBRANCH  61  63
ENDBRANCH  60  61
ENDBRANCH  18  60
BRANCH  14  65
ATOM     65  C   UNK d   0      -3.000 -22.422  -7.257  0.00  0.00     0.052 C 
BRANCH  65  66
ATOM     66  C   UNK d   0      -3.264 -21.367  -8.273  0.00  0.00     0.115 C 
BRANCH  66  67
ATOM     67  C   UNK d   0      -2.286 -20.342  -8.506  0.00  0.00     0.139 C 
ATOM     68  O   UNK d   0      -2.694 -19.148  -8.752  0.00  0.00    -0.650 OA
BRANCH  67  69
ATOM     69  O   UNK d   0      -0.897 -20.472  -8.502  0.00  0.00    -0.776 OA
ATOM     70  H   UNK d   0      -0.465 -20.687  -9.412  0.00  0.00     0.167 HD
ENDBRANCH  67  69
ENDBRANCH  66  67
ENDBRANCH  65  66
ENDBRANCH  14  65
ENDBRANCH   6   7
ENDBRANCH   5   6
ENDBRANCH   2   5
TORSDOF 28
ENDMDL
MODEL 7
REMARK VINA RESULT:      -8.8      1.657     10.623
REMARK  28 active torsions:
REMARK  status: ('A' for Active; 'I' for Inactive)
REMARK    1  A    between atoms: C_2  and  O_3 
REMARK    2  A    between atoms: C_2  and  C_4 
REMARK    3  A    between atoms: C_4  and  C_5 
REMARK    4  A    between atoms: C_5  and  C_6 
REMARK    5  A    between atoms: C_7  and  C_8 
REMARK    6  A    between atoms: C_8  and  C_9 
REMARK    7  A    between atoms: C_9  and  O_11 
REMARK    8  A    between atoms: C_28  and  C_29 
REMARK    9  A    between atoms: C_29  and  C_30 
REMARK   10  A    between atoms: C_30  and  O_32 
REMARK   11  A    between atoms: C_33  and  C_34 
REMARK   12  A    between atoms: C_34  and  C_35 
REMARK   13  A    between atoms: C_35  and  C_36 
REMARK   14  A    between atoms: C_36  and  O_38 
REMARK   15  A    between atoms: C_39  and  C_40 
REMARK   16  A    between atoms: C_40  and  C_41 
REMARK   17  A    between atoms: C_41  and  C_42 
REMARK   18  A    between atoms: C_42  and  O_44 
REMARK   19  A    between atoms: C_45  and  C_46 
REMARK   20  A    between atoms: C_46  and  C_47 
REMARK   21  A    between atoms: C_47  and  O_49 
REMARK   22  A    between atoms: C_50  and  C_51 
REMARK   23  A    between atoms: C_51  and  C_52 
REMARK   24  A    between atoms: C_52  and  O_54 
REMARK   25  A    between atoms: C_55  and  C_56 
REMARK   26  A    between atoms: C_56  and  C_57 
REMARK   27  A    between atoms: C_57  and  C_58 
REMARK   28  A    between atoms: C_58  and  O_60 
ROOT
ATOM      1  O   UNK d   0     -15.155  -7.145 -32.462  0.00  0.00    -0.650 OA
ATOM      2  C   UNK d   0     -16.304  -7.640 -32.463  0.00  0.00     0.139 C 
ENDROOT
BRANCH   2   3
ATOM      3  O   UNK d   0     -16.903  -7.948 -33.661  0.00  0.00    -0.776 OA
ATOM      4  H   UNK d   0     -17.410  -8.827 -33.787  0.00  0.00     0.167 HD
ENDBRANCH   2   3
BRANCH   2   5
ATOM      5  C   UNK d   0     -17.012  -7.892 -31.176  0.00  0.00     0.115 C 
BRANCH   5   6
ATOM      6  C   UNK d   0     -17.783  -6.668 -30.762  0.00  0.00     0.052 C 
BRANCH   6   7
ATOM      7  C   UNK d   0     -19.208  -6.983 -30.374  0.00  0.00    -0.020 A 
ATOM      8  C   UNK d   0     -20.211  -7.252 -31.170  0.00  0.00    -0.011 A 
ATOM      9  C   UNK d   0     -21.385  -7.479 -30.345  0.00  0.00     0.067 A 
ATOM     10  C   UNK d   0     -22.729  -7.819 -30.567  0.00  0.00     0.062 C 
ATOM     11  N   UNK d   0     -21.008  -7.323 -29.059  0.00  0.00    -0.248 NA
ATOM     12  C   UNK d   0     -23.657  -8.270 -29.622  0.00  0.00     0.041 A 
ATOM     13  N   UNK d   0     -23.911  -7.862 -28.364  0.00  0.00    -0.355 N 
ATOM     14  C   UNK d   0     -24.469  -9.374 -29.940  0.00  0.00    -0.022 A 
ATOM     15  C   UNK d   0     -24.858  -8.684 -27.873  0.00  0.00     0.042 A 
ATOM     16  H   UNK d   0     -23.444  -6.999 -27.841  0.00  0.00     0.166 HD
ATOM     17  C   UNK d   0     -25.485  -8.702 -26.611  0.00  0.00     0.062 C 
ATOM     18  C   UNK d   0     -25.233  -9.644 -28.831  0.00  0.00    -0.013 A 
ATOM     19  C   UNK d   0     -24.923  -8.576 -25.366  0.00  0.00     0.067 A 
ATOM     20  N   UNK d   0     -23.645  -8.189 -25.316  0.00  0.00    -0.248 NA
ATOM     21  C   UNK d   0     -25.363  -8.777 -23.996  0.00  0.00    -0.011 A 
ATOM     22  C   UNK d   0     -23.219  -8.123 -24.013  0.00  0.00     0.066 A 
ATOM     23  C   UNK d   0     -21.915  -7.694 -23.812  0.00  0.00     0.062 C 
ATOM     24  C   UNK d   0     -24.360  -8.513 -23.209  0.00  0.00    -0.020 A 
ATOM     25  C   UNK d   0     -21.003  -7.233 -24.774  0.00  0.00     0.041 A 
ATOM     26  N   UNK d   0     -20.740  -7.647 -26.019  0.00  0.00    -0.355 N 
ATOM     27  C   UNK d   0     -20.191  -6.122 -24.456  0.00  0.00    -0.022 A 
ATOM     28  C   UNK d   0     -19.790  -6.836 -26.509  0.00  0.00     0.042 A 
ATOM     29  H   UNK d   0     -21.203  -8.522 -26.540  0.00  0.00     0.166 HD
ATOM     30  C   UNK d   0     -19.150  -6.811 -27.758  0.00  0.00     0.062 C 
ATOM     31  C   UNK d   0     -19.421  -5.864 -25.548  0.00  0.00    -0.013 A 
ATOM     32  C   UNK d   0     -19.709  -7.024 -29.008  0.00  0.00     0.066 A 
BRANCH   8  33
ATOM     33  C   UNK d   0     -20.180  -7.313 -32.643  0.00  0.00     0.151 C 
BRANCH  33  34
ATOM     34  C   UNK d   0     -20.334  -8.685 -33.161  0.00  0.00     0.143 C 
ATOM     35  O   UNK d   0     -19.372  -9.465 -33.192  0.00  0.00    -0.650 OA
BRANCH  34  36
ATOM     36  O   UNK d   0     -21.564  -9.101 -33.616  0.00  0.00    -0.776 OA
ATOM     37  H   UNK d   0     -22.143  -8.498 -34.217  0.00  0.00     0.167 HD
ENDBRANCH  34  36
ENDBRANCH  33  34
ENDBRANCH   8  33
BRANCH  31  38
ATOM     38  C   UNK d   0     -18.404  -4.754 -25.680  0.00  0.00     0.151 C 
BRANCH  38  39
ATOM     39  C   UNK d   0     -17.071  -5.164 -25.291  0.00  0.00     0.143 C 
ATOM     40  O   UNK d   0     -16.852  -6.227 -24.686  0.00  0.00    -0.650 OA
BRANCH  39  41
ATOM     41  O   UNK d   0     -15.984  -4.347 -25.601  0.00  0.00    -0.776 OA
ATOM     42  H   UNK d   0     -15.515  -3.886 -24.816  0.00  0.00     0.167 HD
ENDBRANCH  39  41
ENDBRANCH  38  39
ENDBRANCH  31  38
BRANCH  27  43
ATOM     43  C   UNK d   0     -20.122  -5.319 -23.182  0.00  0.00     0.052 C 
BRANCH  43  44
ATOM     44  C   UNK d   0     -21.075  -4.169 -23.155  0.00  0.00     0.115 C 
BRANCH  44  45
ATOM     45  C   UNK d   0     -21.984  -4.397 -22.002  0.00  0.00     0.139 C 
ATOM     46  O   UNK d   0     -21.549  -5.062 -21.029  0.00  0.00    -0.650 OA
BRANCH  45  47
ATOM     47  O   UNK d   0     -23.271  -3.907 -21.956  0.00  0.00    -0.776 OA
ATOM     48  H   UNK d   0     -23.741  -3.649 -21.074  0.00  0.00     0.167 HD
ENDBRANCH  45  47
ENDBRANCH  44  45
ENDBRANCH  43  44
ENDBRANCH  27  43
BRANCH  24  49
ATOM     49  C   UNK d   0     -24.378  -8.551 -21.736  0.00  0.00     0.052 C 
BRANCH  49  50
ATOM     50  C   UNK d   0     -24.190  -7.166 -21.174  0.00  0.00     0.115 C 
BRANCH  50  51
ATOM     51  C   UNK d   0     -25.373  -6.490 -20.659  0.00  0.00     0.139 C 
ATOM     52  O   UNK d   0     -25.904  -6.795 -19.565  0.00  0.00    -0.650 OA
BRANCH  51  53
ATOM     53  O   UNK d   0     -25.954  -5.468 -21.394  0.00  0.00    -0.776 OA
ATOM     54  H   UNK d   0     -26.904  -5.584 -21.701  0.00  0.00     0.167 HD
ENDBRANCH  51  53
ENDBRANCH  50  51
ENDBRANCH  49  50
ENDBRANCH  24  49
BRANCH  21  55
ATOM     55  C   UNK d   0     -26.741  -9.206 -23.616  0.00  0.00     0.151 C 
BRANCH  55  56
ATOM     56  C   UNK d   0     -27.718  -8.116 -23.761  0.00  0.00     0.143 C 
ATOM     57  O   UNK d   0     -27.589  -7.201 -24.599  0.00  0.00    -0.650 OA
BRANCH  56  58
ATOM     58  O   UNK d   0     -28.829  -8.122 -22.919  0.00  0.00    -0.776 OA
ATOM     59  H   UNK d   0     -28.829  -7.385 -22.192  0.00  0.00     0.167 HD
ENDBRANCH  56  58
ENDBRANCH  55  56
ENDBRANCH  21  55
BRANCH  18  60
ATOM     60  C   UNK d   0     -26.244 -10.760 -28.730  0.00  0.00     0.151 C 
BRANCH  60  61
ATOM     61  C   UNK d   0     -25.480 -11.966 -28.377  0.00  0.00     0.143 C 
ATOM     62  O   UNK d   0     -24.276 -12.036 -28.129  0.00  0.00    -0.650 OA
BRANCH  61  63
ATOM     63  O   UNK d   0     -26.235 -13.162 -28.323  0.00  0.00    -0.776 OA
ATOM     64  H   UNK d   0     -27.199 -13.155 -28.039  0.00  0.00     0.167 HD
ENDBRANCH  61  63
ENDBRANCH  60  61
ENDBRANCH  18  60
BRANCH  14  65
ATOM     65  C   UNK d   0     -24.647 -10.122 -31.230  0.00  0.00     0.052 C 
BRANCH  65  66
ATOM     66  C   UNK d   0     -23.398 -10.779 -31.699  0.00  0.00     0.115 C 
BRANCH  66  67
ATOM     67  C   UNK d   0     -22.818 -11.840 -30.925  0.00  0.00     0.139 C 
ATOM     68  O   UNK d   0     -23.282 -13.031 -31.072  0.00  0.00    -0.650 OA
BRANCH  67  69
ATOM     69  O   UNK d   0     -21.781 -11.752 -29.998  0.00  0.00    -0.776 OA
ATOM     70  H   UNK d   0     -21.829 -10.956 -29.345  0.00  0.00     0.167 HD
ENDBRANCH  67  69
ENDBRANCH  66  67
ENDBRANCH  65  66
ENDBRANCH  14  65
ENDBRANCH   6   7
ENDBRANCH   5   6
ENDBRANCH   2   5
TORSDOF 28
ENDMDL
MODEL 8
REMARK VINA RESULT:      -8.7     30.152     33.620
REMARK  28 active torsions:
REMARK  status: ('A' for Active; 'I' for Inactive)
REMARK    1  A    between atoms: C_2  and  O_3 
REMARK    2  A    between atoms: C_2  and  C_4 
REMARK    3  A    between atoms: C_4  and  C_5 
REMARK    4  A    between atoms: C_5  and  C_6 
REMARK    5  A    between atoms: C_7  and  C_8 
REMARK    6  A    between atoms: C_8  and  C_9 
REMARK    7  A    between atoms: C_9  and  O_11 
REMARK    8  A    between atoms: C_28  and  C_29 
REMARK    9  A    between atoms: C_29  and  C_30 
REMARK   10  A    between atoms: C_30  and  O_32 
REMARK   11  A    between atoms: C_33  and  C_34 
REMARK   12  A    between atoms: C_34  and  C_35 
REMARK   13  A    between atoms: C_35  and  C_36 
REMARK   14  A    between atoms: C_36  and  O_38 
REMARK   15  A    between atoms: C_39  and  C_40 
REMARK   16  A    between atoms: C_40  and  C_41 
REMARK   17  A    between atoms: C_41  and  C_42 
REMARK   18  A    between atoms: C_42  and  O_44 
REMARK   19  A    between atoms: C_45  and  C_46 
REMARK   20  A    between atoms: C_46  and  C_47 
REMARK   21  A    between atoms: C_47  and  O_49 
REMARK   22  A    between atoms: C_50  and  C_51 
REMARK   23  A    between atoms: C_51  and  C_52 
REMARK   24  A    between atoms: C_52  and  O_54 
REMARK   25  A    between atoms: C_55  and  C_56 
REMARK   26  A    between atoms: C_56  and  C_57 
REMARK   27  A    between atoms: C_57  and  C_58 
REMARK   28  A    between atoms: C_58  and  O_60 
ROOT
ATOM      1  O   UNK d   0       0.775 -16.040  -3.119  0.00  0.00    -0.650 OA
ATOM      2  C   UNK d   0       0.491 -16.441  -4.270  0.00  0.00     0.139 C 
ENDROOT
BRANCH   2   3
ATOM      3  O   UNK d   0       1.337 -16.148  -5.313  0.00  0.00    -0.776 OA
ATOM      4  H   UNK d   0       2.307 -16.469  -5.311  0.00  0.00     0.167 HD
ENDBRANCH   2   3
BRANCH   2   5
ATOM      5  C   UNK d   0      -0.754 -17.226  -4.503  0.00  0.00     0.115 C 
BRANCH   5   6
ATOM      6  C   UNK d   0      -0.445 -18.699  -4.500  0.00  0.00     0.052 C 
BRANCH   6   7
ATOM      7  C   UNK d   0      -1.267 -19.463  -3.490  0.00  0.00    -0.020 A 
ATOM      8  C   UNK d   0      -1.138 -19.457  -2.188  0.00  0.00    -0.011 A 
ATOM      9  C   UNK d   0      -2.144 -20.350  -1.637  0.00  0.00     0.067 A 
ATOM     10  C   UNK d   0      -2.541 -20.760  -0.355  0.00  0.00     0.062 C 
ATOM     11  N   UNK d   0      -2.837 -20.862  -2.676  0.00  0.00    -0.248 NA
ATOM     12  C   UNK d   0      -3.724 -21.421  -0.005  0.00  0.00     0.041 A 
ATOM     13  N   UNK d   0      -4.376 -22.441  -0.594  0.00  0.00    -0.355 N 
ATOM     14  C   UNK d   0      -4.450 -20.971   1.113  0.00  0.00    -0.022 A 
ATOM     15  C   UNK d   0      -5.502 -22.645   0.117  0.00  0.00     0.042 A 
ATOM     16  H   UNK d   0      -4.039 -23.019  -1.482  0.00  0.00     0.166 HD
ATOM     17  C   UNK d   0      -6.537 -23.584  -0.061  0.00  0.00     0.062 C 
ATOM     18  C   UNK d   0      -5.583 -21.742   1.195  0.00  0.00    -0.013 A 
ATOM     19  C   UNK d   0      -7.178 -23.952  -1.216  0.00  0.00     0.067 A 
ATOM     20  N   UNK d   0      -6.645 -23.530  -2.365  0.00  0.00    -0.248 NA
ATOM     21  C   UNK d   0      -8.368 -24.717  -1.552  0.00  0.00    -0.011 A 
ATOM     22  C   UNK d   0      -7.400 -23.961  -3.428  0.00  0.00     0.066 A 
ATOM     23  C   UNK d   0      -6.936 -23.623  -4.691  0.00  0.00     0.062 C 
ATOM     24  C   UNK d   0      -8.494 -24.715  -2.848  0.00  0.00    -0.020 A 
ATOM     25  C   UNK d   0      -5.739 -22.970  -5.021  0.00  0.00     0.041 A 
ATOM     26  N   UNK d   0      -5.098 -21.946  -4.445  0.00  0.00    -0.355 N 
ATOM     27  C   UNK d   0      -5.008 -23.425  -6.141  0.00  0.00    -0.022 A 
ATOM     28  C   UNK d   0      -3.979 -21.735  -5.157  0.00  0.00     0.042 A 
ATOM     29  H   UNK d   0      -5.443 -21.360  -3.558  0.00  0.00     0.166 HD
ATOM     30  C   UNK d   0      -2.946 -20.799  -4.997  0.00  0.00     0.062 C 
ATOM     31  C   UNK d   0      -3.893 -22.650  -6.233  0.00  0.00    -0.013 A 
ATOM     32  C   UNK d   0      -2.359 -20.367  -3.818  0.00  0.00     0.066 A 
BRANCH   8  33
ATOM     33  C   UNK d   0      -0.153 -18.693  -1.399  0.00  0.00     0.151 C 
BRANCH  33  34
ATOM     34  C   UNK d   0       1.208 -19.251  -1.492  0.00  0.00     0.143 C 
ATOM     35  O   UNK d   0       1.413 -20.461  -1.321  0.00  0.00    -0.650 OA
BRANCH  34  36
ATOM     36  O   UNK d   0       2.263 -18.414  -1.771  0.00  0.00    -0.776 OA
ATOM     37  H   UNK d   0       2.923 -18.622  -2.532  0.00  0.00     0.167 HD
ENDBRANCH  34  36
ENDBRANCH  33  34
ENDBRANCH   8  33
BRANCH  31  38
ATOM     38  C   UNK d   0      -2.804 -22.776  -7.272  0.00  0.00     0.151 C 
BRANCH  38  39
ATOM     39  C   UNK d   0      -3.027 -21.932  -8.426  0.00  0.00     0.143 C 
ATOM     40  O   UNK d   0      -2.627 -20.755  -8.478  0.00  0.00    -0.650 OA
BRANCH  39  41
ATOM     41  O   UNK d   0      -3.714 -22.442  -9.528  0.00  0.00    -0.776 OA
ATOM     42  H   UNK d   0      -4.422 -23.159  -9.339  0.00  0.00     0.167 HD
ENDBRANCH  39  41
ENDBRANCH  38  39
ENDBRANCH  31  38
BRANCH  27  43
ATOM     43  C   UNK d   0      -5.326 -24.542  -7.103  0.00  0.00     0.052 C 
BRANCH  43  44
ATOM     44  C   UNK d   0      -6.429 -24.207  -8.054  0.00  0.00     0.115 C 
BRANCH  44  45
ATOM     45  C   UNK d   0      -7.147 -25.477  -8.336  0.00  0.00     0.139 C 
ATOM     46  O   UNK d   0      -8.041 -25.468  -9.218  0.00  0.00    -0.650 OA
BRANCH  45  47
ATOM     47  O   UNK d   0      -6.867 -26.656  -7.679  0.00  0.00    -0.776 OA
ATOM     48  H   UNK d   0      -6.055 -27.249  -7.913  0.00  0.00     0.167 HD
ENDBRANCH  45  47
ENDBRANCH  44  45
ENDBRANCH  43  44
ENDBRANCH  27  43
BRANCH  24  49
ATOM     49  C   UNK d   0      -9.543 -25.403  -3.619  0.00  0.00     0.052 C 
BRANCH  49  50
ATOM     50  C   UNK d   0      -9.345 -26.896  -3.558  0.00  0.00     0.115 C 
BRANCH  50  51
ATOM     51  C   UNK d   0      -8.987 -27.571  -4.798  0.00  0.00     0.139 C 
ATOM     52  O   UNK d   0      -9.143 -27.044  -5.924  0.00  0.00    -0.650 OA
BRANCH  51  53
ATOM     53  O   UNK d   0      -8.452 -28.849  -4.753  0.00  0.00    -0.776 OA
ATOM     54  H   UNK d   0      -7.757 -29.050  -4.055  0.00  0.00     0.167 HD
ENDBRANCH  51  53
ENDBRANCH  50  51
ENDBRANCH  49  50
ENDBRANCH  24  49
BRANCH  21  55
ATOM     55  C   UNK d   0      -9.251 -25.373  -0.544  0.00  0.00     0.151 C 
BRANCH  55  56
ATOM     56  C   UNK d   0      -8.545 -26.420   0.210  0.00  0.00     0.143 C 
ATOM     57  O   UNK d   0      -8.520 -26.455   1.456  0.00  0.00    -0.650 OA
BRANCH  56  58
ATOM     58  O   UNK d   0      -7.880 -27.407  -0.516  0.00  0.00    -0.776 OA
ATOM     59  H   UNK d   0      -7.684 -27.164  -1.504  0.00  0.00     0.167 HD
ENDBRANCH  56  58
ENDBRANCH  55  56
ENDBRANCH  21  55
BRANCH  18  60
ATOM     60  C   UNK d   0      -6.654 -21.595   2.247  0.00  0.00     0.151 C 
BRANCH  60  61
ATOM     61  C   UNK d   0      -6.974 -22.960   2.690  0.00  0.00     0.143 C 
ATOM     62  O   UNK d   0      -6.180 -23.876   2.904  0.00  0.00    -0.650 OA
BRANCH  61  63
ATOM     63  O   UNK d   0      -8.352 -23.222   2.886  0.00  0.00    -0.776 OA
ATOM     64  H   UNK d   0      -9.029 -22.989   2.182  0.00  0.00     0.167 HD
ENDBRANCH  61  63
ENDBRANCH  60  61
ENDBRANCH  18  60
BRANCH  14  65
ATOM     65  C   UNK d   0      -4.109 -19.944   2.155  0.00  0.00     0.052 C 
BRANCH  65  66
ATOM     66  C   UNK d   0      -4.537 -18.570   1.780  0.00  0.00     0.115 C 
BRANCH  66  67
ATOM     67  C   UNK d   0      -3.575 -17.644   1.252  0.00  0.00     0.139 C 
ATOM     68  O   UNK d   0      -2.801 -17.029   2.075  0.00  0.00    -0.650 OA
BRANCH  67  69
ATOM     69  O   UNK d   0      -3.357 -17.307  -0.083  0.00  0.00    -0.776 OA
ATOM     70  H   UNK d   0      -3.700 -17.986  -0.778  0.00  0.00     0.167 HD
ENDBRANCH  67  69
ENDBRANCH  66  67
ENDBRANCH  65  66
ENDBRANCH  14  65
ENDBRANCH   6   7
ENDBRANCH   5   6
ENDBRANCH   2   5
TORSDOF 28
ENDMDL
MODEL 9
REMARK VINA RESULT:      -8.7     30.234     34.425
REMARK  28 active torsions:
REMARK  status: ('A' for Active; 'I' for Inactive)
REMARK    1  A    between atoms: C_2  and  O_3 
REMARK    2  A    between atoms: C_2  and  C_4 
REMARK    3  A    between atoms: C_4  and  C_5 
REMARK    4  A    between atoms: C_5  and  C_6 
REMARK    5  A    between atoms: C_7  and  C_8 
REMARK    6  A    between atoms: C_8  and  C_9 
REMARK    7  A    between atoms: C_9  and  O_11 
REMARK    8  A    between atoms: C_28  and  C_29 
REMARK    9  A    between atoms: C_29  and  C_30 
REMARK   10  A    between atoms: C_30  and  O_32 
REMARK   11  A    between atoms: C_33  and  C_34 
REMARK   12  A    between atoms: C_34  and  C_35 
REMARK   13  A    between atoms: C_35  and  C_36 
REMARK   14  A    between atoms: C_36  and  O_38 
REMARK   15  A    between atoms: C_39  and  C_40 
REMARK   16  A    between atoms: C_40  and  C_41 
REMARK   17  A    between atoms: C_41  and  C_42 
REMARK   18  A    between atoms: C_42  and  O_44 
REMARK   19  A    between atoms: C_45  and  C_46 
REMARK   20  A    between atoms: C_46  and  C_47 
REMARK   21  A    between atoms: C_47  and  O_49 
REMARK   22  A    between atoms: C_50  and  C_51 
REMARK   23  A    between atoms: C_51  and  C_52 
REMARK   24  A    between atoms: C_52  and  O_54 
REMARK   25  A    between atoms: C_55  and  C_56 
REMARK   26  A    between atoms: C_56  and  C_57 
REMARK   27  A    between atoms: C_57  and  C_58 
REMARK   28  A    between atoms: C_58  and  O_60 
ROOT
ATOM      1  O   UNK d   0      -1.070 -22.257  -9.166  0.00  0.00    -0.650 OA
ATOM      2  C   UNK d   0      -1.442 -23.449  -9.250  0.00  0.00     0.139 C 
ENDROOT
BRANCH   2   3
ATOM      3  O   UNK d   0      -0.919 -24.250 -10.237  0.00  0.00    -0.776 OA
ATOM      4  H   UNK d   0      -0.403 -25.101 -10.006  0.00  0.00     0.167 HD
ENDBRANCH   2   3
BRANCH   2   5
ATOM      5  C   UNK d   0      -2.445 -23.989  -8.289  0.00  0.00     0.115 C 
BRANCH   5   6
ATOM      6  C   UNK d   0      -3.764 -23.287  -8.468  0.00  0.00     0.052 C 
BRANCH   6   7
ATOM      7  C   UNK d   0      -4.680 -23.459  -7.280  0.00  0.00    -0.020 A 
ATOM      8  C   UNK d   0      -5.868 -24.008  -7.261  0.00  0.00    -0.011 A 
ATOM      9  C   UNK d   0      -6.368 -23.939  -5.898  0.00  0.00     0.067 A 
ATOM     10  C   UNK d   0      -7.526 -24.352  -5.222  0.00  0.00     0.062 C 
ATOM     11  N   UNK d   0      -5.421 -23.327  -5.155  0.00  0.00    -0.248 NA
ATOM     12  C   UNK d   0      -7.712 -24.446  -3.838  0.00  0.00     0.041 A 
ATOM     13  N   UNK d   0      -7.357 -23.617  -2.838  0.00  0.00    -0.355 N 
ATOM     14  C   UNK d   0      -8.319 -25.599  -3.310  0.00  0.00    -0.022 A 
ATOM     15  C   UNK d   0      -7.717 -24.219  -1.688  0.00  0.00     0.042 A 
ATOM     16  H   UNK d   0      -6.880 -22.618  -2.943  0.00  0.00     0.166 HD
ATOM     17  C   UNK d   0      -7.580 -23.791  -0.352  0.00  0.00     0.062 C 
ATOM     18  C   UNK d   0      -8.323 -25.464  -1.944  0.00  0.00    -0.013 A 
ATOM     19  C   UNK d   0      -6.496 -23.221   0.264  0.00  0.00     0.067 A 
ATOM     20  N   UNK d   0      -5.492 -22.825  -0.523  0.00  0.00    -0.248 NA
ATOM     21  C   UNK d   0      -6.111 -22.922   1.633  0.00  0.00    -0.011 A 
ATOM     22  C   UNK d   0      -4.477 -22.291   0.233  0.00  0.00     0.066 A 
ATOM     23  C   UNK d   0      -3.381 -21.803  -0.464  0.00  0.00     0.062 C 
ATOM     24  C   UNK d   0      -4.926 -22.381   1.608  0.00  0.00    -0.020 A 
ATOM     25  C   UNK d   0      -3.220 -21.706  -1.855  0.00  0.00     0.041 A 
ATOM     26  N   UNK d   0      -3.559 -22.537  -2.848  0.00  0.00    -0.355 N 
ATOM     27  C   UNK d   0      -2.614 -20.546  -2.384  0.00  0.00    -0.022 A 
ATOM     28  C   UNK d   0      -3.193 -21.943  -3.995  0.00  0.00     0.042 A 
ATOM     29  H   UNK d   0      -4.028 -23.545  -2.740  0.00  0.00     0.166 HD
ATOM     30  C   UNK d   0      -3.315 -22.360  -5.330  0.00  0.00     0.062 C 
ATOM     31  C   UNK d   0      -2.594 -20.687  -3.738  0.00  0.00    -0.013 A 
ATOM     32  C   UNK d   0      -4.381 -23.014  -5.928  0.00  0.00     0.066 A 
BRANCH   8  33
ATOM     33  C   UNK d   0      -6.591 -24.593  -8.405  0.00  0.00     0.151 C 
BRANCH  33  34
ATOM     34  C   UNK d   0      -6.868 -26.030  -8.230  0.00  0.00     0.143 C 
ATOM     35  O   UNK d   0      -7.749 -26.594  -8.895  0.00  0.00    -0.650 OA
BRANCH  34  36
ATOM     36  O   UNK d   0      -6.138 -26.753  -7.315  0.00  0.00    -0.776 OA
ATOM     37  H   UNK d   0      -6.599 -27.309  -6.583  0.00  0.00     0.167 HD
ENDBRANCH  34  36
ENDBRANCH  33  34
ENDBRANCH   8  33
BRANCH  31  38
ATOM     38  C   UNK d   0      -2.051 -19.686  -4.731  0.00  0.00     0.151 C 
BRANCH  38  39
ATOM     39  C   UNK d   0      -2.940 -18.561  -4.937  0.00  0.00     0.143 C 
ATOM     40  O   UNK d   0      -2.633 -17.594  -5.656  0.00  0.00    -0.650 OA
BRANCH  39  41
ATOM     41  O   UNK d   0      -4.188 -18.550  -4.314  0.00  0.00    -0.776 OA
ATOM     42  H   UNK d   0      -4.565 -19.456  -4.021  0.00  0.00     0.167 HD
ENDBRANCH  39  41
ENDBRANCH  38  39
ENDBRANCH  31  38
BRANCH  27  43
ATOM     43  C   UNK d   0      -2.065 -19.338  -1.666  0.00  0.00     0.052 C 
BRANCH  43  44
ATOM     44  C   UNK d   0      -0.603 -19.129  -1.894  0.00  0.00     0.115 C 
BRANCH  44  45
ATOM     45  C   UNK d   0       0.090 -20.303  -1.302  0.00  0.00     0.139 C 
ATOM     46  O   UNK d   0      -0.161 -20.598  -0.108  0.00  0.00    -0.650 OA
BRANCH  45  47
ATOM     47  O   UNK d   0       0.987 -21.075  -2.008  0.00  0.00    -0.776 OA
ATOM     48  H   UNK d   0       1.901 -21.365  -1.624  0.00  0.00     0.167 HD
ENDBRANCH  45  47
ENDBRANCH  44  45
ENDBRANCH  43  44
ENDBRANCH  27  43
BRANCH  24  49
ATOM     49  C   UNK d   0      -4.172 -21.889   2.773  0.00  0.00     0.052 C 
BRANCH  49  50
ATOM     50  C   UNK d   0      -4.052 -20.387   2.724  0.00  0.00     0.115 C 
BRANCH  50  51
ATOM     51  C   UNK d   0      -2.740 -19.834   2.419  0.00  0.00     0.139 C 
ATOM     52  O   UNK d   0      -2.581 -18.668   1.989  0.00  0.00    -0.650 OA
BRANCH  51  53
ATOM     53  O   UNK d   0      -1.607 -20.613   2.602  0.00  0.00    -0.776 OA
ATOM     54  H   UNK d   0      -0.716 -20.153   2.648  0.00  0.00     0.167 HD
ENDBRANCH  51  53
ENDBRANCH  50  51
ENDBRANCH  49  50
ENDBRANCH  24  49
BRANCH  21  55
ATOM     55  C   UNK d   0      -6.968 -23.203   2.823  0.00  0.00     0.151 C 
BRANCH  55  56
ATOM     56  C   UNK d   0      -7.927 -22.118   3.079  0.00  0.00     0.143 C 
ATOM     57  O   UNK d   0      -9.102 -22.144   2.663  0.00  0.00    -0.650 OA
BRANCH  56  58
ATOM     58  O   UNK d   0      -7.487 -21.024   3.822  0.00  0.00    -0.776 OA
ATOM     59  H   UNK d   0      -7.665 -21.088   4.841  0.00  0.00     0.167 HD
ENDBRANCH  56  58
ENDBRANCH  55  56
ENDBRANCH  21  55
BRANCH  18  60
ATOM     60  C   UNK d   0      -8.875 -26.481  -0.976  0.00  0.00     0.151 C 
BRANCH  60  61
ATOM     61  C   UNK d   0      -7.723 -26.973  -0.206  0.00  0.00     0.143 C 
ATOM     62  O   UNK d   0      -7.510 -26.812   0.996  0.00  0.00    -0.650 OA
BRANCH  61  63
ATOM     63  O   UNK d   0      -6.770 -27.708  -0.951  0.00  0.00    -0.776 OA
ATOM     64  H   UNK d   0      -6.697 -27.602  -1.947  0.00  0.00     0.167 HD
ENDBRANCH  61  63
ENDBRANCH  60  61
ENDBRANCH  18  60
BRANCH  14  65
ATOM     65  C   UNK d   0      -8.978 -26.763  -3.996  0.00  0.00     0.052 C 
BRANCH  65  66
ATOM     66  C   UNK d   0     -10.203 -26.377  -4.747  0.00  0.00     0.115 C 
BRANCH  66  67
ATOM     67  C   UNK d   0     -10.204 -26.433  -6.182  0.00  0.00     0.139 C 
ATOM     68  O   UNK d   0     -10.526 -25.374  -6.837  0.00  0.00    -0.650 OA
BRANCH  67  69
ATOM     69  O   UNK d   0      -9.892 -27.523  -6.994  0.00  0.00    -0.776 OA
ATOM     70  H   UNK d   0     -10.670 -27.902  -7.554  0.00  0.00     0.167 HD
ENDBRANCH  67  69
ENDBRANCH  66  67
ENDBRANCH  65  66
ENDBRANCH  14  65
ENDBRANCH   6   7
ENDBRANCH   5   6
ENDBRANCH   2   5
TORSDOF 28
ENDMDL
MODEL 10
REMARK VINA RESULT:      -8.5      2.080      8.789
REMARK  28 active torsions:
REMARK  status: ('A' for Active; 'I' for Inactive)
REMARK    1  A    between atoms: C_2  and  O_3 
REMARK    2  A    between atoms: C_2  and  C_4 
REMARK    3  A    between atoms: C_4  and  C_5 
REMARK    4  A    between atoms: C_5  and  C_6 
REMARK    5  A    between atoms: C_7  and  C_8 
REMARK    6  A    between atoms: C_8  and  C_9 
REMARK    7  A    between atoms: C_9  and  O_11 
REMARK    8  A    between atoms: C_28  and  C_29 
REMARK    9  A    between atoms: C_29  and  C_30 
REMARK   10  A    between atoms: C_30  and  O_32 
REMARK   11  A    between atoms: C_33  and  C_34 
REMARK   12  A    between atoms: C_34  and  C_35 
REMARK   13  A    between atoms: C_35  and  C_36 
REMARK   14  A    between atoms: C_36  and  O_38 
REMARK   15  A    between atoms: C_39  and  C_40 
REMARK   16  A    between atoms: C_40  and  C_41 
REMARK   17  A    between atoms: C_41  and  C_42 
REMARK   18  A    between atoms: C_42  and  O_44 
REMARK   19  A    between atoms: C_45  and  C_46 
REMARK   20  A    between atoms: C_46  and  C_47 
REMARK   21  A    between atoms: C_47  and  O_49 
REMARK   22  A    between atoms: C_50  and  C_51 
REMARK   23  A    between atoms: C_51  and  C_52 
REMARK   24  A    between atoms: C_52  and  O_54 
REMARK   25  A    between atoms: C_55  and  C_56 
REMARK   26  A    between atoms: C_56  and  C_57 
REMARK   27  A    between atoms: C_57  and  C_58 
REMARK   28  A    between atoms: C_58  and  O_60 
ROOT
ATOM      1  O   UNK d   0     -25.117 -13.989 -29.418  0.00  0.00    -0.650 OA
ATOM      2  C   UNK d   0     -24.477 -13.983 -30.493  0.00  0.00     0.139 C 
ENDROOT
BRANCH   2   3
ATOM      3  O   UNK d   0     -24.460 -15.114 -31.273  0.00  0.00    -0.776 OA
ATOM      4  H   UNK d   0     -24.847 -15.996 -30.932  0.00  0.00     0.167 HD
ENDBRANCH   2   3
BRANCH   2   5
ATOM      5  C   UNK d   0     -23.742 -12.758 -30.919  0.00  0.00     0.115 C 
BRANCH   5   6
ATOM      6  C   UNK d   0     -24.639 -11.554 -30.817  0.00  0.00     0.052 C 
BRANCH   6   7
ATOM      7  C   UNK d   0     -24.235 -10.622 -29.700  0.00  0.00    -0.020 A 
ATOM      8  C   UNK d   0     -24.990 -10.152 -28.740  0.00  0.00    -0.011 A 
ATOM      9  C   UNK d   0     -24.167  -9.290 -27.908  0.00  0.00     0.067 A 
ATOM     10  C   UNK d   0     -24.355  -8.524 -26.747  0.00  0.00     0.062 C 
ATOM     11  N   UNK d   0     -22.926  -9.288 -28.438  0.00  0.00    -0.248 NA
ATOM     12  C   UNK d   0     -23.366  -7.974 -25.926  0.00  0.00     0.041 A 
ATOM     13  N   UNK d   0     -22.217  -7.338 -26.226  0.00  0.00    -0.355 N 
ATOM     14  C   UNK d   0     -23.485  -8.111 -24.531  0.00  0.00    -0.022 A 
ATOM     15  C   UNK d   0     -21.601  -7.075 -25.057  0.00  0.00     0.042 A 
ATOM     16  H   UNK d   0     -21.858  -7.063 -27.242  0.00  0.00     0.166 HD
ATOM     17  C   UNK d   0     -20.376  -6.430 -24.795  0.00  0.00     0.062 C 
ATOM     18  C   UNK d   0     -22.366  -7.545 -23.972  0.00  0.00    -0.013 A 
ATOM     19  C   UNK d   0     -19.165  -6.593 -25.418  0.00  0.00     0.067 A 
ATOM     20  N   UNK d   0     -19.157  -7.303 -26.549  0.00  0.00    -0.248 NA
ATOM     21  C   UNK d   0     -17.794  -6.188 -25.157  0.00  0.00    -0.011 A 
ATOM     22  C   UNK d   0     -17.880  -7.393 -27.046  0.00  0.00     0.066 A 
ATOM     23  C   UNK d   0     -17.732  -8.075 -28.245  0.00  0.00     0.062 C 
ATOM     24  C   UNK d   0     -17.046  -6.663 -26.111  0.00  0.00    -0.020 A 
ATOM     25  C   UNK d   0     -18.741  -8.609 -29.061  0.00  0.00     0.041 A 
ATOM     26  N   UNK d   0     -19.875  -9.254 -28.764  0.00  0.00    -0.355 N 
ATOM     27  C   UNK d   0     -18.622  -8.467 -30.461  0.00  0.00    -0.022 A 
ATOM     28  C   UNK d   0     -20.487  -9.525 -29.927  0.00  0.00     0.042 A 
ATOM     29  H   UNK d   0     -20.229  -9.539 -27.742  0.00  0.00     0.166 HD
ATOM     30  C   UNK d   0     -21.700 -10.175 -30.203  0.00  0.00     0.062 C 
ATOM     31  C   UNK d   0     -19.723  -9.043 -31.017  0.00  0.00    -0.013 A 
ATOM     32  C   UNK d   0     -22.901 -10.071 -29.518  0.00  0.00     0.066 A 
BRANCH   8  33
ATOM     33  C   UNK d   0     -26.422 -10.429 -28.525  0.00  0.00     0.151 C 
BRANCH  33  34
ATOM     34  C   UNK d   0     -26.664 -11.324 -27.379  0.00  0.00     0.143 C 
ATOM     35  O   UNK d   0     -27.089 -10.880 -26.303  0.00  0.00    -0.650 OA
BRANCH  34  36
ATOM     36  O   UNK d   0     -26.413 -12.671 -27.509  0.00  0.00    -0.776 OA
ATOM     37  H   UNK d   0     -25.893 -13.189 -26.788  0.00  0.00     0.167 HD
ENDBRANCH  34  36
ENDBRANCH  33  34
ENDBRANCH   8  33
BRANCH  31  38
ATOM     38  C   UNK d   0     -20.039  -9.121 -32.492  0.00  0.00     0.151 C 
BRANCH  38  39
ATOM     39  C   UNK d   0     -20.662  -7.916 -32.997  0.00  0.00     0.143 C 
ATOM     40  O   UNK d   0     -20.006  -6.994 -33.512  0.00  0.00    -0.650 OA
BRANCH  39  41
ATOM     41  O   UNK d   0     -22.046  -7.771 -32.911  0.00  0.00    -0.776 OA
ATOM     42  H   UNK d   0     -22.613  -8.573 -33.202  0.00  0.00     0.167 HD
ENDBRANCH  39  41
ENDBRANCH  38  39
ENDBRANCH  31  38
BRANCH  27  43
ATOM     43  C   UNK d   0     -17.525  -7.821 -31.269  0.00  0.00     0.052 C 
BRANCH  43  44
ATOM     44  C   UNK d   0     -16.758  -8.792 -32.108  0.00  0.00     0.115 C 
BRANCH  44  45
ATOM     45  C   UNK d   0     -16.902  -8.341 -33.516  0.00  0.00     0.139 C 
ATOM     46  O   UNK d   0     -16.883  -9.212 -34.421  0.00  0.00    -0.650 OA
BRANCH  45  47
ATOM     47  O   UNK d   0     -17.059  -7.017 -33.865  0.00  0.00    -0.776 OA
ATOM     48  H   UNK d   0     -16.946  -6.675 -34.833  0.00  0.00     0.167 HD
ENDBRANCH  45  47
ENDBRANCH  44  45
ENDBRANCH  43  44
ENDBRANCH  27  43
BRANCH  24  49
ATOM     49  C   UNK d   0     -15.595  -6.459 -26.261  0.00  0.00     0.052 C 
BRANCH  49  50
ATOM     50  C   UNK d   0     -14.887  -6.762 -24.966  0.00  0.00     0.115 C 
BRANCH  50  51
ATOM     51  C   UNK d   0     -13.834  -5.843 -24.554  0.00  0.00     0.139 C 
ATOM     52  O   UNK d   0     -12.871  -6.198 -23.833  0.00  0.00    -0.650 OA
BRANCH  51  53
ATOM     53  O   UNK d   0     -13.879  -4.519 -24.962  0.00  0.00    -0.776 OA
ATOM     54  H   UNK d   0     -13.949  -3.807 -24.257  0.00  0.00     0.167 HD
ENDBRANCH  51  53
ENDBRANCH  50  51
ENDBRANCH  49  50
ENDBRANCH  24  49
BRANCH  21  55
ATOM     55  C   UNK d   0     -17.374  -5.365 -23.984  0.00  0.00     0.151 C 
BRANCH  55  56
ATOM     56  C   UNK d   0     -17.688  -3.940 -24.170  0.00  0.00     0.143 C 
ATOM     57  O   UNK d   0     -18.707  -3.405 -23.691  0.00  0.00    -0.650 OA
BRANCH  56  58
ATOM     58  O   UNK d   0     -16.796  -3.171 -24.916  0.00  0.00    -0.776 OA
ATOM     59  H   UNK d   0     -17.181  -2.277 -25.269  0.00  0.00     0.167 HD
ENDBRANCH  56  58
ENDBRANCH  55  56
ENDBRANCH  21  55
BRANCH  18  60
ATOM     60  C   UNK d   0     -22.078  -7.479 -22.493  0.00  0.00     0.151 C 
BRANCH  60  61
ATOM     61  C   UNK d   0     -22.134  -6.054 -22.134  0.00  0.00     0.143 C 
ATOM     62  O   UNK d   0     -22.639  -5.143 -22.790  0.00  0.00    -0.650 OA
BRANCH  61  63
ATOM     63  O   UNK d   0     -21.535  -5.720 -20.896  0.00  0.00    -0.776 OA
ATOM     64  H   UNK d   0     -21.050  -4.849 -20.772  0.00  0.00     0.167 HD
ENDBRANCH  61  63
ENDBRANCH  60  61
ENDBRANCH  18  60
BRANCH  14  65
ATOM     65  C   UNK d   0     -24.612  -8.642 -23.690  0.00  0.00     0.052 C 
BRANCH  65  66
ATOM     66  C   UNK d   0     -25.938  -8.527 -24.355  0.00  0.00     0.115 C 
BRANCH  66  67
ATOM     67  C   UNK d   0     -27.088  -8.143 -23.586  0.00  0.00     0.139 C 
ATOM     68  O   UNK d   0     -28.242  -8.171 -24.153  0.00  0.00    -0.650 OA
BRANCH  67  69
ATOM     69  O   UNK d   0     -27.125  -7.728 -22.255  0.00  0.00    -0.776 OA
ATOM     70  H   UNK d   0     -27.815  -8.204 -21.657  0.00  0.00     0.167 HD
ENDBRANCH  67  69
ENDBRANCH  66  67
ENDBRANCH  65  66
ENDBRANCH  14  65
ENDBRANCH   6   7
ENDBRANCH   5   6
ENDBRANCH   2   5
TORSDOF 28
ENDMDL
MODEL 11
REMARK VINA RESULT:      -8.4     30.219     33.614
REMARK  28 active torsions:
REMARK  status: ('A' for Active; 'I' for Inactive)
REMARK    1  A    between atoms: C_2  and  O_3 
REMARK    2  A    between atoms: C_2  and  C_4 
REMARK    3  A    between atoms: C_4  and  C_5 
REMARK    4  A    between atoms: C_5  and  C_6 
REMARK    5  A    between atoms: C_7  and  C_8 
REMARK    6  A    between atoms: C_8  and  C_9 
REMARK    7  A    between atoms: C_9  and  O_11 
REMARK    8  A    between atoms: C_28  and  C_29 
REMARK    9  A    between atoms: C_29  and  C_30 
REMARK   10  A    between atoms: C_30  and  O_32 
REMARK   11  A    between atoms: C_33  and  C_34 
REMARK   12  A    between atoms: C_34  and  C_35 
REMARK   13  A    between atoms: C_35  and  C_36 
REMARK   14  A    between atoms: C_36  and  O_38 
REMARK   15  A    between atoms: C_39  and  C_40 
REMARK   16  A    between atoms: C_40  and  C_41 
REMARK   17  A    between atoms: C_41  and  C_42 
REMARK   18  A    between atoms: C_42  and  O_44 
REMARK   19  A    between atoms: C_45  and  C_46 
REMARK   20  A    between atoms: C_46  and  C_47 
REMARK   21  A    between atoms: C_47  and  O_49 
REMARK   22  A    between atoms: C_50  and  C_51 
REMARK   23  A    between atoms: C_51  and  C_52 
REMARK   24  A    between atoms: C_52  and  O_54 
REMARK   25  A    between atoms: C_55  and  C_56 
REMARK   26  A    between atoms: C_56  and  C_57 
REMARK   27  A    between atoms: C_57  and  C_58 
REMARK   28  A    between atoms: C_58  and  O_60 
ROOT
ATOM      1  O   UNK d   0      -2.110 -16.566   1.458  0.00  0.00    -0.650 OA
ATOM      2  C   UNK d   0      -3.140 -17.195   1.126  0.00  0.00     0.139 C 
ENDROOT
BRANCH   2   3
ATOM      3  O   UNK d   0      -4.361 -16.788   1.607  0.00  0.00    -0.776 OA
ATOM      4  H   UNK d   0      -4.432 -16.205   2.444  0.00  0.00     0.167 HD
ENDBRANCH   2   3
BRANCH   2   5
ATOM      5  C   UNK d   0      -3.038 -18.373   0.219  0.00  0.00     0.115 C 
BRANCH   5   6
ATOM      6  C   UNK d   0      -2.761 -19.618   1.017  0.00  0.00     0.052 C 
BRANCH   6   7
ATOM      7  C   UNK d   0      -3.800 -20.692   0.797  0.00  0.00    -0.020 A 
ATOM      8  C   UNK d   0      -4.532 -21.291   1.701  0.00  0.00    -0.011 A 
ATOM      9  C   UNK d   0      -5.380 -22.255   1.020  0.00  0.00     0.067 A 
ATOM     10  C   UNK d   0      -6.374 -23.172   1.394  0.00  0.00     0.062 C 
ATOM     11  N   UNK d   0      -5.094 -22.179  -0.297  0.00  0.00    -0.248 NA
ATOM     12  C   UNK d   0      -7.284 -23.824   0.556  0.00  0.00     0.041 A 
ATOM     13  N   UNK d   0      -7.121 -24.409  -0.646  0.00  0.00    -0.355 N 
ATOM     14  C   UNK d   0      -8.639 -23.879   0.933  0.00  0.00    -0.022 A 
ATOM     15  C   UNK d   0      -8.338 -24.825  -1.045  0.00  0.00     0.042 A 
ATOM     16  H   UNK d   0      -6.161 -24.541  -1.193  0.00  0.00     0.166 HD
ATOM     17  C   UNK d   0      -8.734 -25.495  -2.220  0.00  0.00     0.062 C 
ATOM     18  C   UNK d   0      -9.315 -24.510  -0.081  0.00  0.00    -0.013 A 
ATOM     19  C   UNK d   0      -8.374 -25.244  -3.519  0.00  0.00     0.067 A 
ATOM     20  N   UNK d   0      -7.368 -24.387  -3.713  0.00  0.00    -0.248 NA
ATOM     21  C   UNK d   0      -8.828 -25.674  -4.831  0.00  0.00    -0.011 A 
ATOM     22  C   UNK d   0      -7.133 -24.224  -5.056  0.00  0.00     0.066 A 
ATOM     23  C   UNK d   0      -6.084 -23.385  -5.401  0.00  0.00     0.062 C 
ATOM     24  C   UNK d   0      -8.101 -25.071  -5.726  0.00  0.00    -0.020 A 
ATOM     25  C   UNK d   0      -5.173 -22.749  -4.544  0.00  0.00     0.041 A 
ATOM     26  N   UNK d   0      -5.338 -22.155  -3.356  0.00  0.00    -0.355 N 
ATOM     27  C   UNK d   0      -3.813 -22.699  -4.921  0.00  0.00    -0.022 A 
ATOM     28  C   UNK d   0      -4.128 -21.731  -2.960  0.00  0.00     0.042 A 
ATOM     29  H   UNK d   0      -6.305 -22.013  -2.812  0.00  0.00     0.166 HD
ATOM     30  C   UNK d   0      -3.721 -21.056  -1.799  0.00  0.00     0.062 C 
ATOM     31  C   UNK d   0      -3.145 -22.057  -3.924  0.00  0.00    -0.013 A 
ATOM     32  C   UNK d   0      -4.152 -21.257  -0.497  0.00  0.00     0.066 A 
BRANCH   8  33
ATOM     33  C   UNK d   0      -4.513 -21.052   3.156  0.00  0.00     0.151 C 
BRANCH  33  34
ATOM     34  C   UNK d   0      -5.564 -20.116   3.594  0.00  0.00     0.143 C 
ATOM     35  O   UNK d   0      -6.516 -20.506   4.285  0.00  0.00    -0.650 OA
BRANCH  34  36
ATOM     36  O   UNK d   0      -5.485 -18.792   3.229  0.00  0.00    -0.776 OA
ATOM     37  H   UNK d   0      -6.039 -18.420   2.445  0.00  0.00     0.167 HD
ENDBRANCH  34  36
ENDBRANCH  33  34
ENDBRANCH   8  33
BRANCH  31  38
ATOM     38  C   UNK d   0      -1.660 -21.781  -3.881  0.00  0.00     0.151 C 
BRANCH  38  39
ATOM     39  C   UNK d   0      -0.922 -22.790  -3.152  0.00  0.00     0.143 C 
ATOM     40  O   UNK d   0      -0.873 -23.976  -3.522  0.00  0.00    -0.650 OA
BRANCH  39  41
ATOM     41  O   UNK d   0      -0.234 -22.434  -1.992  0.00  0.00    -0.776 OA
ATOM     42  H   UNK d   0       0.758 -22.686  -1.948  0.00  0.00     0.167 HD
ENDBRANCH  39  41
ENDBRANCH  38  39
ENDBRANCH  31  38
BRANCH  27  43
ATOM     43  C   UNK d   0      -3.144 -23.225  -6.166  0.00  0.00     0.052 C 
BRANCH  43  44
ATOM     44  C   UNK d   0      -3.123 -22.237  -7.287  0.00  0.00     0.115 C 
BRANCH  44  45
ATOM     45  C   UNK d   0      -3.363 -23.007  -8.536  0.00  0.00     0.139 C 
ATOM     46  O   UNK d   0      -2.368 -23.482  -9.138  0.00  0.00    -0.650 OA
BRANCH  45  47
ATOM     47  O   UNK d   0      -4.623 -23.223  -9.050  0.00  0.00    -0.776 OA
ATOM     48  H   UNK d   0      -5.462 -23.318  -8.455  0.00  0.00     0.167 HD
ENDBRANCH  45  47
ENDBRANCH  44  45
ENDBRANCH  43  44
ENDBRANCH  27  43
BRANCH  24  49
ATOM     49  C   UNK d   0      -8.197 -25.246  -7.186  0.00  0.00     0.052 C 
BRANCH  49  50
ATOM     50  C   UNK d   0      -6.987 -25.980  -7.706  0.00  0.00     0.115 C 
BRANCH  50  51
ATOM     51  C   UNK d   0      -7.171 -27.371  -8.097  0.00  0.00     0.139 C 
ATOM     52  O   UNK d   0      -7.751 -27.704  -9.158  0.00  0.00    -0.650 OA
BRANCH  51  53
ATOM     53  O   UNK d   0      -6.695 -28.383  -7.278  0.00  0.00    -0.776 OA
ATOM     54  H   UNK d   0      -7.311 -28.757  -6.578  0.00  0.00     0.167 HD
ENDBRANCH  51  53
ENDBRANCH  50  51
ENDBRANCH  49  50
ENDBRANCH  24  49
BRANCH  21  55
ATOM     55  C   UNK d   0      -9.939 -26.647  -5.053  0.00  0.00     0.151 C 
BRANCH  55  56
ATOM     56  C   UNK d   0      -9.531 -28.027  -4.750  0.00  0.00     0.143 C 
ATOM     57  O   UNK d   0      -8.361 -28.433  -4.897  0.00  0.00    -0.650 OA
BRANCH  56  58
ATOM     58  O   UNK d   0     -10.507 -28.905  -4.281  0.00  0.00    -0.776 OA
ATOM     59  H   UNK d   0     -10.639 -28.902  -3.253  0.00  0.00     0.167 HD
ENDBRANCH  56  58
ENDBRANCH  55  56
ENDBRANCH  21  55
BRANCH  18  60
ATOM     60  C   UNK d   0     -10.800 -24.776  -0.096  0.00  0.00     0.151 C 
BRANCH  60  61
ATOM     61  C   UNK d   0     -11.383 -23.759  -0.983  0.00  0.00     0.143 C 
ATOM     62  O   UNK d   0     -11.465 -22.548  -0.772  0.00  0.00    -0.650 OA
BRANCH  61  63
ATOM     63  O   UNK d   0     -11.899 -24.251  -2.206  0.00  0.00    -0.776 OA
ATOM     64  H   UNK d   0     -12.840 -24.045  -2.492  0.00  0.00     0.167 HD
ENDBRANCH  61  63
ENDBRANCH  60  61
ENDBRANCH  18  60
BRANCH  14  65
ATOM     65  C   UNK d   0      -9.318 -23.472   2.209  0.00  0.00     0.052 C 
BRANCH  65  66
ATOM     66  C   UNK d   0      -9.731 -22.042   2.218  0.00  0.00     0.115 C 
BRANCH  66  67
ATOM     67  C   UNK d   0      -9.868 -21.349   3.468  0.00  0.00     0.139 C 
ATOM     68  O   UNK d   0     -10.642 -21.848   4.365  0.00  0.00    -0.650 OA
BRANCH  67  69
ATOM     69  O   UNK d   0      -9.252 -20.160   3.856  0.00  0.00    -0.776 OA
ATOM     70  H   UNK d   0      -9.005 -19.514   3.093  0.00  0.00     0.167 HD
ENDBRANCH  67  69
ENDBRANCH  66  67
ENDBRANCH  65  66
ENDBRANCH  14  65
ENDBRANCH   6   7
ENDBRANCH   5   6
ENDBRANCH   2   5
TORSDOF 28
ENDMDL
MODEL 12
REMARK VINA RESULT:      -8.2      1.702      7.298
REMARK  28 active torsions:
REMARK  status: ('A' for Active; 'I' for Inactive)
REMARK    1  A    between atoms: C_2  and  O_3 
REMARK    2  A    between atoms: C_2  and  C_4 
REMARK    3  A    between atoms: C_4  and  C_5 
REMARK    4  A    between atoms: C_5  and  C_6 
REMARK    5  A    between atoms: C_7  and  C_8 
REMARK    6  A    between atoms: C_8  and  C_9 
REMARK    7  A    between atoms: C_9  and  O_11 
REMARK    8  A    between atoms: C_28  and  C_29 
REMARK    9  A    between atoms: C_29  and  C_30 
REMARK   10  A    between atoms: C_30  and  O_32 
REMARK   11  A    between atoms: C_33  and  C_34 
REMARK   12  A    between atoms: C_34  and  C_35 
REMARK   13  A    between atoms: C_35  and  C_36 
REMARK   14  A    between atoms: C_36  and  O_38 
REMARK   15  A    between atoms: C_39  and  C_40 
REMARK   16  A    between atoms: C_40  and  C_41 
REMARK   17  A    between atoms: C_41  and  C_42 
REMARK   18  A    between atoms: C_42  and  O_44 
REMARK   19  A    between atoms: C_45  and  C_46 
REMARK   20  A    between atoms: C_46  and  C_47 
REMARK   21  A    between atoms: C_47  and  O_49 
REMARK   22  A    between atoms: C_50  and  C_51 
REMARK   23  A    between atoms: C_51  and  C_52 
REMARK   24  A    between atoms: C_52  and  O_54 
REMARK   25  A    between atoms: C_55  and  C_56 
REMARK   26  A    between atoms: C_56  and  C_57 
REMARK   27  A    between atoms: C_57  and  C_58 
REMARK   28  A    between atoms: C_58  and  O_60 
ROOT
ATOM      1  O   UNK d   0     -17.057  -2.959 -21.718  0.00  0.00    -0.650 OA
ATOM      2  C   UNK d   0     -17.386  -3.708 -22.665  0.00  0.00     0.139 C 
ENDROOT
BRANCH   2   3
ATOM      3  O   UNK d   0     -16.475  -4.613 -23.156  0.00  0.00    -0.776 OA
ATOM      4  H   UNK d   0     -15.934  -5.210 -22.527  0.00  0.00     0.167 HD
ENDBRANCH   2   3
BRANCH   2   5
ATOM      5  C   UNK d   0     -18.752  -3.615 -23.253  0.00  0.00     0.115 C 
BRANCH   5   6
ATOM      6  C   UNK d   0     -19.729  -4.397 -22.418  0.00  0.00     0.052 C 
BRANCH   6   7
ATOM      7  C   UNK d   0     -20.511  -5.403 -23.228  0.00  0.00    -0.020 A 
ATOM      8  C   UNK d   0     -21.564  -6.084 -22.854  0.00  0.00    -0.011 A 
ATOM      9  C   UNK d   0     -21.964  -6.931 -23.965  0.00  0.00     0.067 A 
ATOM     10  C   UNK d   0     -22.991  -7.855 -24.215  0.00  0.00     0.062 C 
ATOM     11  N   UNK d   0     -21.096  -6.706 -24.973  0.00  0.00    -0.248 NA
ATOM     12  C   UNK d   0     -23.382  -8.372 -25.455  0.00  0.00     0.041 A 
ATOM     13  N   UNK d   0     -22.656  -8.811 -26.501  0.00  0.00    -0.355 N 
ATOM     14  C   UNK d   0     -24.752  -8.429 -25.767  0.00  0.00    -0.022 A 
ATOM     15  C   UNK d   0     -23.530  -9.137 -27.471  0.00  0.00     0.042 A 
ATOM     16  H   UNK d   0     -21.549  -8.907 -26.545  0.00  0.00     0.166 HD
ATOM     17  C   UNK d   0     -23.309  -9.647 -28.766  0.00  0.00     0.062 C 
ATOM     18  C   UNK d   0     -24.854  -8.911 -27.048  0.00  0.00    -0.013 A 
ATOM     19  C   UNK d   0     -22.389  -9.252 -29.703  0.00  0.00     0.067 A 
ATOM     20  N   UNK d   0     -21.435  -8.410 -29.297  0.00  0.00    -0.248 NA
ATOM     21  C   UNK d   0     -22.161  -9.506 -31.116  0.00  0.00    -0.011 A 
ATOM     22  C   UNK d   0     -20.602  -8.094 -30.341  0.00  0.00     0.066 A 
ATOM     23  C   UNK d   0     -19.539  -7.252 -30.049  0.00  0.00     0.062 C 
ATOM     24  C   UNK d   0     -21.116  -8.822 -31.484  0.00  0.00    -0.020 A 
ATOM     25  C   UNK d   0     -19.156  -6.754 -28.794  0.00  0.00     0.041 A 
ATOM     26  N   UNK d   0     -19.876  -6.304 -27.760  0.00  0.00    -0.355 N 
ATOM     27  C   UNK d   0     -17.780  -6.702 -28.479  0.00  0.00    -0.022 A 
ATOM     28  C   UNK d   0     -19.006  -5.969 -26.794  0.00  0.00     0.042 A 
ATOM     29  H   UNK d   0     -20.988  -6.198 -27.721  0.00  0.00     0.166 HD
ATOM     30  C   UNK d   0     -19.212  -5.452 -25.505  0.00  0.00     0.062 C 
ATOM     31  C   UNK d   0     -17.677  -6.207 -27.216  0.00  0.00    -0.013 A 
ATOM     32  C   UNK d   0     -20.198  -5.796 -24.593  0.00  0.00     0.066 A 
BRANCH   8  33
ATOM     33  C   UNK d   0     -22.237  -6.023 -21.543  0.00  0.00     0.151 C 
BRANCH  33  34
ATOM     34  C   UNK d   0     -23.327  -5.031 -21.506  0.00  0.00     0.143 C 
ATOM     35  O   UNK d   0     -23.169  -3.894 -21.974  0.00  0.00    -0.650 OA
BRANCH  34  36
ATOM     36  O   UNK d   0     -24.534  -5.374 -20.944  0.00  0.00    -0.776 OA
ATOM     37  H   UNK d   0     -25.393  -5.422 -21.509  0.00  0.00     0.167 HD
ENDBRANCH  34  36
ENDBRANCH  33  34
ENDBRANCH   8  33
BRANCH  31  38
ATOM     38  C   UNK d   0     -16.395  -5.985 -26.447  0.00  0.00     0.151 C 
BRANCH  38  39
ATOM     39  C   UNK d   0     -16.024  -7.123 -25.633  0.00  0.00     0.143 C 
ATOM     40  O   UNK d   0     -15.999  -8.282 -26.081  0.00  0.00    -0.650 OA
BRANCH  39  41
ATOM     41  O   UNK d   0     -15.679  -6.926 -24.296  0.00  0.00    -0.776 OA
ATOM     42  H   UNK d   0     -16.152  -6.161 -23.805  0.00  0.00     0.167 HD
ENDBRANCH  39  41
ENDBRANCH  38  39
ENDBRANCH  31  38
BRANCH  27  43
ATOM     43  C   UNK d   0     -16.590  -7.094 -29.318  0.00  0.00     0.052 C 
BRANCH  43  44
ATOM     44  C   UNK d   0     -16.602  -8.532 -29.726  0.00  0.00     0.115 C 
BRANCH  44  45
ATOM     45  C   UNK d   0     -16.724  -8.552 -31.207  0.00  0.00     0.139 C 
ATOM     46  O   UNK d   0     -17.451  -9.433 -31.729  0.00  0.00    -0.650 OA
BRANCH  45  47
ATOM     47  O   UNK d   0     -16.079  -7.647 -32.022  0.00  0.00    -0.776 OA
ATOM     48  H   UNK d   0     -15.079  -7.727 -32.268  0.00  0.00     0.167 HD
ENDBRANCH  45  47
ENDBRANCH  44  45
ENDBRANCH  43  44
ENDBRANCH  27  43
BRANCH  24  49
ATOM     49  C   UNK d   0     -20.511  -8.817 -32.827  0.00  0.00     0.052 C 
BRANCH  49  50
ATOM     50  C   UNK d   0     -20.338  -7.403 -33.319  0.00  0.00     0.115 C 
BRANCH  50  51
ATOM     51  C   UNK d   0     -18.976  -6.945 -33.561  0.00  0.00     0.139 C 
ATOM     52  O   UNK d   0     -18.531  -5.871 -33.093  0.00  0.00    -0.650 OA
BRANCH  51  53
ATOM     53  O   UNK d   0     -18.123  -7.712 -34.339  0.00  0.00    -0.776 OA
ATOM     54  H   UNK d   0     -18.525  -8.296 -35.051  0.00  0.00     0.167 HD
ENDBRANCH  51  53
ENDBRANCH  50  51
ENDBRANCH  49  50
ENDBRANCH  24  49
BRANCH  21  55
ATOM     55  C   UNK d   0     -23.009 -10.409 -31.949  0.00  0.00     0.151 C 
BRANCH  55  56
ATOM     56  C   UNK d   0     -24.028  -9.666 -32.705  0.00  0.00     0.143 C 
ATOM     57  O   UNK d   0     -24.948  -9.030 -32.153  0.00  0.00    -0.650 OA
BRANCH  56  58
ATOM     58  O   UNK d   0     -23.947  -9.685 -34.097  0.00  0.00    -0.776 OA
ATOM     59  H   UNK d   0     -24.776  -9.303 -34.588  0.00  0.00     0.167 HD
ENDBRANCH  56  58
ENDBRANCH  55  56
ENDBRANCH  21  55
BRANCH  18  60
ATOM     60  C   UNK d   0     -26.150  -9.126 -27.791  0.00  0.00     0.151 C 
BRANCH  60  61
ATOM     61  C   UNK d   0     -26.472  -7.837 -28.422  0.00  0.00     0.143 C 
ATOM     62  O   UNK d   0     -27.145  -6.924 -27.943  0.00  0.00    -0.650 OA
BRANCH  61  63
ATOM     63  O   UNK d   0     -25.939  -7.652 -29.720  0.00  0.00    -0.776 OA
ATOM     64  H   UNK d   0     -25.493  -6.790 -29.979  0.00  0.00     0.167 HD
ENDBRANCH  61  63
ENDBRANCH  60  61
ENDBRANCH  18  60
BRANCH  14  65
ATOM     65  C   UNK d   0     -25.963  -8.157 -24.921  0.00  0.00     0.052 C 
BRANCH  65  66
ATOM     66  C   UNK d   0     -26.156  -9.164 -23.842  0.00  0.00     0.115 C 
BRANCH  66  67
ATOM     67  C   UNK d   0     -26.342  -8.728 -22.487  0.00  0.00     0.139 C 
ATOM     68  O   UNK d   0     -25.877  -7.580 -22.142  0.00  0.00    -0.650 OA
BRANCH  67  69
ATOM     69  O   UNK d   0     -26.984  -9.409 -21.453  0.00  0.00    -0.776 OA
ATOM     70  H   UNK d   0     -26.367  -9.881 -20.777  0.00  0.00     0.167 HD
ENDBRANCH  67  69
ENDBRANCH  66  67
ENDBRANCH  65  66
ENDBRANCH  14  65
ENDBRANCH   6   7
ENDBRANCH   5   6
ENDBRANCH   2   5
TORSDOF 28
ENDMDL
MODEL 13
REMARK VINA RESULT:      -8.2     30.181     33.685
REMARK  28 active torsions:
REMARK  status: ('A' for Active; 'I' for Inactive)
REMARK    1  A    between atoms: C_2  and  O_3 
REMARK    2  A    between atoms: C_2  and  C_4 
REMARK    3  A    between atoms: C_4  and  C_5 
REMARK    4  A    between atoms: C_5  and  C_6 
REMARK    5  A    between atoms: C_7  and  C_8 
REMARK    6  A    between atoms: C_8  and  C_9 
REMARK    7  A    between atoms: C_9  and  O_11 
REMARK    8  A    between atoms: C_28  and  C_29 
REMARK    9  A    between atoms: C_29  and  C_30 
REMARK   10  A    between atoms: C_30  and  O_32 
REMARK   11  A    between atoms: C_33  and  C_34 
REMARK   12  A    between atoms: C_34  and  C_35 
REMARK   13  A    between atoms: C_35  and  C_36 
REMARK   14  A    between atoms: C_36  and  O_38 
REMARK   15  A    between atoms: C_39  and  C_40 
REMARK   16  A    between atoms: C_40  and  C_41 
REMARK   17  A    between atoms: C_41  and  C_42 
REMARK   18  A    between atoms: C_42  and  O_44 
REMARK   19  A    between atoms: C_45  and  C_46 
REMARK   20  A    between atoms: C_46  and  C_47 
REMARK   21  A    between atoms: C_47  and  O_49 
REMARK   22  A    between atoms: C_50  and  C_51 
REMARK   23  A    between atoms: C_51  and  C_52 
REMARK   24  A    between atoms: C_52  and  O_54 
REMARK   25  A    between atoms: C_55  and  C_56 
REMARK   26  A    between atoms: C_56  and  C_57 
REMARK   27  A    between atoms: C_57  and  C_58 
REMARK   28  A    between atoms: C_58  and  O_60 
ROOT
ATOM      1  O   UNK d   0       0.078 -16.423  -4.642  0.00  0.00    -0.650 OA
ATOM      2  C   UNK d   0      -0.793 -17.028  -5.306  0.00  0.00     0.139 C 
ENDROOT
BRANCH   2   3
ATOM      3  O   UNK d   0      -0.861 -16.832  -6.664  0.00  0.00    -0.776 OA
ATOM      4  H   UNK d   0      -1.749 -16.910  -7.165  0.00  0.00     0.167 HD
ENDBRANCH   2   3
BRANCH   2   5
ATOM      5  C   UNK d   0      -1.747 -17.950  -4.626  0.00  0.00     0.115 C 
BRANCH   5   6
ATOM      6  C   UNK d   0      -1.023 -19.176  -4.140  0.00  0.00     0.052 C 
BRANCH   6   7
ATOM      7  C   UNK d   0      -1.810 -19.943  -3.104  0.00  0.00    -0.020 A 
ATOM      8  C   UNK d   0      -1.584 -20.008  -1.817  0.00  0.00    -0.011 A 
ATOM      9  C   UNK d   0      -2.596 -20.871  -1.230  0.00  0.00     0.067 A 
ATOM     10  C   UNK d   0      -2.919 -21.321   0.060  0.00  0.00     0.062 C 
ATOM     11  N   UNK d   0      -3.393 -21.292  -2.234  0.00  0.00    -0.248 NA
ATOM     12  C   UNK d   0      -4.108 -21.932   0.470  0.00  0.00     0.041 A 
ATOM     13  N   UNK d   0      -4.861 -22.886  -0.111  0.00  0.00    -0.355 N 
ATOM     14  C   UNK d   0      -4.721 -21.499   1.660  0.00  0.00    -0.022 A 
ATOM     15  C   UNK d   0      -5.940 -23.062   0.675  0.00  0.00     0.042 A 
ATOM     16  H   UNK d   0      -4.625 -23.437  -1.048  0.00  0.00     0.166 HD
ATOM     17  C   UNK d   0      -7.038 -23.934   0.537  0.00  0.00     0.062 C 
ATOM     18  C   UNK d   0      -5.887 -22.210   1.795  0.00  0.00    -0.013 A 
ATOM     19  C   UNK d   0      -7.784 -24.210  -0.580  0.00  0.00     0.067 A 
ATOM     20  N   UNK d   0      -7.315 -23.762  -1.747  0.00  0.00    -0.248 NA
ATOM     21  C   UNK d   0      -9.038 -24.892  -0.857  0.00  0.00    -0.011 A 
ATOM     22  C   UNK d   0      -8.171 -24.099  -2.767  0.00  0.00     0.066 A 
ATOM     23  C   UNK d   0      -7.785 -23.725  -4.046  0.00  0.00     0.062 C 
ATOM     24  C   UNK d   0      -9.261 -24.819  -2.138  0.00  0.00    -0.020 A 
ATOM     25  C   UNK d   0      -6.580 -23.123  -4.438  0.00  0.00     0.041 A 
ATOM     26  N   UNK d   0      -5.839 -22.165  -3.869  0.00  0.00    -0.355 N 
ATOM     27  C   UNK d   0      -5.963 -23.562  -5.630  0.00  0.00    -0.022 A 
ATOM     28  C   UNK d   0      -4.767 -21.980  -4.655  0.00  0.00     0.042 A 
ATOM     29  H   UNK d   0      -6.083 -21.605  -2.933  0.00  0.00     0.166 HD
ATOM     30  C   UNK d   0      -3.672 -21.110  -4.534  0.00  0.00     0.062 C 
ATOM     31  C   UNK d   0      -4.815 -22.845  -5.775  0.00  0.00    -0.013 A 
ATOM     32  C   UNK d   0      -2.974 -20.769  -3.387  0.00  0.00     0.066 A 
BRANCH   8  33
ATOM     33  C   UNK d   0      -0.500 -19.338  -1.074  0.00  0.00     0.151 C 
BRANCH  33  34
ATOM     34  C   UNK d   0       0.792 -20.038  -1.195  0.00  0.00     0.143 C 
ATOM     35  O   UNK d   0       1.788 -19.648  -0.570  0.00  0.00    -0.650 OA
BRANCH  34  36
ATOM     36  O   UNK d   0       0.890 -21.137  -2.016  0.00  0.00    -0.776 OA
ATOM     37  H   UNK d   0       1.738 -21.315  -2.571  0.00  0.00     0.167 HD
ENDBRANCH  34  36
ENDBRANCH  33  34
ENDBRANCH   8  33
BRANCH  31  38
ATOM     38  C   UNK d   0      -3.815 -22.980  -6.900  0.00  0.00     0.151 C 
BRANCH  38  39
ATOM     39  C   UNK d   0      -2.838 -24.020  -6.661  0.00  0.00     0.143 C 
ATOM     40  O   UNK d   0      -2.582 -24.899  -7.503  0.00  0.00    -0.650 OA
BRANCH  39  41
ATOM     41  O   UNK d   0      -2.150 -24.050  -5.448  0.00  0.00    -0.776 OA
ATOM     42  H   UNK d   0      -2.585 -24.576  -4.684  0.00  0.00     0.167 HD
ENDBRANCH  39  41
ENDBRANCH  38  39
ENDBRANCH  31  38
BRANCH  27  43
ATOM     43  C   UNK d   0      -6.416 -24.612  -6.614  0.00  0.00     0.052 C 
BRANCH  43  44
ATOM     44  C   UNK d   0      -7.672 -24.243  -7.334  0.00  0.00     0.115 C 
BRANCH  44  45
ATOM     45  C   UNK d   0      -8.121 -25.462  -8.056  0.00  0.00     0.139 C 
ATOM     46  O   UNK d   0      -9.006 -26.175  -7.521  0.00  0.00    -0.650 OA
BRANCH  45  47
ATOM     47  O   UNK d   0      -7.612 -25.835  -9.281  0.00  0.00    -0.776 OA
ATOM     48  H   UNK d   0      -7.438 -25.161 -10.044  0.00  0.00     0.167 HD
ENDBRANCH  45  47
ENDBRANCH  44  45
ENDBRANCH  43  44
ENDBRANCH  27  43
BRANCH  24  49
ATOM     49  C   UNK d   0     -10.403 -25.411  -2.856  0.00  0.00     0.052 C 
BRANCH  49  50
ATOM     50  C   UNK d   0     -10.027 -26.758  -3.419  0.00  0.00     0.115 C 
BRANCH  50  51
ATOM     51  C   UNK d   0     -10.706 -27.183  -4.635  0.00  0.00     0.139 C 
ATOM     52  O   UNK d   0     -10.916 -28.389  -4.907  0.00  0.00    -0.650 OA
BRANCH  51  53
ATOM     53  O   UNK d   0     -11.145 -26.232  -5.544  0.00  0.00    -0.776 OA
ATOM     54  H   UNK d   0     -11.685 -25.458  -5.199  0.00  0.00     0.167 HD
ENDBRANCH  51  53
ENDBRANCH  50  51
ENDBRANCH  49  50
ENDBRANCH  24  49
BRANCH  21  55
ATOM     55  C   UNK d   0      -9.880 -25.548   0.186  0.00  0.00     0.151 C 
BRANCH  55  56
ATOM     56  C   UNK d   0      -9.826 -27.015   0.097  0.00  0.00     0.143 C 
ATOM     57  O   UNK d   0     -10.834 -27.737   0.227  0.00  0.00    -0.650 OA
BRANCH  56  58
ATOM     58  O   UNK d   0      -8.587 -27.605  -0.145  0.00  0.00    -0.776 OA
ATOM     59  H   UNK d   0      -8.092 -27.943   0.700  0.00  0.00     0.167 HD
ENDBRANCH  56  58
ENDBRANCH  55  56
ENDBRANCH  21  55
BRANCH  18  60
ATOM     60  C   UNK d   0      -6.867 -22.056   2.933  0.00  0.00     0.151 C 
BRANCH  60  61
ATOM     61  C   UNK d   0      -7.888 -21.109   2.461  0.00  0.00     0.143 C 
ATOM     62  O   UNK d   0      -7.773 -19.889   2.347  0.00  0.00    -0.650 OA
BRANCH  61  63
ATOM     63  O   UNK d   0      -9.129 -21.690   2.105  0.00  0.00    -0.776 OA
ATOM     64  H   UNK d   0      -9.170 -22.564   1.612  0.00  0.00     0.167 HD
ENDBRANCH  61  63
ENDBRANCH  60  61
ENDBRANCH  18  60
BRANCH  14  65
ATOM     65  C   UNK d   0      -4.244 -20.544   2.718  0.00  0.00     0.052 C 
BRANCH  65  66
ATOM     66  C   UNK d   0      -4.691 -19.145   2.482  0.00  0.00     0.115 C 
BRANCH  66  67
ATOM     67  C   UNK d   0      -3.747 -18.164   2.025  0.00  0.00     0.139 C 
ATOM     68  O   UNK d   0      -4.171 -16.977   1.769  0.00  0.00    -0.650 OA
BRANCH  67  69
ATOM     69  O   UNK d   0      -2.379 -18.331   1.811  0.00  0.00    -0.776 OA
ATOM     70  H   UNK d   0      -2.005 -19.267   2.019  0.00  0.00     0.167 HD
ENDBRANCH  67  69
ENDBRANCH  66  67
ENDBRANCH  65  66
ENDBRANCH  14  65
ENDBRANCH   6   7
ENDBRANCH   5   6
ENDBRANCH   2   5
TORSDOF 28
ENDMDL
MODEL 14
REMARK VINA RESULT:      -8.1     31.081     34.782
REMARK  28 active torsions:
REMARK  status: ('A' for Active; 'I' for Inactive)
REMARK    1  A    between atoms: C_2  and  O_3 
REMARK    2  A    between atoms: C_2  and  C_4 
REMARK    3  A    between atoms: C_4  and  C_5 
REMARK    4  A    between atoms: C_5  and  C_6 
REMARK    5  A    between atoms: C_7  and  C_8 
REMARK    6  A    between atoms: C_8  and  C_9 
REMARK    7  A    between atoms: C_9  and  O_11 
REMARK    8  A    between atoms: C_28  and  C_29 
REMARK    9  A    between atoms: C_29  and  C_30 
REMARK   10  A    between atoms: C_30  and  O_32 
REMARK   11  A    between atoms: C_33  and  C_34 
REMARK   12  A    between atoms: C_34  and  C_35 
REMARK   13  A    between atoms: C_35  and  C_36 
REMARK   14  A    between atoms: C_36  and  O_38 
REMARK   15  A    between atoms: C_39  and  C_40 
REMARK   16  A    between atoms: C_40  and  C_41 
REMARK   17  A    between atoms: C_41  and  C_42 
REMARK   18  A    between atoms: C_42  and  O_44 
REMARK   19  A    between atoms: C_45  and  C_46 
REMARK   20  A    between atoms: C_46  and  C_47 
REMARK   21  A    between atoms: C_47  and  O_49 
REMARK   22  A    between atoms: C_50  and  C_51 
REMARK   23  A    between atoms: C_51  and  C_52 
REMARK   24  A    between atoms: C_52  and  O_54 
REMARK   25  A    between atoms: C_55  and  C_56 
REMARK   26  A    between atoms: C_56  and  C_57 
REMARK   27  A    between atoms: C_57  and  C_58 
REMARK   28  A    between atoms: C_58  and  O_60 
ROOT
ATOM      1  O   UNK d   0     -13.319 -22.902  -1.165  0.00  0.00    -0.650 OA
ATOM      2  C   UNK d   0     -14.234 -22.853  -0.314  0.00  0.00     0.139 C 
ENDROOT
BRANCH   2   3
ATOM      3  O   UNK d   0     -15.305 -22.017  -0.523  0.00  0.00    -0.776 OA
ATOM      4  H   UNK d   0     -16.115 -22.323  -1.066  0.00  0.00     0.167 HD
ENDBRANCH   2   3
BRANCH   2   5
ATOM      5  C   UNK d   0     -14.159 -23.694   0.914  0.00  0.00     0.115 C 
BRANCH   5   6
ATOM      6  C   UNK d   0     -14.231 -22.827   2.141  0.00  0.00     0.052 C 
BRANCH   6   7
ATOM      7  C   UNK d   0     -13.175 -21.747   2.152  0.00  0.00    -0.020 A 
ATOM      8  C   UNK d   0     -13.359 -20.452   2.199  0.00  0.00    -0.011 A 
ATOM      9  C   UNK d   0     -12.052 -19.817   2.179  0.00  0.00     0.067 A 
ATOM     10  C   UNK d   0     -11.565 -18.501   2.227  0.00  0.00     0.062 C 
ATOM     11  N   UNK d   0     -11.129 -20.800   2.114  0.00  0.00    -0.248 NA
ATOM     12  C   UNK d   0     -10.250 -18.093   2.480  0.00  0.00     0.041 A 
ATOM     13  N   UNK d   0      -9.073 -18.572   2.035  0.00  0.00    -0.355 N 
ATOM     14  C   UNK d   0     -10.027 -17.040   3.385  0.00  0.00    -0.022 A 
ATOM     15  C   UNK d   0      -8.108 -17.855   2.642  0.00  0.00     0.042 A 
ATOM     16  H   UNK d   0      -8.927 -19.387   1.293  0.00  0.00     0.166 HD
ATOM     17  C   UNK d   0      -6.705 -17.939   2.536  0.00  0.00     0.062 C 
ATOM     18  C   UNK d   0      -8.667 -16.886   3.496  0.00  0.00    -0.013 A 
ATOM     19  C   UNK d   0      -5.905 -19.053   2.539  0.00  0.00     0.067 A 
ATOM     20  N   UNK d   0      -6.515 -20.236   2.429  0.00  0.00    -0.248 NA
ATOM     21  C   UNK d   0      -4.480 -19.315   2.651  0.00  0.00    -0.011 A 
ATOM     22  C   UNK d   0      -5.592 -21.252   2.463  0.00  0.00     0.066 A 
ATOM     23  C   UNK d   0      -6.088 -22.540   2.319  0.00  0.00     0.062 C 
ATOM     24  C   UNK d   0      -4.303 -20.604   2.610  0.00  0.00    -0.020 A 
ATOM     25  C   UNK d   0      -7.410 -22.928   2.053  0.00  0.00     0.041 A 
ATOM     26  N   UNK d   0      -8.580 -22.462   2.507  0.00  0.00    -0.355 N 
ATOM     27  C   UNK d   0      -7.634 -23.982   1.141  0.00  0.00    -0.022 A 
ATOM     28  C   UNK d   0      -9.544 -23.181   1.910  0.00  0.00     0.042 A 
ATOM     29  H   UNK d   0      -8.725 -21.650   3.261  0.00  0.00     0.166 HD
ATOM     30  C   UNK d   0     -10.942 -23.115   2.012  0.00  0.00     0.062 C 
ATOM     31  C   UNK d   0      -8.981 -24.148   1.043  0.00  0.00    -0.013 A 
ATOM     32  C   UNK d   0     -11.741 -21.985   2.095  0.00  0.00     0.066 A 
BRANCH   8  33
ATOM     33  C   UNK d   0     -14.650 -19.743   2.256  0.00  0.00     0.151 C 
BRANCH  33  34
ATOM     34  C   UNK d   0     -14.864 -18.852   1.101  0.00  0.00     0.143 C 
ATOM     35  O   UNK d   0     -15.284 -17.697   1.257  0.00  0.00    -0.650 OA
BRANCH  34  36
ATOM     36  O   UNK d   0     -14.593 -19.313  -0.167  0.00  0.00    -0.776 OA
ATOM     37  H   UNK d   0     -13.672 -19.167  -0.603  0.00  0.00     0.167 HD
ENDBRANCH  34  36
ENDBRANCH  33  34
ENDBRANCH   8  33
BRANCH  31  38
ATOM     38  C   UNK d   0      -9.694 -25.154   0.171  0.00  0.00     0.151 C 
BRANCH  38  39
ATOM     39  C   UNK d   0      -9.631 -26.500   0.699  0.00  0.00     0.143 C 
ATOM     40  O   UNK d   0      -9.552 -26.734   1.918  0.00  0.00    -0.650 OA
BRANCH  39  41
ATOM     41  O   UNK d   0      -9.658 -27.584  -0.178  0.00  0.00    -0.776 OA
ATOM     42  H   UNK d   0     -10.565 -27.817  -0.596  0.00  0.00     0.167 HD
ENDBRANCH  39  41
ENDBRANCH  38  39
ENDBRANCH  31  38
BRANCH  27  43
ATOM     43  C   UNK d   0      -6.636 -24.817   0.378  0.00  0.00     0.052 C 
BRANCH  43  44
ATOM     44  C   UNK d   0      -5.834 -25.724   1.253  0.00  0.00     0.115 C 
BRANCH  44  45
ATOM     45  C   UNK d   0      -5.794 -27.045   0.573  0.00  0.00     0.139 C 
ATOM     46  O   UNK d   0      -6.615 -27.258  -0.353  0.00  0.00    -0.650 OA
BRANCH  45  47
ATOM     47  O   UNK d   0      -4.896 -28.033   0.911  0.00  0.00    -0.776 OA
ATOM     48  H   UNK d   0      -4.486 -28.118   1.856  0.00  0.00     0.167 HD
ENDBRANCH  45  47
ENDBRANCH  44  45
ENDBRANCH  43  44
ENDBRANCH  27  43
BRANCH  24  49
ATOM     49  C   UNK d   0      -3.009 -21.306   2.652  0.00  0.00     0.052 C 
BRANCH  49  50
ATOM     50  C   UNK d   0      -2.826 -22.143   1.413  0.00  0.00     0.115 C 
BRANCH  50  51
ATOM     51  C   UNK d   0      -2.387 -21.457   0.205  0.00  0.00     0.139 C 
ATOM     52  O   UNK d   0      -2.960 -21.601  -0.901  0.00  0.00    -0.650 OA
BRANCH  51  53
ATOM     53  O   UNK d   0      -1.292 -20.607   0.258  0.00  0.00    -0.776 OA
ATOM     54  H   UNK d   0      -0.384 -21.011   0.408  0.00  0.00     0.167 HD
ENDBRANCH  51  53
ENDBRANCH  50  51
ENDBRANCH  49  50
ENDBRANCH  24  49
BRANCH  21  55
ATOM     55  C   UNK d   0      -3.442 -18.250   2.783  0.00  0.00     0.151 C 
BRANCH  55  56
ATOM     56  C   UNK d   0      -3.072 -17.676   1.480  0.00  0.00     0.143 C 
ATOM     57  O   UNK d   0      -2.053 -18.027   0.853  0.00  0.00    -0.650 OA
BRANCH  56  58
ATOM     58  O   UNK d   0      -3.907 -16.700   0.939  0.00  0.00    -0.776 OA
ATOM     59  H   UNK d   0      -4.236 -16.893  -0.024  0.00  0.00     0.167 HD
ENDBRANCH  56  58
ENDBRANCH  55  56
ENDBRANCH  21  55
BRANCH  18  60
ATOM     60  C   UNK d   0      -7.982 -15.868   4.375  0.00  0.00     0.151 C 
BRANCH  60  61
ATOM     61  C   UNK d   0      -8.100 -16.377   5.750  0.00  0.00     0.143 C 
ATOM     62  O   UNK d   0      -8.363 -17.529   6.095  0.00  0.00    -0.650 OA
BRANCH  61  63
ATOM     63  O   UNK d   0      -7.883 -15.417   6.768  0.00  0.00    -0.776 OA
ATOM     64  H   UNK d   0      -7.567 -14.490   6.547  0.00  0.00     0.167 HD
ENDBRANCH  61  63
ENDBRANCH  60  61
ENDBRANCH  18  60
BRANCH  14  65
ATOM     65  C   UNK d   0     -10.991 -16.115   4.071  0.00  0.00     0.052 C 
BRANCH  65  66
ATOM     66  C   UNK d   0     -11.696 -16.753   5.215  0.00  0.00     0.115 C 
BRANCH  66  67
ATOM     67  C   UNK d   0     -11.698 -16.109   6.499  0.00  0.00     0.139 C 
ATOM     68  O   UNK d   0     -12.615 -15.244   6.750  0.00  0.00    -0.650 OA
BRANCH  67  69
ATOM     69  O   UNK d   0     -10.803 -16.302   7.551  0.00  0.00    -0.776 OA
ATOM     70  H   UNK d   0     -11.107 -15.944   8.468  0.00  0.00     0.167 HD
ENDBRANCH  67  69
ENDBRANCH  66  67
ENDBRANCH  65  66
ENDBRANCH  14  65
ENDBRANCH   6   7
ENDBRANCH   5   6
ENDBRANCH   2   5
TORSDOF 28
ENDMDL
MODEL 15
REMARK VINA RESULT:      -8.0     30.283     33.854
REMARK  28 active torsions:
REMARK  status: ('A' for Active; 'I' for Inactive)
REMARK    1  A    between atoms: C_2  and  O_3 
REMARK    2  A    between atoms: C_2  and  C_4 
REMARK    3  A    between atoms: C_4  and  C_5 
REMARK    4  A    between atoms: C_5  and  C_6 
REMARK    5  A    between atoms: C_7  and  C_8 
REMARK    6  A    between atoms: C_8  and  C_9 
REMARK    7  A    between atoms: C_9  and  O_11 
REMARK    8  A    between atoms: C_28  and  C_29 
REMARK    9  A    between atoms: C_29  and  C_30 
REMARK   10  A    between atoms: C_30  and  O_32 
REMARK   11  A    between atoms: C_33  and  C_34 
REMARK   12  A    between atoms: C_34  and  C_35 
REMARK   13  A    between atoms: C_35  and  C_36 
REMARK   14  A    between atoms: C_36  and  O_38 
REMARK   15  A    between atoms: C_39  and  C_40 
REMARK   16  A    between atoms: C_40  and  C_41 
REMARK   17  A    between atoms: C_41  and  C_42 
REMARK   18  A    between atoms: C_42  and  O_44 
REMARK   19  A    between atoms: C_45  and  C_46 
REMARK   20  A    between atoms: C_46  and  C_47 
REMARK   21  A    between atoms: C_47  and  O_49 
REMARK   22  A    between atoms: C_50  and  C_51 
REMARK   23  A    between atoms: C_51  and  C_52 
REMARK   24  A    between atoms: C_52  and  O_54 
REMARK   25  A    between atoms: C_55  and  C_56 
REMARK   26  A    between atoms: C_56  and  C_57 
REMARK   27  A    between atoms: C_57  and  C_58 
REMARK   28  A    between atoms: C_58  and  O_60 
ROOT
ATOM      1  O   UNK d   0      -9.325 -26.453  -8.853  0.00  0.00    -0.650 OA
ATOM      2  C   UNK d   0      -8.492 -26.609  -7.933  0.00  0.00     0.139 C 
ENDROOT
BRANCH   2   3
ATOM      3  O   UNK d   0      -8.864 -27.283  -6.795  0.00  0.00    -0.776 OA
ATOM      4  H   UNK d   0      -9.849 -27.450  -6.578  0.00  0.00     0.167 HD
ENDBRANCH   2   3
BRANCH   2   5
ATOM      5  C   UNK d   0      -7.111 -26.065  -8.073  0.00  0.00     0.115 C 
BRANCH   5   6
ATOM      6  C   UNK d   0      -7.134 -24.563  -7.985  0.00  0.00     0.052 C 
BRANCH   6   7
ATOM      7  C   UNK d   0      -6.230 -24.031  -6.900  0.00  0.00    -0.020 A 
ATOM      8  C   UNK d   0      -5.054 -23.477  -7.041  0.00  0.00    -0.011 A 
ATOM      9  C   UNK d   0      -4.562 -23.131  -5.718  0.00  0.00     0.067 A 
ATOM     10  C   UNK d   0      -3.416 -22.514  -5.192  0.00  0.00     0.062 C 
ATOM     11  N   UNK d   0      -5.502 -23.516  -4.829  0.00  0.00    -0.248 NA
ATOM     12  C   UNK d   0      -3.242 -22.013  -3.898  0.00  0.00     0.041 A 
ATOM     13  N   UNK d   0      -3.588 -22.517  -2.698  0.00  0.00    -0.355 N 
ATOM     14  C   UNK d   0      -2.660 -20.743  -3.732  0.00  0.00    -0.022 A 
ATOM     15  C   UNK d   0      -3.248 -21.596  -1.776  0.00  0.00     0.042 A 
ATOM     16  H   UNK d   0      -4.046 -23.512  -2.505  0.00  0.00     0.166 HD
ATOM     17  C   UNK d   0      -3.386 -21.614  -0.374  0.00  0.00     0.062 C 
ATOM     18  C   UNK d   0      -2.664 -20.470  -2.387  0.00  0.00    -0.013 A 
ATOM     19  C   UNK d   0      -4.464 -21.999   0.382  0.00  0.00     0.067 A 
ATOM     20  N   UNK d   0      -5.455 -22.629  -0.254  0.00  0.00    -0.248 NA
ATOM     21  C   UNK d   0      -4.853 -21.889   1.778  0.00  0.00    -0.011 A 
ATOM     22  C   UNK d   0      -6.465 -22.937   0.624  0.00  0.00     0.066 A 
ATOM     23  C   UNK d   0      -7.546 -23.630   0.100  0.00  0.00     0.062 C 
ATOM     24  C   UNK d   0      -6.027 -22.436   1.912  0.00  0.00    -0.020 A 
ATOM     25  C   UNK d   0      -7.696 -24.136  -1.200  0.00  0.00     0.041 A 
ATOM     26  N   UNK d   0      -7.366 -23.629  -2.394  0.00  0.00    -0.355 N 
ATOM     27  C   UNK d   0      -8.276 -25.413  -1.365  0.00  0.00    -0.022 A 
ATOM     28  C   UNK d   0      -7.711 -24.541  -3.315  0.00  0.00     0.042 A 
ATOM     29  H   UNK d   0      -6.916 -22.624  -2.587  0.00  0.00     0.166 HD
ATOM     30  C   UNK d   0      -7.589 -24.533  -4.714  0.00  0.00     0.062 C 
ATOM     31  C   UNK d   0      -8.289 -25.678  -2.700  0.00  0.00    -0.013 A 
ATOM     32  C   UNK d   0      -6.531 -24.064  -5.476  0.00  0.00     0.066 A 
BRANCH   8  33
ATOM     33  C   UNK d   0      -4.333 -23.240  -8.306  0.00  0.00     0.151 C 
BRANCH  33  34
ATOM     34  C   UNK d   0      -2.892 -23.537  -8.206  0.00  0.00     0.143 C 
ATOM     35  O   UNK d   0      -2.496 -24.628  -7.773  0.00  0.00    -0.650 OA
BRANCH  34  36
ATOM     36  O   UNK d   0      -1.979 -22.586  -8.598  0.00  0.00    -0.776 OA
ATOM     37  H   UNK d   0      -1.878 -21.699  -8.087  0.00  0.00     0.167 HD
ENDBRANCH  34  36
ENDBRANCH  33  34
ENDBRANCH   8  33
BRANCH  31  38
ATOM     38  C   UNK d   0      -8.805 -26.938  -3.354  0.00  0.00     0.151 C 
BRANCH  38  39
ATOM     39  C   UNK d   0     -10.212 -26.862  -3.686  0.00  0.00     0.143 C 
ATOM     40  O   UNK d   0     -10.772 -27.707  -4.407  0.00  0.00    -0.650 OA
BRANCH  39  41
ATOM     41  O   UNK d   0     -10.980 -25.811  -3.185  0.00  0.00    -0.776 OA
ATOM     42  H   UNK d   0     -11.889 -26.055  -2.781  0.00  0.00     0.167 HD
ENDBRANCH  39  41
ENDBRANCH  38  39
ENDBRANCH  31  38
BRANCH  27  43
ATOM     43  C   UNK d   0      -8.807 -26.366  -0.324  0.00  0.00     0.052 C 
BRANCH  43  44
ATOM     44  C   UNK d   0      -7.905 -26.511   0.859  0.00  0.00     0.115 C 
BRANCH  44  45
ATOM     45  C   UNK d   0      -6.627 -27.074   0.353  0.00  0.00     0.139 C 
ATOM     46  O   UNK d   0      -5.554 -26.617   0.817  0.00  0.00    -0.650 OA
BRANCH  45  47
ATOM     47  O   UNK d   0      -6.574 -28.074  -0.594  0.00  0.00    -0.776 OA
ATOM     48  H   UNK d   0      -6.299 -29.044  -0.370  0.00  0.00     0.167 HD
ENDBRANCH  45  47
ENDBRANCH  44  45
ENDBRANCH  43  44
ENDBRANCH  27  43
BRANCH  24  49
ATOM     49  C   UNK d   0      -6.780 -22.579   3.170  0.00  0.00     0.052 C 
BRANCH  49  50
ATOM     50  C   UNK d   0      -7.917 -21.590   3.215  0.00  0.00     0.115 C 
BRANCH  50  51
ATOM     51  C   UNK d   0      -7.792 -20.475   4.143  0.00  0.00     0.139 C 
ATOM     52  O   UNK d   0      -6.696 -20.138   4.652  0.00  0.00    -0.650 OA
BRANCH  51  53
ATOM     53  O   UNK d   0      -8.916 -19.744   4.494  0.00  0.00    -0.776 OA
ATOM     54  H   UNK d   0      -9.754 -19.871   3.953  0.00  0.00     0.167 HD
ENDBRANCH  51  53
ENDBRANCH  50  51
ENDBRANCH  49  50
ENDBRANCH  24  49
BRANCH  21  55
ATOM     55  C   UNK d   0      -4.010 -21.253   2.833  0.00  0.00     0.151 C 
BRANCH  55  56
ATOM     56  C   UNK d   0      -3.773 -19.826   2.563  0.00  0.00     0.143 C 
ATOM     57  O   UNK d   0      -2.638 -19.360   2.345  0.00  0.00    -0.650 OA
BRANCH  56  58
ATOM     58  O   UNK d   0      -4.877 -18.975   2.556  0.00  0.00    -0.776 OA
ATOM     59  H   UNK d   0      -4.659 -17.980   2.367  0.00  0.00     0.167 HD
ENDBRANCH  56  58
ENDBRANCH  55  56
ENDBRANCH  21  55
BRANCH  18  60
ATOM     60  C   UNK d   0      -2.138 -19.202  -1.761  0.00  0.00     0.151 C 
BRANCH  60  61
ATOM     61  C   UNK d   0      -0.733 -19.473  -1.420  0.00  0.00     0.143 C 
ATOM     62  O   UNK d   0      -0.128 -20.537  -1.555  0.00  0.00    -0.650 OA
BRANCH  61  63
ATOM     63  O   UNK d   0      -0.021 -18.374  -0.880  0.00  0.00    -0.776 OA
ATOM     64  H   UNK d   0       0.902 -18.490  -0.502  0.00  0.00     0.167 HD
ENDBRANCH  61  63
ENDBRANCH  60  61
ENDBRANCH  18  60
BRANCH  14  65
ATOM     65  C   UNK d   0      -2.019 -19.820  -4.729  0.00  0.00     0.052 C 
BRANCH  65  66
ATOM     66  C   UNK d   0      -2.811 -18.585  -4.972  0.00  0.00     0.115 C 
BRANCH  66  67
ATOM     67  C   UNK d   0      -2.252 -17.525  -5.764  0.00  0.00     0.139 C 
ATOM     68  O   UNK d   0      -2.806 -17.241  -6.889  0.00  0.00    -0.650 OA
BRANCH  67  69
ATOM     69  O   UNK d   0      -1.146 -16.731  -5.466  0.00  0.00    -0.776 OA
ATOM     70  H   UNK d   0      -0.343 -16.822  -6.106  0.00  0.00     0.167 HD
ENDBRANCH  67  69
ENDBRANCH  66  67
ENDBRANCH  65  66
ENDBRANCH  14  65
ENDBRANCH   6   7
ENDBRANCH   5   6
ENDBRANCH   2   5
TORSDOF 28
ENDMDL
MODEL 16
REMARK VINA RESULT:      -7.9     31.098     34.946
REMARK  28 active torsions:
REMARK  status: ('A' for Active; 'I' for Inactive)
REMARK    1  A    between atoms: C_2  and  O_3 
REMARK    2  A    between atoms: C_2  and  C_4 
REMARK    3  A    between atoms: C_4  and  C_5 
REMARK    4  A    between atoms: C_5  and  C_6 
REMARK    5  A    between atoms: C_7  and  C_8 
REMARK    6  A    between atoms: C_8  and  C_9 
REMARK    7  A    between atoms: C_9  and  O_11 
REMARK    8  A    between atoms: C_28  and  C_29 
REMARK    9  A    between atoms: C_29  and  C_30 
REMARK   10  A    between atoms: C_30  and  O_32 
REMARK   11  A    between atoms: C_33  and  C_34 
REMARK   12  A    between atoms: C_34  and  C_35 
REMARK   13  A    between atoms: C_35  and  C_36 
REMARK   14  A    between atoms: C_36  and  O_38 
REMARK   15  A    between atoms: C_39  and  C_40 
REMARK   16  A    between atoms: C_40  and  C_41 
REMARK   17  A    between atoms: C_41  and  C_42 
REMARK   18  A    between atoms: C_42  and  O_44 
REMARK   19  A    between atoms: C_45  and  C_46 
REMARK   20  A    between atoms: C_46  and  C_47 
REMARK   21  A    between atoms: C_47  and  O_49 
REMARK   22  A    between atoms: C_50  and  C_51 
REMARK   23  A    between atoms: C_51  and  C_52 
REMARK   24  A    between atoms: C_52  and  O_54 
REMARK   25  A    between atoms: C_55  and  C_56 
REMARK   26  A    between atoms: C_56  and  C_57 
REMARK   27  A    between atoms: C_57  and  C_58 
REMARK   28  A    between atoms: C_58  and  O_60 
ROOT
ATOM      1  O   UNK d   0     -16.926 -20.887  -0.223  0.00  0.00    -0.650 OA
ATOM      2  C   UNK d   0     -16.748 -20.233   0.828  0.00  0.00     0.139 C 
ENDROOT
BRANCH   2   3
ATOM      3  O   UNK d   0     -17.792 -20.075   1.708  0.00  0.00    -0.776 OA
ATOM      4  H   UNK d   0     -17.670 -19.567   2.586  0.00  0.00     0.167 HD
ENDBRANCH   2   3
BRANCH   2   5
ATOM      5  C   UNK d   0     -15.416 -19.632   1.120  0.00  0.00     0.115 C 
BRANCH   5   6
ATOM      6  C   UNK d   0     -14.958 -20.030   2.496  0.00  0.00     0.052 C 
BRANCH   6   7
ATOM      7  C   UNK d   0     -13.622 -20.734   2.483  0.00  0.00    -0.020 A 
ATOM      8  C   UNK d   0     -13.398 -22.019   2.379  0.00  0.00    -0.011 A 
ATOM      9  C   UNK d   0     -11.960 -22.224   2.423  0.00  0.00     0.067 A 
ATOM     10  C   UNK d   0     -11.091 -23.324   2.342  0.00  0.00     0.062 C 
ATOM     11  N   UNK d   0     -11.386 -21.011   2.561  0.00  0.00    -0.248 NA
ATOM     12  C   UNK d   0      -9.710 -23.298   2.123  0.00  0.00     0.041 A 
ATOM     13  N   UNK d   0      -8.747 -22.505   2.629  0.00  0.00    -0.355 N 
ATOM     14  C   UNK d   0      -9.153 -24.187   1.186  0.00  0.00    -0.022 A 
ATOM     15  C   UNK d   0      -7.594 -22.862   2.031  0.00  0.00     0.042 A 
ATOM     16  H   UNK d   0      -8.876 -21.721   3.408  0.00  0.00     0.166 HD
ATOM     17  C   UNK d   0      -6.288 -22.359   2.192  0.00  0.00     0.062 C 
ATOM     18  C   UNK d   0      -7.809 -23.914   1.120  0.00  0.00    -0.013 A 
ATOM     19  C   UNK d   0      -5.869 -21.055   2.262  0.00  0.00     0.067 A 
ATOM     20  N   UNK d   0      -6.815 -20.122   2.395  0.00  0.00    -0.248 NA
ATOM     21  C   UNK d   0      -4.591 -20.364   2.214  0.00  0.00    -0.011 A 
ATOM     22  C   UNK d   0      -6.248 -18.871   2.436  0.00  0.00     0.066 A 
ATOM     23  C   UNK d   0      -7.119 -17.805   2.611  0.00  0.00     0.062 C 
ATOM     24  C   UNK d   0      -4.820 -19.087   2.312  0.00  0.00    -0.020 A 
ATOM     25  C   UNK d   0      -8.502 -17.854   2.842  0.00  0.00     0.041 A 
ATOM     26  N   UNK d   0      -9.461 -18.632   2.328  0.00  0.00    -0.355 N 
ATOM     27  C   UNK d   0      -9.060 -16.964   3.786  0.00  0.00    -0.022 A 
ATOM     28  C   UNK d   0     -10.613 -18.272   2.916  0.00  0.00     0.042 A 
ATOM     29  H   UNK d   0      -9.332 -19.412   1.538  0.00  0.00     0.166 HD
ATOM     30  C   UNK d   0     -11.921 -18.757   2.759  0.00  0.00     0.062 C 
ATOM     31  C   UNK d   0     -10.395 -17.222   3.839  0.00  0.00    -0.013 A 
ATOM     32  C   UNK d   0     -12.332 -20.072   2.603  0.00  0.00     0.066 A 
BRANCH   8  33
ATOM     33  C   UNK d   0     -14.408 -23.085   2.247  0.00  0.00     0.151 C 
BRANCH  33  34
ATOM     34  C   UNK d   0     -14.645 -23.476   0.845  0.00  0.00     0.143 C 
ATOM     35  O   UNK d   0     -15.147 -24.574   0.566  0.00  0.00    -0.650 OA
BRANCH  34  36
ATOM     36  O   UNK d   0     -14.302 -22.607  -0.165  0.00  0.00    -0.776 OA
ATOM     37  H   UNK d   0     -13.786 -21.738   0.030  0.00  0.00     0.167 HD
ENDBRANCH  34  36
ENDBRANCH  33  34
ENDBRANCH   8  33
BRANCH  31  38
ATOM     38  C   UNK d   0     -11.403 -16.525   4.723  0.00  0.00     0.151 C 
BRANCH  38  39
ATOM     39  C   UNK d   0     -11.803 -17.327   5.860  0.00  0.00     0.143 C 
ATOM     40  O   UNK d   0     -12.974 -17.709   6.026  0.00  0.00    -0.650 OA
BRANCH  39  41
ATOM     41  O   UNK d   0     -10.850 -17.694   6.810  0.00  0.00    -0.776 OA
ATOM     42  H   UNK d   0     -10.404 -18.608   6.688  0.00  0.00     0.167 HD
ENDBRANCH  39  41
ENDBRANCH  38  39
ENDBRANCH  31  38
BRANCH  27  43
ATOM     43  C   UNK d   0      -8.385 -15.901   4.617  0.00  0.00     0.052 C 
BRANCH  43  44
ATOM     44  C   UNK d   0      -7.739 -16.439   5.852  0.00  0.00     0.115 C 
BRANCH  44  45
ATOM     45  C   UNK d   0      -8.124 -15.530   6.963  0.00  0.00     0.139 C 
ATOM     46  O   UNK d   0      -9.296 -15.080   6.980  0.00  0.00    -0.650 OA
BRANCH  45  47
ATOM     47  O   UNK d   0      -7.253 -15.168   7.968  0.00  0.00    -0.776 OA
ATOM     48  H   UNK d   0      -6.858 -14.218   8.052  0.00  0.00     0.167 HD
ENDBRANCH  45  47
ENDBRANCH  44  45
ENDBRANCH  43  44
ENDBRANCH  27  43
BRANCH  24  49
ATOM     49  C   UNK d   0      -3.803 -18.022   2.345  0.00  0.00     0.052 C 
BRANCH  49  50
ATOM     50  C   UNK d   0      -3.619 -17.429   0.971  0.00  0.00     0.115 C 
BRANCH  50  51
ATOM     51  C   UNK d   0      -2.253 -17.168   0.537  0.00  0.00     0.139 C 
ATOM     52  O   UNK d   0      -1.629 -16.128   0.857  0.00  0.00    -0.650 OA
BRANCH  51  53
ATOM     53  O   UNK d   0      -1.599 -18.091  -0.264  0.00  0.00    -0.776 OA
ATOM     54  H   UNK d   0      -1.249 -18.930   0.165  0.00  0.00     0.167 HD
ENDBRANCH  51  53
ENDBRANCH  50  51
ENDBRANCH  49  50
ENDBRANCH  24  49
BRANCH  21  55
ATOM     55  C   UNK d   0      -3.273 -21.054   2.079  0.00  0.00     0.151 C 
BRANCH  55  56
ATOM     56  C   UNK d   0      -2.713 -20.913   0.726  0.00  0.00     0.143 C 
ATOM     57  O   UNK d   0      -3.425 -20.790  -0.290  0.00  0.00    -0.650 OA
BRANCH  56  58
ATOM     58  O   UNK d   0      -1.325 -20.920   0.595  0.00  0.00    -0.776 OA
ATOM     59  H   UNK d   0      -0.955 -20.300  -0.147  0.00  0.00     0.167 HD
ENDBRANCH  56  58
ENDBRANCH  55  56
ENDBRANCH  21  55
BRANCH  18  60
ATOM     60  C   UNK d   0      -6.824 -24.629   0.229  0.00  0.00     0.151 C 
BRANCH  60  61
ATOM     61  C   UNK d   0      -6.325 -25.769   1.012  0.00  0.00     0.143 C 
ATOM     62  O   UNK d   0      -5.422 -25.756   1.849  0.00  0.00    -0.650 OA
BRANCH  61  63
ATOM     63  O   UNK d   0      -6.970 -27.003   0.758  0.00  0.00    -0.776 OA
ATOM     64  H   UNK d   0      -7.210 -27.280  -0.177  0.00  0.00     0.167 HD
ENDBRANCH  61  63
ENDBRANCH  60  61
ENDBRANCH  18  60
BRANCH  14  65
ATOM     65  C   UNK d   0      -9.770 -25.329   0.429  0.00  0.00     0.052 C 
BRANCH  65  66
ATOM     66  C   UNK d   0      -9.609 -25.205  -1.044  0.00  0.00     0.115 C 
BRANCH  66  67
ATOM     67  C   UNK d   0      -9.324 -26.372  -1.830  0.00  0.00     0.139 C 
ATOM     68  O   UNK d   0      -8.111 -26.581  -2.202  0.00  0.00    -0.650 OA
BRANCH  67  69
ATOM     69  O   UNK d   0     -10.220 -27.350  -2.262  0.00  0.00    -0.776 OA
ATOM     70  H   UNK d   0     -10.498 -27.297  -3.253  0.00  0.00     0.167 HD
ENDBRANCH  67  69
ENDBRANCH  66  67
ENDBRANCH  65  66
ENDBRANCH  14  65
ENDBRANCH   6   7
ENDBRANCH   5   6
ENDBRANCH   2   5
TORSDOF 28
ENDMDL
MODEL 17
REMARK VINA RESULT:      -7.8     29.866     33.361
REMARK  28 active torsions:
REMARK  status: ('A' for Active; 'I' for Inactive)
REMARK    1  A    between atoms: C_2  and  O_3 
REMARK    2  A    between atoms: C_2  and  C_4 
REMARK    3  A    between atoms: C_4  and  C_5 
REMARK    4  A    between atoms: C_5  and  C_6 
REMARK    5  A    between atoms: C_7  and  C_8 
REMARK    6  A    between atoms: C_8  and  C_9 
REMARK    7  A    between atoms: C_9  and  O_11 
REMARK    8  A    between atoms: C_28  and  C_29 
REMARK    9  A    between atoms: C_29  and  C_30 
REMARK   10  A    between atoms: C_30  and  O_32 
REMARK   11  A    between atoms: C_33  and  C_34 
REMARK   12  A    between atoms: C_34  and  C_35 
REMARK   13  A    between atoms: C_35  and  C_36 
REMARK   14  A    between atoms: C_36  and  O_38 
REMARK   15  A    between atoms: C_39  and  C_40 
REMARK   16  A    between atoms: C_40  and  C_41 
REMARK   17  A    between atoms: C_41  and  C_42 
REMARK   18  A    between atoms: C_42  and  O_44 
REMARK   19  A    between atoms: C_45  and  C_46 
REMARK   20  A    between atoms: C_46  and  C_47 
REMARK   21  A    between atoms: C_47  and  O_49 
REMARK   22  A    between atoms: C_50  and  C_51 
REMARK   23  A    between atoms: C_51  and  C_52 
REMARK   24  A    between atoms: C_52  and  O_54 
REMARK   25  A    between atoms: C_55  and  C_56 
REMARK   26  A    between atoms: C_56  and  C_57 
REMARK   27  A    between atoms: C_57  and  C_58 
REMARK   28  A    between atoms: C_58  and  O_60 
ROOT
ATOM      1  O   UNK d   0      -1.416 -23.477  -9.867  0.00  0.00    -0.650 OA
ATOM      2  C   UNK d   0      -2.589 -23.155 -10.160  0.00  0.00     0.139 C 
ENDROOT
BRANCH   2   3
ATOM      3  O   UNK d   0      -2.813 -22.322 -11.229  0.00  0.00    -0.776 OA
ATOM      4  H   UNK d   0      -3.718 -22.304 -11.704  0.00  0.00     0.167 HD
ENDBRANCH   2   3
BRANCH   2   5
ATOM      5  C   UNK d   0      -3.730 -23.673  -9.352  0.00  0.00     0.115 C 
BRANCH   5   6
ATOM      6  C   UNK d   0      -4.472 -22.531  -8.713  0.00  0.00     0.052 C 
BRANCH   6   7
ATOM      7  C   UNK d   0      -4.229 -22.440  -7.226  0.00  0.00    -0.020 A 
ATOM      8  C   UNK d   0      -3.208 -21.895  -6.616  0.00  0.00    -0.011 A 
ATOM      9  C   UNK d   0      -3.407 -22.056  -5.185  0.00  0.00     0.067 A 
ATOM     10  C   UNK d   0      -2.716 -21.690  -4.019  0.00  0.00     0.062 C 
ATOM     11  N   UNK d   0      -4.572 -22.715  -5.014  0.00  0.00    -0.248 NA
ATOM     12  C   UNK d   0      -3.206 -21.689  -2.709  0.00  0.00     0.041 A 
ATOM     13  N   UNK d   0      -3.965 -22.582  -2.045  0.00  0.00    -0.355 N 
ATOM     14  C   UNK d   0      -2.955 -20.574  -1.889  0.00  0.00    -0.022 A 
ATOM     15  C   UNK d   0      -4.208 -22.059  -0.829  0.00  0.00     0.042 A 
ATOM     16  H   UNK d   0      -4.306 -23.572  -2.422  0.00  0.00     0.166 HD
ATOM     17  C   UNK d   0      -4.944 -22.574   0.257  0.00  0.00     0.062 C 
ATOM     18  C   UNK d   0      -3.591 -20.800  -0.694  0.00  0.00    -0.013 A 
ATOM     19  C   UNK d   0      -6.173 -23.183   0.254  0.00  0.00     0.067 A 
ATOM     20  N   UNK d   0      -6.676 -23.524  -0.936  0.00  0.00    -0.248 NA
ATOM     21  C   UNK d   0      -7.148 -23.572   1.258  0.00  0.00    -0.011 A 
ATOM     22  C   UNK d   0      -7.910 -24.106  -0.782  0.00  0.00     0.066 A 
ATOM     23  C   UNK d   0      -8.534 -24.545  -1.941  0.00  0.00     0.062 C 
ATOM     24  C   UNK d   0      -8.165 -24.108   0.646  0.00  0.00    -0.020 A 
ATOM     25  C   UNK d   0      -8.018 -24.549  -3.246  0.00  0.00     0.041 A 
ATOM     26  N   UNK d   0      -7.277 -23.654  -3.910  0.00  0.00    -0.355 N 
ATOM     27  C   UNK d   0      -8.268 -25.671  -4.067  0.00  0.00    -0.022 A 
ATOM     28  C   UNK d   0      -7.041 -24.170  -5.127  0.00  0.00     0.042 A 
ATOM     29  H   UNK d   0      -6.944 -22.656  -3.534  0.00  0.00     0.166 HD
ATOM     30  C   UNK d   0      -6.318 -23.665  -6.219  0.00  0.00     0.062 C 
ATOM     31  C   UNK d   0      -7.652 -25.440  -5.258  0.00  0.00    -0.013 A 
ATOM     32  C   UNK d   0      -5.117 -22.974  -6.204  0.00  0.00     0.066 A 
BRANCH   8  33
ATOM     33  C   UNK d   0      -2.049 -21.236  -7.246  0.00  0.00     0.151 C 
BRANCH  33  34
ATOM     34  C   UNK d   0      -2.310 -19.827  -7.588  0.00  0.00     0.143 C 
ATOM     35  O   UNK d   0      -2.117 -18.925  -6.760  0.00  0.00    -0.650 OA
BRANCH  34  36
ATOM     36  O   UNK d   0      -2.776 -19.511  -8.843  0.00  0.00    -0.776 OA
ATOM     37  H   UNK d   0      -2.181 -19.616  -9.676  0.00  0.00     0.167 HD
ENDBRANCH  34  36
ENDBRANCH  33  34
ENDBRANCH   8  33
BRANCH  31  38
ATOM     38  C   UNK d   0      -7.633 -26.372  -6.447  0.00  0.00     0.151 C 
BRANCH  38  39
ATOM     39  C   UNK d   0      -8.810 -26.244  -7.280  0.00  0.00     0.143 C 
ATOM     40  O   UNK d   0      -9.523 -25.225  -7.273  0.00  0.00    -0.650 OA
BRANCH  39  41
ATOM     41  O   UNK d   0      -9.169 -27.293  -8.126  0.00  0.00    -0.776 OA
ATOM     42  H   UNK d   0      -9.914 -27.105  -8.804  0.00  0.00     0.167 HD
ENDBRANCH  39  41
ENDBRANCH  38  39
ENDBRANCH  31  38
BRANCH  27  43
ATOM     43  C   UNK d   0      -9.053 -26.923  -3.766  0.00  0.00     0.052 C 
BRANCH  43  44
ATOM     44  C   UNK d   0     -10.497 -26.818  -4.136  0.00  0.00     0.115 C 
BRANCH  44  45
ATOM     45  C   UNK d   0     -10.805 -28.001  -4.982  0.00  0.00     0.139 C 
ATOM     46  O   UNK d   0     -10.367 -29.120  -4.616  0.00  0.00    -0.650 OA
BRANCH  45  47
ATOM     47  O   UNK d   0     -11.550 -27.919  -6.138  0.00  0.00    -0.776 OA
ATOM     48  H   UNK d   0     -11.344 -28.483  -6.978  0.00  0.00     0.167 HD
ENDBRANCH  45  47
ENDBRANCH  44  45
ENDBRANCH  43  44
ENDBRANCH  27  43
BRANCH  24  49
ATOM     49  C   UNK d   0      -9.364 -24.676   1.285  0.00  0.00     0.052 C 
BRANCH  49  50
ATOM     50  C   UNK d   0      -9.414 -26.168   1.074  0.00  0.00     0.115 C 
BRANCH  50  51
ATOM     51  C   UNK d   0     -10.386 -26.670   0.113  0.00  0.00     0.139 C 
ATOM     52  O   UNK d   0     -11.110 -25.913  -0.576  0.00  0.00    -0.650 OA
BRANCH  51  53
ATOM     53  O   UNK d   0     -10.536 -28.038  -0.059  0.00  0.00    -0.776 OA
ATOM     54  H   UNK d   0     -10.919 -28.574   0.700  0.00  0.00     0.167 HD
ENDBRANCH  51  53
ENDBRANCH  50  51
ENDBRANCH  49  50
ENDBRANCH  24  49
BRANCH  21  55
ATOM     55  C   UNK d   0      -6.961 -23.372   2.726  0.00  0.00     0.151 C 
BRANCH  55  56
ATOM     56  C   UNK d   0      -7.396 -22.036   3.160  0.00  0.00     0.143 C 
ATOM     57  O   UNK d   0      -8.510 -21.823   3.677  0.00  0.00    -0.650 OA
BRANCH  56  58
ATOM     58  O   UNK d   0      -6.511 -20.974   2.978  0.00  0.00    -0.776 OA
ATOM     59  H   UNK d   0      -6.519 -20.265   3.733  0.00  0.00     0.167 HD
ENDBRANCH  56  58
ENDBRANCH  55  56
ENDBRANCH  21  55
BRANCH  18  60
ATOM     60  C   UNK d   0      -3.590 -19.851   0.479  0.00  0.00     0.151 C 
BRANCH  60  61
ATOM     61  C   UNK d   0      -2.811 -20.515   1.535  0.00  0.00     0.143 C 
ATOM     62  O   UNK d   0      -1.658 -20.938   1.452  0.00  0.00    -0.650 OA
BRANCH  61  63
ATOM     63  O   UNK d   0      -3.484 -20.671   2.771  0.00  0.00    -0.776 OA
ATOM     64  H   UNK d   0      -4.021 -19.921   3.168  0.00  0.00     0.167 HD
ENDBRANCH  61  63
ENDBRANCH  60  61
ENDBRANCH  18  60
BRANCH  14  65
ATOM     65  C   UNK d   0      -2.086 -19.369  -2.112  0.00  0.00     0.052 C 
BRANCH  65  66
ATOM     66  C   UNK d   0      -0.718 -19.525  -1.549  0.00  0.00     0.115 C 
BRANCH  66  67
ATOM     67  C   UNK d   0       0.391 -18.866  -2.180  0.00  0.00     0.139 C 
ATOM     68  O   UNK d   0       1.580 -19.277  -1.916  0.00  0.00    -0.650 OA
BRANCH  67  69
ATOM     69  O   UNK d   0       0.351 -17.797  -3.075  0.00  0.00    -0.776 OA
ATOM     70  H   UNK d   0       0.117 -16.880  -2.668  0.00  0.00     0.167 HD
ENDBRANCH  67  69
ENDBRANCH  66  67
ENDBRANCH  65  66
ENDBRANCH  14  65
ENDBRANCH   6   7
ENDBRANCH   5   6
ENDBRANCH   2   5
TORSDOF 28
ENDMDL
MODEL 18
REMARK VINA RESULT:      -7.8      1.706      7.968
REMARK  28 active torsions:
REMARK  status: ('A' for Active; 'I' for Inactive)
REMARK    1  A    between atoms: C_2  and  O_3 
REMARK    2  A    between atoms: C_2  and  C_4 
REMARK    3  A    between atoms: C_4  and  C_5 
REMARK    4  A    between atoms: C_5  and  C_6 
REMARK    5  A    between atoms: C_7  and  C_8 
REMARK    6  A    between atoms: C_8  and  C_9 
REMARK    7  A    between atoms: C_9  and  O_11 
REMARK    8  A    between atoms: C_28  and  C_29 
REMARK    9  A    between atoms: C_29  and  C_30 
REMARK   10  A    between atoms: C_30  and  O_32 
REMARK   11  A    between atoms: C_33  and  C_34 
REMARK   12  A    between atoms: C_34  and  C_35 
REMARK   13  A    between atoms: C_35  and  C_36 
REMARK   14  A    between atoms: C_36  and  O_38 
REMARK   15  A    between atoms: C_39  and  C_40 
REMARK   16  A    between atoms: C_40  and  C_41 
REMARK   17  A    between atoms: C_41  and  C_42 
REMARK   18  A    between atoms: C_42  and  O_44 
REMARK   19  A    between atoms: C_45  and  C_46 
REMARK   20  A    between atoms: C_46  and  C_47 
REMARK   21  A    between atoms: C_47  and  O_49 
REMARK   22  A    between atoms: C_50  and  C_51 
REMARK   23  A    between atoms: C_51  and  C_52 
REMARK   24  A    between atoms: C_52  and  O_54 
REMARK   25  A    between atoms: C_55  and  C_56 
REMARK   26  A    between atoms: C_56  and  C_57 
REMARK   27  A    between atoms: C_57  and  C_58 
REMARK   28  A    between atoms: C_58  and  O_60 
ROOT
ATOM      1  O   UNK d   0     -18.722  -7.180 -33.563  0.00  0.00    -0.650 OA
ATOM      2  C   UNK d   0     -19.809  -6.942 -32.992  0.00  0.00     0.139 C 
ENDROOT
BRANCH   2   3
ATOM      3  O   UNK d   0     -20.978  -7.401 -33.549  0.00  0.00    -0.776 OA
ATOM      4  H   UNK d   0     -21.341  -7.001 -34.417  0.00  0.00     0.167 HD
ENDBRANCH   2   3
BRANCH   2   5
ATOM      5  C   UNK d   0     -19.831  -6.166 -31.719  0.00  0.00     0.115 C 
BRANCH   5   6
ATOM      6  C   UNK d   0     -18.660  -6.552 -30.857  0.00  0.00     0.052 C 
BRANCH   6   7
ATOM      7  C   UNK d   0     -18.992  -6.536 -29.384  0.00  0.00    -0.020 A 
ATOM      8  C   UNK d   0     -18.301  -5.990 -28.416  0.00  0.00    -0.011 A 
ATOM      9  C   UNK d   0     -19.007  -6.238 -27.171  0.00  0.00     0.067 A 
ATOM     10  C   UNK d   0     -18.819  -5.914 -25.818  0.00  0.00     0.062 C 
ATOM     11  N   UNK d   0     -20.116  -6.946 -27.473  0.00  0.00    -0.248 NA
ATOM     12  C   UNK d   0     -19.760  -6.003 -24.786  0.00  0.00     0.041 A 
ATOM     13  N   UNK d   0     -20.662  -6.959 -24.489  0.00  0.00    -0.355 N 
ATOM     14  C   UNK d   0     -19.891  -4.928 -23.889  0.00  0.00    -0.022 A 
ATOM     15  C   UNK d   0     -21.366  -6.513 -23.432  0.00  0.00     0.042 A 
ATOM     16  H   UNK d   0     -20.785  -7.937 -25.005  0.00  0.00     0.166 HD
ATOM     17  C   UNK d   0     -22.424  -7.114 -22.721  0.00  0.00     0.062 C 
ATOM     18  C   UNK d   0     -20.912  -5.243 -23.028  0.00  0.00    -0.013 A 
ATOM     19  C   UNK d   0     -23.530  -7.765 -23.206  0.00  0.00     0.067 A 
ATOM     20  N   UNK d   0     -23.536  -8.056 -24.509  0.00  0.00    -0.248 NA
ATOM     21  C   UNK d   0     -24.786  -8.244 -22.654  0.00  0.00    -0.011 A 
ATOM     22  C   UNK d   0     -24.706  -8.689 -24.850  0.00  0.00     0.066 A 
ATOM     23  C   UNK d   0     -24.831  -9.084 -26.174  0.00  0.00     0.062 C 
ATOM     24  C   UNK d   0     -25.472  -8.780 -23.622  0.00  0.00    -0.020 A 
ATOM     25  C   UNK d   0     -23.868  -8.996 -27.192  0.00  0.00     0.041 A 
ATOM     26  N   UNK d   0     -22.982  -8.041 -27.496  0.00  0.00    -0.355 N 
ATOM     27  C   UNK d   0     -23.735 -10.078 -28.089  0.00  0.00    -0.022 A 
ATOM     28  C   UNK d   0     -22.284  -8.479 -28.556  0.00  0.00     0.042 A 
ATOM     29  H   UNK d   0     -22.867  -7.054 -26.984  0.00  0.00     0.166 HD
ATOM     30  C   UNK d   0     -21.236  -7.888 -29.279  0.00  0.00     0.062 C 
ATOM     31  C   UNK d   0     -22.734  -9.759 -28.955  0.00  0.00    -0.013 A 
ATOM     32  C   UNK d   0     -20.165  -7.157 -28.789  0.00  0.00     0.066 A 
BRANCH   8  33
ATOM     33  C   UNK d   0     -17.028  -5.257 -28.542  0.00  0.00     0.151 C 
BRANCH  33  34
ATOM     34  C   UNK d   0     -15.912  -5.928 -27.852  0.00  0.00     0.143 C 
ATOM     35  O   UNK d   0     -15.385  -5.421 -26.851  0.00  0.00    -0.650 OA
BRANCH  34  36
ATOM     36  O   UNK d   0     -15.449  -7.133 -28.328  0.00  0.00    -0.776 OA
ATOM     37  H   UNK d   0     -15.356  -7.951 -27.711  0.00  0.00     0.167 HD
ENDBRANCH  34  36
ENDBRANCH  33  34
ENDBRANCH   8  33
BRANCH  31  38
ATOM     38  C   UNK d   0     -22.225 -10.623 -30.086  0.00  0.00     0.151 C 
BRANCH  38  39
ATOM     39  C   UNK d   0     -21.025 -11.353 -29.738  0.00  0.00     0.143 C 
ATOM     40  O   UNK d   0     -20.090 -11.518 -30.542  0.00  0.00    -0.650 OA
BRANCH  39  41
ATOM     41  O   UNK d   0     -20.898 -11.897 -28.460  0.00  0.00    -0.776 OA
ATOM     42  H   UNK d   0     -20.348 -11.359 -27.783  0.00  0.00     0.167 HD
ENDBRANCH  39  41
ENDBRANCH  38  39
ENDBRANCH  31  38
BRANCH  27  43
ATOM     43  C   UNK d   0     -24.508 -11.372 -28.152  0.00  0.00     0.052 C 
BRANCH  43  44
ATOM     44  C   UNK d   0     -25.041 -11.677 -29.514  0.00  0.00     0.115 C 
BRANCH  44  45
ATOM     45  C   UNK d   0     -24.911 -13.145 -29.702  0.00  0.00     0.139 C 
ATOM     46  O   UNK d   0     -24.381 -13.561 -30.762  0.00  0.00    -0.650 OA
BRANCH  45  47
ATOM     47  O   UNK d   0     -25.341 -14.059 -28.765  0.00  0.00    -0.776 OA
ATOM     48  H   UNK d   0     -25.138 -13.966 -27.757  0.00  0.00     0.167 HD
ENDBRANCH  45  47
ENDBRANCH  44  45
ENDBRANCH  43  44
ENDBRANCH  27  43
BRANCH  24  49
ATOM     49  C   UNK d   0     -26.790  -9.425 -23.499  0.00  0.00     0.052 C 
BRANCH  49  50
ATOM     50  C   UNK d   0     -27.867  -8.529 -24.056  0.00  0.00     0.115 C 
BRANCH  50  51
ATOM     51  C   UNK d   0     -27.954  -8.417 -25.506  0.00  0.00     0.139 C 
ATOM     52  O   UNK d   0     -27.872  -7.320 -26.106  0.00  0.00    -0.650 OA
BRANCH  51  53
ATOM     53  O   UNK d   0     -28.139  -9.558 -26.272  0.00  0.00    -0.776 OA
ATOM     54  H   UNK d   0     -28.990 -10.079 -26.151  0.00  0.00     0.167 HD
ENDBRANCH  51  53
ENDBRANCH  50  51
ENDBRANCH  49  50
ENDBRANCH  24  49
BRANCH  21  55
ATOM     55  C   UNK d   0     -25.168  -8.120 -21.216  0.00  0.00     0.151 C 
BRANCH  55  56
ATOM     56  C   UNK d   0     -24.635  -9.226 -20.407  0.00  0.00     0.143 C 
ATOM     57  O   UNK d   0     -25.320 -10.216 -20.082  0.00  0.00    -0.650 OA
BRANCH  56  58
ATOM     58  O   UNK d   0     -23.305  -9.147 -19.995  0.00  0.00    -0.776 OA
ATOM     59  H   UNK d   0     -23.128  -9.474 -19.028  0.00  0.00     0.167 HD
ENDBRANCH  56  58
ENDBRANCH  55  56
ENDBRANCH  21  55
BRANCH  18  60
ATOM     60  C   UNK d   0     -21.398  -4.361 -21.904  0.00  0.00     0.151 C 
BRANCH  60  61
ATOM     61  C   UNK d   0     -22.595  -3.678 -22.415  0.00  0.00     0.143 C 
ATOM     62  O   UNK d   0     -22.719  -3.110 -23.501  0.00  0.00    -0.650 OA
BRANCH  61  63
ATOM     63  O   UNK d   0     -23.713  -3.688 -21.546  0.00  0.00    -0.776 OA
ATOM     64  H   UNK d   0     -24.565  -3.218 -21.792  0.00  0.00     0.167 HD
ENDBRANCH  61  63
ENDBRANCH  60  61
ENDBRANCH  18  60
BRANCH  14  65
ATOM     65  C   UNK d   0     -19.067  -3.682 -23.725  0.00  0.00     0.052 C 
BRANCH  65  66
ATOM     66  C   UNK d   0     -17.695  -3.954 -23.221  0.00  0.00     0.115 C 
BRANCH  66  67
ATOM     67  C   UNK d   0     -16.573  -3.282 -23.814  0.00  0.00     0.139 C 
ATOM     68  O   UNK d   0     -16.609  -2.001 -23.916  0.00  0.00    -0.650 OA
BRANCH  67  69
ATOM     69  O   UNK d   0     -15.403  -3.853 -24.314  0.00  0.00    -0.776 OA
ATOM     70  H   UNK d   0     -15.117  -4.742 -23.879  0.00  0.00     0.167 HD
ENDBRANCH  67  69
ENDBRANCH  66  67
ENDBRANCH  65  66
ENDBRANCH  14  65
ENDBRANCH   6   7
ENDBRANCH   5   6
ENDBRANCH   2   5
TORSDOF 28
ENDMDL
MODEL 19
REMARK VINA RESULT:      -7.7     30.340     35.113
REMARK  28 active torsions:
REMARK  status: ('A' for Active; 'I' for Inactive)
REMARK    1  A    between atoms: C_2  and  O_3 
REMARK    2  A    between atoms: C_2  and  C_4 
REMARK    3  A    between atoms: C_4  and  C_5 
REMARK    4  A    between atoms: C_5  and  C_6 
REMARK    5  A    between atoms: C_7  and  C_8 
REMARK    6  A    between atoms: C_8  and  C_9 
REMARK    7  A    between atoms: C_9  and  O_11 
REMARK    8  A    between atoms: C_28  and  C_29 
REMARK    9  A    between atoms: C_29  and  C_30 
REMARK   10  A    between atoms: C_30  and  O_32 
REMARK   11  A    between atoms: C_33  and  C_34 
REMARK   12  A    between atoms: C_34  and  C_35 
REMARK   13  A    between atoms: C_35  and  C_36 
REMARK   14  A    between atoms: C_36  and  O_38 
REMARK   15  A    between atoms: C_39  and  C_40 
REMARK   16  A    between atoms: C_40  and  C_41 
REMARK   17  A    between atoms: C_41  and  C_42 
REMARK   18  A    between atoms: C_42  and  O_44 
REMARK   19  A    between atoms: C_45  and  C_46 
REMARK   20  A    between atoms: C_46  and  C_47 
REMARK   21  A    between atoms: C_47  and  O_49 
REMARK   22  A    between atoms: C_50  and  C_51 
REMARK   23  A    between atoms: C_51  and  C_52 
REMARK   24  A    between atoms: C_52  and  O_54 
REMARK   25  A    between atoms: C_55  and  C_56 
REMARK   26  A    between atoms: C_56  and  C_57 
REMARK   27  A    between atoms: C_57  and  C_58 
REMARK   28  A    between atoms: C_58  and  O_60 
ROOT
ATOM      1  O   UNK d   0      -4.529 -22.358   2.282  0.00  0.00    -0.650 OA
ATOM      2  C   UNK d   0      -4.414 -23.524   1.843  0.00  0.00     0.139 C 
ENDROOT
BRANCH   2   3
ATOM      3  O   UNK d   0      -3.271 -24.237   2.114  0.00  0.00    -0.776 OA
ATOM      4  H   UNK d   0      -2.859 -24.236   3.050  0.00  0.00     0.167 HD
ENDBRANCH   2   3
BRANCH   2   5
ATOM      5  C   UNK d   0      -5.509 -24.129   1.032  0.00  0.00     0.115 C 
BRANCH   5   6
ATOM      6  C   UNK d   0      -6.622 -24.595   1.931  0.00  0.00     0.052 C 
BRANCH   6   7
ATOM      7  C   UNK d   0      -7.938 -23.922   1.623  0.00  0.00    -0.020 A 
ATOM      8  C   UNK d   0      -8.786 -24.223   0.674  0.00  0.00    -0.011 A 
ATOM      9  C   UNK d   0      -9.901 -23.296   0.763  0.00  0.00     0.067 A 
ATOM     10  C   UNK d   0     -11.110 -23.097   0.077  0.00  0.00     0.062 C 
ATOM     11  N   UNK d   0      -9.646 -22.460   1.791  0.00  0.00    -0.248 NA
ATOM     12  C   UNK d   0     -12.198 -22.318   0.487  0.00  0.00     0.041 A 
ATOM     13  N   UNK d   0     -12.251 -21.095   1.048  0.00  0.00    -0.355 N 
ATOM     14  C   UNK d   0     -13.496 -22.851   0.378  0.00  0.00    -0.022 A 
ATOM     15  C   UNK d   0     -13.548 -20.842   1.306  0.00  0.00     0.042 A 
ATOM     16  H   UNK d   0     -11.391 -20.417   1.241  0.00  0.00     0.166 HD
ATOM     17  C   UNK d   0     -14.161 -19.712   1.884  0.00  0.00     0.062 C 
ATOM     18  C   UNK d   0     -14.359 -21.920   0.900  0.00  0.00    -0.013 A 
ATOM     19  C   UNK d   0     -13.783 -18.999   2.993  0.00  0.00     0.067 A 
ATOM     20  N   UNK d   0     -12.575 -19.263   3.498  0.00  0.00    -0.248 NA
ATOM     21  C   UNK d   0     -14.384 -17.976   3.832  0.00  0.00    -0.011 A 
ATOM     22  C   UNK d   0     -12.343 -18.487   4.608  0.00  0.00     0.066 A 
ATOM     23  C   UNK d   0     -11.104 -18.633   5.214  0.00  0.00     0.062 C 
ATOM     24  C   UNK d   0     -13.538 -17.684   4.778  0.00  0.00    -0.020 A 
ATOM     25  C   UNK d   0     -10.020 -19.411   4.780  0.00  0.00     0.041 A 
ATOM     26  N   UNK d   0      -9.966 -20.633   4.236  0.00  0.00    -0.355 N 
ATOM     27  C   UNK d   0      -8.719 -18.874   4.885  0.00  0.00    -0.022 A 
ATOM     28  C   UNK d   0      -8.673 -20.892   3.986  0.00  0.00     0.042 A 
ATOM     29  H   UNK d   0     -10.830 -21.318   4.053  0.00  0.00     0.166 HD
ATOM     30  C   UNK d   0      -8.049 -22.015   3.420  0.00  0.00     0.062 C 
ATOM     31  C   UNK d   0      -7.860 -19.804   4.384  0.00  0.00    -0.013 A 
ATOM     32  C   UNK d   0      -8.480 -22.784   2.351  0.00  0.00     0.066 A 
BRANCH   8  33
ATOM     33  C   UNK d   0      -8.653 -25.302  -0.322  0.00  0.00     0.151 C 
BRANCH  33  34
ATOM     34  C   UNK d   0      -9.425 -26.506   0.034  0.00  0.00     0.143 C 
ATOM     35  O   UNK d   0      -9.480 -26.903   1.206  0.00  0.00    -0.650 OA
BRANCH  34  36
ATOM     36  O   UNK d   0     -10.091 -27.197  -0.952  0.00  0.00    -0.776 OA
ATOM     37  H   UNK d   0     -10.366 -28.180  -0.822  0.00  0.00     0.167 HD
ENDBRANCH  34  36
ENDBRANCH  33  34
ENDBRANCH   8  33
BRANCH  31  38
ATOM     38  C   UNK d   0      -6.359 -19.665   4.277  0.00  0.00     0.151 C 
BRANCH  38  39
ATOM     39  C   UNK d   0      -5.943 -18.987   3.069  0.00  0.00     0.143 C 
ATOM     40  O   UNK d   0      -6.129 -19.468   1.937  0.00  0.00    -0.650 OA
BRANCH  39  41
ATOM     41  O   UNK d   0      -5.309 -17.748   3.161  0.00  0.00    -0.776 OA
ATOM     42  H   UNK d   0      -5.914 -16.926   3.259  0.00  0.00     0.167 HD
ENDBRANCH  39  41
ENDBRANCH  38  39
ENDBRANCH  31  38
BRANCH  27  43
ATOM     43  C   UNK d   0      -8.273 -17.542   5.433  0.00  0.00     0.052 C 
BRANCH  43  44
ATOM     44  C   UNK d   0      -8.175 -16.476   4.390  0.00  0.00     0.115 C 
BRANCH  44  45
ATOM     45  C   UNK d   0      -7.950 -15.196   5.110  0.00  0.00     0.139 C 
ATOM     46  O   UNK d   0      -8.948 -14.477   5.364  0.00  0.00    -0.650 OA
BRANCH  45  47
ATOM     47  O   UNK d   0      -6.702 -14.773   5.512  0.00  0.00    -0.776 OA
ATOM     48  H   UNK d   0      -5.843 -15.322   5.342  0.00  0.00     0.167 HD
ENDBRANCH  45  47
ENDBRANCH  44  45
ENDBRANCH  43  44
ENDBRANCH  27  43
BRANCH  24  49
ATOM     49  C   UNK d   0     -13.726 -16.668   5.828  0.00  0.00     0.052 C 
BRANCH  49  50
ATOM     50  C   UNK d   0     -13.197 -15.334   5.368  0.00  0.00     0.115 C 
BRANCH  50  51
ATOM     51  C   UNK d   0     -12.184 -14.698   6.200  0.00  0.00     0.139 C 
ATOM     52  O   UNK d   0     -12.085 -13.453   6.311  0.00  0.00    -0.650 OA
BRANCH  51  53
ATOM     53  O   UNK d   0     -11.283 -15.482   6.903  0.00  0.00    -0.776 OA
ATOM     54  H   UNK d   0     -11.091 -16.408   6.563  0.00  0.00     0.167 HD
ENDBRANCH  51  53
ENDBRANCH  50  51
ENDBRANCH  49  50
ENDBRANCH  24  49
BRANCH  21  55
ATOM     55  C   UNK d   0     -15.738 -17.394   3.599  0.00  0.00     0.151 C 
BRANCH  55  56
ATOM     56  C   UNK d   0     -16.811 -18.341   3.937  0.00  0.00     0.143 C 
ATOM     57  O   UNK d   0     -17.348 -19.083   3.091  0.00  0.00    -0.650 OA
BRANCH  56  58
ATOM     58  O   UNK d   0     -17.232 -18.398   5.265  0.00  0.00    -0.776 OA
ATOM     59  H   UNK d   0     -16.579 -18.879   5.909  0.00  0.00     0.167 HD
ENDBRANCH  56  58
ENDBRANCH  55  56
ENDBRANCH  21  55
BRANCH  18  60
ATOM     60  C   UNK d   0     -15.856 -22.084   0.991  0.00  0.00     0.151 C 
BRANCH  60  61
ATOM     61  C   UNK d   0     -16.426 -21.130   0.028  0.00  0.00     0.143 C 
ATOM     62  O   UNK d   0     -16.052 -20.929  -1.128  0.00  0.00    -0.650 OA
BRANCH  61  63
ATOM     63  O   UNK d   0     -17.524 -20.375   0.506  0.00  0.00    -0.776 OA
ATOM     64  H   UNK d   0     -17.696 -20.277   1.491  0.00  0.00     0.167 HD
ENDBRANCH  61  63
ENDBRANCH  60  61
ENDBRANCH  18  60
BRANCH  14  65
ATOM     65  C   UNK d   0     -13.985 -24.118  -0.264  0.00  0.00     0.052 C 
BRANCH  65  66
ATOM     66  C   UNK d   0     -14.411 -23.927  -1.677  0.00  0.00     0.115 C 
BRANCH  66  67
ATOM     67  C   UNK d   0     -13.423 -23.703  -2.694  0.00  0.00     0.139 C 
ATOM     68  O   UNK d   0     -13.282 -22.513  -3.162  0.00  0.00    -0.650 OA
BRANCH  67  69
ATOM     69  O   UNK d   0     -12.561 -24.638  -3.266  0.00  0.00    -0.776 OA
ATOM     70  H   UNK d   0     -12.890 -25.074  -4.140  0.00  0.00     0.167 HD
ENDBRANCH  67  69
ENDBRANCH  66  67
ENDBRANCH  65  66
ENDBRANCH  14  65
ENDBRANCH   6   7
ENDBRANCH   5   6
ENDBRANCH   2   5
TORSDOF 28
ENDMDL
MODEL 20
REMARK VINA RESULT:      -7.4     30.122     33.515
REMARK  28 active torsions:
REMARK  status: ('A' for Active; 'I' for Inactive)
REMARK    1  A    between atoms: C_2  and  O_3 
REMARK    2  A    between atoms: C_2  and  C_4 
REMARK    3  A    between atoms: C_4  and  C_5 
REMARK    4  A    between atoms: C_5  and  C_6 
REMARK    5  A    between atoms: C_7  and  C_8 
REMARK    6  A    between atoms: C_8  and  C_9 
REMARK    7  A    between atoms: C_9  and  O_11 
REMARK    8  A    between atoms: C_28  and  C_29 
REMARK    9  A    between atoms: C_29  and  C_30 
REMARK   10  A    between atoms: C_30  and  O_32 
REMARK   11  A    between atoms: C_33  and  C_34 
REMARK   12  A    between atoms: C_34  and  C_35 
REMARK   13  A    between atoms: C_35  and  C_36 
REMARK   14  A    between atoms: C_36  and  O_38 
REMARK   15  A    between atoms: C_39  and  C_40 
REMARK   16  A    between atoms: C_40  and  C_41 
REMARK   17  A    between atoms: C_41  and  C_42 
REMARK   18  A    between atoms: C_42  and  O_44 
REMARK   19  A    between atoms: C_45  and  C_46 
REMARK   20  A    between atoms: C_46  and  C_47 
REMARK   21  A    between atoms: C_47  and  O_49 
REMARK   22  A    between atoms: C_50  and  C_51 
REMARK   23  A    between atoms: C_51  and  C_52 
REMARK   24  A    between atoms: C_52  and  O_54 
REMARK   25  A    between atoms: C_55  and  C_56 
REMARK   26  A    between atoms: C_56  and  C_57 
REMARK   27  A    between atoms: C_57  and  C_58 
REMARK   28  A    between atoms: C_58  and  O_60 
ROOT
ATOM      1  O   UNK d   0      -0.030 -21.415  -1.636  0.00  0.00    -0.650 OA
ATOM      2  C   UNK d   0      -0.072 -20.178  -1.455  0.00  0.00     0.139 C 
ENDROOT
BRANCH   2   3
ATOM      3  O   UNK d   0       1.002 -19.544  -0.879  0.00  0.00    -0.776 OA
ATOM      4  H   UNK d   0       1.270 -18.599  -1.161  0.00  0.00     0.167 HD
ENDBRANCH   2   3
BRANCH   2   5
ATOM      5  C   UNK d   0      -1.280 -19.403  -1.860  0.00  0.00     0.115 C 
BRANCH   5   6
ATOM      6  C   UNK d   0      -2.204 -19.234  -0.685  0.00  0.00     0.052 C 
BRANCH   6   7
ATOM      7  C   UNK d   0      -3.185 -20.374  -0.548  0.00  0.00    -0.020 A 
ATOM      8  C   UNK d   0      -3.581 -20.957   0.554  0.00  0.00    -0.011 A 
ATOM      9  C   UNK d   0      -4.520 -22.005   0.190  0.00  0.00     0.067 A 
ATOM     10  C   UNK d   0      -5.297 -22.951   0.876  0.00  0.00     0.062 C 
ATOM     11  N   UNK d   0      -4.632 -21.992  -1.155  0.00  0.00    -0.248 NA
ATOM     12  C   UNK d   0      -6.363 -23.701   0.367  0.00  0.00     0.041 A 
ATOM     13  N   UNK d   0      -6.514 -24.346  -0.805  0.00  0.00    -0.355 N 
ATOM     14  C   UNK d   0      -7.544 -23.806   1.125  0.00  0.00    -0.022 A 
ATOM     15  C   UNK d   0      -7.762 -24.851  -0.814  0.00  0.00     0.042 A 
ATOM     16  H   UNK d   0      -5.746 -24.458  -1.602  0.00  0.00     0.166 HD
ATOM     17  C   UNK d   0      -8.432 -25.610  -1.793  0.00  0.00     0.062 C 
ATOM     18  C   UNK d   0      -8.438 -24.533   0.379  0.00  0.00    -0.013 A 
ATOM     19  C   UNK d   0      -8.481 -25.418  -3.150  0.00  0.00     0.067 A 
ATOM     20  N   UNK d   0      -7.637 -24.520  -3.665  0.00  0.00    -0.248 NA
ATOM     21  C   UNK d   0      -9.264 -25.949  -4.254  0.00  0.00    -0.011 A 
ATOM     22  C   UNK d   0      -7.811 -24.425  -5.024  0.00  0.00     0.066 A 
ATOM     23  C   UNK d   0      -6.967 -23.552  -5.694  0.00  0.00     0.062 C 
ATOM     24  C   UNK d   0      -8.870 -25.362  -5.346  0.00  0.00    -0.020 A 
ATOM     25  C   UNK d   0      -5.894 -22.817  -5.166  0.00  0.00     0.041 A 
ATOM     26  N   UNK d   0      -5.750 -22.164  -4.007  0.00  0.00    -0.355 N 
ATOM     27  C   UNK d   0      -4.708 -22.715  -5.926  0.00  0.00    -0.022 A 
ATOM     28  C   UNK d   0      -4.509 -21.651  -4.000  0.00  0.00     0.042 A 
ATOM     29  H   UNK d   0      -6.526 -22.042  -3.212  0.00  0.00     0.166 HD
ATOM     30  C   UNK d   0      -3.833 -20.886  -3.037  0.00  0.00     0.062 C 
ATOM     31  C   UNK d   0      -3.826 -21.980  -5.195  0.00  0.00    -0.013 A 
ATOM     32  C   UNK d   0      -3.854 -21.033  -1.659  0.00  0.00     0.066 A 
BRANCH   8  33
ATOM     33  C   UNK d   0      -3.159 -20.631   1.929  0.00  0.00     0.151 C 
BRANCH  33  34
ATOM     34  C   UNK d   0      -4.101 -19.729   2.616  0.00  0.00     0.143 C 
ATOM     35  O   UNK d   0      -4.869 -20.157   3.490  0.00  0.00    -0.650 OA
BRANCH  34  36
ATOM     36  O   UNK d   0      -4.128 -18.396   2.279  0.00  0.00    -0.776 OA
ATOM     37  H   UNK d   0      -3.326 -17.946   1.816  0.00  0.00     0.167 HD
ENDBRANCH  34  36
ENDBRANCH  33  34
ENDBRANCH   8  33
BRANCH  31  38
ATOM     38  C   UNK d   0      -2.415 -21.621  -5.598  0.00  0.00     0.151 C 
BRANCH  38  39
ATOM     39  C   UNK d   0      -2.362 -20.513  -6.529  0.00  0.00     0.143 C 
ATOM     40  O   UNK d   0      -2.645 -19.349  -6.194  0.00  0.00    -0.650 OA
BRANCH  39  41
ATOM     41  O   UNK d   0      -1.981 -20.745  -7.850  0.00  0.00    -0.776 OA
ATOM     42  H   UNK d   0      -2.654 -21.239  -8.444  0.00  0.00     0.167 HD
ENDBRANCH  39  41
ENDBRANCH  38  39
ENDBRANCH  31  38
BRANCH  27  43
ATOM     43  C   UNK d   0      -4.392 -23.277  -7.289  0.00  0.00     0.052 C 
BRANCH  43  44
ATOM     44  C   UNK d   0      -3.919 -24.694  -7.250  0.00  0.00     0.115 C 
BRANCH  44  45
ATOM     45  C   UNK d   0      -2.448 -24.656  -7.451  0.00  0.00     0.139 C 
ATOM     46  O   UNK d   0      -1.744 -25.490  -6.828  0.00  0.00    -0.650 OA
BRANCH  45  47
ATOM     47  O   UNK d   0      -1.831 -23.754  -8.291  0.00  0.00    -0.776 OA
ATOM     48  H   UNK d   0      -1.927 -22.732  -8.182  0.00  0.00     0.167 HD
ENDBRANCH  45  47
ENDBRANCH  44  45
ENDBRANCH  43  44
ENDBRANCH  27  43
BRANCH  24  49
ATOM     49  C   UNK d   0      -9.370 -25.629  -6.706  0.00  0.00     0.052 C 
BRANCH  49  50
ATOM     50  C   UNK d   0      -8.225 -25.689  -7.684  0.00  0.00     0.115 C 
BRANCH  50  51
ATOM     51  C   UNK d   0      -7.689 -27.006  -8.000  0.00  0.00     0.139 C 
ATOM     52  O   UNK d   0      -7.696 -27.478  -9.161  0.00  0.00    -0.650 OA
BRANCH  51  53
ATOM     53  O   UNK d   0      -7.147 -27.786  -6.990  0.00  0.00    -0.776 OA
ATOM     54  H   UNK d   0      -6.154 -27.747  -6.840  0.00  0.00     0.167 HD
ENDBRANCH  51  53
ENDBRANCH  50  51
ENDBRANCH  49  50
ENDBRANCH  24  49
BRANCH  21  55
ATOM     55  C   UNK d   0     -10.321 -26.993  -4.101  0.00  0.00     0.151 C 
BRANCH  55  56
ATOM     56  C   UNK d   0      -9.837 -28.327  -4.487  0.00  0.00     0.143 C 
ATOM     57  O   UNK d   0      -8.632 -28.579  -4.679  0.00  0.00    -0.650 OA
BRANCH  56  58
ATOM     58  O   UNK d   0     -10.782 -29.341  -4.639  0.00  0.00    -0.776 OA
ATOM     59  H   UNK d   0     -11.393 -29.495  -3.817  0.00  0.00     0.167 HD
ENDBRANCH  56  58
ENDBRANCH  55  56
ENDBRANCH  21  55
BRANCH  18  60
ATOM     60  C   UNK d   0      -9.842 -24.880   0.810  0.00  0.00     0.151 C 
BRANCH  60  61
ATOM     61  C   UNK d   0     -10.661 -23.697   0.506  0.00  0.00     0.143 C 
ATOM     62  O   UNK d   0     -11.312 -23.020   1.303  0.00  0.00    -0.650 OA
BRANCH  61  63
ATOM     63  O   UNK d   0     -10.687 -23.316  -0.857  0.00  0.00    -0.776 OA
ATOM     64  H   UNK d   0     -10.848 -22.361  -1.126  0.00  0.00     0.167 HD
ENDBRANCH  61  63
ENDBRANCH  60  61
ENDBRANCH  18  60
BRANCH  14  65
ATOM     65  C   UNK d   0      -7.853 -23.362   2.526  0.00  0.00     0.052 C 
BRANCH  65  66
ATOM     66  C   UNK d   0      -8.024 -21.889   2.645  0.00  0.00     0.115 C 
BRANCH  66  67
ATOM     67  C   UNK d   0      -9.264 -21.353   3.133  0.00  0.00     0.139 C 
ATOM     68  O   UNK d   0      -9.659 -21.694   4.308  0.00  0.00    -0.650 OA
BRANCH  67  69
ATOM     69  O   UNK d   0     -10.131 -20.479   2.479  0.00  0.00    -0.776 OA
ATOM     70  H   UNK d   0     -11.127 -20.565   2.730  0.00  0.00     0.167 HD
ENDBRANCH  67  69
ENDBRANCH  66  67
ENDBRANCH  65  66
ENDBRANCH  14  65
ENDBRANCH   6   7
ENDBRANCH   5   6
ENDBRANCH   2   5
TORSDOF 28
ENDMDL
