MODEL 1
REMARK VINA RESULT:     -11.1      0.000      0.000
REMARK  16 active torsions:
REMARK  status: ('A' for Active; 'I' for Inactive)
REMARK    1  A    between atoms: C_6  and  C_7 
REMARK    2  A    between atoms: C_7  and  C_8 
REMARK    3  A    between atoms: C_8  and  C_9 
REMARK    4  A    between atoms: C_9  and  O_11 
REMARK    5  A    between atoms: C_16  and  C_17 
REMARK    6  A    between atoms: C_17  and  C_18 
REMARK    7  A    between atoms: C_18  and  C_19 
REMARK    8  A    between atoms: C_19  and  O_21 
REMARK    9  A    between atoms: C_28  and  C_29 
REMARK   10  A    between atoms: C_29  and  C_30 
REMARK   11  A    between atoms: C_30  and  C_31 
REMARK   12  A    between atoms: C_31  and  O_33 
REMARK   13  A    between atoms: C_42  and  C_43 
REMARK   14  A    between atoms: C_43  and  C_44 
REMARK   15  A    between atoms: C_44  and  C_45 
REMARK   16  A    between atoms: C_45  and  O_47 
ROOT
HETATM    1  C   UNK     0      13.595  19.864  -2.399  0.00  0.00     0.051 C 
HETATM    2  C   UNK     0      13.748  18.468  -2.966  0.00  0.00    -0.031 A 
HETATM    3  C   UNK     0      13.071  17.305  -2.634  0.00  0.00     0.021 A 
HETATM    4  N   UNK     0      13.558  16.283  -3.377  0.00  0.00    -0.361 N 
HETATM    5  C   UNK     0      14.524  16.771  -4.182  0.00  0.00     0.022 A 
HETATM    6  C   UNK     0      14.671  18.135  -3.949  0.00  0.00    -0.027 A 
HETATM    7  C   UNK     0      15.307  16.082  -5.256  0.00  0.00     0.115 C 
HETATM    8  C   UNK     0      14.534  15.150  -6.172  0.00  0.00     0.021 A 
HETATM    9  N   UNK     0      13.279  15.278  -6.629  0.00  0.00    -0.361 N 
HETATM   10  C   UNK     0      12.975  14.168  -7.336  0.00  0.00     0.022 A 
HETATM   11  C   UNK     0      14.068  13.307  -7.342  0.00  0.00    -0.027 A 
HETATM   12  C   UNK     0      15.054  13.919  -6.610  0.00  0.00    -0.031 A 
HETATM   13  C   UNK     0      16.431  13.350  -6.350  0.00  0.00     0.051 C 
HETATM   14  C   UNK     0      11.631  13.854  -7.986  0.00  0.00     0.115 C 
HETATM   15  C   UNK     0      10.476  13.769  -7.002  0.00  0.00     0.021 A 
HETATM   16  N   UNK     0      10.044  14.725  -6.158  0.00  0.00    -0.361 N 
HETATM   17  C   UNK     0       9.052  14.235  -5.411  0.00  0.00     0.022 A 
HETATM   18  C   UNK     0       8.820  12.899  -5.793  0.00  0.00    -0.027 A 
HETATM   19  C   UNK     0       9.717  12.620  -6.791  0.00  0.00    -0.031 A 
HETATM   20  C   UNK     0       9.785  11.288  -7.516  0.00  0.00     0.051 C 
HETATM   21  C   UNK     0       8.283  14.874  -4.277  0.00  0.00     0.115 C 
HETATM   22  C   UNK     0       9.028  15.838  -3.384  0.00  0.00     0.022 A 
HETATM   23  N   UNK     0      10.280  15.738  -2.917  0.00  0.00    -0.361 N 
HETATM   24  C   UNK     0      10.588  16.887  -2.282  0.00  0.00     0.021 A 
HETATM   25  C   UNK     0       9.505  17.744  -2.333  0.00  0.00    -0.031 A 
HETATM   26  C   UNK     0       9.353  19.126  -1.731  0.00  0.00     0.051 C 
HETATM   27  C   UNK     0       8.494  17.094  -3.033  0.00  0.00    -0.027 A 
HETATM   28  C   UNK     0      11.920  17.282  -1.668  0.00  0.00     0.115 C 
HETATM   29  H   UNK     0      13.243  15.217  -3.300  0.00  0.00     0.165 HD
HETATM   30  H   UNK     0      12.622  16.172  -6.497  0.00  0.00     0.165 HD
HETATM   31  H   UNK     0      10.414  15.783  -6.120  0.00  0.00     0.165 HD
HETATM   32  H   UNK     0      10.943  14.838  -2.993  0.00  0.00     0.165 HD
ENDROOT
BRANCH   6  33
HETATM   33  C   UNK     0      15.611  19.131  -4.579  0.00  0.00     0.051 C 
BRANCH  33  34
HETATM   34  C   UNK     0      15.134  19.518  -5.959  0.00  0.00     0.114 C 
BRANCH  34  35
HETATM   35  C   UNK     0      14.349  20.778  -5.823  0.00  0.00     0.139 C 
HETATM   36  O   UNK     0      13.126  20.805  -6.148  0.00  0.00    -0.650 OA
BRANCH  35  37
HETATM   37  O   UNK     0      14.903  21.958  -5.343  0.00  0.00    -0.776 OA
HETATM   38  H   UNK     0      15.781  22.314  -5.685  0.00  0.00     0.167 HD
ENDBRANCH  35  37
ENDBRANCH  34  35
ENDBRANCH  33  34
ENDBRANCH   6  33
BRANCH  27  39
HETATM   39  C   UNK     0       7.141  17.680  -3.232  0.00  0.00     0.051 C 
BRANCH  39  40
HETATM   40  C   UNK     0       6.571  18.491  -2.157  0.00  0.00     0.114 C 
BRANCH  40  41
HETATM   41  C   UNK     0       5.744  19.648  -2.419  0.00  0.00     0.139 C 
HETATM   42  O   UNK     0       4.831  20.019  -1.670  0.00  0.00    -0.650 OA
BRANCH  41  43
HETATM   43  O   UNK     0       5.979  20.411  -3.598  0.00  0.00    -0.776 OA
HETATM   44  H   UNK     0       5.288  21.131  -3.776  0.00  0.00     0.167 HD
ENDBRANCH  41  43
ENDBRANCH  40  41
ENDBRANCH  39  40
ENDBRANCH  27  39
BRANCH  11  45
HETATM   45  C   UNK     0      14.203  11.961  -8.003  0.00  0.00     0.051 C 
BRANCH  45  46
HETATM   46  C   UNK     0      14.552  10.859  -7.070  0.00  0.00     0.114 C 
BRANCH  46  47
HETATM   47  C   UNK     0      13.442   9.865  -7.127  0.00  0.00     0.139 C 
HETATM   48  O   UNK     0      13.487   8.976  -7.989  0.00  0.00    -0.650 OA
BRANCH  47  49
HETATM   49  O   UNK     0      12.393   9.932  -6.246  0.00  0.00    -0.776 OA
HETATM   50  H   UNK     0      12.279  10.715  -5.591  0.00  0.00     0.167 HD
ENDBRANCH  47  49
ENDBRANCH  46  47
ENDBRANCH  45  46
ENDBRANCH  11  45
BRANCH  18  51
HETATM   51  C   UNK     0       7.785  11.947  -5.252  0.00  0.00     0.051 C 
BRANCH  51  52
HETATM   52  C   UNK     0       6.513  12.205  -6.045  0.00  0.00     0.114 C 
BRANCH  52  53
HETATM   53  C   UNK     0       5.494  12.905  -5.239  0.00  0.00     0.139 C 
HETATM   54  O   UNK     0       4.481  13.370  -5.786  0.00  0.00    -0.650 OA
BRANCH  53  55
HETATM   55  O   UNK     0       5.675  13.041  -3.884  0.00  0.00    -0.776 OA
HETATM   56  H   UNK     0       6.499  12.811  -3.379  0.00  0.00     0.167 HD
ENDBRANCH  53  55
ENDBRANCH  52  53
ENDBRANCH  51  52
ENDBRANCH  18  51
TORSDOF 16
ENDMDL
MODEL 2
REMARK VINA RESULT:     -11.1     27.519     31.000
REMARK  16 active torsions:
REMARK  status: ('A' for Active; 'I' for Inactive)
REMARK    1  A    between atoms: C_6  and  C_7 
REMARK    2  A    between atoms: C_7  and  C_8 
REMARK    3  A    between atoms: C_8  and  C_9 
REMARK    4  A    between atoms: C_9  and  O_11 
REMARK    5  A    between atoms: C_16  and  C_17 
REMARK    6  A    between atoms: C_17  and  C_18 
REMARK    7  A    between atoms: C_18  and  C_19 
REMARK    8  A    between atoms: C_19  and  O_21 
REMARK    9  A    between atoms: C_28  and  C_29 
REMARK   10  A    between atoms: C_29  and  C_30 
REMARK   11  A    between atoms: C_30  and  C_31 
REMARK   12  A    between atoms: C_31  and  O_33 
REMARK   13  A    between atoms: C_42  and  C_43 
REMARK   14  A    between atoms: C_43  and  C_44 
REMARK   15  A    between atoms: C_44  and  C_45 
REMARK   16  A    between atoms: C_45  and  O_47 
ROOT
HETATM    1  C   UNK     0       7.480 -11.287  13.350  0.00  0.00     0.051 C 
HETATM    2  C   UNK     0       6.160 -10.552  13.471  0.00  0.00    -0.031 A 
HETATM    3  C   UNK     0       5.686  -9.761  14.506  0.00  0.00     0.021 A 
HETATM    4  N   UNK     0       4.439  -9.332  14.197  0.00  0.00    -0.361 N 
HETATM    5  C   UNK     0       4.112  -9.826  12.985  0.00  0.00     0.022 A 
HETATM    6  C   UNK     0       5.165 -10.596  12.503  0.00  0.00    -0.027 A 
HETATM    7  C   UNK     0       2.893  -9.577  12.153  0.00  0.00     0.115 C 
HETATM    8  C   UNK     0       2.392  -8.145  12.088  0.00  0.00     0.021 A 
HETATM    9  N   UNK     0       3.107  -7.009  12.078  0.00  0.00    -0.361 N 
HETATM   10  C   UNK     0       2.245  -5.971  12.108  0.00  0.00     0.022 A 
HETATM   11  C   UNK     0       0.939  -6.450  12.128  0.00  0.00    -0.027 A 
HETATM   12  C   UNK     0       1.025  -7.819  12.115  0.00  0.00    -0.031 A 
HETATM   13  C   UNK     0      -0.153  -8.769  12.124  0.00  0.00     0.051 C 
HETATM   14  C   UNK     0       2.617  -4.492  12.172  0.00  0.00     0.115 C 
HETATM   15  C   UNK     0       3.411  -4.110  13.411  0.00  0.00     0.021 A 
HETATM   16  N   UNK     0       4.596  -4.607  13.813  0.00  0.00    -0.361 N 
HETATM   17  C   UNK     0       4.923  -4.063  14.987  0.00  0.00     0.022 A 
HETATM   18  C   UNK     0       3.909  -3.160  15.363  0.00  0.00    -0.027 A 
HETATM   19  C   UNK     0       2.968  -3.198  14.367  0.00  0.00    -0.031 A 
HETATM   20  C   UNK     0       1.714  -2.343  14.357  0.00  0.00     0.051 C 
HETATM   21  C   UNK     0       6.107  -4.335  15.888  0.00  0.00     0.115 C 
HETATM   22  C   UNK     0       6.643  -5.746  15.928  0.00  0.00     0.022 A 
HETATM   23  N   UNK     0       5.955  -6.895  15.935  0.00  0.00    -0.361 N 
HETATM   24  C   UNK     0       6.831  -7.915  15.826  0.00  0.00     0.021 A 
HETATM   25  C   UNK     0       8.115  -7.410  15.759  0.00  0.00    -0.031 A 
HETATM   26  C   UNK     0       9.430  -8.157  15.672  0.00  0.00     0.051 C 
HETATM   27  C   UNK     0       8.021  -6.024  15.822  0.00  0.00    -0.027 A 
HETATM   28  C   UNK     0       6.522  -9.396  15.700  0.00  0.00     0.115 C 
HETATM   29  H   UNK     0       3.783  -8.717  14.855  0.00  0.00     0.165 HD
HETATM   30  H   UNK     0       4.220  -6.936  12.000  0.00  0.00     0.165 HD
HETATM   31  H   UNK     0       5.237  -5.321  13.235  0.00  0.00     0.165 HD
HETATM   32  H   UNK     0       4.845  -7.000  16.060  0.00  0.00     0.165 HD
ENDROOT
BRANCH   6  33
HETATM   33  C   UNK     0       5.295 -11.362  11.211  0.00  0.00     0.051 C 
BRANCH  33  34
HETATM   34  C   UNK     0       5.322 -10.420  10.031  0.00  0.00     0.114 C 
BRANCH  34  35
HETATM   35  C   UNK     0       4.241 -10.845   9.096  0.00  0.00     0.139 C 
HETATM   36  O   UNK     0       3.447 -11.775   9.421  0.00  0.00    -0.650 OA
BRANCH  35  37
HETATM   37  O   UNK     0       4.053 -10.257   7.852  0.00  0.00    -0.776 OA
HETATM   38  H   UNK     0       4.555 -10.562   7.034  0.00  0.00     0.167 HD
ENDBRANCH  35  37
ENDBRANCH  34  35
ENDBRANCH  33  34
ENDBRANCH   6  33
BRANCH  27  39
HETATM   39  C   UNK     0       9.211  -5.131  15.849  0.00  0.00     0.051 C 
BRANCH  39  40
HETATM   40  C   UNK     0       9.701  -4.666  17.146  0.00  0.00     0.114 C 
BRANCH  40  41
HETATM   41  C   UNK     0       8.892  -4.728  18.343  0.00  0.00     0.139 C 
HETATM   42  O   UNK     0       8.890  -5.694  19.118  0.00  0.00    -0.650 OA
BRANCH  41  43
HETATM   43  O   UNK     0       8.045  -3.629  18.662  0.00  0.00    -0.776 OA
HETATM   44  H   UNK     0       8.286  -2.764  18.192  0.00  0.00     0.167 HD
ENDBRANCH  41  43
ENDBRANCH  40  41
ENDBRANCH  39  40
ENDBRANCH  27  39
BRANCH  11  45
HETATM   45  C   UNK     0      -0.349  -5.673  12.154  0.00  0.00     0.051 C 
BRANCH  45  46
HETATM   46  C   UNK     0      -0.930  -5.508  13.511  0.00  0.00     0.114 C 
BRANCH  46  47
HETATM   47  C   UNK     0      -2.397  -5.744  13.396  0.00  0.00     0.139 C 
HETATM   48  O   UNK     0      -2.922  -6.587  14.138  0.00  0.00    -0.650 OA
BRANCH  47  49
HETATM   49  O   UNK     0      -3.152  -5.045  12.488  0.00  0.00    -0.776 OA
HETATM   50  H   UNK     0      -3.068  -4.028  12.376  0.00  0.00     0.167 HD
ENDBRANCH  47  49
ENDBRANCH  46  47
ENDBRANCH  45  46
ENDBRANCH  11  45
BRANCH  18  51
HETATM   51  C   UNK     0       3.849  -2.294  16.594  0.00  0.00     0.051 C 
BRANCH  51  52
HETATM   52  C   UNK     0       4.747  -1.097  16.317  0.00  0.00     0.114 C 
BRANCH  52  53
HETATM   53  C   UNK     0       3.992   0.170  16.321  0.00  0.00     0.139 C 
HETATM   54  O   UNK     0       2.796   0.180  16.655  0.00  0.00    -0.650 OA
BRANCH  53  55
HETATM   55  O   UNK     0       4.617   1.336  15.951  0.00  0.00    -0.776 OA
HETATM   56  H   UNK     0       4.453   1.847  15.116  0.00  0.00     0.167 HD
ENDBRANCH  53  55
ENDBRANCH  52  53
ENDBRANCH  51  52
ENDBRANCH  18  51
TORSDOF 16
ENDMDL
MODEL 3
REMARK VINA RESULT:     -10.7      3.347      8.294
REMARK  16 active torsions:
REMARK  status: ('A' for Active; 'I' for Inactive)
REMARK    1  A    between atoms: C_6  and  C_7 
REMARK    2  A    between atoms: C_7  and  C_8 
REMARK    3  A    between atoms: C_8  and  C_9 
REMARK    4  A    between atoms: C_9  and  O_11 
REMARK    5  A    between atoms: C_16  and  C_17 
REMARK    6  A    between atoms: C_17  and  C_18 
REMARK    7  A    between atoms: C_18  and  C_19 
REMARK    8  A    between atoms: C_19  and  O_21 
REMARK    9  A    between atoms: C_28  and  C_29 
REMARK   10  A    between atoms: C_29  and  C_30 
REMARK   11  A    between atoms: C_30  and  C_31 
REMARK   12  A    between atoms: C_31  and  O_33 
REMARK   13  A    between atoms: C_42  and  C_43 
REMARK   14  A    between atoms: C_43  and  C_44 
REMARK   15  A    between atoms: C_44  and  C_45 
REMARK   16  A    between atoms: C_45  and  O_47 
ROOT
HETATM    1  C   UNK     0      12.175  20.463  -2.902  0.00  0.00     0.051 C 
HETATM    2  C   UNK     0      12.287  19.309  -3.877  0.00  0.00    -0.031 A 
HETATM    3  C   UNK     0      13.153  19.142  -4.947  0.00  0.00     0.021 A 
HETATM    4  N   UNK     0      12.874  17.968  -5.562  0.00  0.00    -0.361 N 
HETATM    5  C   UNK     0      11.855  17.379  -4.902  0.00  0.00     0.022 A 
HETATM    6  C   UNK     0      11.462  18.192  -3.844  0.00  0.00    -0.027 A 
HETATM    7  C   UNK     0      11.234  16.034  -5.116  0.00  0.00     0.115 C 
HETATM    8  C   UNK     0      12.182  14.880  -5.388  0.00  0.00     0.021 A 
HETATM    9  N   UNK     0      13.405  14.665  -4.879  0.00  0.00    -0.361 N 
HETATM   10  C   UNK     0      13.919  13.566  -5.471  0.00  0.00     0.022 A 
HETATM   11  C   UNK     0      12.998  13.054  -6.380  0.00  0.00    -0.027 A 
HETATM   12  C   UNK     0      11.901  13.877  -6.333  0.00  0.00    -0.031 A 
HETATM   13  C   UNK     0      10.642  13.704  -7.153  0.00  0.00     0.051 C 
HETATM   14  C   UNK     0      15.313  12.988  -5.244  0.00  0.00     0.115 C 
HETATM   15  C   UNK     0      16.441  13.940  -5.608  0.00  0.00     0.021 A 
HETATM   16  N   UNK     0      16.675  15.167  -5.106  0.00  0.00    -0.361 N 
HETATM   17  C   UNK     0      17.720  15.707  -5.736  0.00  0.00     0.022 A 
HETATM   18  C   UNK     0      18.196  14.784  -6.688  0.00  0.00    -0.027 A 
HETATM   19  C   UNK     0      17.387  13.681  -6.597  0.00  0.00    -0.031 A 
HETATM   20  C   UNK     0      17.575  12.426  -7.430  0.00  0.00     0.051 C 
HETATM   21  C   UNK     0      18.336  17.081  -5.596  0.00  0.00     0.115 C 
HETATM   22  C   UNK     0      17.409  18.232  -5.282  0.00  0.00     0.022 A 
HETATM   23  N   UNK     0      16.185  18.469  -5.771  0.00  0.00    -0.361 N 
HETATM   24  C   UNK     0      15.662  19.522  -5.111  0.00  0.00     0.021 A 
HETATM   25  C   UNK     0      16.575  19.980  -4.181  0.00  0.00    -0.031 A 
HETATM   26  C   UNK     0      16.463  21.158  -3.235  0.00  0.00     0.051 C 
HETATM   27  C   UNK     0      17.702  19.171  -4.272  0.00  0.00    -0.027 A 
HETATM   28  C   UNK     0      14.266  20.105  -5.249  0.00  0.00     0.115 C 
HETATM   29  H   UNK     0      13.372  17.583  -6.481  0.00  0.00     0.165 HD
HETATM   30  H   UNK     0      13.889  15.258  -4.064  0.00  0.00     0.165 HD
HETATM   31  H   UNK     0      16.121  15.644  -4.255  0.00  0.00     0.165 HD
HETATM   32  H   UNK     0      15.695  17.922  -6.618  0.00  0.00     0.165 HD
ENDROOT
BRANCH   6  33
HETATM   33  C   UNK     0      10.375  17.992  -2.819  0.00  0.00     0.051 C 
BRANCH  33  34
HETATM   34  C   UNK     0      10.759  16.912  -1.835  0.00  0.00     0.114 C 
BRANCH  34  35
HETATM   35  C   UNK     0       9.605  15.973  -1.729  0.00  0.00     0.139 C 
HETATM   36  O   UNK     0       9.618  14.874  -2.356  0.00  0.00    -0.650 OA
BRANCH  35  37
HETATM   37  O   UNK     0       8.484  16.249  -0.955  0.00  0.00    -0.776 OA
HETATM   38  H   UNK     0       7.585  15.842  -1.153  0.00  0.00     0.167 HD
ENDBRANCH  35  37
ENDBRANCH  34  35
ENDBRANCH  33  34
ENDBRANCH   6  33
BRANCH  27  39
HETATM   39  C   UNK     0      18.934  19.403  -3.470  0.00  0.00     0.051 C 
BRANCH  39  40
HETATM   40  C   UNK     0      19.122  18.624  -2.246  0.00  0.00     0.114 C 
BRANCH  40  41
HETATM   41  C   UNK     0      18.480  18.979  -1.001  0.00  0.00     0.139 C 
HETATM   42  O   UNK     0      18.591  20.091  -0.467  0.00  0.00    -0.650 OA
BRANCH  41  43
HETATM   43  O   UNK     0      17.672  18.011  -0.339  0.00  0.00    -0.776 OA
HETATM   44  H   UNK     0      17.560  17.142  -0.847  0.00  0.00     0.167 HD
ENDBRANCH  41  43
ENDBRANCH  40  41
ENDBRANCH  39  40
ENDBRANCH  27  39
BRANCH  11  45
HETATM   45  C   UNK     0      13.121  11.842  -7.264  0.00  0.00     0.051 C 
BRANCH  45  46
HETATM   46  C   UNK     0      13.990  12.044  -8.452  0.00  0.00     0.114 C 
BRANCH  46  47
HETATM   47  C   UNK     0      14.621  10.730  -8.765  0.00  0.00     0.139 C 
HETATM   48  O   UNK     0      14.302   9.743  -8.088  0.00  0.00    -0.650 OA
BRANCH  47  49
HETATM   49  O   UNK     0      15.536  10.615  -9.781  0.00  0.00    -0.776 OA
HETATM   50  H   UNK     0      15.441   9.912 -10.524  0.00  0.00     0.167 HD
ENDBRANCH  47  49
ENDBRANCH  46  47
ENDBRANCH  45  46
ENDBRANCH  11  45
BRANCH  18  51
HETATM   51  C   UNK     0      19.371  14.937  -7.620  0.00  0.00     0.051 C 
BRANCH  51  52
HETATM   52  C   UNK     0      20.497  14.104  -7.025  0.00  0.00     0.114 C 
BRANCH  52  53
HETATM   53  C   UNK     0      20.921  13.023  -7.935  0.00  0.00     0.139 C 
HETATM   54  O   UNK     0      21.767  12.194  -7.565  0.00  0.00    -0.650 OA
BRANCH  53  55
HETATM   55  O   UNK     0      20.376  12.941  -9.194  0.00  0.00    -0.776 OA
HETATM   56  H   UNK     0      20.506  12.199  -9.840  0.00  0.00     0.167 HD
ENDBRANCH  53  55
ENDBRANCH  52  53
ENDBRANCH  51  52
ENDBRANCH  18  51
TORSDOF 16
ENDMDL
MODEL 4
REMARK VINA RESULT:     -10.5      2.922      8.099
REMARK  16 active torsions:
REMARK  status: ('A' for Active; 'I' for Inactive)
REMARK    1  A    between atoms: C_6  and  C_7 
REMARK    2  A    between atoms: C_7  and  C_8 
REMARK    3  A    between atoms: C_8  and  C_9 
REMARK    4  A    between atoms: C_9  and  O_11 
REMARK    5  A    between atoms: C_16  and  C_17 
REMARK    6  A    between atoms: C_17  and  C_18 
REMARK    7  A    between atoms: C_18  and  C_19 
REMARK    8  A    between atoms: C_19  and  O_21 
REMARK    9  A    between atoms: C_28  and  C_29 
REMARK   10  A    between atoms: C_29  and  C_30 
REMARK   11  A    between atoms: C_30  and  C_31 
REMARK   12  A    between atoms: C_31  and  O_33 
REMARK   13  A    between atoms: C_42  and  C_43 
REMARK   14  A    between atoms: C_43  and  C_44 
REMARK   15  A    between atoms: C_44  and  C_45 
REMARK   16  A    between atoms: C_45  and  O_47 
ROOT
HETATM    1  C   UNK     0      10.133  18.969  -2.084  0.00  0.00     0.051 C 
HETATM    2  C   UNK     0      10.711  18.202  -3.256  0.00  0.00    -0.031 A 
HETATM    3  C   UNK     0      11.677  18.590  -4.170  0.00  0.00     0.021 A 
HETATM    4  N   UNK     0      11.861  17.592  -5.068  0.00  0.00    -0.361 N 
HETATM    5  C   UNK     0      11.040  16.574  -4.740  0.00  0.00     0.022 A 
HETATM    6  C   UNK     0      10.304  16.923  -3.612  0.00  0.00    -0.027 A 
HETATM    7  C   UNK     0      10.921  15.212  -5.349  0.00  0.00     0.115 C 
HETATM    8  C   UNK     0      12.220  14.508  -5.702  0.00  0.00     0.021 A 
HETATM    9  N   UNK     0      13.392  14.540  -5.050  0.00  0.00    -0.361 N 
HETATM   10  C   UNK     0      14.294  13.842  -5.773  0.00  0.00     0.022 A 
HETATM   11  C   UNK     0      13.682  13.338  -6.917  0.00  0.00    -0.027 A 
HETATM   12  C   UNK     0      12.376  13.754  -6.879  0.00  0.00    -0.031 A 
HETATM   13  C   UNK     0      11.327  13.437  -7.921  0.00  0.00     0.051 C 
HETATM   14  C   UNK     0      15.773  13.667  -5.443  0.00  0.00     0.115 C 
HETATM   15  C   UNK     0      16.550  14.973  -5.388  0.00  0.00     0.021 A 
HETATM   16  N   UNK     0      16.317  16.035  -4.594  0.00  0.00    -0.361 N 
HETATM   17  C   UNK     0      17.177  17.008  -4.900  0.00  0.00     0.022 A 
HETATM   18  C   UNK     0      18.018  16.555  -5.936  0.00  0.00    -0.027 A 
HETATM   19  C   UNK     0      17.616  15.279  -6.232  0.00  0.00    -0.031 A 
HETATM   20  C   UNK     0      18.285  14.403  -7.276  0.00  0.00     0.051 C 
HETATM   21  C   UNK     0      17.287  18.415  -4.357  0.00  0.00     0.115 C 
HETATM   22  C   UNK     0      16.006  19.111  -3.961  0.00  0.00     0.022 A 
HETATM   23  N   UNK     0      14.823  19.093  -4.588  0.00  0.00    -0.361 N 
HETATM   24  C   UNK     0      13.922  19.729  -3.812  0.00  0.00     0.021 A 
HETATM   25  C   UNK     0      14.543  20.176  -2.661  0.00  0.00    -0.031 A 
HETATM   26  C   UNK     0      13.960  20.972  -1.512  0.00  0.00     0.051 C 
HETATM   27  C   UNK     0      15.877  19.793  -2.733  0.00  0.00    -0.027 A 
HETATM   28  C   UNK     0      12.431  19.884  -4.056  0.00  0.00     0.115 C 
HETATM   29  H   UNK     0      12.542  17.631  -5.950  0.00  0.00     0.165 HD
HETATM   30  H   UNK     0      13.575  15.013  -4.054  0.00  0.00     0.165 HD
HETATM   31  H   UNK     0      15.561  16.082  -3.768  0.00  0.00     0.165 HD
HETATM   32  H   UNK     0      14.623  18.669  -5.607  0.00  0.00     0.165 HD
ENDROOT
BRANCH   6  33
HETATM   33  C   UNK     0       9.255  16.144  -2.859  0.00  0.00     0.051 C 
BRANCH  33  34
HETATM   34  C   UNK     0       7.891  16.349  -3.476  0.00  0.00     0.114 C 
BRANCH  34  35
HETATM   35  C   UNK     0       7.322  15.000  -3.759  0.00  0.00     0.139 C 
HETATM   36  O   UNK     0       6.744  14.347  -2.842  0.00  0.00    -0.650 OA
BRANCH  35  37
HETATM   37  O   UNK     0       7.393  14.405  -5.012  0.00  0.00    -0.776 OA
HETATM   38  H   UNK     0       8.147  13.789  -5.271  0.00  0.00     0.167 HD
ENDBRANCH  35  37
ENDBRANCH  34  35
ENDBRANCH  33  34
ENDBRANCH   6  33
BRANCH  27  39
HETATM   39  C   UNK     0      16.883  20.161  -1.700  0.00  0.00     0.051 C 
BRANCH  39  40
HETATM   40  C   UNK     0      17.845  19.144  -1.275  0.00  0.00     0.114 C 
BRANCH  40  41
HETATM   41  C   UNK     0      17.430  17.884  -0.700  0.00  0.00     0.139 C 
HETATM   42  O   UNK     0      16.344  17.344  -0.947  0.00  0.00    -0.650 OA
BRANCH  41  43
HETATM   43  O   UNK     0      18.306  17.214   0.201  0.00  0.00    -0.776 OA
HETATM   44  H   UNK     0      18.516  17.734   1.045  0.00  0.00     0.167 HD
ENDBRANCH  41  43
ENDBRANCH  40  41
ENDBRANCH  39  40
ENDBRANCH  27  39
BRANCH  11  45
HETATM   45  C   UNK     0      14.281  12.497  -8.012  0.00  0.00     0.051 C 
BRANCH  45  46
HETATM   46  C   UNK     0      14.520  11.082  -7.628  0.00  0.00     0.114 C 
BRANCH  46  47
HETATM   47  C   UNK     0      15.493  10.517  -8.606  0.00  0.00     0.139 C 
HETATM   48  O   UNK     0      15.085  10.196  -9.730  0.00  0.00    -0.650 OA
BRANCH  47  49
HETATM   49  O   UNK     0      16.813  10.354  -8.269  0.00  0.00    -0.776 OA
HETATM   50  H   UNK     0      17.166   9.486  -7.850  0.00  0.00     0.167 HD
ENDBRANCH  47  49
ENDBRANCH  46  47
ENDBRANCH  45  46
ENDBRANCH  11  45
BRANCH  18  51
HETATM   51  C   UNK     0      19.156  17.291  -6.594  0.00  0.00     0.051 C 
BRANCH  51  52
HETATM   52  C   UNK     0      18.773  18.764  -6.585  0.00  0.00     0.114 C 
BRANCH  52  53
HETATM   53  C   UNK     0      18.998  19.398  -7.899  0.00  0.00     0.139 C 
HETATM   54  O   UNK     0      19.611  18.786  -8.788  0.00  0.00    -0.650 OA
BRANCH  53  55
HETATM   55  O   UNK     0      18.528  20.668  -8.129  0.00  0.00    -0.776 OA
HETATM   56  H   UNK     0      18.939  21.511  -7.804  0.00  0.00     0.167 HD
ENDBRANCH  53  55
ENDBRANCH  52  53
ENDBRANCH  51  52
ENDBRANCH  18  51
TORSDOF 16
ENDMDL
MODEL 5
REMARK VINA RESULT:     -10.3      3.935      8.763
REMARK  16 active torsions:
REMARK  status: ('A' for Active; 'I' for Inactive)
REMARK    1  A    between atoms: C_6  and  C_7 
REMARK    2  A    between atoms: C_7  and  C_8 
REMARK    3  A    between atoms: C_8  and  C_9 
REMARK    4  A    between atoms: C_9  and  O_11 
REMARK    5  A    between atoms: C_16  and  C_17 
REMARK    6  A    between atoms: C_17  and  C_18 
REMARK    7  A    between atoms: C_18  and  C_19 
REMARK    8  A    between atoms: C_19  and  O_21 
REMARK    9  A    between atoms: C_28  and  C_29 
REMARK   10  A    between atoms: C_29  and  C_30 
REMARK   11  A    between atoms: C_30  and  C_31 
REMARK   12  A    between atoms: C_31  and  O_33 
REMARK   13  A    between atoms: C_42  and  C_43 
REMARK   14  A    between atoms: C_43  and  C_44 
REMARK   15  A    between atoms: C_44  and  C_45 
REMARK   16  A    between atoms: C_45  and  O_47 
ROOT
HETATM    1  C   UNK     0      11.393  18.320  -3.988  0.00  0.00     0.051 C 
HETATM    2  C   UNK     0      12.860  18.185  -3.632  0.00  0.00    -0.031 A 
HETATM    3  C   UNK     0      13.600  17.042  -3.372  0.00  0.00     0.021 A 
HETATM    4  N   UNK     0      14.870  17.399  -3.066  0.00  0.00    -0.361 N 
HETATM    5  C   UNK     0      14.958  18.743  -3.134  0.00  0.00     0.022 A 
HETATM    6  C   UNK     0      13.717  19.267  -3.483  0.00  0.00    -0.027 A 
HETATM    7  C   UNK     0      16.155  19.629  -2.979  0.00  0.00     0.115 C 
HETATM    8  C   UNK     0      17.436  19.165  -3.649  0.00  0.00     0.021 A 
HETATM    9  N   UNK     0      17.583  18.515  -4.813  0.00  0.00    -0.361 N 
HETATM   10  C   UNK     0      18.892  18.223  -4.969  0.00  0.00     0.022 A 
HETATM   11  C   UNK     0      19.609  18.708  -3.879  0.00  0.00    -0.027 A 
HETATM   12  C   UNK     0      18.698  19.302  -3.043  0.00  0.00    -0.031 A 
HETATM   13  C   UNK     0      19.026  19.975  -1.729  0.00  0.00     0.051 C 
HETATM   14  C   UNK     0      19.510  17.434  -6.119  0.00  0.00     0.115 C 
HETATM   15  C   UNK     0      18.987  16.011  -6.240  0.00  0.00     0.021 A 
HETATM   16  N   UNK     0      17.712  15.617  -6.419  0.00  0.00    -0.361 N 
HETATM   17  C   UNK     0      17.660  14.283  -6.403  0.00  0.00     0.022 A 
HETATM   18  C   UNK     0      18.964  13.784  -6.214  0.00  0.00    -0.027 A 
HETATM   19  C   UNK     0      19.786  14.877  -6.114  0.00  0.00    -0.031 A 
HETATM   20  C   UNK     0      21.291  14.787  -5.939  0.00  0.00     0.051 C 
HETATM   21  C   UNK     0      16.468  13.356  -6.490  0.00  0.00     0.115 C 
HETATM   22  C   UNK     0      15.174  13.824  -5.866  0.00  0.00     0.022 A 
HETATM   23  N   UNK     0      14.999  14.477  -4.710  0.00  0.00    -0.361 N 
HETATM   24  C   UNK     0      13.700  14.825  -4.613  0.00  0.00     0.021 A 
HETATM   25  C   UNK     0      13.020  14.376  -5.730  0.00  0.00    -0.031 A 
HETATM   26  C   UNK     0      11.546  14.489  -6.057  0.00  0.00     0.051 C 
HETATM   27  C   UNK     0      13.943  13.732  -6.546  0.00  0.00    -0.027 A 
HETATM   28  C   UNK     0      13.038  15.657  -3.528  0.00  0.00     0.115 C 
HETATM   29  H   UNK     0      15.686  16.701  -2.765  0.00  0.00     0.165 HD
HETATM   30  H   UNK     0      16.772  18.303  -5.552  0.00  0.00     0.165 HD
HETATM   31  H   UNK     0      16.838  16.292  -6.609  0.00  0.00     0.165 HD
HETATM   32  H   UNK     0      15.783  14.661  -3.930  0.00  0.00     0.165 HD
ENDROOT
BRANCH   6  33
HETATM   33  C   UNK     0      13.290  20.700  -3.681  0.00  0.00     0.051 C 
BRANCH  33  34
HETATM   34  C   UNK     0      13.278  21.057  -5.148  0.00  0.00     0.114 C 
BRANCH  34  35
HETATM   35  C   UNK     0      14.689  21.318  -5.555  0.00  0.00     0.139 C 
HETATM   36  O   UNK     0      15.329  20.455  -6.224  0.00  0.00    -0.650 OA
BRANCH  35  37
HETATM   37  O   UNK     0      15.357  22.493  -5.232  0.00  0.00    -0.776 OA
HETATM   38  H   UNK     0      16.011  22.543  -4.468  0.00  0.00     0.167 HD
ENDBRANCH  35  37
ENDBRANCH  34  35
ENDBRANCH  33  34
ENDBRANCH   6  33
BRANCH  27  39
HETATM   39  C   UNK     0      13.566  13.051  -7.814  0.00  0.00     0.051 C 
BRANCH  39  40
HETATM   40  C   UNK     0      12.917  11.743  -7.733  0.00  0.00     0.114 C 
BRANCH  40  41
HETATM   41  C   UNK     0      13.495  10.639  -7.001  0.00  0.00     0.139 C 
HETATM   42  O   UNK     0      14.699  10.351  -7.037  0.00  0.00    -0.650 OA
BRANCH  41  43
HETATM   43  O   UNK     0      12.650   9.828  -6.191  0.00  0.00    -0.776 OA
HETATM   44  H   UNK     0      11.733  10.222  -6.018  0.00  0.00     0.167 HD
ENDBRANCH  41  43
ENDBRANCH  40  41
ENDBRANCH  39  40
ENDBRANCH  27  39
BRANCH  11  45
HETATM   45  C   UNK     0      21.089  18.629  -3.614  0.00  0.00     0.051 C 
BRANCH  45  46
HETATM   46  C   UNK     0      21.519  17.375  -2.944  0.00  0.00     0.114 C 
BRANCH  46  47
HETATM   47  C   UNK     0      22.561  17.744  -1.944  0.00  0.00     0.139 C 
HETATM   48  O   UNK     0      22.285  18.597  -1.089  0.00  0.00    -0.650 OA
BRANCH  47  49
HETATM   49  O   UNK     0      23.799  17.153  -1.968  0.00  0.00    -0.776 OA
HETATM   50  H   UNK     0      24.092  16.471  -1.259  0.00  0.00     0.167 HD
ENDBRANCH  47  49
ENDBRANCH  46  47
ENDBRANCH  45  46
ENDBRANCH  11  45
BRANCH  18  51
HETATM   51  C   UNK     0      19.405  12.345  -6.152  0.00  0.00     0.051 C 
BRANCH  51  52
HETATM   52  C   UNK     0      19.096  11.864  -4.742  0.00  0.00     0.114 C 
BRANCH  52  53
HETATM   53  C   UNK     0      18.004  10.872  -4.727  0.00  0.00     0.139 C 
HETATM   54  O   UNK     0      17.052  11.008  -3.943  0.00  0.00    -0.650 OA
BRANCH  53  55
HETATM   55  O   UNK     0      18.051   9.797  -5.581  0.00  0.00    -0.776 OA
HETATM   56  H   UNK     0      17.373   9.568  -6.269  0.00  0.00     0.167 HD
ENDBRANCH  53  55
ENDBRANCH  52  53
ENDBRANCH  51  52
ENDBRANCH  18  51
TORSDOF 16
ENDMDL
MODEL 6
REMARK VINA RESULT:     -10.1      2.470      7.841
REMARK  16 active torsions:
REMARK  status: ('A' for Active; 'I' for Inactive)
REMARK    1  A    between atoms: C_6  and  C_7 
REMARK    2  A    between atoms: C_7  and  C_8 
REMARK    3  A    between atoms: C_8  and  C_9 
REMARK    4  A    between atoms: C_9  and  O_11 
REMARK    5  A    between atoms: C_16  and  C_17 
REMARK    6  A    between atoms: C_17  and  C_18 
REMARK    7  A    between atoms: C_18  and  C_19 
REMARK    8  A    between atoms: C_19  and  O_21 
REMARK    9  A    between atoms: C_28  and  C_29 
REMARK   10  A    between atoms: C_29  and  C_30 
REMARK   11  A    between atoms: C_30  and  C_31 
REMARK   12  A    between atoms: C_31  and  O_33 
REMARK   13  A    between atoms: C_42  and  C_43 
REMARK   14  A    between atoms: C_43  and  C_44 
REMARK   15  A    between atoms: C_44  and  C_45 
REMARK   16  A    between atoms: C_45  and  O_47 
ROOT
HETATM    1  C   UNK     0      15.404  20.480  -2.673  0.00  0.00     0.051 C 
HETATM    2  C   UNK     0      13.914  20.335  -2.909  0.00  0.00    -0.031 A 
HETATM    3  C   UNK     0      13.245  19.762  -3.979  0.00  0.00     0.021 A 
HETATM    4  N   UNK     0      11.911  19.885  -3.781  0.00  0.00    -0.361 N 
HETATM    5  C   UNK     0      11.716  20.516  -2.605  0.00  0.00     0.022 A 
HETATM    6  C   UNK     0      12.948  20.815  -2.034  0.00  0.00    -0.027 A 
HETATM    7  C   UNK     0      10.438  20.813  -1.884  0.00  0.00     0.115 C 
HETATM    8  C   UNK     0       9.397  19.708  -1.859  0.00  0.00     0.021 A 
HETATM    9  N   UNK     0       9.588  18.381  -1.780  0.00  0.00    -0.361 N 
HETATM   10  C   UNK     0       8.384  17.778  -1.882  0.00  0.00     0.022 A 
HETATM   11  C   UNK     0       7.390  18.743  -2.021  0.00  0.00    -0.027 A 
HETATM   12  C   UNK     0       8.022  19.960  -2.006  0.00  0.00    -0.031 A 
HETATM   13  C   UNK     0       7.335  21.303  -2.124  0.00  0.00     0.051 C 
HETATM   14  C   UNK     0       8.129  16.274  -1.907  0.00  0.00     0.115 C 
HETATM   15  C   UNK     0       8.797  15.555  -3.069  0.00  0.00     0.021 A 
HETATM   16  N   UNK     0      10.109  15.516  -3.366  0.00  0.00    -0.361 N 
HETATM   17  C   UNK     0      10.281  14.840  -4.504  0.00  0.00     0.022 A 
HETATM   18  C   UNK     0       9.022  14.409  -4.965  0.00  0.00    -0.027 A 
HETATM   19  C   UNK     0       8.100  14.862  -4.057  0.00  0.00    -0.031 A 
HETATM   20  C   UNK     0       6.611  14.586  -4.156  0.00  0.00     0.051 C 
HETATM   21  C   UNK     0      11.541  14.576  -5.296  0.00  0.00     0.115 C 
HETATM   22  C   UNK     0      12.605  15.649  -5.294  0.00  0.00     0.022 A 
HETATM   23  N   UNK     0      12.444  16.977  -5.367  0.00  0.00    -0.361 N 
HETATM   24  C   UNK     0      13.646  17.560  -5.185  0.00  0.00     0.021 A 
HETATM   25  C   UNK     0      14.606  16.583  -5.001  0.00  0.00    -0.031 A 
HETATM   26  C   UNK     0      16.099  16.740  -4.800  0.00  0.00     0.051 C 
HETATM   27  C   UNK     0      13.964  15.352  -5.067  0.00  0.00    -0.027 A 
HETATM   28  C   UNK     0      13.954  19.044  -5.092  0.00  0.00     0.115 C 
HETATM   29  H   UNK     0      11.117  19.560  -4.493  0.00  0.00     0.165 HD
HETATM   30  H   UNK     0      10.565  17.870  -1.603  0.00  0.00     0.165 HD
HETATM   31  H   UNK     0      10.936  15.934  -2.735  0.00  0.00     0.165 HD
HETATM   32  H   UNK     0      11.486  17.514  -5.590  0.00  0.00     0.165 HD
ENDROOT
BRANCH   6  33
HETATM   33  C   UNK     0      13.274  21.514  -0.739  0.00  0.00     0.051 C 
BRANCH  33  34
HETATM   34  C   UNK     0      12.292  22.630  -0.471  0.00  0.00     0.114 C 
BRANCH  34  35
HETATM   35  C   UNK     0      12.299  22.889   0.997  0.00  0.00     0.139 C 
HETATM   36  O   UNK     0      13.103  22.266   1.750  0.00  0.00    -0.650 OA
BRANCH  35  37
HETATM   37  O   UNK     0      11.449  23.808   1.600  0.00  0.00    -0.776 OA
HETATM   38  H   UNK     0      11.060  24.588   1.095  0.00  0.00     0.167 HD
ENDBRANCH  35  37
ENDBRANCH  34  35
ENDBRANCH  33  34
ENDBRANCH   6  33
BRANCH  27  39
HETATM   39  C   UNK     0      14.688  14.055  -4.983  0.00  0.00     0.051 C 
BRANCH  39  40
HETATM   40  C   UNK     0      15.201  13.465  -6.220  0.00  0.00     0.114 C 
BRANCH  40  41
HETATM   41  C   UNK     0      14.353  12.731  -7.133  0.00  0.00     0.139 C 
HETATM   42  O   UNK     0      14.460  12.794  -8.365  0.00  0.00    -0.650 OA
BRANCH  41  43
HETATM   43  O   UNK     0      13.337  11.886  -6.604  0.00  0.00    -0.776 OA
HETATM   44  H   UNK     0      13.347  11.799  -5.595  0.00  0.00     0.167 HD
ENDBRANCH  41  43
ENDBRANCH  40  41
ENDBRANCH  39  40
ENDBRANCH  27  39
BRANCH  11  45
HETATM   45  C   UNK     0       5.904  18.550  -2.159  0.00  0.00     0.051 C 
BRANCH  45  46
HETATM   46  C   UNK     0       5.325  19.165  -3.381  0.00  0.00     0.114 C 
BRANCH  46  47
HETATM   47  C   UNK     0       4.312  20.164  -2.935  0.00  0.00     0.139 C 
HETATM   48  O   UNK     0       4.014  20.209  -1.733  0.00  0.00    -0.650 OA
BRANCH  47  49
HETATM   49  O   UNK     0       3.721  21.016  -3.834  0.00  0.00    -0.776 OA
HETATM   50  H   UNK     0       2.999  20.699  -4.492  0.00  0.00     0.167 HD
ENDBRANCH  47  49
ENDBRANCH  46  47
ENDBRANCH  45  46
ENDBRANCH  11  45
BRANCH  18  51
HETATM   51  C   UNK     0       8.715  13.592  -6.193  0.00  0.00     0.051 C 
BRANCH  51  52
HETATM   52  C   UNK     0       8.698  12.138  -5.744  0.00  0.00     0.114 C 
BRANCH  52  53
HETATM   53  C   UNK     0       7.337  11.567  -5.783  0.00  0.00     0.139 C 
HETATM   54  O   UNK     0       6.561  11.872  -6.702  0.00  0.00    -0.650 OA
BRANCH  53  55
HETATM   55  O   UNK     0       6.936  10.701  -4.795  0.00  0.00    -0.776 OA
HETATM   56  H   UNK     0       6.694  10.948  -3.864  0.00  0.00     0.167 HD
ENDBRANCH  53  55
ENDBRANCH  52  53
ENDBRANCH  51  52
ENDBRANCH  18  51
TORSDOF 16
ENDMDL
MODEL 7
REMARK VINA RESULT:      -9.9      3.511     10.582
REMARK  16 active torsions:
REMARK  status: ('A' for Active; 'I' for Inactive)
REMARK    1  A    between atoms: C_6  and  C_7 
REMARK    2  A    between atoms: C_7  and  C_8 
REMARK    3  A    between atoms: C_8  and  C_9 
REMARK    4  A    between atoms: C_9  and  O_11 
REMARK    5  A    between atoms: C_16  and  C_17 
REMARK    6  A    between atoms: C_17  and  C_18 
REMARK    7  A    between atoms: C_18  and  C_19 
REMARK    8  A    between atoms: C_19  and  O_21 
REMARK    9  A    between atoms: C_28  and  C_29 
REMARK   10  A    between atoms: C_29  and  C_30 
REMARK   11  A    between atoms: C_30  and  C_31 
REMARK   12  A    between atoms: C_31  and  O_33 
REMARK   13  A    between atoms: C_42  and  C_43 
REMARK   14  A    between atoms: C_43  and  C_44 
REMARK   15  A    between atoms: C_44  and  C_45 
REMARK   16  A    between atoms: C_45  and  O_47 
ROOT
HETATM    1  C   UNK     0      13.924  11.668  -7.375  0.00  0.00     0.051 C 
HETATM    2  C   UNK     0      13.714  12.874  -6.483  0.00  0.00    -0.031 A 
HETATM    3  C   UNK     0      14.562  13.427  -5.536  0.00  0.00     0.021 A 
HETATM    4  N   UNK     0      13.945  14.483  -4.955  0.00  0.00    -0.361 N 
HETATM    5  C   UNK     0      12.726  14.621  -5.516  0.00  0.00     0.022 A 
HETATM    6  C   UNK     0      12.547  13.628  -6.474  0.00  0.00    -0.027 A 
HETATM    7  C   UNK     0      11.692  15.680  -5.298  0.00  0.00     0.115 C 
HETATM    8  C   UNK     0      12.192  17.111  -5.205  0.00  0.00     0.021 A 
HETATM    9  N   UNK     0      13.204  17.689  -5.870  0.00  0.00    -0.361 N 
HETATM   10  C   UNK     0      13.349  18.947  -5.403  0.00  0.00     0.022 A 
HETATM   11  C   UNK     0      12.398  19.190  -4.417  0.00  0.00    -0.027 A 
HETATM   12  C   UNK     0      11.665  18.038  -4.287  0.00  0.00    -0.031 A 
HETATM   13  C   UNK     0      10.511  17.839  -3.330  0.00  0.00     0.051 C 
HETATM   14  C   UNK     0      14.420  19.948  -5.828  0.00  0.00     0.115 C 
HETATM   15  C   UNK     0      15.841  19.483  -5.555  0.00  0.00     0.021 A 
HETATM   16  N   UNK     0      16.445  18.373  -6.017  0.00  0.00    -0.361 N 
HETATM   17  C   UNK     0      17.669  18.288  -5.491  0.00  0.00     0.022 A 
HETATM   18  C   UNK     0      17.876  19.402  -4.654  0.00  0.00    -0.027 A 
HETATM   19  C   UNK     0      16.724  20.143  -4.703  0.00  0.00    -0.031 A 
HETATM   20  C   UNK     0      16.534  21.457  -3.967  0.00  0.00     0.051 C 
HETATM   21  C   UNK     0      18.715  17.206  -5.633  0.00  0.00     0.115 C 
HETATM   22  C   UNK     0      18.231  15.781  -5.771  0.00  0.00     0.022 A 
HETATM   23  N   UNK     0      17.223  15.181  -5.124  0.00  0.00    -0.361 N 
HETATM   24  C   UNK     0      17.046  13.956  -5.660  0.00  0.00     0.021 A 
HETATM   25  C   UNK     0      17.969  13.759  -6.668  0.00  0.00    -0.031 A 
HETATM   26  C   UNK     0      18.192  12.534  -7.531  0.00  0.00     0.051 C 
HETATM   27  C   UNK     0      18.739  14.913  -6.758  0.00  0.00    -0.027 A 
HETATM   28  C   UNK     0      15.968  12.941  -5.322  0.00  0.00     0.115 C 
HETATM   29  H   UNK     0      14.360  15.100  -4.124  0.00  0.00     0.165 HD
HETATM   30  H   UNK     0      13.786  17.227  -6.705  0.00  0.00     0.165 HD
HETATM   31  H   UNK     0      16.018  17.658  -6.767  0.00  0.00     0.165 HD
HETATM   32  H   UNK     0      16.654  15.601  -4.254  0.00  0.00     0.165 HD
ENDROOT
BRANCH   6  33
HETATM   33  C   UNK     0      11.367  13.345  -7.368  0.00  0.00     0.051 C 
BRANCH  33  34
HETATM   34  C   UNK     0      10.598  12.142  -6.874  0.00  0.00     0.114 C 
BRANCH  34  35
HETATM   35  C   UNK     0       9.578  12.632  -5.903  0.00  0.00     0.139 C 
HETATM   36  O   UNK     0       8.458  13.052  -6.314  0.00  0.00    -0.650 OA
BRANCH  35  37
HETATM   37  O   UNK     0       9.798  12.651  -4.531  0.00  0.00    -0.776 OA
HETATM   38  H   UNK     0       9.280  13.256  -3.915  0.00  0.00     0.167 HD
ENDBRANCH  35  37
ENDBRANCH  34  35
ENDBRANCH  33  34
ENDBRANCH   6  33
BRANCH  27  39
HETATM   39  C   UNK     0      19.891  15.049  -7.691  0.00  0.00     0.051 C 
BRANCH  39  40
HETATM   40  C   UNK     0      21.161  14.425  -7.321  0.00  0.00     0.114 C 
BRANCH  40  41
HETATM   41  C   UNK     0      21.411  13.917  -5.991  0.00  0.00     0.139 C 
HETATM   42  O   UNK     0      21.687  14.639  -5.023  0.00  0.00    -0.650 OA
BRANCH  41  43
HETATM   43  O   UNK     0      21.341  12.513  -5.763  0.00  0.00    -0.776 OA
HETATM   44  H   UNK     0      22.224  12.084  -5.513  0.00  0.00     0.167 HD
ENDBRANCH  41  43
ENDBRANCH  40  41
ENDBRANCH  39  40
ENDBRANCH  27  39
BRANCH  11  45
HETATM   45  C   UNK     0      12.168  20.445  -3.619  0.00  0.00     0.051 C 
BRANCH  45  46
HETATM   46  C   UNK     0      12.228  20.249  -2.148  0.00  0.00     0.114 C 
BRANCH  46  47
HETATM   47  C   UNK     0      13.658  20.377  -1.744  0.00  0.00     0.139 C 
HETATM   48  O   UNK     0      14.067  21.481  -1.359  0.00  0.00    -0.650 OA
BRANCH  47  49
HETATM   49  O   UNK     0      14.503  19.298  -1.797  0.00  0.00    -0.776 OA
HETATM   50  H   UNK     0      14.628  18.745  -2.654  0.00  0.00     0.167 HD
ENDBRANCH  47  49
ENDBRANCH  46  47
ENDBRANCH  45  46
ENDBRANCH  11  45
BRANCH  18  51
HETATM   51  C   UNK     0      19.112  19.752  -3.866  0.00  0.00     0.051 C 
BRANCH  51  52
HETATM   52  C   UNK     0      19.137  18.810  -2.671  0.00  0.00     0.114 C 
BRANCH  52  53
HETATM   53  C   UNK     0      18.593  19.448  -1.457  0.00  0.00     0.139 C 
HETATM   54  O   UNK     0      19.352  20.044  -0.676  0.00  0.00    -0.650 OA
BRANCH  53  55
HETATM   55  O   UNK     0      17.247  19.375  -1.196  0.00  0.00    -0.776 OA
HETATM   56  H   UNK     0      16.523  19.775  -1.746  0.00  0.00     0.167 HD
ENDBRANCH  53  55
ENDBRANCH  52  53
ENDBRANCH  51  52
ENDBRANCH  18  51
TORSDOF 16
ENDMDL
MODEL 8
REMARK VINA RESULT:      -9.5      2.448      7.508
REMARK  16 active torsions:
REMARK  status: ('A' for Active; 'I' for Inactive)
REMARK    1  A    between atoms: C_6  and  C_7 
REMARK    2  A    between atoms: C_7  and  C_8 
REMARK    3  A    between atoms: C_8  and  C_9 
REMARK    4  A    between atoms: C_9  and  O_11 
REMARK    5  A    between atoms: C_16  and  C_17 
REMARK    6  A    between atoms: C_17  and  C_18 
REMARK    7  A    between atoms: C_18  and  C_19 
REMARK    8  A    between atoms: C_19  and  O_21 
REMARK    9  A    between atoms: C_28  and  C_29 
REMARK   10  A    between atoms: C_29  and  C_30 
REMARK   11  A    between atoms: C_30  and  C_31 
REMARK   12  A    between atoms: C_31  and  O_33 
REMARK   13  A    between atoms: C_42  and  C_43 
REMARK   14  A    between atoms: C_43  and  C_44 
REMARK   15  A    between atoms: C_44  and  C_45 
REMARK   16  A    between atoms: C_45  and  O_47 
ROOT
HETATM    1  C   UNK     0      15.403  20.933  -2.401  0.00  0.00     0.051 C 
HETATM    2  C   UNK     0      14.025  20.441  -2.793  0.00  0.00    -0.031 A 
HETATM    3  C   UNK     0      13.605  19.848  -3.974  0.00  0.00     0.021 A 
HETATM    4  N   UNK     0      12.276  19.600  -3.895  0.00  0.00    -0.361 N 
HETATM    5  C   UNK     0      11.841  20.013  -2.686  0.00  0.00     0.022 A 
HETATM    6  C   UNK     0      12.909  20.547  -1.972  0.00  0.00    -0.027 A 
HETATM    7  C   UNK     0      10.485  19.883  -2.067  0.00  0.00     0.115 C 
HETATM    8  C   UNK     0       9.777  18.552  -2.251  0.00  0.00     0.021 A 
HETATM    9  N   UNK     0      10.307  17.320  -2.286  0.00  0.00    -0.361 N 
HETATM   10  C   UNK     0       9.317  16.445  -2.563  0.00  0.00     0.022 A 
HETATM   11  C   UNK     0       8.114  17.132  -2.701  0.00  0.00    -0.027 A 
HETATM   12  C   UNK     0       8.397  18.459  -2.505  0.00  0.00    -0.031 A 
HETATM   13  C   UNK     0       7.387  19.584  -2.556  0.00  0.00     0.051 C 
HETATM   14  C   UNK     0       9.474  14.940  -2.761  0.00  0.00     0.115 C 
HETATM   15  C   UNK     0      10.385  14.562  -3.918  0.00  0.00     0.021 A 
HETATM   16  N   UNK     0      11.677  14.898  -4.089  0.00  0.00    -0.361 N 
HETATM   17  C   UNK     0      12.100  14.431  -5.266  0.00  0.00     0.022 A 
HETATM   18  C   UNK     0      11.034  13.750  -5.887  0.00  0.00    -0.027 A 
HETATM   19  C   UNK     0       9.966  13.838  -5.032  0.00  0.00    -0.031 A 
HETATM   20  C   UNK     0       8.614  13.203  -5.301  0.00  0.00     0.051 C 
HETATM   21  C   UNK     0      13.435  14.596  -5.954  0.00  0.00     0.115 C 
HETATM   22  C   UNK     0      14.172  15.898  -5.744  0.00  0.00     0.022 A 
HETATM   23  N   UNK     0      13.669  17.139  -5.700  0.00  0.00    -0.361 N 
HETATM   24  C   UNK     0      14.657  17.985  -5.346  0.00  0.00     0.021 A 
HETATM   25  C   UNK     0      15.828  17.273  -5.168  0.00  0.00    -0.031 A 
HETATM   26  C   UNK     0      17.208  17.782  -4.809  0.00  0.00     0.051 C 
HETATM   27  C   UNK     0      15.542  15.935  -5.417  0.00  0.00    -0.027 A 
HETATM   28  C   UNK     0      14.553  19.476  -5.078  0.00  0.00     0.115 C 
HETATM   29  H   UNK     0      11.647  19.170  -4.708  0.00  0.00     0.165 HD
HETATM   30  H   UNK     0      11.371  17.059  -2.066  0.00  0.00     0.165 HD
HETATM   31  H   UNK     0      12.320  15.435  -3.343  0.00  0.00     0.165 HD
HETATM   32  H   UNK     0      12.620  17.435  -5.962  0.00  0.00     0.165 HD
ENDROOT
BRANCH   6  33
HETATM   33  C   UNK     0      12.949  21.145  -0.589  0.00  0.00     0.051 C 
BRANCH  33  34
HETATM   34  C   UNK     0      12.522  22.594  -0.620  0.00  0.00     0.114 C 
BRANCH  34  35
HETATM   35  C   UNK     0      11.394  22.747   0.343  0.00  0.00     0.139 C 
HETATM   36  O   UNK     0      10.217  22.434   0.001  0.00  0.00    -0.650 OA
BRANCH  35  37
HETATM   37  O   UNK     0      11.572  23.228   1.635  0.00  0.00    -0.776 OA
HETATM   38  H   UNK     0      10.941  22.994   2.384  0.00  0.00     0.167 HD
ENDBRANCH  35  37
ENDBRANCH  34  35
ENDBRANCH  33  34
ENDBRANCH   6  33
BRANCH  27  39
HETATM   39  C   UNK     0      16.578  14.867  -5.392  0.00  0.00     0.051 C 
BRANCH  39  40
HETATM   40  C   UNK     0      16.877  14.161  -6.638  0.00  0.00     0.114 C 
BRANCH  40  41
HETATM   41  C   UNK     0      16.587  12.756  -6.817  0.00  0.00     0.139 C 
HETATM   42  O   UNK     0      15.852  12.109  -6.060  0.00  0.00    -0.650 OA
BRANCH  41  43
HETATM   43  O   UNK     0      17.170  12.065  -7.916  0.00  0.00    -0.776 OA
HETATM   44  H   UNK     0      16.534  11.886  -8.684  0.00  0.00     0.167 HD
ENDBRANCH  41  43
ENDBRANCH  40  41
ENDBRANCH  39  40
ENDBRANCH  27  39
BRANCH  11  45
HETATM   45  C   UNK     0       6.746  16.582  -3.001  0.00  0.00     0.051 C 
BRANCH  45  46
HETATM   46  C   UNK     0       6.674  15.783  -4.251  0.00  0.00     0.114 C 
BRANCH  46  47
HETATM   47  C   UNK     0       5.894  14.550  -3.943  0.00  0.00     0.139 C 
HETATM   48  O   UNK     0       4.969  14.230  -4.702  0.00  0.00    -0.650 OA
BRANCH  47  49
HETATM   49  O   UNK     0       6.192  13.787  -2.842  0.00  0.00    -0.776 OA
HETATM   50  H   UNK     0       6.046  12.771  -2.828  0.00  0.00     0.167 HD
ENDBRANCH  47  49
ENDBRANCH  46  47
ENDBRANCH  45  46
ENDBRANCH  11  45
BRANCH  18  51
HETATM   51  C   UNK     0      11.039  13.035  -7.213  0.00  0.00     0.051 C 
BRANCH  51  52
HETATM   52  C   UNK     0      11.104  11.549  -6.896  0.00  0.00     0.114 C 
BRANCH  52  53
HETATM   53  C   UNK     0      12.478  11.022  -7.008  0.00  0.00     0.139 C 
HETATM   54  O   UNK     0      12.818  10.028  -6.348  0.00  0.00    -0.650 OA
BRANCH  53  55
HETATM   55  O   UNK     0      13.377  11.641  -7.843  0.00  0.00    -0.776 OA
HETATM   56  H   UNK     0      13.873  11.211  -8.588  0.00  0.00     0.167 HD
ENDBRANCH  53  55
ENDBRANCH  52  53
ENDBRANCH  51  52
ENDBRANCH  18  51
TORSDOF 16
ENDMDL
MODEL 9
REMARK VINA RESULT:      -9.4      3.545     10.785
REMARK  16 active torsions:
REMARK  status: ('A' for Active; 'I' for Inactive)
REMARK    1  A    between atoms: C_6  and  C_7 
REMARK    2  A    between atoms: C_7  and  C_8 
REMARK    3  A    between atoms: C_8  and  C_9 
REMARK    4  A    between atoms: C_9  and  O_11 
REMARK    5  A    between atoms: C_16  and  C_17 
REMARK    6  A    between atoms: C_17  and  C_18 
REMARK    7  A    between atoms: C_18  and  C_19 
REMARK    8  A    between atoms: C_19  and  O_21 
REMARK    9  A    between atoms: C_28  and  C_29 
REMARK   10  A    between atoms: C_29  and  C_30 
REMARK   11  A    between atoms: C_30  and  C_31 
REMARK   12  A    between atoms: C_31  and  O_33 
REMARK   13  A    between atoms: C_42  and  C_43 
REMARK   14  A    between atoms: C_43  and  C_44 
REMARK   15  A    between atoms: C_44  and  C_45 
REMARK   16  A    between atoms: C_45  and  O_47 
ROOT
HETATM    1  C   UNK     0      13.862  12.038  -7.302  0.00  0.00     0.051 C 
HETATM    2  C   UNK     0      13.666  13.206  -6.356  0.00  0.00    -0.031 A 
HETATM    3  C   UNK     0      14.546  13.745  -5.431  0.00  0.00     0.021 A 
HETATM    4  N   UNK     0      13.933  14.764  -4.782  0.00  0.00    -0.361 N 
HETATM    5  C   UNK     0      12.685  14.890  -5.279  0.00  0.00     0.022 A 
HETATM    6  C   UNK     0      12.484  13.929  -6.264  0.00  0.00    -0.027 A 
HETATM    7  C   UNK     0      11.638  15.915  -4.973  0.00  0.00     0.115 C 
HETATM    8  C   UNK     0      12.108  17.354  -4.850  0.00  0.00     0.021 A 
HETATM    9  N   UNK     0      13.073  17.980  -5.540  0.00  0.00    -0.361 N 
HETATM   10  C   UNK     0      13.211  19.224  -5.034  0.00  0.00     0.022 A 
HETATM   11  C   UNK     0      12.303  19.407  -3.995  0.00  0.00    -0.027 A 
HETATM   12  C   UNK     0      11.605  18.232  -3.874  0.00  0.00    -0.031 A 
HETATM   13  C   UNK     0      10.503  17.970  -2.871  0.00  0.00     0.051 C 
HETATM   14  C   UNK     0      14.236  20.267  -5.471  0.00  0.00     0.115 C 
HETATM   15  C   UNK     0      15.679  19.828  -5.283  0.00  0.00     0.021 A 
HETATM   16  N   UNK     0      16.286  18.751  -5.815  0.00  0.00    -0.361 N 
HETATM   17  C   UNK     0      17.536  18.679  -5.351  0.00  0.00     0.022 A 
HETATM   18  C   UNK     0      17.757  19.766  -4.483  0.00  0.00    -0.027 A 
HETATM   19  C   UNK     0      16.587  20.479  -4.450  0.00  0.00    -0.031 A 
HETATM   20  C   UNK     0      16.401  21.760  -3.657  0.00  0.00     0.051 C 
HETATM   21  C   UNK     0      18.599  17.629  -5.583  0.00  0.00     0.115 C 
HETATM   22  C   UNK     0      18.142  16.199  -5.751  0.00  0.00     0.022 A 
HETATM   23  N   UNK     0      17.181  15.550  -5.081  0.00  0.00    -0.361 N 
HETATM   24  C   UNK     0      17.008  14.341  -5.653  0.00  0.00     0.021 A 
HETATM   25  C   UNK     0      17.886  14.204  -6.711  0.00  0.00    -0.031 A 
HETATM   26  C   UNK     0      18.095  13.018  -7.628  0.00  0.00     0.051 C 
HETATM   27  C   UNK     0      18.623  15.380  -6.793  0.00  0.00    -0.027 A 
HETATM   28  C   UNK     0      15.971  13.288  -5.303  0.00  0.00     0.115 C 
HETATM   29  H   UNK     0      14.373  15.360  -3.949  0.00  0.00     0.165 HD
HETATM   30  H   UNK     0      13.625  17.564  -6.418  0.00  0.00     0.165 HD
HETATM   31  H   UNK     0      15.840  18.053  -6.570  0.00  0.00     0.165 HD
HETATM   32  H   UNK     0      16.645  15.923  -4.169  0.00  0.00     0.165 HD
ENDROOT
BRANCH   6  33
HETATM   33  C   UNK     0      11.269  13.648  -7.111  0.00  0.00     0.051 C 
BRANCH  33  34
HETATM   34  C   UNK     0      10.258  12.831  -6.343  0.00  0.00     0.114 C 
BRANCH  34  35
HETATM   35  C   UNK     0       9.731  11.787  -7.268  0.00  0.00     0.139 C 
HETATM   36  O   UNK     0       8.866  12.088  -8.142  0.00  0.00    -0.650 OA
BRANCH  35  37
HETATM   37  O   UNK     0      10.152  10.464  -7.223  0.00  0.00    -0.776 OA
HETATM   38  H   UNK     0       9.905   9.800  -7.939  0.00  0.00     0.167 HD
ENDBRANCH  35  37
ENDBRANCH  34  35
ENDBRANCH  33  34
ENDBRANCH   6  33
BRANCH  27  39
HETATM   39  C   UNK     0      19.724  15.579  -7.774  0.00  0.00     0.051 C 
BRANCH  39  40
HETATM   40  C   UNK     0      20.213  16.939  -8.003  0.00  0.00     0.114 C 
BRANCH  40  41
HETATM   41  C   UNK     0      19.722  17.762  -9.085  0.00  0.00     0.139 C 
HETATM   42  O   UNK     0      19.108  18.823  -8.912  0.00  0.00    -0.650 OA
BRANCH  41  43
HETATM   43  O   UNK     0      19.947  17.345 -10.428  0.00  0.00    -0.776 OA
HETATM   44  H   UNK     0      19.471  17.903 -11.126  0.00  0.00     0.167 HD
ENDBRANCH  41  43
ENDBRANCH  40  41
ENDBRANCH  39  40
ENDBRANCH  27  39
BRANCH  11  45
HETATM   45  C   UNK     0      12.082  20.626  -3.141  0.00  0.00     0.051 C 
BRANCH  45  46
HETATM   46  C   UNK     0      10.855  21.390  -3.480  0.00  0.00     0.114 C 
BRANCH  46  47
HETATM   47  C   UNK     0      11.290  22.715  -4.007  0.00  0.00     0.139 C 
HETATM   48  O   UNK     0      11.455  23.646  -3.206  0.00  0.00    -0.650 OA
BRANCH  47  49
HETATM   49  O   UNK     0      11.503  22.902  -5.349  0.00  0.00    -0.776 OA
HETATM   50  H   UNK     0      10.780  23.289  -5.967  0.00  0.00     0.167 HD
ENDBRANCH  47  49
ENDBRANCH  46  47
ENDBRANCH  45  46
ENDBRANCH  11  45
BRANCH  18  51
HETATM   51  C   UNK     0      19.021  20.119  -3.743  0.00  0.00     0.051 C 
BRANCH  51  52
HETATM   52  C   UNK     0      18.880  19.519  -2.351  0.00  0.00     0.114 C 
BRANCH  52  53
HETATM   53  C   UNK     0      20.184  19.400  -1.670  0.00  0.00     0.139 C 
HETATM   54  O   UNK     0      20.237  19.374  -0.430  0.00  0.00    -0.650 OA
BRANCH  53  55
HETATM   55  O   UNK     0      21.335  19.322  -2.415  0.00  0.00    -0.776 OA
HETATM   56  H   UNK     0      21.579  18.589  -3.039  0.00  0.00     0.167 HD
ENDBRANCH  53  55
ENDBRANCH  52  53
ENDBRANCH  51  52
ENDBRANCH  18  51
TORSDOF 16
ENDMDL
MODEL 10
REMARK VINA RESULT:      -8.9      2.596      7.599
REMARK  16 active torsions:
REMARK  status: ('A' for Active; 'I' for Inactive)
REMARK    1  A    between atoms: C_6  and  C_7 
REMARK    2  A    between atoms: C_7  and  C_8 
REMARK    3  A    between atoms: C_8  and  C_9 
REMARK    4  A    between atoms: C_9  and  O_11 
REMARK    5  A    between atoms: C_16  and  C_17 
REMARK    6  A    between atoms: C_17  and  C_18 
REMARK    7  A    between atoms: C_18  and  C_19 
REMARK    8  A    between atoms: C_19  and  O_21 
REMARK    9  A    between atoms: C_28  and  C_29 
REMARK   10  A    between atoms: C_29  and  C_30 
REMARK   11  A    between atoms: C_30  and  C_31 
REMARK   12  A    between atoms: C_31  and  O_33 
REMARK   13  A    between atoms: C_42  and  C_43 
REMARK   14  A    between atoms: C_43  and  C_44 
REMARK   15  A    between atoms: C_44  and  C_45 
REMARK   16  A    between atoms: C_45  and  O_47 
ROOT
HETATM    1  C   UNK     0       8.320  15.274  -3.928  0.00  0.00     0.051 C 
HETATM    2  C   UNK     0       9.530  15.049  -4.813  0.00  0.00    -0.031 A 
HETATM    3  C   UNK     0      10.361  15.977  -5.419  0.00  0.00     0.021 A 
HETATM    4  N   UNK     0      11.299  15.322  -6.144  0.00  0.00    -0.361 N 
HETATM    5  C   UNK     0      11.087  13.997  -6.007  0.00  0.00     0.022 A 
HETATM    6  C   UNK     0       9.986  13.790  -5.183  0.00  0.00    -0.027 A 
HETATM    7  C   UNK     0      11.892  12.846  -6.525  0.00  0.00     0.115 C 
HETATM    8  C   UNK     0      13.402  12.967  -6.417  0.00  0.00     0.021 A 
HETATM    9  N   UNK     0      14.128  13.542  -5.446  0.00  0.00    -0.361 N 
HETATM   10  C   UNK     0      15.426  13.498  -5.811  0.00  0.00     0.022 A 
HETATM   11  C   UNK     0      15.541  12.869  -7.047  0.00  0.00    -0.027 A 
HETATM   12  C   UNK     0      14.270  12.532  -7.435  0.00  0.00    -0.031 A 
HETATM   13  C   UNK     0      13.907  11.820  -8.719  0.00  0.00     0.051 C 
HETATM   14  C   UNK     0      16.601  14.092  -5.038  0.00  0.00     0.115 C 
HETATM   15  C   UNK     0      16.513  15.597  -4.845  0.00  0.00     0.021 A 
HETATM   16  N   UNK     0      15.533  16.291  -4.237  0.00  0.00    -0.361 N 
HETATM   17  C   UNK     0      15.792  17.597  -4.339  0.00  0.00     0.022 A 
HETATM   18  C   UNK     0      17.005  17.761  -5.037  0.00  0.00    -0.027 A 
HETATM   19  C   UNK     0      17.447  16.501  -5.348  0.00  0.00    -0.031 A 
HETATM   20  C   UNK     0      18.748  16.218  -6.076  0.00  0.00     0.051 C 
HETATM   21  C   UNK     0      14.976  18.788  -3.890  0.00  0.00     0.115 C 
HETATM   22  C   UNK     0      13.472  18.665  -3.950  0.00  0.00     0.022 A 
HETATM   23  N   UNK     0      12.723  18.094  -4.903  0.00  0.00    -0.361 N 
HETATM   24  C   UNK     0      11.442  18.080  -4.482  0.00  0.00     0.021 A 
HETATM   25  C   UNK     0      11.362  18.665  -3.233  0.00  0.00    -0.031 A 
HETATM   26  C   UNK     0      10.141  18.915  -2.374  0.00  0.00     0.051 C 
HETATM   27  C   UNK     0      12.649  19.048  -2.871  0.00  0.00    -0.027 A 
HETATM   28  C   UNK     0      10.243  17.455  -5.175  0.00  0.00     0.115 C 
HETATM   29  H   UNK     0      12.078  15.801  -6.781  0.00  0.00     0.165 HD
HETATM   30  H   UNK     0      13.731  13.935  -4.478  0.00  0.00     0.165 HD
HETATM   31  H   UNK     0      14.663  15.851  -3.684  0.00  0.00     0.165 HD
HETATM   32  H   UNK     0      13.086  17.735  -5.901  0.00  0.00     0.165 HD
ENDROOT
BRANCH   6  33
HETATM   33  C   UNK     0       9.342  12.505  -4.727  0.00  0.00     0.051 C 
BRANCH  33  34
HETATM   34  C   UNK     0       8.399  11.977  -5.782  0.00  0.00     0.114 C 
BRANCH  34  35
HETATM   35  C   UNK     0       7.010  12.166  -5.273  0.00  0.00     0.139 C 
HETATM   36  O   UNK     0       6.047  12.302  -6.083  0.00  0.00    -0.650 OA
BRANCH  35  37
HETATM   37  O   UNK     0       6.707  12.201  -3.917  0.00  0.00    -0.776 OA
HETATM   38  H   UNK     0       6.563  13.067  -3.423  0.00  0.00     0.167 HD
ENDBRANCH  35  37
ENDBRANCH  34  35
ENDBRANCH  33  34
ENDBRANCH   6  33
BRANCH  27  39
HETATM   39  C   UNK     0      12.953  19.780  -1.612  0.00  0.00     0.051 C 
BRANCH  39  40
HETATM   40  C   UNK     0      12.904  21.242  -1.630  0.00  0.00     0.114 C 
BRANCH  40  41
HETATM   41  C   UNK     0      11.664  21.970  -1.784  0.00  0.00     0.139 C 
HETATM   42  O   UNK     0      10.923  22.263  -0.836  0.00  0.00    -0.650 OA
BRANCH  41  43
HETATM   43  O   UNK     0      11.260  22.378  -3.086  0.00  0.00    -0.776 OA
HETATM   44  H   UNK     0      11.613  21.797  -3.836  0.00  0.00     0.167 HD
ENDBRANCH  41  43
ENDBRANCH  40  41
ENDBRANCH  39  40
ENDBRANCH  27  39
BRANCH  11  45
HETATM   45  C   UNK     0      16.784  12.584  -7.847  0.00  0.00     0.051 C 
BRANCH  45  46
HETATM   46  C   UNK     0      17.909  12.039  -7.045  0.00  0.00     0.114 C 
BRANCH  46  47
HETATM   47  C   UNK     0      19.147  12.746  -7.482  0.00  0.00     0.139 C 
HETATM   48  O   UNK     0      20.114  12.780  -6.708  0.00  0.00    -0.650 OA
BRANCH  47  49
HETATM   49  O   UNK     0      19.214  13.348  -8.713  0.00  0.00    -0.776 OA
HETATM   50  H   UNK     0      18.388  13.458  -9.312  0.00  0.00     0.167 HD
ENDBRANCH  47  49
ENDBRANCH  46  47
ENDBRANCH  45  46
ENDBRANCH  11  45
BRANCH  18  51
HETATM   51  C   UNK     0      17.715  19.047  -5.372  0.00  0.00     0.051 C 
BRANCH  51  52
HETATM   52  C   UNK     0      16.681  19.943  -6.039  0.00  0.00     0.114 C 
BRANCH  52  53
HETATM   53  C   UNK     0      16.721  21.318  -5.506  0.00  0.00     0.139 C 
HETATM   54  O   UNK     0      15.669  21.967  -5.382  0.00  0.00    -0.650 OA
BRANCH  53  55
HETATM   55  O   UNK     0      17.925  21.876  -5.152  0.00  0.00    -0.776 OA
HETATM   56  H   UNK     0      18.111  22.845  -5.046  0.00  0.00     0.167 HD
ENDBRANCH  53  55
ENDBRANCH  52  53
ENDBRANCH  51  52
ENDBRANCH  18  51
TORSDOF 16
ENDMDL
MODEL 11
REMARK VINA RESULT:      -8.9      3.433      6.239
REMARK  16 active torsions:
REMARK  status: ('A' for Active; 'I' for Inactive)
REMARK    1  A    between atoms: C_6  and  C_7 
REMARK    2  A    between atoms: C_7  and  C_8 
REMARK    3  A    between atoms: C_8  and  C_9 
REMARK    4  A    between atoms: C_9  and  O_11 
REMARK    5  A    between atoms: C_16  and  C_17 
REMARK    6  A    between atoms: C_17  and  C_18 
REMARK    7  A    between atoms: C_18  and  C_19 
REMARK    8  A    between atoms: C_19  and  O_21 
REMARK    9  A    between atoms: C_28  and  C_29 
REMARK   10  A    between atoms: C_29  and  C_30 
REMARK   11  A    between atoms: C_30  and  C_31 
REMARK   12  A    between atoms: C_31  and  O_33 
REMARK   13  A    between atoms: C_42  and  C_43 
REMARK   14  A    between atoms: C_43  and  C_44 
REMARK   15  A    between atoms: C_44  and  C_45 
REMARK   16  A    between atoms: C_45  and  O_47 
ROOT
HETATM    1  C   UNK     0      14.063  20.799  -2.274  0.00  0.00     0.051 C 
HETATM    2  C   UNK     0      15.195  19.811  -2.471  0.00  0.00    -0.031 A 
HETATM    3  C   UNK     0      15.218  18.443  -2.247  0.00  0.00     0.021 A 
HETATM    4  N   UNK     0      16.455  17.970  -2.530  0.00  0.00    -0.361 N 
HETATM    5  C   UNK     0      17.218  19.005  -2.938  0.00  0.00     0.022 A 
HETATM    6  C   UNK     0      16.462  20.172  -2.910  0.00  0.00    -0.027 A 
HETATM    7  C   UNK     0      18.624  19.006  -3.452  0.00  0.00     0.115 C 
HETATM    8  C   UNK     0      18.995  17.900  -4.424  0.00  0.00     0.021 A 
HETATM    9  N   UNK     0      18.236  17.331  -5.373  0.00  0.00    -0.361 N 
HETATM   10  C   UNK     0      18.946  16.329  -5.933  0.00  0.00     0.022 A 
HETATM   11  C   UNK     0      20.200  16.257  -5.335  0.00  0.00    -0.027 A 
HETATM   12  C   UNK     0      20.238  17.244  -4.384  0.00  0.00    -0.031 A 
HETATM   13  C   UNK     0      21.415  17.545  -3.483  0.00  0.00     0.051 C 
HETATM   14  C   UNK     0      18.453  15.369  -7.012  0.00  0.00     0.115 C 
HETATM   15  C   UNK     0      17.253  14.535  -6.594  0.00  0.00     0.021 A 
HETATM   16  N   UNK     0      16.048  14.976  -6.187  0.00  0.00    -0.361 N 
HETATM   17  C   UNK     0      15.292  13.931  -5.842  0.00  0.00     0.022 A 
HETATM   18  C   UNK     0      16.038  12.752  -6.042  0.00  0.00    -0.027 A 
HETATM   19  C   UNK     0      17.263  13.144  -6.515  0.00  0.00    -0.031 A 
HETATM   20  C   UNK     0      18.368  12.177  -6.898  0.00  0.00     0.051 C 
HETATM   21  C   UNK     0      13.898  13.891  -5.258  0.00  0.00     0.115 C 
HETATM   22  C   UNK     0      13.500  15.009  -4.324  0.00  0.00     0.022 A 
HETATM   23  N   UNK     0      14.237  15.598  -3.373  0.00  0.00    -0.361 N 
HETATM   24  C   UNK     0      13.539  16.642  -2.882  0.00  0.00     0.021 A 
HETATM   25  C   UNK     0      12.319  16.721  -3.526  0.00  0.00    -0.031 A 
HETATM   26  C   UNK     0      11.181  17.694  -3.296  0.00  0.00     0.051 C 
HETATM   27  C   UNK     0      12.271  15.687  -4.453  0.00  0.00    -0.027 A 
HETATM   28  C   UNK     0      13.995  17.664  -1.855  0.00  0.00     0.115 C 
HETATM   29  H   UNK     0      16.791  16.915  -2.402  0.00  0.00     0.165 HD
HETATM   30  H   UNK     0      17.216  17.666  -5.684  0.00  0.00     0.165 HD
HETATM   31  H   UNK     0      15.706  16.044  -6.188  0.00  0.00     0.165 HD
HETATM   32  H   UNK     0      15.240  15.255  -3.008  0.00  0.00     0.165 HD
ENDROOT
BRANCH   6  33
HETATM   33  C   UNK     0      16.848  21.587  -3.262  0.00  0.00     0.051 C 
BRANCH  33  34
HETATM   34  C   UNK     0      17.197  21.697  -4.727  0.00  0.00     0.114 C 
BRANCH  34  35
HETATM   35  C   UNK     0      15.969  21.366  -5.505  0.00  0.00     0.139 C 
HETATM   36  O   UNK     0      15.963  20.379  -6.297  0.00  0.00    -0.650 OA
BRANCH  35  37
HETATM   37  O   UNK     0      14.796  22.104  -5.403  0.00  0.00    -0.776 OA
HETATM   38  H   UNK     0      14.632  22.928  -5.959  0.00  0.00     0.167 HD
ENDBRANCH  35  37
ENDBRANCH  34  35
ENDBRANCH  33  34
ENDBRANCH   6  33
BRANCH  27  39
HETATM   39  C   UNK     0      11.075  15.405  -5.292  0.00  0.00     0.051 C 
BRANCH  39  40
HETATM   40  C   UNK     0      10.731  14.010  -5.565  0.00  0.00     0.114 C 
BRANCH  40  41
HETATM   41  C   UNK     0       9.793  13.274  -4.748  0.00  0.00     0.139 C 
HETATM   42  O   UNK     0       9.402  13.661  -3.638  0.00  0.00    -0.650 OA
BRANCH  41  43
HETATM   43  O   UNK     0       9.282  12.035  -5.228  0.00  0.00    -0.776 OA
HETATM   44  H   UNK     0       9.779  11.658  -6.027  0.00  0.00     0.167 HD
ENDBRANCH  41  43
ENDBRANCH  40  41
ENDBRANCH  39  40
ENDBRANCH  27  39
BRANCH  11  45
HETATM   45  C   UNK     0      21.332  15.310  -5.632  0.00  0.00     0.051 C 
BRANCH  45  46
HETATM   46  C   UNK     0      21.155  13.953  -5.055  0.00  0.00     0.114 C 
BRANCH  46  47
HETATM   47  C   UNK     0      21.857  12.995  -5.955  0.00  0.00     0.139 C 
HETATM   48  O   UNK     0      22.582  12.128  -5.447  0.00  0.00    -0.650 OA
BRANCH  47  49
HETATM   49  O   UNK     0      21.707  13.070  -7.316  0.00  0.00    -0.776 OA
HETATM   50  H   UNK     0      22.106  13.840  -7.867  0.00  0.00     0.167 HD
ENDBRANCH  47  49
ENDBRANCH  46  47
ENDBRANCH  45  46
ENDBRANCH  11  45
BRANCH  18  51
HETATM   51  C   UNK     0      15.598  11.329  -5.816  0.00  0.00     0.051 C 
BRANCH  51  52
HETATM   52  C   UNK     0      14.940  10.876  -7.110  0.00  0.00     0.114 C 
BRANCH  52  53
HETATM   53  C   UNK     0      13.472  10.795  -6.981  0.00  0.00     0.139 C 
HETATM   54  O   UNK     0      12.956   9.883  -6.316  0.00  0.00    -0.650 OA
BRANCH  53  55
HETATM   55  O   UNK     0      12.682  11.731  -7.604  0.00  0.00    -0.776 OA
HETATM   56  H   UNK     0      12.112  11.576  -8.402  0.00  0.00     0.167 HD
ENDBRANCH  53  55
ENDBRANCH  52  53
ENDBRANCH  51  52
ENDBRANCH  18  51
TORSDOF 16
ENDMDL
MODEL 12
REMARK VINA RESULT:      -8.9      4.237      9.118
REMARK  16 active torsions:
REMARK  status: ('A' for Active; 'I' for Inactive)
REMARK    1  A    between atoms: C_6  and  C_7 
REMARK    2  A    between atoms: C_7  and  C_8 
REMARK    3  A    between atoms: C_8  and  C_9 
REMARK    4  A    between atoms: C_9  and  O_11 
REMARK    5  A    between atoms: C_16  and  C_17 
REMARK    6  A    between atoms: C_17  and  C_18 
REMARK    7  A    between atoms: C_18  and  C_19 
REMARK    8  A    between atoms: C_19  and  O_21 
REMARK    9  A    between atoms: C_28  and  C_29 
REMARK   10  A    between atoms: C_29  and  C_30 
REMARK   11  A    between atoms: C_30  and  C_31 
REMARK   12  A    between atoms: C_31  and  O_33 
REMARK   13  A    between atoms: C_42  and  C_43 
REMARK   14  A    between atoms: C_43  and  C_44 
REMARK   15  A    between atoms: C_44  and  C_45 
REMARK   16  A    between atoms: C_45  and  O_47 
ROOT
HETATM    1  C   UNK     0      11.192  17.845  -4.420  0.00  0.00     0.051 C 
HETATM    2  C   UNK     0      12.652  17.832  -4.013  0.00  0.00    -0.031 A 
HETATM    3  C   UNK     0      13.452  16.763  -3.643  0.00  0.00     0.021 A 
HETATM    4  N   UNK     0      14.686  17.223  -3.329  0.00  0.00    -0.361 N 
HETATM    5  C   UNK     0      14.692  18.561  -3.500  0.00  0.00     0.022 A 
HETATM    6  C   UNK     0      13.435  18.976  -3.924  0.00  0.00    -0.027 A 
HETATM    7  C   UNK     0      15.826  19.531  -3.380  0.00  0.00     0.115 C 
HETATM    8  C   UNK     0      17.156  19.101  -3.974  0.00  0.00     0.021 A 
HETATM    9  N   UNK     0      17.383  18.375  -5.079  0.00  0.00    -0.361 N 
HETATM   10  C   UNK     0      18.711  18.157  -5.174  0.00  0.00     0.022 A 
HETATM   11  C   UNK     0      19.360  18.769  -4.104  0.00  0.00    -0.027 A 
HETATM   12  C   UNK     0      18.386  19.365  -3.345  0.00  0.00    -0.031 A 
HETATM   13  C   UNK     0      18.627  20.155  -2.078  0.00  0.00     0.051 C 
HETATM   14  C   UNK     0      19.415  17.324  -6.241  0.00  0.00     0.115 C 
HETATM   15  C   UNK     0      18.986  15.866  -6.265  0.00  0.00     0.021 A 
HETATM   16  N   UNK     0      17.745  15.377  -6.450  0.00  0.00    -0.361 N 
HETATM   17  C   UNK     0      17.775  14.048  -6.331  0.00  0.00     0.022 A 
HETATM   18  C   UNK     0      19.100  13.650  -6.065  0.00  0.00    -0.027 A 
HETATM   19  C   UNK     0      19.849  14.798  -6.028  0.00  0.00    -0.031 A 
HETATM   20  C   UNK     0      21.350  14.819  -5.803  0.00  0.00     0.051 C 
HETATM   21  C   UNK     0      16.647  13.043  -6.379  0.00  0.00     0.115 C 
HETATM   22  C   UNK     0      15.306  13.472  -5.831  0.00  0.00     0.022 A 
HETATM   23  N   UNK     0      15.051  14.199  -4.736  0.00  0.00    -0.361 N 
HETATM   24  C   UNK     0      13.731  14.469  -4.704  0.00  0.00     0.021 A 
HETATM   25  C   UNK     0      13.119  13.893  -5.801  0.00  0.00    -0.031 A 
HETATM   26  C   UNK     0      11.652  13.885  -6.179  0.00  0.00     0.051 C 
HETATM   27  C   UNK     0      14.106  13.249  -6.537  0.00  0.00    -0.027 A 
HETATM   28  C   UNK     0      12.983  15.336  -3.706  0.00  0.00     0.115 C 
HETATM   29  H   UNK     0      15.533  16.604  -2.951  0.00  0.00     0.165 HD
HETATM   30  H   UNK     0      16.611  18.056  -5.823  0.00  0.00     0.165 HD
HETATM   31  H   UNK     0      16.837  15.978  -6.717  0.00  0.00     0.165 HD
HETATM   32  H   UNK     0      15.796  14.492  -3.950  0.00  0.00     0.165 HD
ENDROOT
BRANCH   6  33
HETATM   33  C   UNK     0      12.926  20.358  -4.246  0.00  0.00     0.051 C 
BRANCH  33  34
HETATM   34  C   UNK     0      11.725  20.698  -3.395  0.00  0.00     0.114 C 
BRANCH  34  35
HETATM   35  C   UNK     0      12.207  21.522  -2.250  0.00  0.00     0.139 C 
HETATM   36  O   UNK     0      13.241  21.177  -1.607  0.00  0.00    -0.650 OA
BRANCH  35  37
HETATM   37  O   UNK     0      11.565  22.684  -1.841  0.00  0.00    -0.776 OA
HETATM   38  H   UNK     0      11.989  23.593  -1.940  0.00  0.00     0.167 HD
ENDBRANCH  35  37
ENDBRANCH  34  35
ENDBRANCH  33  34
ENDBRANCH   6  33
BRANCH  27  39
HETATM   39  C   UNK     0      13.816  12.451  -7.759  0.00  0.00     0.051 C 
BRANCH  39  40
HETATM   40  C   UNK     0      12.878  12.998  -8.739  0.00  0.00     0.114 C 
BRANCH  40  41
HETATM   41  C   UNK     0      13.321  13.741  -9.898  0.00  0.00     0.139 C 
HETATM   42  O   UNK     0      13.390  14.977  -9.931  0.00  0.00    -0.650 OA
BRANCH  41  43
HETATM   43  O   UNK     0      13.701  13.030 -11.071  0.00  0.00    -0.776 OA
HETATM   44  H   UNK     0      13.452  13.489 -11.939  0.00  0.00     0.167 HD
ENDBRANCH  41  43
ENDBRANCH  40  41
ENDBRANCH  39  40
ENDBRANCH  27  39
BRANCH  11  45
HETATM   45  C   UNK     0      20.832  18.806  -3.792  0.00  0.00     0.051 C 
BRANCH  45  46
HETATM   46  C   UNK     0      21.318  17.632  -3.022  0.00  0.00     0.114 C 
BRANCH  46  47
HETATM   47  C   UNK     0      22.151  18.154  -1.901  0.00  0.00     0.139 C 
HETATM   48  O   UNK     0      21.796  19.196  -1.334  0.00  0.00    -0.650 OA
BRANCH  47  49
HETATM   49  O   UNK     0      23.289  17.496  -1.506  0.00  0.00    -0.776 OA
HETATM   50  H   UNK     0      23.263  16.543  -1.126  0.00  0.00     0.167 HD
ENDBRANCH  47  49
ENDBRANCH  46  47
ENDBRANCH  45  46
ENDBRANCH  11  45
BRANCH  18  51
HETATM   51  C   UNK     0      19.628  12.251  -5.879  0.00  0.00     0.051 C 
BRANCH  51  52
HETATM   52  C   UNK     0      19.355  11.883  -4.428  0.00  0.00     0.114 C 
BRANCH  52  53
HETATM   53  C   UNK     0      20.562  11.363  -3.757  0.00  0.00     0.139 C 
HETATM   54  O   UNK     0      20.607  10.178  -3.391  0.00  0.00    -0.650 OA
BRANCH  53  55
HETATM   55  O   UNK     0      21.631  12.198  -3.538  0.00  0.00    -0.776 OA
HETATM   56  H   UNK     0      22.510  11.934  -3.159  0.00  0.00     0.167 HD
ENDBRANCH  53  55
ENDBRANCH  52  53
ENDBRANCH  51  52
ENDBRANCH  18  51
TORSDOF 16
ENDMDL
MODEL 13
REMARK VINA RESULT:      -8.7     24.361     28.762
REMARK  16 active torsions:
REMARK  status: ('A' for Active; 'I' for Inactive)
REMARK    1  A    between atoms: C_6  and  C_7 
REMARK    2  A    between atoms: C_7  and  C_8 
REMARK    3  A    between atoms: C_8  and  C_9 
REMARK    4  A    between atoms: C_9  and  O_11 
REMARK    5  A    between atoms: C_16  and  C_17 
REMARK    6  A    between atoms: C_17  and  C_18 
REMARK    7  A    between atoms: C_18  and  C_19 
REMARK    8  A    between atoms: C_19  and  O_21 
REMARK    9  A    between atoms: C_28  and  C_29 
REMARK   10  A    between atoms: C_29  and  C_30 
REMARK   11  A    between atoms: C_30  and  C_31 
REMARK   12  A    between atoms: C_31  and  O_33 
REMARK   13  A    between atoms: C_42  and  C_43 
REMARK   14  A    between atoms: C_43  and  C_44 
REMARK   15  A    between atoms: C_44  and  C_45 
REMARK   16  A    between atoms: C_45  and  O_47 
ROOT
HETATM    1  C   UNK     0     -12.196  17.128   5.180  0.00  0.00     0.051 C 
HETATM    2  C   UNK     0     -12.368  15.626   5.075  0.00  0.00    -0.031 A 
HETATM    3  C   UNK     0     -11.953  14.630   5.945  0.00  0.00     0.021 A 
HETATM    4  N   UNK     0     -12.296  13.425   5.432  0.00  0.00    -0.361 N 
HETATM    5  C   UNK     0     -12.927  13.631   4.258  0.00  0.00     0.022 A 
HETATM    6  C   UNK     0     -12.987  14.997   4.002  0.00  0.00    -0.027 A 
HETATM    7  C   UNK     0     -13.582  12.644   3.343  0.00  0.00     0.115 C 
HETATM    8  C   UNK     0     -14.419  11.560   3.998  0.00  0.00     0.021 A 
HETATM    9  N   UNK     0     -15.190  11.645   5.093  0.00  0.00    -0.361 N 
HETATM   10  C   UNK     0     -15.673  10.414   5.363  0.00  0.00     0.022 A 
HETATM   11  C   UNK     0     -15.208   9.512   4.410  0.00  0.00    -0.027 A 
HETATM   12  C   UNK     0     -14.418  10.228   3.547  0.00  0.00    -0.031 A 
HETATM   13  C   UNK     0     -13.700   9.659   2.344  0.00  0.00     0.051 C 
HETATM   14  C   UNK     0     -16.545  10.029   6.555  0.00  0.00     0.115 C 
HETATM   15  C   UNK     0     -15.885  10.270   7.904  0.00  0.00     0.021 A 
HETATM   16  N   UNK     0     -15.420  11.434   8.394  0.00  0.00    -0.361 N 
HETATM   17  C   UNK     0     -14.850  11.213   9.581  0.00  0.00     0.022 A 
HETATM   18  C   UNK     0     -14.957   9.841   9.882  0.00  0.00    -0.027 A 
HETATM   19  C   UNK     0     -15.609   9.261   8.824  0.00  0.00    -0.031 A 
HETATM   20  C   UNK     0     -15.965   7.787   8.757  0.00  0.00     0.051 C 
HETATM   21  C   UNK     0     -14.122  12.166  10.501  0.00  0.00     0.115 C 
HETATM   22  C   UNK     0     -13.321  13.276   9.864  0.00  0.00     0.022 A 
HETATM   23  N   UNK     0     -12.548  13.221   8.771  0.00  0.00    -0.361 N 
HETATM   24  C   UNK     0     -12.141  14.472   8.476  0.00  0.00     0.021 A 
HETATM   25  C   UNK     0     -12.656  15.353   9.408  0.00  0.00    -0.031 A 
HETATM   26  C   UNK     0     -12.448  16.849   9.521  0.00  0.00     0.051 C 
HETATM   27  C   UNK     0     -13.414  14.612  10.306  0.00  0.00    -0.027 A 
HETATM   28  C   UNK     0     -11.325  14.926   7.278  0.00  0.00     0.115 C 
HETATM   29  H   UNK     0     -12.054  12.435   5.884  0.00  0.00     0.165 HD
HETATM   30  H   UNK     0     -15.436  12.583   5.649  0.00  0.00     0.165 HD
HETATM   31  H   UNK     0     -15.538  12.441   7.916  0.00  0.00     0.165 HD
HETATM   32  H   UNK     0     -12.247  12.291   8.222  0.00  0.00     0.165 HD
ENDROOT
BRANCH   6  33
HETATM   33  C   UNK     0     -13.577  15.740   2.831  0.00  0.00     0.051 C 
BRANCH  33  34
HETATM   34  C   UNK     0     -12.496  16.437   2.039  0.00  0.00     0.114 C 
BRANCH  34  35
HETATM   35  C   UNK     0     -12.026  15.485   0.992  0.00  0.00     0.139 C 
HETATM   36  O   UNK     0     -12.798  14.579   0.562  0.00  0.00    -0.650 OA
BRANCH  35  37
HETATM   37  O   UNK     0     -10.751  15.543   0.444  0.00  0.00    -0.776 OA
HETATM   38  H   UNK     0      -9.976  15.960   0.936  0.00  0.00     0.167 HD
ENDBRANCH  35  37
ENDBRANCH  34  35
ENDBRANCH  33  34
ENDBRANCH   6  33
BRANCH  27  39
HETATM   39  C   UNK     0     -14.072  15.210  11.499  0.00  0.00     0.051 C 
BRANCH  39  40
HETATM   40  C   UNK     0     -15.190  16.130  11.287  0.00  0.00     0.114 C 
BRANCH  40  41
HETATM   41  C   UNK     0     -15.512  17.181  12.226  0.00  0.00     0.139 C 
HETATM   42  O   UNK     0     -16.669  17.462  12.566  0.00  0.00    -0.650 OA
BRANCH  41  43
HETATM   43  O   UNK     0     -14.455  17.942  12.801  0.00  0.00    -0.776 OA
HETATM   44  H   UNK     0     -14.095  17.569  13.670  0.00  0.00     0.167 HD
ENDBRANCH  41  43
ENDBRANCH  40  41
ENDBRANCH  39  40
ENDBRANCH  27  39
BRANCH  11  45
HETATM   45  C   UNK     0     -15.485   8.037   4.295  0.00  0.00     0.051 C 
BRANCH  45  46
HETATM   46  C   UNK     0     -16.704   7.708   3.513  0.00  0.00     0.114 C 
BRANCH  46  47
HETATM   47  C   UNK     0     -17.669   7.065   4.449  0.00  0.00     0.139 C 
HETATM   48  O   UNK     0     -18.860   6.994   4.116  0.00  0.00    -0.650 OA
BRANCH  47  49
HETATM   49  O   UNK     0     -17.250   6.563   5.655  0.00  0.00    -0.776 OA
HETATM   50  H   UNK     0     -17.149   5.554   5.820  0.00  0.00     0.167 HD
ENDBRANCH  47  49
ENDBRANCH  46  47
ENDBRANCH  45  46
ENDBRANCH  11  45
BRANCH  18  51
HETATM   51  C   UNK     0     -14.483   9.124  11.120  0.00  0.00     0.051 C 
BRANCH  51  52
HETATM   52  C   UNK     0     -15.387   9.588  12.253  0.00  0.00     0.114 C 
BRANCH  52  53
HETATM   53  C   UNK     0     -14.686   9.585  13.551  0.00  0.00     0.139 C 
HETATM   54  O   UNK     0     -14.513  10.649  14.167  0.00  0.00    -0.650 OA
BRANCH  53  55
HETATM   55  O   UNK     0     -14.224   8.400  14.071  0.00  0.00    -0.776 OA
HETATM   56  H   UNK     0     -14.468   7.490  13.758  0.00  0.00     0.167 HD
ENDBRANCH  53  55
ENDBRANCH  52  53
ENDBRANCH  51  52
ENDBRANCH  18  51
TORSDOF 16
ENDMDL
MODEL 14
REMARK VINA RESULT:      -8.6     30.370     33.603
REMARK  16 active torsions:
REMARK  status: ('A' for Active; 'I' for Inactive)
REMARK    1  A    between atoms: C_6  and  C_7 
REMARK    2  A    between atoms: C_7  and  C_8 
REMARK    3  A    between atoms: C_8  and  C_9 
REMARK    4  A    between atoms: C_9  and  O_11 
REMARK    5  A    between atoms: C_16  and  C_17 
REMARK    6  A    between atoms: C_17  and  C_18 
REMARK    7  A    between atoms: C_18  and  C_19 
REMARK    8  A    between atoms: C_19  and  O_21 
REMARK    9  A    between atoms: C_28  and  C_29 
REMARK   10  A    between atoms: C_29  and  C_30 
REMARK   11  A    between atoms: C_30  and  C_31 
REMARK   12  A    between atoms: C_31  and  O_33 
REMARK   13  A    between atoms: C_42  and  C_43 
REMARK   14  A    between atoms: C_43  and  C_44 
REMARK   15  A    between atoms: C_44  and  C_45 
REMARK   16  A    between atoms: C_45  and  O_47 
ROOT
HETATM    1  C   UNK     0       8.012 -16.889   5.638  0.00  0.00     0.051 C 
HETATM    2  C   UNK     0       8.685 -15.876   6.541  0.00  0.00    -0.031 A 
HETATM    3  C   UNK     0       8.257 -14.614   6.921  0.00  0.00     0.021 A 
HETATM    4  N   UNK     0       9.197 -14.049   7.716  0.00  0.00    -0.361 N 
HETATM    5  C   UNK     0      10.211 -14.928   7.859  0.00  0.00     0.022 A 
HETATM    6  C   UNK     0       9.925 -16.080   7.134  0.00  0.00    -0.027 A 
HETATM    7  C   UNK     0      11.441 -14.832   8.705  0.00  0.00     0.115 C 
HETATM    8  C   UNK     0      11.261 -14.282  10.110  0.00  0.00     0.021 A 
HETATM    9  N   UNK     0      10.226 -14.451  10.947  0.00  0.00    -0.361 N 
HETATM   10  C   UNK     0      10.454 -13.706  12.050  0.00  0.00     0.022 A 
HETATM   11  C   UNK     0      11.673 -13.047  11.923  0.00  0.00    -0.027 A 
HETATM   12  C   UNK     0      12.187 -13.406  10.703  0.00  0.00    -0.031 A 
HETATM   13  C   UNK     0      13.508 -12.933  10.138  0.00  0.00     0.051 C 
HETATM   14  C   UNK     0       9.510 -13.544  13.239  0.00  0.00     0.115 C 
HETATM   15  C   UNK     0       8.164 -12.936  12.878  0.00  0.00     0.021 A 
HETATM   16  N   UNK     0       7.260 -13.406  11.999  0.00  0.00    -0.361 N 
HETATM   17  C   UNK     0       6.241 -12.548  11.916  0.00  0.00     0.022 A 
HETATM   18  C   UNK     0       6.489 -11.471  12.792  0.00  0.00    -0.027 A 
HETATM   19  C   UNK     0       7.696 -11.728  13.389  0.00  0.00    -0.031 A 
HETATM   20  C   UNK     0       8.326 -10.830  14.438  0.00  0.00     0.051 C 
HETATM   21  C   UNK     0       5.017 -12.574  11.029  0.00  0.00     0.115 C 
HETATM   22  C   UNK     0       5.172 -13.158   9.645  0.00  0.00     0.022 A 
HETATM   23  N   UNK     0       6.193 -13.011   8.791  0.00  0.00    -0.361 N 
HETATM   24  C   UNK     0       5.982 -13.822   7.734  0.00  0.00     0.021 A 
HETATM   25  C   UNK     0       4.791 -14.500   7.908  0.00  0.00    -0.031 A 
HETATM   26  C   UNK     0       4.111 -15.486   6.980  0.00  0.00     0.051 C 
HETATM   27  C   UNK     0       4.253 -14.092   9.123  0.00  0.00    -0.027 A 
HETATM   28  C   UNK     0       6.905 -14.070   6.554  0.00  0.00     0.115 C 
HETATM   29  H   UNK     0       9.155 -13.019   8.139  0.00  0.00     0.165 HD
HETATM   30  H   UNK     0       9.357 -15.134  10.784  0.00  0.00     0.165 HD
HETATM   31  H   UNK     0       7.318 -14.387  11.459  0.00  0.00     0.165 HD
HETATM   32  H   UNK     0       7.052 -12.300   8.905  0.00  0.00     0.165 HD
ENDROOT
BRANCH   6  33
HETATM   33  C   UNK     0      10.730 -17.343   6.963  0.00  0.00     0.051 C 
BRANCH  33  34
HETATM   34  C   UNK     0      11.595 -17.263   5.728  0.00  0.00     0.114 C 
BRANCH  34  35
HETATM   35  C   UNK     0      12.972 -16.901   6.170  0.00  0.00     0.139 C 
HETATM   36  O   UNK     0      13.461 -15.773   5.870  0.00  0.00    -0.650 OA
BRANCH  35  37
HETATM   37  O   UNK     0      13.770 -17.759   6.917  0.00  0.00    -0.776 OA
HETATM   38  H   UNK     0      13.517 -18.049   7.848  0.00  0.00     0.167 HD
ENDBRANCH  35  37
ENDBRANCH  34  35
ENDBRANCH  33  34
ENDBRANCH   6  33
BRANCH  27  39
HETATM   39  C   UNK     0       2.931 -14.557   9.622  0.00  0.00     0.051 C 
BRANCH  39  40
HETATM   40  C   UNK     0       1.750 -13.752   9.311  0.00  0.00     0.114 C 
BRANCH  40  41
HETATM   41  C   UNK     0       0.407 -14.218   9.577  0.00  0.00     0.139 C 
HETATM   42  O   UNK     0      -0.156 -15.096   8.910  0.00  0.00    -0.650 OA
BRANCH  41  43
HETATM   43  O   UNK     0      -0.321 -13.647  10.659  0.00  0.00    -0.776 OA
HETATM   44  H   UNK     0      -0.157 -14.091  11.554  0.00  0.00     0.167 HD
ENDBRANCH  41  43
ENDBRANCH  40  41
ENDBRANCH  39  40
ENDBRANCH  27  39
BRANCH  11  45
HETATM   45  C   UNK     0      12.347 -12.118  12.896  0.00  0.00     0.051 C 
BRANCH  45  46
HETATM   46  C   UNK     0      13.692 -12.571  13.335  0.00  0.00     0.114 C 
BRANCH  46  47
HETATM   47  C   UNK     0      14.216 -11.544  14.281  0.00  0.00     0.139 C 
HETATM   48  O   UNK     0      14.257 -11.817  15.489  0.00  0.00    -0.650 OA
BRANCH  47  49
HETATM   49  O   UNK     0      14.644 -10.323  13.826  0.00  0.00    -0.776 OA
HETATM   50  H   UNK     0      14.435  -9.991  12.877  0.00  0.00     0.167 HD
ENDBRANCH  47  49
ENDBRANCH  46  47
ENDBRANCH  45  46
ENDBRANCH  11  45
BRANCH  18  51
HETATM   51  C   UNK     0       5.614 -10.275  13.060  0.00  0.00     0.051 C 
BRANCH  51  52
HETATM   52  C   UNK     0       6.233  -9.114  12.296  0.00  0.00     0.114 C 
BRANCH  52  53
HETATM   53  C   UNK     0       6.032  -7.828  12.993  0.00  0.00     0.139 C 
HETATM   54  O   UNK     0       5.181  -7.735  13.892  0.00  0.00    -0.650 OA
BRANCH  53  55
HETATM   55  O   UNK     0       6.788  -6.738  12.638  0.00  0.00    -0.776 OA
HETATM   56  H   UNK     0       6.439  -5.854  12.349  0.00  0.00     0.167 HD
ENDBRANCH  53  55
ENDBRANCH  52  53
ENDBRANCH  51  52
ENDBRANCH  18  51
TORSDOF 16
ENDMDL
MODEL 15
REMARK VINA RESULT:      -8.6     31.147     33.067
REMARK  16 active torsions:
REMARK  status: ('A' for Active; 'I' for Inactive)
REMARK    1  A    between atoms: C_6  and  C_7 
REMARK    2  A    between atoms: C_7  and  C_8 
REMARK    3  A    between atoms: C_8  and  C_9 
REMARK    4  A    between atoms: C_9  and  O_11 
REMARK    5  A    between atoms: C_16  and  C_17 
REMARK    6  A    between atoms: C_17  and  C_18 
REMARK    7  A    between atoms: C_18  and  C_19 
REMARK    8  A    between atoms: C_19  and  O_21 
REMARK    9  A    between atoms: C_28  and  C_29 
REMARK   10  A    between atoms: C_29  and  C_30 
REMARK   11  A    between atoms: C_30  and  C_31 
REMARK   12  A    between atoms: C_31  and  O_33 
REMARK   13  A    between atoms: C_42  and  C_43 
REMARK   14  A    between atoms: C_43  and  C_44 
REMARK   15  A    between atoms: C_44  and  C_45 
REMARK   16  A    between atoms: C_45  and  O_47 
ROOT
HETATM    1  C   UNK     0      12.230 -12.435  12.488  0.00  0.00     0.051 C 
HETATM    2  C   UNK     0      11.386 -13.361  11.635  0.00  0.00    -0.031 A 
HETATM    3  C   UNK     0      10.142 -13.912  11.901  0.00  0.00     0.021 A 
HETATM    4  N   UNK     0       9.782 -14.707  10.866  0.00  0.00    -0.361 N 
HETATM    5  C   UNK     0      10.765 -14.668   9.943  0.00  0.00     0.022 A 
HETATM    6  C   UNK     0      11.785 -13.837  10.393  0.00  0.00    -0.027 A 
HETATM    7  C   UNK     0      10.818 -15.291   8.583  0.00  0.00     0.115 C 
HETATM    8  C   UNK     0       9.555 -15.208   7.745  0.00  0.00     0.021 A 
HETATM    9  N   UNK     0       8.658 -14.212   7.680  0.00  0.00    -0.361 N 
HETATM   10  C   UNK     0       7.648 -14.608   6.876  0.00  0.00     0.022 A 
HETATM   11  C   UNK     0       7.906 -15.892   6.403  0.00  0.00    -0.027 A 
HETATM   12  C   UNK     0       9.106 -16.275   6.946  0.00  0.00    -0.031 A 
HETATM   13  C   UNK     0       9.790 -17.602   6.705  0.00  0.00     0.051 C 
HETATM   14  C   UNK     0       6.380 -13.818   6.566  0.00  0.00     0.115 C 
HETATM   15  C   UNK     0       5.533 -13.508   7.790  0.00  0.00     0.021 A 
HETATM   16  N   UNK     0       5.900 -12.826   8.891  0.00  0.00    -0.361 N 
HETATM   17  C   UNK     0       4.892 -12.832   9.766  0.00  0.00     0.022 A 
HETATM   18  C   UNK     0       3.813 -13.543   9.205  0.00  0.00    -0.027 A 
HETATM   19  C   UNK     0       4.227 -13.960   7.966  0.00  0.00    -0.031 A 
HETATM   20  C   UNK     0       3.350 -14.736   7.000  0.00  0.00     0.051 C 
HETATM   21  C   UNK     0       4.821 -12.274  11.170  0.00  0.00     0.115 C 
HETATM   22  C   UNK     0       6.083 -12.310  12.000  0.00  0.00     0.022 A 
HETATM   23  N   UNK     0       6.996 -13.287  12.081  0.00  0.00    -0.361 N 
HETATM   24  C   UNK     0       8.029 -12.840  12.823  0.00  0.00     0.021 A 
HETATM   25  C   UNK     0       7.770 -11.548  13.239  0.00  0.00    -0.031 A 
HETATM   26  C   UNK     0       8.608 -10.645  14.120  0.00  0.00     0.051 C 
HETATM   27  C   UNK     0       6.530 -11.187  12.724  0.00  0.00    -0.027 A 
HETATM   28  C   UNK     0       9.338 -13.552  13.118  0.00  0.00     0.115 C 
HETATM   29  H   UNK     0       8.853 -15.321  10.813  0.00  0.00     0.165 HD
HETATM   30  H   UNK     0       8.759 -13.208   8.160  0.00  0.00     0.165 HD
HETATM   31  H   UNK     0       6.873 -12.289   9.036  0.00  0.00     0.165 HD
HETATM   32  H   UNK     0       6.899 -14.317  11.650  0.00  0.00     0.165 HD
ENDROOT
BRANCH   6  33
HETATM   33  C   UNK     0      13.094 -13.468   9.743  0.00  0.00     0.051 C 
BRANCH  33  34
HETATM   34  C   UNK     0      12.953 -12.198   8.937  0.00  0.00     0.114 C 
BRANCH  34  35
HETATM   35  C   UNK     0      13.256 -12.535   7.516  0.00  0.00     0.139 C 
HETATM   36  O   UNK     0      14.456 -12.676   7.138  0.00  0.00    -0.650 OA
BRANCH  35  37
HETATM   37  O   UNK     0      12.264 -12.709   6.559  0.00  0.00    -0.776 OA
HETATM   38  H   UNK     0      11.288 -12.577   6.770  0.00  0.00     0.167 HD
ENDBRANCH  35  37
ENDBRANCH  34  35
ENDBRANCH  33  34
ENDBRANCH   6  33
BRANCH  27  39
HETATM   39  C   UNK     0       5.879  -9.882  13.020  0.00  0.00     0.051 C 
BRANCH  39  40
HETATM   40  C   UNK     0       5.005  -9.791  14.189  0.00  0.00     0.114 C 
BRANCH  40  41
HETATM   41  C   UNK     0       5.163  -8.762  15.192  0.00  0.00     0.139 C 
HETATM   42  O   UNK     0       6.054  -8.777  16.052  0.00  0.00    -0.650 OA
BRANCH  41  43
HETATM   43  O   UNK     0       4.255  -7.666  15.206  0.00  0.00    -0.776 OA
HETATM   44  H   UNK     0       3.704  -7.589  16.053  0.00  0.00     0.167 HD
ENDBRANCH  41  43
ENDBRANCH  40  41
ENDBRANCH  39  40
ENDBRANCH  27  39
BRANCH  11  45
HETATM   45  C   UNK     0       7.075 -16.739   5.477  0.00  0.00     0.051 C 
BRANCH  45  46
HETATM   46  C   UNK     0       5.994 -17.497   6.156  0.00  0.00     0.114 C 
BRANCH  46  47
HETATM   47  C   UNK     0       6.340 -18.944   6.058  0.00  0.00     0.139 C 
HETATM   48  O   UNK     0       6.695 -19.539   7.085  0.00  0.00    -0.650 OA
BRANCH  47  49
HETATM   49  O   UNK     0       6.270 -19.603   4.857  0.00  0.00    -0.776 OA
HETATM   50  H   UNK     0       5.883 -19.162   4.015  0.00  0.00     0.167 HD
ENDBRANCH  47  49
ENDBRANCH  46  47
ENDBRANCH  45  46
ENDBRANCH  11  45
BRANCH  18  51
HETATM   51  C   UNK     0       2.455 -13.793   9.806  0.00  0.00     0.051 C 
BRANCH  51  52
HETATM   52  C   UNK     0       1.629 -12.546   9.528  0.00  0.00     0.114 C 
BRANCH  52  53
HETATM   53  C   UNK     0       0.237 -12.693   9.995  0.00  0.00     0.139 C 
HETATM   54  O   UNK     0      -0.175 -13.799  10.380  0.00  0.00    -0.650 OA
BRANCH  53  55
HETATM   55  O   UNK     0      -0.598 -11.603   9.996  0.00  0.00    -0.776 OA
HETATM   56  H   UNK     0      -0.525 -10.811   9.402  0.00  0.00     0.167 HD
ENDBRANCH  53  55
ENDBRANCH  52  53
ENDBRANCH  51  52
ENDBRANCH  18  51
TORSDOF 16
ENDMDL
MODEL 16
REMARK VINA RESULT:      -8.6     10.449     14.862
REMARK  16 active torsions:
REMARK  status: ('A' for Active; 'I' for Inactive)
REMARK    1  A    between atoms: C_6  and  C_7 
REMARK    2  A    between atoms: C_7  and  C_8 
REMARK    3  A    between atoms: C_8  and  C_9 
REMARK    4  A    between atoms: C_9  and  O_11 
REMARK    5  A    between atoms: C_16  and  C_17 
REMARK    6  A    between atoms: C_17  and  C_18 
REMARK    7  A    between atoms: C_18  and  C_19 
REMARK    8  A    between atoms: C_19  and  O_21 
REMARK    9  A    between atoms: C_28  and  C_29 
REMARK   10  A    between atoms: C_29  and  C_30 
REMARK   11  A    between atoms: C_30  and  C_31 
REMARK   12  A    between atoms: C_31  and  O_33 
REMARK   13  A    between atoms: C_42  and  C_43 
REMARK   14  A    between atoms: C_43  and  C_44 
REMARK   15  A    between atoms: C_44  and  C_45 
REMARK   16  A    between atoms: C_45  and  O_47 
ROOT
HETATM    1  C   UNK     0      22.571  14.248  -4.679  0.00  0.00     0.051 C 
HETATM    2  C   UNK     0      23.195  14.074  -3.309  0.00  0.00    -0.031 A 
HETATM    3  C   UNK     0      23.775  15.021  -2.480  0.00  0.00     0.021 A 
HETATM    4  N   UNK     0      24.230  14.408  -1.361  0.00  0.00    -0.361 N 
HETATM    5  C   UNK     0      23.945  13.093  -1.456  0.00  0.00     0.022 A 
HETATM    6  C   UNK     0      23.300  12.849  -2.664  0.00  0.00    -0.027 A 
HETATM    7  C   UNK     0      24.150  12.000  -0.454  0.00  0.00     0.115 C 
HETATM    8  C   UNK     0      23.805  12.324   0.989  0.00  0.00     0.021 A 
HETATM    9  N   UNK     0      22.815  13.100   1.457  0.00  0.00    -0.361 N 
HETATM   10  C   UNK     0      22.943  13.178   2.799  0.00  0.00     0.022 A 
HETATM   11  C   UNK     0      24.040  12.424   3.207  0.00  0.00    -0.027 A 
HETATM   12  C   UNK     0      24.587  11.884   2.071  0.00  0.00    -0.031 A 
HETATM   13  C   UNK     0      25.801  10.983   2.030  0.00  0.00     0.051 C 
HETATM   14  C   UNK     0      22.072  14.005   3.741  0.00  0.00     0.115 C 
HETATM   15  C   UNK     0      22.112  15.499   3.463  0.00  0.00     0.021 A 
HETATM   16  N   UNK     0      21.784  16.131   2.320  0.00  0.00    -0.361 N 
HETATM   17  C   UNK     0      22.023  17.437   2.458  0.00  0.00     0.022 A 
HETATM   18  C   UNK     0      22.520  17.669   3.755  0.00  0.00    -0.027 A 
HETATM   19  C   UNK     0      22.570  16.447   4.375  0.00  0.00    -0.031 A 
HETATM   20  C   UNK     0      23.017  16.247   5.812  0.00  0.00     0.051 C 
HETATM   21  C   UNK     0      21.893  18.560   1.453  0.00  0.00     0.115 C 
HETATM   22  C   UNK     0      22.191  18.240   0.007  0.00  0.00     0.022 A 
HETATM   23  N   UNK     0      23.167  17.468  -0.488  0.00  0.00    -0.361 N 
HETATM   24  C   UNK     0      22.974  17.341  -1.816  0.00  0.00     0.021 A 
HETATM   25  C   UNK     0      21.852  18.057  -2.187  0.00  0.00    -0.031 A 
HETATM   26  C   UNK     0      21.258  18.251  -3.567  0.00  0.00     0.051 C 
HETATM   27  C   UNK     0      21.334  18.641  -1.037  0.00  0.00    -0.027 A 
HETATM   28  C   UNK     0      23.767  16.490  -2.794  0.00  0.00     0.115 C 
HETATM   29  H   UNK     0      24.785  14.903  -0.531  0.00  0.00     0.165 HD
HETATM   30  H   UNK     0      21.994  13.553   0.849  0.00  0.00     0.165 HD
HETATM   31  H   UNK     0      21.331  15.652   1.413  0.00  0.00     0.165 HD
HETATM   32  H   UNK     0      24.028  17.040   0.090  0.00  0.00     0.165 HD
ENDROOT
BRANCH   6  33
HETATM   33  C   UNK     0      22.785  11.556  -3.244  0.00  0.00     0.051 C 
BRANCH  33  34
HETATM   34  C   UNK     0      21.375  11.283  -2.776  0.00  0.00     0.114 C 
BRANCH  34  35
HETATM   35  C   UNK     0      20.499  11.267  -3.983  0.00  0.00     0.139 C 
HETATM   36  O   UNK     0      19.358  11.813  -3.949  0.00  0.00    -0.650 OA
BRANCH  35  37
HETATM   37  O   UNK     0      20.881  10.670  -5.178  0.00  0.00    -0.776 OA
HETATM   38  H   UNK     0      20.634  11.060  -6.073  0.00  0.00     0.167 HD
ENDBRANCH  35  37
ENDBRANCH  34  35
ENDBRANCH  33  34
ENDBRANCH   6  33
BRANCH  27  39
HETATM   39  C   UNK     0      20.157  19.553  -1.051  0.00  0.00     0.051 C 
BRANCH  39  40
HETATM   40  C   UNK     0      19.038  19.255  -0.157  0.00  0.00     0.114 C 
BRANCH  40  41
HETATM   41  C   UNK     0      18.400  17.958  -0.127  0.00  0.00     0.139 C 
HETATM   42  O   UNK     0      17.393  17.677  -0.791  0.00  0.00    -0.650 OA
BRANCH  41  43
HETATM   43  O   UNK     0      18.944  16.939   0.704  0.00  0.00    -0.776 OA
HETATM   44  H   UNK     0      19.134  17.231   1.656  0.00  0.00     0.167 HD
ENDBRANCH  41  43
ENDBRANCH  40  41
ENDBRANCH  39  40
ENDBRANCH  27  39
BRANCH  11  45
HETATM   45  C   UNK     0      24.567  12.206   4.599  0.00  0.00     0.051 C 
BRANCH  45  46
HETATM   46  C   UNK     0      25.452  13.293   5.090  0.00  0.00     0.114 C 
BRANCH  46  47
HETATM   47  C   UNK     0      26.859  12.845   4.880  0.00  0.00     0.139 C 
HETATM   48  O   UNK     0      27.652  13.622   4.329  0.00  0.00    -0.650 OA
BRANCH  47  49
HETATM   49  O   UNK     0      27.268  11.600   5.287  0.00  0.00    -0.776 OA
HETATM   50  H   UNK     0      27.000  10.747   4.783  0.00  0.00     0.167 HD
ENDBRANCH  47  49
ENDBRANCH  46  47
ENDBRANCH  45  46
ENDBRANCH  11  45
BRANCH  18  51
HETATM   51  C   UNK     0      22.907  18.985   4.378  0.00  0.00     0.051 C 
BRANCH  51  52
HETATM   52  C   UNK     0      24.390  19.171   4.094  0.00  0.00     0.114 C 
BRANCH  52  53
HETATM   53  C   UNK     0      24.632  20.263   3.131  0.00  0.00     0.139 C 
HETATM   54  O   UNK     0      25.076  20.007   2.000  0.00  0.00    -0.650 OA
BRANCH  53  55
HETATM   55  O   UNK     0      24.367  21.561   3.495  0.00  0.00    -0.776 OA
HETATM   56  H   UNK     0      24.888  22.104   4.143  0.00  0.00     0.167 HD
ENDBRANCH  53  55
ENDBRANCH  52  53
ENDBRANCH  51  52
ENDBRANCH  18  51
TORSDOF 16
ENDMDL
MODEL 17
REMARK VINA RESULT:      -8.4      9.377     14.541
REMARK  16 active torsions:
REMARK  status: ('A' for Active; 'I' for Inactive)
REMARK    1  A    between atoms: C_6  and  C_7 
REMARK    2  A    between atoms: C_7  and  C_8 
REMARK    3  A    between atoms: C_8  and  C_9 
REMARK    4  A    between atoms: C_9  and  O_11 
REMARK    5  A    between atoms: C_16  and  C_17 
REMARK    6  A    between atoms: C_17  and  C_18 
REMARK    7  A    between atoms: C_18  and  C_19 
REMARK    8  A    between atoms: C_19  and  O_21 
REMARK    9  A    between atoms: C_28  and  C_29 
REMARK   10  A    between atoms: C_29  and  C_30 
REMARK   11  A    between atoms: C_30  and  C_31 
REMARK   12  A    between atoms: C_31  and  O_33 
REMARK   13  A    between atoms: C_42  and  C_43 
REMARK   14  A    between atoms: C_43  and  C_44 
REMARK   15  A    between atoms: C_44  and  C_45 
REMARK   16  A    between atoms: C_45  and  O_47 
ROOT
HETATM    1  C   UNK     0      18.687   7.327   2.470  0.00  0.00     0.051 C 
HETATM    2  C   UNK     0      18.668   8.411   1.412  0.00  0.00    -0.031 A 
HETATM    3  C   UNK     0      19.043   9.742   1.508  0.00  0.00     0.021 A 
HETATM    4  N   UNK     0      18.827  10.349   0.317  0.00  0.00    -0.361 N 
HETATM    5  C   UNK     0      18.330   9.432  -0.538  0.00  0.00     0.022 A 
HETATM    6  C   UNK     0      18.215   8.209   0.114  0.00  0.00    -0.027 A 
HETATM    7  C   UNK     0      18.011   9.563  -1.995  0.00  0.00     0.115 C 
HETATM    8  C   UNK     0      19.014  10.322  -2.846  0.00  0.00     0.021 A 
HETATM    9  N   UNK     0      20.351  10.350  -2.738  0.00  0.00    -0.361 N 
HETATM   10  C   UNK     0      20.827  11.229  -3.645  0.00  0.00     0.022 A 
HETATM   11  C   UNK     0      19.768  11.776  -4.364  0.00  0.00    -0.027 A 
HETATM   12  C   UNK     0      18.623  11.209  -3.866  0.00  0.00    -0.031 A 
HETATM   13  C   UNK     0      17.220  11.501  -4.350  0.00  0.00     0.051 C 
HETATM   14  C   UNK     0      22.288  11.627  -3.834  0.00  0.00     0.115 C 
HETATM   15  C   UNK     0      22.915  12.269  -2.606  0.00  0.00     0.021 A 
HETATM   16  N   UNK     0      23.034  11.740  -1.374  0.00  0.00    -0.361 N 
HETATM   17  C   UNK     0      23.578  12.647  -0.559  0.00  0.00     0.022 A 
HETATM   18  C   UNK     0      23.835  13.819  -1.298  0.00  0.00    -0.027 A 
HETATM   19  C   UNK     0      23.416  13.568  -2.579  0.00  0.00    -0.031 A 
HETATM   20  C   UNK     0      23.544  14.563  -3.718  0.00  0.00     0.051 C 
HETATM   21  C   UNK     0      23.855  12.577   0.926  0.00  0.00     0.115 C 
HETATM   22  C   UNK     0      22.889  11.788   1.779  0.00  0.00     0.022 A 
HETATM   23  N   UNK     0      21.554  11.739   1.691  0.00  0.00    -0.361 N 
HETATM   24  C   UNK     0      21.107  10.800   2.549  0.00  0.00     0.021 A 
HETATM   25  C   UNK     0      22.181  10.238   3.214  0.00  0.00    -0.031 A 
HETATM   26  C   UNK     0      22.184   9.178   4.296  0.00  0.00     0.051 C 
HETATM   27  C   UNK     0      23.332  10.855   2.738  0.00  0.00    -0.027 A 
HETATM   28  C   UNK     0      19.679  10.319   2.741  0.00  0.00     0.115 C 
HETATM   29  H   UNK     0      18.989  11.430   0.101  0.00  0.00     0.165 HD
HETATM   30  H   UNK     0      20.966   9.713  -2.056  0.00  0.00     0.165 HD
HETATM   31  H   UNK     0      22.773  10.689  -1.083  0.00  0.00     0.165 HD
HETATM   32  H   UNK     0      20.909  12.397   1.052  0.00  0.00     0.165 HD
ENDROOT
BRANCH   6  33
HETATM   33  C   UNK     0      17.712   6.881  -0.394  0.00  0.00     0.051 C 
BRANCH  33  34
HETATM   34  C   UNK     0      16.210   6.792  -0.260  0.00  0.00     0.114 C 
BRANCH  34  35
HETATM   35  C   UNK     0      15.875   5.374   0.057  0.00  0.00     0.139 C 
HETATM   36  O   UNK     0      16.725   4.630   0.628  0.00  0.00    -0.650 OA
BRANCH  35  37
HETATM   37  O   UNK     0      14.642   4.810  -0.247  0.00  0.00    -0.776 OA
HETATM   38  H   UNK     0      14.554   4.011  -0.854  0.00  0.00     0.167 HD
ENDBRANCH  35  37
ENDBRANCH  34  35
ENDBRANCH  33  34
ENDBRANCH   6  33
BRANCH  27  39
HETATM   39  C   UNK     0      24.690  10.561   3.272  0.00  0.00     0.051 C 
BRANCH  39  40
HETATM   40  C   UNK     0      25.579   9.712   2.480  0.00  0.00     0.114 C 
BRANCH  40  41
HETATM   41  C   UNK     0      26.430  10.247   1.440  0.00  0.00     0.139 C 
HETATM   42  O   UNK     0      27.055  11.310   1.548  0.00  0.00    -0.650 OA
BRANCH  41  43
HETATM   43  O   UNK     0      26.567   9.525   0.220  0.00  0.00    -0.776 OA
HETATM   44  H   UNK     0      27.061  10.025  -0.509  0.00  0.00     0.167 HD
ENDBRANCH  41  43
ENDBRANCH  40  41
ENDBRANCH  39  40
ENDBRANCH  27  39
BRANCH  11  45
HETATM   45  C   UNK     0      19.808  12.788  -5.477  0.00  0.00     0.051 C 
BRANCH  45  46
HETATM   46  C   UNK     0      20.000  12.197  -6.826  0.00  0.00     0.114 C 
BRANCH  46  47
HETATM   47  C   UNK     0      19.169  12.989  -7.777  0.00  0.00     0.139 C 
HETATM   48  O   UNK     0      17.984  13.206  -7.489  0.00  0.00    -0.650 OA
BRANCH  47  49
HETATM   49  O   UNK     0      19.702  13.466  -8.948  0.00  0.00    -0.776 OA
HETATM   50  H   UNK     0      19.118  13.688  -9.763  0.00  0.00     0.167 HD
ENDBRANCH  47  49
ENDBRANCH  46  47
ENDBRANCH  45  46
ENDBRANCH  11  45
BRANCH  18  51
HETATM   51  C   UNK     0      24.464  15.099  -0.815  0.00  0.00     0.051 C 
BRANCH  51  52
HETATM   52  C   UNK     0      23.341  15.920  -0.199  0.00  0.00     0.114 C 
BRANCH  52  53
HETATM   53  C   UNK     0      23.462  17.353  -0.530  0.00  0.00     0.139 C 
HETATM   54  O   UNK     0      22.853  17.818  -1.508  0.00  0.00    -0.650 OA
BRANCH  53  55
HETATM   55  O   UNK     0      24.252  18.166   0.245  0.00  0.00    -0.776 OA
HETATM   56  H   UNK     0      24.684  19.011  -0.047  0.00  0.00     0.167 HD
ENDBRANCH  53  55
ENDBRANCH  52  53
ENDBRANCH  51  52
ENDBRANCH  18  51
TORSDOF 16
ENDMDL
MODEL 18
REMARK VINA RESULT:      -8.3     10.542     14.755
REMARK  16 active torsions:
REMARK  status: ('A' for Active; 'I' for Inactive)
REMARK    1  A    between atoms: C_6  and  C_7 
REMARK    2  A    between atoms: C_7  and  C_8 
REMARK    3  A    between atoms: C_8  and  C_9 
REMARK    4  A    between atoms: C_9  and  O_11 
REMARK    5  A    between atoms: C_16  and  C_17 
REMARK    6  A    between atoms: C_17  and  C_18 
REMARK    7  A    between atoms: C_18  and  C_19 
REMARK    8  A    between atoms: C_19  and  O_21 
REMARK    9  A    between atoms: C_28  and  C_29 
REMARK   10  A    between atoms: C_29  and  C_30 
REMARK   11  A    between atoms: C_30  and  C_31 
REMARK   12  A    between atoms: C_31  and  O_33 
REMARK   13  A    between atoms: C_42  and  C_43 
REMARK   14  A    between atoms: C_43  and  C_44 
REMARK   15  A    between atoms: C_44  and  C_45 
REMARK   16  A    between atoms: C_45  and  O_47 
ROOT
HETATM    1  C   UNK     0      22.599  14.448  -4.595  0.00  0.00     0.051 C 
HETATM    2  C   UNK     0      23.216  14.193  -3.235  0.00  0.00    -0.031 A 
HETATM    3  C   UNK     0      23.800  15.088  -2.352  0.00  0.00     0.021 A 
HETATM    4  N   UNK     0      24.246  14.410  -1.268  0.00  0.00    -0.361 N 
HETATM    5  C   UNK     0      23.950  13.105  -1.436  0.00  0.00     0.022 A 
HETATM    6  C   UNK     0      23.308  12.933  -2.658  0.00  0.00    -0.027 A 
HETATM    7  C   UNK     0      24.142  11.956  -0.495  0.00  0.00     0.115 C 
HETATM    8  C   UNK     0      23.793  12.204   0.962  0.00  0.00     0.021 A 
HETATM    9  N   UNK     0      22.808  12.960   1.469  0.00  0.00    -0.361 N 
HETATM   10  C   UNK     0      22.931  12.963   2.814  0.00  0.00     0.022 A 
HETATM   11  C   UNK     0      24.020  12.179   3.183  0.00  0.00    -0.027 A 
HETATM   12  C   UNK     0      24.567  11.698   2.022  0.00  0.00    -0.031 A 
HETATM   13  C   UNK     0      25.774  10.790   1.935  0.00  0.00     0.051 C 
HETATM   14  C   UNK     0      22.063  13.745   3.796  0.00  0.00     0.115 C 
HETATM   15  C   UNK     0      22.116  15.251   3.602  0.00  0.00     0.021 A 
HETATM   16  N   UNK     0      21.799  15.948   2.494  0.00  0.00    -0.361 N 
HETATM   17  C   UNK     0      22.048  17.243   2.704  0.00  0.00     0.022 A 
HETATM   18  C   UNK     0      22.542  17.398   4.015  0.00  0.00    -0.027 A 
HETATM   19  C   UNK     0      22.578  16.144   4.566  0.00  0.00    -0.031 A 
HETATM   20  C   UNK     0      23.018  15.861   5.991  0.00  0.00     0.051 C 
HETATM   21  C   UNK     0      21.931  18.420   1.763  0.00  0.00     0.115 C 
HETATM   22  C   UNK     0      22.233  18.178   0.303  0.00  0.00     0.022 A 
HETATM   23  N   UNK     0      23.204  17.426  -0.231  0.00  0.00    -0.361 N 
HETATM   24  C   UNK     0      23.016  17.375  -1.565  0.00  0.00     0.021 A 
HETATM   25  C   UNK     0      21.901  18.119  -1.900  0.00  0.00    -0.031 A 
HETATM   26  C   UNK     0      21.315  18.394  -3.269  0.00  0.00     0.051 C 
HETATM   27  C   UNK     0      21.383  18.644  -0.721  0.00  0.00    -0.027 A 
HETATM   28  C   UNK     0      23.805  16.572  -2.585  0.00  0.00     0.115 C 
HETATM   29  H   UNK     0      24.801  14.854  -0.409  0.00  0.00     0.165 HD
HETATM   30  H   UNK     0      21.993  13.453   0.884  0.00  0.00     0.165 HD
HETATM   31  H   UNK     0      21.345  15.524   1.561  0.00  0.00     0.165 HD
HETATM   32  H   UNK     0      24.059  16.960   0.325  0.00  0.00     0.165 HD
ENDROOT
BRANCH   6  33
HETATM   33  C   UNK     0      22.784  11.679  -3.310  0.00  0.00     0.051 C 
BRANCH  33  34
HETATM   34  C   UNK     0      21.385  11.371  -2.833  0.00  0.00     0.114 C 
BRANCH  34  35
HETATM   35  C   UNK     0      20.478  11.477  -4.011  0.00  0.00     0.139 C 
HETATM   36  O   UNK     0      19.243  11.698  -3.846  0.00  0.00    -0.650 OA
BRANCH  35  37
HETATM   37  O   UNK     0      20.929  11.345  -5.319  0.00  0.00    -0.776 OA
HETATM   38  H   UNK     0      21.597  10.640  -5.585  0.00  0.00     0.167 HD
ENDBRANCH  35  37
ENDBRANCH  34  35
ENDBRANCH  33  34
ENDBRANCH   6  33
BRANCH  27  39
HETATM   39  C   UNK     0      20.214  19.564  -0.689  0.00  0.00     0.051 C 
BRANCH  39  40
HETATM   40  C   UNK     0      18.890  19.016  -0.981  0.00  0.00     0.114 C 
BRANCH  40  41
HETATM   41  C   UNK     0      18.350  17.883  -0.264  0.00  0.00     0.139 C 
HETATM   42  O   UNK     0      19.004  17.209   0.543  0.00  0.00    -0.650 OA
BRANCH  41  43
HETATM   43  O   UNK     0      16.995  17.507  -0.486  0.00  0.00    -0.776 OA
HETATM   44  H   UNK     0      16.835  16.507  -0.508  0.00  0.00     0.167 HD
ENDBRANCH  41  43
ENDBRANCH  40  41
ENDBRANCH  39  40
ENDBRANCH  27  39
BRANCH  11  45
HETATM   45  C   UNK     0      24.539  11.880   4.563  0.00  0.00     0.051 C 
BRANCH  45  46
HETATM   46  C   UNK     0      25.427  12.933   5.118  0.00  0.00     0.114 C 
BRANCH  46  47
HETATM   47  C   UNK     0      26.832  12.472   4.927  0.00  0.00     0.139 C 
HETATM   48  O   UNK     0      27.611  13.195   4.289  0.00  0.00    -0.650 OA
BRANCH  47  49
HETATM   49  O   UNK     0      27.255  11.274   5.443  0.00  0.00    -0.776 OA
HETATM   50  H   UNK     0      27.898  11.221   6.243  0.00  0.00     0.167 HD
ENDBRANCH  47  49
ENDBRANCH  46  47
ENDBRANCH  45  46
ENDBRANCH  11  45
BRANCH  18  51
HETATM   51  C   UNK     0      22.937  18.675   4.710  0.00  0.00     0.051 C 
BRANCH  51  52
HETATM   52  C   UNK     0      21.679  19.197   5.389  0.00  0.00     0.114 C 
BRANCH  52  53
HETATM   53  C   UNK     0      21.954  20.393   6.210  0.00  0.00     0.139 C 
HETATM   54  O   UNK     0      22.973  21.069   6.001  0.00  0.00    -0.650 OA
BRANCH  53  55
HETATM   55  O   UNK     0      21.077  20.749   7.206  0.00  0.00    -0.776 OA
HETATM   56  H   UNK     0      20.148  21.074   7.077  0.00  0.00     0.167 HD
ENDBRANCH  53  55
ENDBRANCH  52  53
ENDBRANCH  51  52
ENDBRANCH  18  51
TORSDOF 16
ENDMDL
MODEL 19
REMARK VINA RESULT:      -8.2     10.208     14.105
REMARK  16 active torsions:
REMARK  status: ('A' for Active; 'I' for Inactive)
REMARK    1  A    between atoms: C_6  and  C_7 
REMARK    2  A    between atoms: C_7  and  C_8 
REMARK    3  A    between atoms: C_8  and  C_9 
REMARK    4  A    between atoms: C_9  and  O_11 
REMARK    5  A    between atoms: C_16  and  C_17 
REMARK    6  A    between atoms: C_17  and  C_18 
REMARK    7  A    between atoms: C_18  and  C_19 
REMARK    8  A    between atoms: C_19  and  O_21 
REMARK    9  A    between atoms: C_28  and  C_29 
REMARK   10  A    between atoms: C_29  and  C_30 
REMARK   11  A    between atoms: C_30  and  C_31 
REMARK   12  A    between atoms: C_31  and  O_33 
REMARK   13  A    between atoms: C_42  and  C_43 
REMARK   14  A    between atoms: C_43  and  C_44 
REMARK   15  A    between atoms: C_44  and  C_45 
REMARK   16  A    between atoms: C_45  and  O_47 
ROOT
HETATM    1  C   UNK     0      23.525   9.860   3.853  0.00  0.00     0.051 C 
HETATM    2  C   UNK     0      23.087  10.460   2.533  0.00  0.00    -0.031 A 
HETATM    3  C   UNK     0      22.130  11.431   2.283  0.00  0.00     0.021 A 
HETATM    4  N   UNK     0      22.049  11.637   0.947  0.00  0.00    -0.361 N 
HETATM    5  C   UNK     0      22.940  10.825   0.341  0.00  0.00     0.022 A 
HETATM    6  C   UNK     0      23.604  10.073   1.304  0.00  0.00    -0.027 A 
HETATM    7  C   UNK     0      23.311  10.731  -1.106  0.00  0.00     0.115 C 
HETATM    8  C   UNK     0      23.475  12.042  -1.855  0.00  0.00     0.021 A 
HETATM    9  N   UNK     0      23.965  13.207  -1.404  0.00  0.00    -0.361 N 
HETATM   10  C   UNK     0      23.835  14.124  -2.386  0.00  0.00     0.022 A 
HETATM   11  C   UNK     0      23.253  13.532  -3.503  0.00  0.00    -0.027 A 
HETATM   12  C   UNK     0      23.024  12.220  -3.175  0.00  0.00    -0.031 A 
HETATM   13  C   UNK     0      22.406  11.186  -4.090  0.00  0.00     0.051 C 
HETATM   14  C   UNK     0      24.203  15.602  -2.292  0.00  0.00     0.115 C 
HETATM   15  C   UNK     0      23.433  16.362  -1.224  0.00  0.00     0.021 A 
HETATM   16  N   UNK     0      23.392  16.107   0.097  0.00  0.00    -0.361 N 
HETATM   17  C   UNK     0      22.547  16.958   0.682  0.00  0.00     0.022 A 
HETATM   18  C   UNK     0      22.019  17.816  -0.303  0.00  0.00    -0.027 A 
HETATM   19  C   UNK     0      22.583  17.433  -1.493  0.00  0.00    -0.031 A 
HETATM   20  C   UNK     0      22.312  18.124  -2.816  0.00  0.00     0.051 C 
HETATM   21  C   UNK     0      22.096  17.044   2.123  0.00  0.00     0.115 C 
HETATM   22  C   UNK     0      21.971  15.751   2.893  0.00  0.00     0.022 A 
HETATM   23  N   UNK     0      21.491  14.575   2.468  0.00  0.00    -0.361 N 
HETATM   24  C   UNK     0      21.702  13.658   3.434  0.00  0.00     0.021 A 
HETATM   25  C   UNK     0      22.324  14.260   4.510  0.00  0.00    -0.031 A 
HETATM   26  C   UNK     0      22.726  13.655   5.839  0.00  0.00     0.051 C 
HETATM   27  C   UNK     0      22.507  15.600   4.188  0.00  0.00    -0.027 A 
HETATM   28  C   UNK     0      21.413  12.167   3.379  0.00  0.00     0.115 C 
HETATM   29  H   UNK     0      21.336  12.327   0.438  0.00  0.00     0.165 HD
HETATM   30  H   UNK     0      24.450  13.372  -0.411  0.00  0.00     0.165 HD
HETATM   31  H   UNK     0      24.009  15.341   0.636  0.00  0.00     0.165 HD
HETATM   32  H   UNK     0      20.958  14.391   1.499  0.00  0.00     0.165 HD
ENDROOT
BRANCH   6  33
HETATM   33  C   UNK     0      24.678   9.026   1.146  0.00  0.00     0.051 C 
BRANCH  33  34
HETATM   34  C   UNK     0      25.939   9.634   0.580  0.00  0.00     0.114 C 
BRANCH  34  35
HETATM   35  C   UNK     0      26.607  10.382   1.684  0.00  0.00     0.139 C 
HETATM   36  O   UNK     0      26.950  11.589   1.518  0.00  0.00    -0.650 OA
BRANCH  35  37
HETATM   37  O   UNK     0      26.880   9.810   2.920  0.00  0.00    -0.776 OA
HETATM   38  H   UNK     0      26.183   9.747   3.645  0.00  0.00     0.167 HD
ENDBRANCH  35  37
ENDBRANCH  34  35
ENDBRANCH  33  34
ENDBRANCH   6  33
BRANCH  27  39
HETATM   39  C   UNK     0      23.086  16.590   5.136  0.00  0.00     0.051 C 
BRANCH  39  40
HETATM   40  C   UNK     0      22.176  17.327   6.012  0.00  0.00     0.114 C 
BRANCH  40  41
HETATM   41  C   UNK     0      21.610  18.603   5.636  0.00  0.00     0.139 C 
HETATM   42  O   UNK     0      22.220  19.452   4.973  0.00  0.00    -0.650 OA
BRANCH  41  43
HETATM   43  O   UNK     0      20.282  18.917   6.043  0.00  0.00    -0.776 OA
HETATM   44  H   UNK     0      20.017  18.531   6.941  0.00  0.00     0.167 HD
ENDBRANCH  41  43
ENDBRANCH  40  41
ENDBRANCH  39  40
ENDBRANCH  27  39
BRANCH  11  45
HETATM   45  C   UNK     0      22.921  14.153  -4.833  0.00  0.00     0.051 C 
BRANCH  45  46
HETATM   46  C   UNK     0      21.468  14.362  -5.058  0.00  0.00     0.114 C 
BRANCH  46  47
HETATM   47  C   UNK     0      21.205  14.113  -6.504  0.00  0.00     0.139 C 
HETATM   48  O   UNK     0      21.653  13.079  -7.018  0.00  0.00    -0.650 OA
BRANCH  47  49
HETATM   49  O   UNK     0      20.483  15.009  -7.252  0.00  0.00    -0.776 OA
HETATM   50  H   UNK     0      20.558  15.050  -8.275  0.00  0.00     0.167 HD
ENDBRANCH  47  49
ENDBRANCH  46  47
ENDBRANCH  45  46
ENDBRANCH  11  45
BRANCH  18  51
HETATM   51  C   UNK     0      21.046  18.952  -0.118  0.00  0.00     0.051 C 
BRANCH  51  52
HETATM   52  C   UNK     0      19.656  18.349  -0.254  0.00  0.00     0.114 C 
BRANCH  52  53
HETATM   53  C   UNK     0      18.797  19.144  -1.152  0.00  0.00     0.139 C 
HETATM   54  O   UNK     0      19.308  19.870  -2.019  0.00  0.00    -0.650 OA
BRANCH  53  55
HETATM   55  O   UNK     0      17.431  19.079  -1.020  0.00  0.00    -0.776 OA
HETATM   56  H   UNK     0      16.836  19.820  -0.732  0.00  0.00     0.167 HD
ENDBRANCH  53  55
ENDBRANCH  52  53
ENDBRANCH  51  52
ENDBRANCH  18  51
TORSDOF 16
ENDMDL
MODEL 20
REMARK VINA RESULT:      -8.2     30.949     33.915
REMARK  16 active torsions:
REMARK  status: ('A' for Active; 'I' for Inactive)
REMARK    1  A    between atoms: C_6  and  C_7 
REMARK    2  A    between atoms: C_7  and  C_8 
REMARK    3  A    between atoms: C_8  and  C_9 
REMARK    4  A    between atoms: C_9  and  O_11 
REMARK    5  A    between atoms: C_16  and  C_17 
REMARK    6  A    between atoms: C_17  and  C_18 
REMARK    7  A    between atoms: C_18  and  C_19 
REMARK    8  A    between atoms: C_19  and  O_21 
REMARK    9  A    between atoms: C_28  and  C_29 
REMARK   10  A    between atoms: C_29  and  C_30 
REMARK   11  A    between atoms: C_30  and  C_31 
REMARK   12  A    between atoms: C_31  and  O_33 
REMARK   13  A    between atoms: C_42  and  C_43 
REMARK   14  A    between atoms: C_43  and  C_44 
REMARK   15  A    between atoms: C_44  and  C_45 
REMARK   16  A    between atoms: C_45  and  O_47 
ROOT
HETATM    1  C   UNK     0       6.451 -19.260   5.945  0.00  0.00     0.051 C 
HETATM    2  C   UNK     0       7.225 -17.972   6.136  0.00  0.00    -0.031 A 
HETATM    3  C   UNK     0       6.794 -16.660   6.014  0.00  0.00     0.021 A 
HETATM    4  N   UNK     0       7.838 -15.829   6.245  0.00  0.00    -0.361 N 
HETATM    5  C   UNK     0       8.922 -16.582   6.520  0.00  0.00     0.022 A 
HETATM    6  C   UNK     0       8.575 -17.928   6.458  0.00  0.00    -0.027 A 
HETATM    7  C   UNK     0      10.297 -16.157   6.934  0.00  0.00     0.115 C 
HETATM    8  C   UNK     0      10.384 -15.039   7.958  0.00  0.00     0.021 A 
HETATM    9  N   UNK     0       9.572 -14.790   8.997  0.00  0.00    -0.361 N 
HETATM   10  C   UNK     0       9.976 -13.642   9.580  0.00  0.00     0.022 A 
HETATM   11  C   UNK     0      11.085 -13.141   8.903  0.00  0.00    -0.027 A 
HETATM   12  C   UNK     0      11.347 -14.017   7.880  0.00  0.00    -0.031 A 
HETATM   13  C   UNK     0      12.473 -13.880   6.880  0.00  0.00     0.051 C 
HETATM   14  C   UNK     0       9.304 -12.945  10.759  0.00  0.00     0.115 C 
HETATM   15  C   UNK     0       7.869 -12.521  10.488  0.00  0.00     0.021 A 
HETATM   16  N   UNK     0       6.834 -13.306  10.134  0.00  0.00    -0.361 N 
HETATM   17  C   UNK     0       5.759 -12.543   9.921  0.00  0.00     0.022 A 
HETATM   18  C   UNK     0       6.108 -11.199  10.157  0.00  0.00    -0.027 A 
HETATM   19  C   UNK     0       7.432 -11.198  10.512  0.00  0.00    -0.031 A 
HETATM   20  C   UNK     0       8.204  -9.947  10.890  0.00  0.00     0.051 C 
HETATM   21  C   UNK     0       4.377 -12.925   9.440  0.00  0.00     0.115 C 
HETATM   22  C   UNK     0       4.272 -14.065   8.455  0.00  0.00     0.022 A 
HETATM   23  N   UNK     0       5.068 -14.339   7.414  0.00  0.00    -0.361 N 
HETATM   24  C   UNK     0       4.696 -15.527   6.896  0.00  0.00     0.021 A 
HETATM   25  C   UNK     0       3.626 -16.025   7.615  0.00  0.00    -0.031 A 
HETATM   26  C   UNK     0       2.839 -17.300   7.393  0.00  0.00     0.051 C 
HETATM   27  C   UNK     0       3.336 -15.107   8.618  0.00  0.00    -0.027 A 
HETATM   28  C   UNK     0       5.357 -16.297   5.766  0.00  0.00     0.115 C 
HETATM   29  H   UNK     0       7.810 -14.717   6.173  0.00  0.00     0.165 HD
HETATM   30  H   UNK     0       8.743 -15.450   9.352  0.00  0.00     0.165 HD
HETATM   31  H   UNK     0       6.849 -14.425  10.079  0.00  0.00     0.165 HD
HETATM   32  H   UNK     0       5.875 -13.675   7.007  0.00  0.00     0.165 HD
ENDROOT
BRANCH   6  33
HETATM   33  C   UNK     0       9.419 -19.159   6.676  0.00  0.00     0.051 C 
BRANCH  33  34
HETATM   34  C   UNK     0       9.879 -19.732   5.357  0.00  0.00     0.114 C 
BRANCH  34  35
HETATM   35  C   UNK     0      11.365 -19.842   5.413  0.00  0.00     0.139 C 
HETATM   36  O   UNK     0      12.089 -18.840   5.141  0.00  0.00    -0.650 OA
BRANCH  35  37
HETATM   37  O   UNK     0      12.017 -21.019   5.760  0.00  0.00    -0.776 OA
HETATM   38  H   UNK     0      12.784 -21.033   6.413  0.00  0.00     0.167 HD
ENDBRANCH  35  37
ENDBRANCH  34  35
ENDBRANCH  33  34
ENDBRANCH   6  33
BRANCH  27  39
HETATM   39  C   UNK     0       2.193 -15.266   9.557  0.00  0.00     0.051 C 
BRANCH  39  40
HETATM   40  C   UNK     0       0.882 -14.763   9.146  0.00  0.00     0.114 C 
BRANCH  40  41
HETATM   41  C   UNK     0       0.203 -13.706   9.863  0.00  0.00     0.139 C 
HETATM   42  O   UNK     0      -0.988 -13.763  10.197  0.00  0.00    -0.650 OA
BRANCH  41  43
HETATM   43  O   UNK     0       0.928 -12.530  10.209  0.00  0.00    -0.776 OA
HETATM   44  H   UNK     0       1.925 -12.670  10.321  0.00  0.00     0.167 HD
ENDBRANCH  41  43
ENDBRANCH  40  41
ENDBRANCH  39  40
ENDBRANCH  27  39
BRANCH  11  45
HETATM   45  C   UNK     0      11.881 -11.897   9.191  0.00  0.00     0.051 C 
BRANCH  45  46
HETATM   46  C   UNK     0      13.306 -12.152   9.523  0.00  0.00     0.114 C 
BRANCH  46  47
HETATM   47  C   UNK     0      13.328 -13.061  10.704  0.00  0.00     0.139 C 
HETATM   48  O   UNK     0      13.913 -14.149  10.603  0.00  0.00    -0.650 OA
BRANCH  47  49
HETATM   49  O   UNK     0      12.713 -12.705  11.877  0.00  0.00    -0.776 OA
HETATM   50  H   UNK     0      12.456 -11.732  12.084  0.00  0.00     0.167 HD
ENDBRANCH  47  49
ENDBRANCH  46  47
ENDBRANCH  45  46
ENDBRANCH  11  45
BRANCH  18  51
HETATM   51  C   UNK     0       5.223  -9.983  10.068  0.00  0.00     0.051 C 
BRANCH  51  52
HETATM   52  C   UNK     0       4.830  -9.637  11.497  0.00  0.00     0.114 C 
BRANCH  52  53
HETATM   53  C   UNK     0       3.449 -10.054  11.804  0.00  0.00     0.139 C 
HETATM   54  O   UNK     0       3.060 -10.100  12.982  0.00  0.00    -0.650 OA
BRANCH  53  55
HETATM   55  O   UNK     0       2.598 -10.395  10.780  0.00  0.00    -0.776 OA
HETATM   56  H   UNK     0       1.618 -10.236  10.757  0.00  0.00     0.167 HD
ENDBRANCH  53  55
ENDBRANCH  52  53
ENDBRANCH  51  52
ENDBRANCH  18  51
TORSDOF 16
ENDMDL
