MODEL 1
REMARK VINA RESULT:      -8.9      0.000      0.000
REMARK  16 active torsions:
REMARK  status: ('A' for Active; 'I' for Inactive)
REMARK    1  A    between atoms: C_6  and  C_7 
REMARK    2  A    between atoms: C_7  and  C_8 
REMARK    3  A    between atoms: C_8  and  C_9 
REMARK    4  A    between atoms: C_9  and  O_11 
REMARK    5  A    between atoms: C_16  and  C_17 
REMARK    6  A    between atoms: C_17  and  C_18 
REMARK    7  A    between atoms: C_18  and  C_19 
REMARK    8  A    between atoms: C_19  and  O_21 
REMARK    9  A    between atoms: C_28  and  C_29 
REMARK   10  A    between atoms: C_29  and  C_30 
REMARK   11  A    between atoms: C_30  and  C_31 
REMARK   12  A    between atoms: C_31  and  O_33 
REMARK   13  A    between atoms: C_42  and  C_43 
REMARK   14  A    between atoms: C_43  and  C_44 
REMARK   15  A    between atoms: C_44  and  C_45 
REMARK   16  A    between atoms: C_45  and  O_47 
ROOT
HETATM    1  C   UNK     0      33.333 -10.026  40.880  0.00  0.00     0.051 C 
HETATM    2  C   UNK     0      33.852  -8.682  41.348  0.00  0.00    -0.031 A 
HETATM    3  C   UNK     0      34.293  -7.601  40.602  0.00  0.00     0.021 A 
HETATM    4  N   UNK     0      34.696  -6.619  41.443  0.00  0.00    -0.361 N 
HETATM    5  C   UNK     0      34.512  -7.047  42.709  0.00  0.00     0.022 A 
HETATM    6  C   UNK     0      33.988  -8.335  42.686  0.00  0.00    -0.027 A 
HETATM    7  C   UNK     0      34.708  -6.314  43.999  0.00  0.00     0.115 C 
HETATM    8  C   UNK     0      34.222  -4.876  44.048  0.00  0.00     0.021 A 
HETATM    9  N   UNK     0      33.145  -4.337  43.456  0.00  0.00    -0.361 N 
HETATM   10  C   UNK     0      33.156  -3.009  43.696  0.00  0.00     0.022 A 
HETATM   11  C   UNK     0      34.265  -2.685  44.472  0.00  0.00    -0.027 A 
HETATM   12  C   UNK     0      34.941  -3.857  44.697  0.00  0.00    -0.031 A 
HETATM   13  C   UNK     0      36.214  -3.991  45.503  0.00  0.00     0.051 C 
HETATM   14  C   UNK     0      32.154  -1.989  43.162  0.00  0.00     0.115 C 
HETATM   15  C   UNK     0      32.113  -1.903  41.645  0.00  0.00     0.021 A 
HETATM   16  N   UNK     0      31.838  -2.891  40.774  0.00  0.00    -0.361 N 
HETATM   17  C   UNK     0      31.973  -2.429  39.529  0.00  0.00     0.022 A 
HETATM   18  C   UNK     0      32.344  -1.071  39.592  0.00  0.00    -0.027 A 
HETATM   19  C   UNK     0      32.426  -0.753  40.923  0.00  0.00    -0.031 A 
HETATM   20  C   UNK     0      32.766   0.633  41.441  0.00  0.00     0.051 C 
HETATM   21  C   UNK     0      31.849  -3.149  38.206  0.00  0.00     0.115 C 
HETATM   22  C   UNK     0      32.288  -4.594  38.154  0.00  0.00     0.022 A 
HETATM   23  N   UNK     0      33.353  -5.159  38.737  0.00  0.00    -0.361 N 
HETATM   24  C   UNK     0      33.281  -6.492  38.550  0.00  0.00     0.021 A 
HETATM   25  C   UNK     0      32.146  -6.792  37.820  0.00  0.00    -0.031 A 
HETATM   26  C   UNK     0      31.657  -8.138  37.329  0.00  0.00     0.051 C 
HETATM   27  C   UNK     0      31.495  -5.593  37.555  0.00  0.00    -0.027 A 
HETATM   28  C   UNK     0      34.209  -7.560  39.102  0.00  0.00     0.115 C 
HETATM   29  H   UNK     0      35.144  -5.645  41.136  0.00  0.00     0.165 HD
HETATM   30  H   UNK     0      32.349  -4.899  42.910  0.00  0.00     0.165 HD
HETATM   31  H   UNK     0      31.496  -3.925  41.041  0.00  0.00     0.165 HD
HETATM   32  H   UNK     0      34.191  -4.617  39.249  0.00  0.00     0.165 HD
ENDROOT
BRANCH   6  33
HETATM   33  C   UNK     0      33.614  -9.250  43.825  0.00  0.00     0.051 C 
BRANCH  33  34
HETATM   34  C   UNK     0      32.150  -9.107  44.168  0.00  0.00     0.114 C 
BRANCH  34  35
HETATM   35  C   UNK     0      32.064  -8.359  45.455  0.00  0.00     0.139 C 
HETATM   36  O   UNK     0      31.110  -7.554  45.661  0.00  0.00    -0.650 OA
BRANCH  35  37
HETATM   37  O   UNK     0      33.001  -8.506  46.470  0.00  0.00    -0.776 OA
HETATM   38  H   UNK     0      33.398  -9.401  46.707  0.00  0.00     0.167 HD
ENDBRANCH  35  37
ENDBRANCH  34  35
ENDBRANCH  33  34
ENDBRANCH   6  33
BRANCH  27  39
HETATM   39  C   UNK     0      30.263  -5.506  36.724  0.00  0.00     0.051 C 
BRANCH  39  40
HETATM   40  C   UNK     0      29.038  -5.007  37.349  0.00  0.00     0.114 C 
BRANCH  40  41
HETATM   41  C   UNK     0      27.725  -5.343  36.847  0.00  0.00     0.139 C 
HETATM   42  O   UNK     0      26.995  -4.541  36.249  0.00  0.00    -0.650 OA
BRANCH  41  43
HETATM   43  O   UNK     0      27.227  -6.663  37.043  0.00  0.00    -0.776 OA
HETATM   44  H   UNK     0      26.241  -6.774  36.836  0.00  0.00     0.167 HD
ENDBRANCH  41  43
ENDBRANCH  40  41
ENDBRANCH  39  40
ENDBRANCH  27  39
BRANCH  11  45
HETATM   45  C   UNK     0      34.688  -1.338  44.993  0.00  0.00     0.051 C 
BRANCH  45  46
HETATM   46  C   UNK     0      33.783  -0.776  46.028  0.00  0.00     0.114 C 
BRANCH  46  47
HETATM   47  C   UNK     0      33.957   0.704  46.010  0.00  0.00     0.139 C 
HETATM   48  O   UNK     0      34.215   1.257  44.932  0.00  0.00    -0.650 OA
BRANCH  47  49
HETATM   49  O   UNK     0      33.836   1.440  47.162  0.00  0.00    -0.776 OA
HETATM   50  H   UNK     0      33.044   2.074  47.323  0.00  0.00     0.167 HD
ENDBRANCH  47  49
ENDBRANCH  46  47
ENDBRANCH  45  46
ENDBRANCH  11  45
BRANCH  18  51
HETATM   51  C   UNK     0      32.585  -0.122  38.447  0.00  0.00     0.051 C 
BRANCH  51  52
HETATM   52  C   UNK     0      31.211   0.296  37.943  0.00  0.00     0.114 C 
BRANCH  52  53
HETATM   53  C   UNK     0      30.830  -0.432  36.718  0.00  0.00     0.139 C 
HETATM   54  O   UNK     0      29.679  -0.879  36.593  0.00  0.00    -0.650 OA
BRANCH  53  55
HETATM   55  O   UNK     0      31.757  -0.615  35.720  0.00  0.00    -0.776 OA
HETATM   56  H   UNK     0      31.764  -1.354  35.058  0.00  0.00     0.167 HD
ENDBRANCH  53  55
ENDBRANCH  52  53
ENDBRANCH  51  52
ENDBRANCH  18  51
TORSDOF 16
ENDMDL
MODEL 2
REMARK VINA RESULT:      -8.8     29.430     32.745
REMARK  16 active torsions:
REMARK  status: ('A' for Active; 'I' for Inactive)
REMARK    1  A    between atoms: C_6  and  C_7 
REMARK    2  A    between atoms: C_7  and  C_8 
REMARK    3  A    between atoms: C_8  and  C_9 
REMARK    4  A    between atoms: C_9  and  O_11 
REMARK    5  A    between atoms: C_16  and  C_17 
REMARK    6  A    between atoms: C_17  and  C_18 
REMARK    7  A    between atoms: C_18  and  C_19 
REMARK    8  A    between atoms: C_19  and  O_21 
REMARK    9  A    between atoms: C_28  and  C_29 
REMARK   10  A    between atoms: C_29  and  C_30 
REMARK   11  A    between atoms: C_30  and  C_31 
REMARK   12  A    between atoms: C_31  and  O_33 
REMARK   13  A    between atoms: C_42  and  C_43 
REMARK   14  A    between atoms: C_43  and  C_44 
REMARK   15  A    between atoms: C_44  and  C_45 
REMARK   16  A    between atoms: C_45  and  O_47 
ROOT
HETATM    1  C   UNK     0       1.854  12.772  41.148  0.00  0.00     0.051 C 
HETATM    2  C   UNK     0       1.985  11.662  42.171  0.00  0.00    -0.031 A 
HETATM    3  C   UNK     0       1.222  10.515  42.327  0.00  0.00     0.021 A 
HETATM    4  N   UNK     0       1.681   9.823  43.396  0.00  0.00    -0.361 N 
HETATM    5  C   UNK     0       2.724  10.498  43.920  0.00  0.00     0.022 A 
HETATM    6  C   UNK     0       2.940  11.656  43.179  0.00  0.00    -0.027 A 
HETATM    7  C   UNK     0       3.637  10.119  45.044  0.00  0.00     0.115 C 
HETATM    8  C   UNK     0       4.106   8.676  45.084  0.00  0.00     0.021 A 
HETATM    9  N   UNK     0       4.398   7.863  44.056  0.00  0.00    -0.361 N 
HETATM   10  C   UNK     0       4.684   6.642  44.556  0.00  0.00     0.022 A 
HETATM   11  C   UNK     0       4.582   6.671  45.943  0.00  0.00    -0.027 A 
HETATM   12  C   UNK     0       4.219   7.949  46.283  0.00  0.00    -0.031 A 
HETATM   13  C   UNK     0       3.995   8.450  47.692  0.00  0.00     0.051 C 
HETATM   14  C   UNK     0       5.010   5.390  43.745  0.00  0.00     0.115 C 
HETATM   15  C   UNK     0       3.893   4.953  42.811  0.00  0.00     0.021 A 
HETATM   16  N   UNK     0       3.328   5.664  41.817  0.00  0.00    -0.361 N 
HETATM   17  C   UNK     0       2.335   4.952  41.279  0.00  0.00     0.022 A 
HETATM   18  C   UNK     0       2.256   3.715  41.948  0.00  0.00    -0.027 A 
HETATM   19  C   UNK     0       3.238   3.727  42.904  0.00  0.00    -0.031 A 
HETATM   20  C   UNK     0       3.525   2.562  43.834  0.00  0.00     0.051 C 
HETATM   21  C   UNK     0       1.352   5.323  40.192  0.00  0.00     0.115 C 
HETATM   22  C   UNK     0       0.910   6.766  40.114  0.00  0.00     0.022 A 
HETATM   23  N   UNK     0       0.617   7.599  41.120  0.00  0.00    -0.361 N 
HETATM   24  C   UNK     0       0.412   8.829  40.605  0.00  0.00     0.021 A 
HETATM   25  C   UNK     0       0.567   8.783  39.233  0.00  0.00    -0.031 A 
HETATM   26  C   UNK     0       0.400   9.894  38.217  0.00  0.00     0.051 C 
HETATM   27  C   UNK     0       0.886   7.473  38.895  0.00  0.00    -0.027 A 
HETATM   28  C   UNK     0       0.143  10.119  41.360  0.00  0.00     0.115 C 
HETATM   29  H   UNK     0       1.239   8.881  43.798  0.00  0.00     0.165 HD
HETATM   30  H   UNK     0       4.453   8.161  42.981  0.00  0.00     0.165 HD
HETATM   31  H   UNK     0       3.667   6.669  41.456  0.00  0.00     0.165 HD
HETATM   32  H   UNK     0       0.509   7.319  42.200  0.00  0.00     0.165 HD
ENDROOT
BRANCH   6  33
HETATM   33  C   UNK     0       3.969  12.743  43.356  0.00  0.00     0.051 C 
BRANCH  33  34
HETATM   34  C   UNK     0       4.255  12.977  44.820  0.00  0.00     0.114 C 
BRANCH  34  35
HETATM   35  C   UNK     0       3.631  14.278  45.195  0.00  0.00     0.139 C 
HETATM   36  O   UNK     0       4.329  15.333  45.231  0.00  0.00    -0.650 OA
BRANCH  35  37
HETATM   37  O   UNK     0       2.284  14.399  45.513  0.00  0.00    -0.776 OA
HETATM   38  H   UNK     0       1.561  13.994  44.940  0.00  0.00     0.167 HD
ENDBRANCH  35  37
ENDBRANCH  34  35
ENDBRANCH  33  34
ENDBRANCH   6  33
BRANCH  27  39
HETATM   39  C   UNK     0       1.060   7.018  37.489  0.00  0.00     0.051 C 
BRANCH  39  40
HETATM   40  C   UNK     0       2.128   7.621  36.691  0.00  0.00     0.114 C 
BRANCH  40  41
HETATM   41  C   UNK     0       1.936   8.006  35.311  0.00  0.00     0.139 C 
HETATM   42  O   UNK     0       1.481   7.245  34.446  0.00  0.00    -0.650 OA
BRANCH  41  43
HETATM   43  O   UNK     0       2.283   9.326  34.908  0.00  0.00    -0.776 OA
HETATM   44  H   UNK     0       2.643   9.911  35.652  0.00  0.00     0.167 HD
ENDBRANCH  41  43
ENDBRANCH  40  41
ENDBRANCH  39  40
ENDBRANCH  27  39
BRANCH  11  45
HETATM   45  C   UNK     0       4.814   5.557  46.928  0.00  0.00     0.051 C 
BRANCH  45  46
HETATM   46  C   UNK     0       5.889   5.835  47.915  0.00  0.00     0.114 C 
BRANCH  46  47
HETATM   47  C   UNK     0       5.844   4.748  48.935  0.00  0.00     0.139 C 
HETATM   48  O   UNK     0       5.292   4.976  50.020  0.00  0.00    -0.650 OA
BRANCH  47  49
HETATM   49  O   UNK     0       6.403   3.521  48.679  0.00  0.00    -0.776 OA
HETATM   50  H   UNK     0       7.392   3.415  48.424  0.00  0.00     0.167 HD
ENDBRANCH  47  49
ENDBRANCH  46  47
ENDBRANCH  45  46
ENDBRANCH  11  45
BRANCH  18  51
HETATM   51  C   UNK     0       1.310   2.574  41.677  0.00  0.00     0.051 C 
BRANCH  51  52
HETATM   52  C   UNK     0       1.939   1.755  40.560  0.00  0.00     0.114 C 
BRANCH  52  53
HETATM   53  C   UNK     0       2.367   0.423  41.029  0.00  0.00     0.139 C 
HETATM   54  O   UNK     0       3.574   0.171  41.169  0.00  0.00    -0.650 OA
BRANCH  53  55
HETATM   55  O   UNK     0       1.422  -0.536  41.305  0.00  0.00    -0.776 OA
HETATM   56  H   UNK     0       1.367  -1.437  40.892  0.00  0.00     0.167 HD
ENDBRANCH  53  55
ENDBRANCH  52  53
ENDBRANCH  51  52
ENDBRANCH  18  51
TORSDOF 16
ENDMDL
MODEL 3
REMARK VINA RESULT:      -8.7      2.696      4.004
REMARK  16 active torsions:
REMARK  status: ('A' for Active; 'I' for Inactive)
REMARK    1  A    between atoms: C_6  and  C_7 
REMARK    2  A    between atoms: C_7  and  C_8 
REMARK    3  A    between atoms: C_8  and  C_9 
REMARK    4  A    between atoms: C_9  and  O_11 
REMARK    5  A    between atoms: C_16  and  C_17 
REMARK    6  A    between atoms: C_17  and  C_18 
REMARK    7  A    between atoms: C_18  and  C_19 
REMARK    8  A    between atoms: C_19  and  O_21 
REMARK    9  A    between atoms: C_28  and  C_29 
REMARK   10  A    between atoms: C_29  and  C_30 
REMARK   11  A    between atoms: C_30  and  C_31 
REMARK   12  A    between atoms: C_31  and  O_33 
REMARK   13  A    between atoms: C_42  and  C_43 
REMARK   14  A    between atoms: C_43  and  C_44 
REMARK   15  A    between atoms: C_44  and  C_45 
REMARK   16  A    between atoms: C_45  and  O_47 
ROOT
HETATM    1  C   UNK     0      35.873  -7.207  43.921  0.00  0.00     0.051 C 
HETATM    2  C   UNK     0      35.956  -5.730  44.246  0.00  0.00    -0.031 A 
HETATM    3  C   UNK     0      36.056  -4.645  43.389  0.00  0.00     0.021 A 
HETATM    4  N   UNK     0      36.136  -3.509  44.123  0.00  0.00    -0.361 N 
HETATM    5  C   UNK     0      36.079  -3.846  45.428  0.00  0.00     0.022 A 
HETATM    6  C   UNK     0      35.970  -5.228  45.541  0.00  0.00    -0.027 A 
HETATM    7  C   UNK     0      36.034  -2.966  46.638  0.00  0.00     0.115 C 
HETATM    8  C   UNK     0      35.135  -1.744  46.558  0.00  0.00     0.021 A 
HETATM    9  N   UNK     0      33.951  -1.617  45.941  0.00  0.00    -0.361 N 
HETATM   10  C   UNK     0      33.556  -0.330  46.052  0.00  0.00     0.022 A 
HETATM   11  C   UNK     0      34.509   0.388  46.769  0.00  0.00    -0.027 A 
HETATM   12  C   UNK     0      35.506  -0.497  47.091  0.00  0.00    -0.031 A 
HETATM   13  C   UNK     0      36.753  -0.160  47.877  0.00  0.00     0.051 C 
HETATM   14  C   UNK     0      32.298   0.282  45.445  0.00  0.00     0.115 C 
HETATM   15  C   UNK     0      32.245   0.202  43.927  0.00  0.00     0.021 A 
HETATM   16  N   UNK     0      32.290  -0.904  43.161  0.00  0.00    -0.361 N 
HETATM   17  C   UNK     0      32.289  -0.547  41.875  0.00  0.00     0.022 A 
HETATM   18  C   UNK     0      32.230   0.859  41.799  0.00  0.00    -0.027 A 
HETATM   19  C   UNK     0      32.202   1.316  43.091  0.00  0.00    -0.031 A 
HETATM   20  C   UNK     0      32.101   2.784  43.466  0.00  0.00     0.051 C 
HETATM   21  C   UNK     0      32.400  -1.397  40.630  0.00  0.00     0.115 C 
HETATM   22  C   UNK     0      33.256  -2.639  40.708  0.00  0.00     0.022 A 
HETATM   23  N   UNK     0      34.437  -2.796  41.319  0.00  0.00    -0.361 N 
HETATM   24  C   UNK     0      34.773  -4.101  41.263  0.00  0.00     0.021 A 
HETATM   25  C   UNK     0      33.789  -4.799  40.590  0.00  0.00    -0.031 A 
HETATM   26  C   UNK     0      33.734  -6.272  40.241  0.00  0.00     0.051 C 
HETATM   27  C   UNK     0      32.807  -3.885  40.225  0.00  0.00    -0.027 A 
HETATM   28  C   UNK     0      35.976  -4.779  41.895  0.00  0.00     0.115 C 
HETATM   29  H   UNK     0      36.270  -2.481  43.715  0.00  0.00     0.165 HD
HETATM   30  H   UNK     0      33.366  -2.444  45.469  0.00  0.00     0.165 HD
HETATM   31  H   UNK     0      32.274  -1.961  43.534  0.00  0.00     0.165 HD
HETATM   32  H   UNK     0      35.067  -1.979  41.758  0.00  0.00     0.165 HD
ENDROOT
BRANCH   6  33
HETATM   33  C   UNK     0      35.881  -6.097  46.770  0.00  0.00     0.051 C 
BRANCH  33  34
HETATM   34  C   UNK     0      34.454  -6.523  47.022  0.00  0.00     0.114 C 
BRANCH  34  35
HETATM   35  C   UNK     0      34.030  -5.919  48.318  0.00  0.00     0.139 C 
HETATM   36  O   UNK     0      34.880  -5.355  49.066  0.00  0.00    -0.650 OA
BRANCH  35  37
HETATM   37  O   UNK     0      32.713  -5.942  48.759  0.00  0.00    -0.776 OA
HETATM   38  H   UNK     0      32.162  -5.102  48.840  0.00  0.00     0.167 HD
ENDBRANCH  35  37
ENDBRANCH  34  35
ENDBRANCH  33  34
ENDBRANCH   6  33
BRANCH  27  39
HETATM   39  C   UNK     0      31.614  -4.257  39.417  0.00  0.00     0.051 C 
BRANCH  39  40
HETATM   40  C   UNK     0      31.578  -3.862  38.009  0.00  0.00     0.114 C 
BRANCH  40  41
HETATM   41  C   UNK     0      31.652  -4.827  36.936  0.00  0.00     0.139 C 
HETATM   42  O   UNK     0      30.683  -5.490  36.545  0.00  0.00    -0.650 OA
BRANCH  41  43
HETATM   43  O   UNK     0      32.899  -5.039  36.282  0.00  0.00    -0.776 OA
HETATM   44  H   UNK     0      33.709  -4.955  36.886  0.00  0.00     0.167 HD
ENDBRANCH  41  43
ENDBRANCH  40  41
ENDBRANCH  39  40
ENDBRANCH  27  39
BRANCH  11  45
HETATM   45  C   UNK     0      34.500   1.844  47.149  0.00  0.00     0.051 C 
BRANCH  45  46
HETATM   46  C   UNK     0      35.152   2.734  46.154  0.00  0.00     0.114 C 
BRANCH  46  47
HETATM   47  C   UNK     0      36.031   3.672  46.909  0.00  0.00     0.139 C 
HETATM   48  O   UNK     0      35.758   4.881  46.894  0.00  0.00    -0.650 OA
BRANCH  47  49
HETATM   49  O   UNK     0      37.119   3.209  47.605  0.00  0.00    -0.776 OA
HETATM   50  H   UNK     0      37.493   3.704  48.424  0.00  0.00     0.167 HD
ENDBRANCH  47  49
ENDBRANCH  46  47
ENDBRANCH  45  46
ENDBRANCH  11  45
BRANCH  18  51
HETATM   51  C   UNK     0      32.182   1.719  40.563  0.00  0.00     0.051 C 
BRANCH  51  52
HETATM   52  C   UNK     0      33.626   2.068  40.230  0.00  0.00     0.114 C 
BRANCH  52  53
HETATM   53  C   UNK     0      33.959   1.747  38.829  0.00  0.00     0.139 C 
HETATM   54  O   UNK     0      33.247   0.961  38.185  0.00  0.00    -0.650 OA
BRANCH  53  55
HETATM   55  O   UNK     0      35.063   2.321  38.245  0.00  0.00    -0.776 OA
HETATM   56  H   UNK     0      36.006   2.192  38.527  0.00  0.00     0.167 HD
ENDBRANCH  53  55
ENDBRANCH  52  53
ENDBRANCH  51  52
ENDBRANCH  18  51
TORSDOF 16
ENDMDL
MODEL 4
REMARK VINA RESULT:      -8.4     29.255     32.941
REMARK  16 active torsions:
REMARK  status: ('A' for Active; 'I' for Inactive)
REMARK    1  A    between atoms: C_6  and  C_7 
REMARK    2  A    between atoms: C_7  and  C_8 
REMARK    3  A    between atoms: C_8  and  C_9 
REMARK    4  A    between atoms: C_9  and  O_11 
REMARK    5  A    between atoms: C_16  and  C_17 
REMARK    6  A    between atoms: C_17  and  C_18 
REMARK    7  A    between atoms: C_18  and  C_19 
REMARK    8  A    between atoms: C_19  and  O_21 
REMARK    9  A    between atoms: C_28  and  C_29 
REMARK   10  A    between atoms: C_29  and  C_30 
REMARK   11  A    between atoms: C_30  and  C_31 
REMARK   12  A    between atoms: C_31  and  O_33 
REMARK   13  A    between atoms: C_42  and  C_43 
REMARK   14  A    between atoms: C_43  and  C_44 
REMARK   15  A    between atoms: C_44  and  C_45 
REMARK   16  A    between atoms: C_45  and  O_47 
ROOT
HETATM    1  C   UNK     0       2.509  12.823  43.547  0.00  0.00     0.051 C 
HETATM    2  C   UNK     0       2.599  11.441  44.163  0.00  0.00    -0.031 A 
HETATM    3  C   UNK     0       1.704  10.385  44.088  0.00  0.00     0.021 A 
HETATM    4  N   UNK     0       2.180   9.351  44.821  0.00  0.00    -0.361 N 
HETATM    5  C   UNK     0       3.363   9.721  45.354  0.00  0.00     0.022 A 
HETATM    6  C   UNK     0       3.654  11.025  44.965  0.00  0.00    -0.027 A 
HETATM    7  C   UNK     0       4.336   8.920  46.161  0.00  0.00     0.115 C 
HETATM    8  C   UNK     0       4.597   7.497  45.699  0.00  0.00     0.021 A 
HETATM    9  N   UNK     0       4.649   7.022  44.445  0.00  0.00    -0.361 N 
HETATM   10  C   UNK     0       4.814   5.684  44.510  0.00  0.00     0.022 A 
HETATM   11  C   UNK     0       4.879   5.287  45.843  0.00  0.00    -0.027 A 
HETATM   12  C   UNK     0       4.743   6.425  46.597  0.00  0.00    -0.031 A 
HETATM   13  C   UNK     0       4.758   6.479  48.108  0.00  0.00     0.051 C 
HETATM   14  C   UNK     0       4.863   4.723  43.326  0.00  0.00     0.115 C 
HETATM   15  C   UNK     0       3.595   4.713  42.488  0.00  0.00     0.021 A 
HETATM   16  N   UNK     0       3.026   5.752  41.848  0.00  0.00    -0.361 N 
HETATM   17  C   UNK     0       1.886   5.347  41.283  0.00  0.00     0.022 A 
HETATM   18  C   UNK     0       1.709   3.977  41.560  0.00  0.00    -0.027 A 
HETATM   19  C   UNK     0       2.787   3.592  42.314  0.00  0.00    -0.031 A 
HETATM   20  C   UNK     0       3.012   2.172  42.801  0.00  0.00     0.051 C 
HETATM   21  C   UNK     0       0.846   6.136  40.519  0.00  0.00     0.115 C 
HETATM   22  C   UNK     0       0.608   7.567  40.940  0.00  0.00     0.022 A 
HETATM   23  N   UNK     0       0.554   8.069  42.181  0.00  0.00    -0.361 N 
HETATM   24  C   UNK     0       0.468   9.411  42.091  0.00  0.00     0.021 A 
HETATM   25  C   UNK     0       0.456   9.782  40.760  0.00  0.00    -0.031 A 
HETATM   26  C   UNK     0       0.331  11.166  40.157  0.00  0.00     0.051 C 
HETATM   27  C   UNK     0       0.544   8.618  40.004  0.00  0.00    -0.027 A 
HETATM   28  C   UNK     0       0.475  10.421  43.225  0.00  0.00     0.115 C 
HETATM   29  H   UNK     0       1.659   8.380  44.989  0.00  0.00     0.165 HD
HETATM   30  H   UNK     0       4.621   7.635  43.511  0.00  0.00     0.165 HD
HETATM   31  H   UNK     0       3.460   6.781  41.753  0.00  0.00     0.165 HD
HETATM   32  H   UNK     0       0.533   7.477  43.132  0.00  0.00     0.165 HD
ENDROOT
BRANCH   6  33
HETATM   33  C   UNK     0       4.841  11.894  45.295  0.00  0.00     0.051 C 
BRANCH  33  34
HETATM   34  C   UNK     0       4.457  12.973  46.278  0.00  0.00     0.114 C 
BRANCH  34  35
HETATM   35  C   UNK     0       5.171  14.219  45.875  0.00  0.00     0.139 C 
HETATM   36  O   UNK     0       6.366  14.415  46.242  0.00  0.00    -0.650 OA
BRANCH  35  37
HETATM   37  O   UNK     0       4.577  15.203  45.095  0.00  0.00    -0.776 OA
HETATM   38  H   UNK     0       4.552  16.169  45.380  0.00  0.00     0.167 HD
ENDBRANCH  35  37
ENDBRANCH  34  35
ENDBRANCH  33  34
ENDBRANCH   6  33
BRANCH  27  39
HETATM   39  C   UNK     0       0.487   8.612  38.517  0.00  0.00     0.051 C 
BRANCH  39  40
HETATM   40  C   UNK     0       1.560   7.939  37.785  0.00  0.00     0.114 C 
BRANCH  40  41
HETATM   41  C   UNK     0       1.970   8.356  36.463  0.00  0.00     0.139 C 
HETATM   42  O   UNK     0       2.416   7.579  35.608  0.00  0.00    -0.650 OA
BRANCH  41  43
HETATM   43  O   UNK     0       1.863   9.731  36.108  0.00  0.00    -0.776 OA
HETATM   44  H   UNK     0       0.994   9.979  35.650  0.00  0.00     0.167 HD
ENDBRANCH  41  43
ENDBRANCH  40  41
ENDBRANCH  39  40
ENDBRANCH  27  39
BRANCH  11  45
HETATM   45  C   UNK     0       5.063   3.904  46.406  0.00  0.00     0.051 C 
BRANCH  45  46
HETATM   46  C   UNK     0       4.821   2.814  45.427  0.00  0.00     0.114 C 
BRANCH  46  47
HETATM   47  C   UNK     0       4.696   1.545  46.200  0.00  0.00     0.139 C 
HETATM   48  O   UNK     0       5.635   1.204  46.934  0.00  0.00    -0.650 OA
BRANCH  47  49
HETATM   49  O   UNK     0       3.569   0.770  46.102  0.00  0.00    -0.776 OA
HETATM   50  H   UNK     0       3.317   0.081  46.820  0.00  0.00     0.167 HD
ENDBRANCH  47  49
ENDBRANCH  46  47
ENDBRANCH  45  46
ENDBRANCH  11  45
BRANCH  18  51
HETATM   51  C   UNK     0       0.585   3.079  41.112  0.00  0.00     0.051 C 
BRANCH  51  52
HETATM   52  C   UNK     0      -0.093   2.580  42.379  0.00  0.00     0.114 C 
BRANCH  52  53
HETATM   53  C   UNK     0      -1.160   3.495  42.828  0.00  0.00     0.139 C 
HETATM   54  O   UNK     0      -1.803   4.155  41.996  0.00  0.00    -0.650 OA
BRANCH  53  55
HETATM   55  O   UNK     0      -1.434   3.614  44.168  0.00  0.00    -0.776 OA
HETATM   56  H   UNK     0      -1.989   4.321  44.591  0.00  0.00     0.167 HD
ENDBRANCH  53  55
ENDBRANCH  52  53
ENDBRANCH  51  52
ENDBRANCH  18  51
TORSDOF 16
ENDMDL
MODEL 5
REMARK VINA RESULT:      -8.0     30.095     33.857
REMARK  16 active torsions:
REMARK  status: ('A' for Active; 'I' for Inactive)
REMARK    1  A    between atoms: C_6  and  C_7 
REMARK    2  A    between atoms: C_7  and  C_8 
REMARK    3  A    between atoms: C_8  and  C_9 
REMARK    4  A    between atoms: C_9  and  O_11 
REMARK    5  A    between atoms: C_16  and  C_17 
REMARK    6  A    between atoms: C_17  and  C_18 
REMARK    7  A    between atoms: C_18  and  C_19 
REMARK    8  A    between atoms: C_19  and  O_21 
REMARK    9  A    between atoms: C_28  and  C_29 
REMARK   10  A    between atoms: C_29  and  C_30 
REMARK   11  A    between atoms: C_30  and  C_31 
REMARK   12  A    between atoms: C_31  and  O_33 
REMARK   13  A    between atoms: C_42  and  C_43 
REMARK   14  A    between atoms: C_43  and  C_44 
REMARK   15  A    between atoms: C_44  and  C_45 
REMARK   16  A    between atoms: C_45  and  O_47 
ROOT
HETATM    1  C   UNK     0       1.459   9.862  34.984  0.00  0.00     0.051 C 
HETATM    2  C   UNK     0       1.931   8.457  35.298  0.00  0.00    -0.031 A 
HETATM    3  C   UNK     0       2.520   7.965  36.452  0.00  0.00     0.021 A 
HETATM    4  N   UNK     0       2.806   6.653  36.277  0.00  0.00    -0.361 N 
HETATM    5  C   UNK     0       2.405   6.297  35.039  0.00  0.00     0.022 A 
HETATM    6  C   UNK     0       1.855   7.402  34.399  0.00  0.00    -0.027 A 
HETATM    7  C   UNK     0       2.406   4.948  34.390  0.00  0.00     0.115 C 
HETATM    8  C   UNK     0       1.960   3.777  35.248  0.00  0.00     0.021 A 
HETATM    9  N   UNK     0       1.011   3.750  36.196  0.00  0.00    -0.361 N 
HETATM   10  C   UNK     0       1.019   2.524  36.762  0.00  0.00     0.022 A 
HETATM   11  C   UNK     0       1.994   1.738  36.155  0.00  0.00    -0.027 A 
HETATM   12  C   UNK     0       2.591   2.521  35.200  0.00  0.00    -0.031 A 
HETATM   13  C   UNK     0       3.710   2.081  34.283  0.00  0.00     0.051 C 
HETATM   14  C   UNK     0       0.149   2.064  37.928  0.00  0.00     0.115 C 
HETATM   15  C   UNK     0       0.360   2.860  39.206  0.00  0.00     0.021 A 
HETATM   16  N   UNK     0       0.205   4.185  39.383  0.00  0.00    -0.361 N 
HETATM   17  C   UNK     0       0.556   4.505  40.630  0.00  0.00     0.022 A 
HETATM   18  C   UNK     0       0.949   3.330  41.301  0.00  0.00    -0.027 A 
HETATM   19  C   UNK     0       0.821   2.307  40.398  0.00  0.00    -0.031 A 
HETATM   20  C   UNK     0       1.110   0.853  40.724  0.00  0.00     0.051 C 
HETATM   21  C   UNK     0       0.631   5.857  41.302  0.00  0.00     0.115 C 
HETATM   22  C   UNK     0       1.031   7.038  40.450  0.00  0.00     0.022 A 
HETATM   23  N   UNK     0       1.970   7.094  39.496  0.00  0.00    -0.361 N 
HETATM   24  C   UNK     0       1.891   8.297  38.894  0.00  0.00     0.021 A 
HETATM   25  C   UNK     0       0.884   9.039  39.481  0.00  0.00    -0.031 A 
HETATM   26  C   UNK     0       0.444  10.457  39.179  0.00  0.00     0.051 C 
HETATM   27  C   UNK     0       0.319   8.255  40.480  0.00  0.00    -0.027 A 
HETATM   28  C   UNK     0       2.685   8.791  37.697  0.00  0.00     0.115 C 
HETATM   29  H   UNK     0       3.326   5.998  37.014  0.00  0.00     0.165 HD
HETATM   30  H   UNK     0       0.299   4.578  36.434  0.00  0.00     0.165 HD
HETATM   31  H   UNK     0      -0.206   4.904  38.627  0.00  0.00     0.165 HD
HETATM   32  H   UNK     0       2.726   6.298  39.267  0.00  0.00     0.165 HD
ENDROOT
BRANCH   6  33
HETATM   33  C   UNK     0       1.273   7.531  33.014  0.00  0.00     0.051 C 
BRANCH  33  34
HETATM   34  C   UNK     0       2.324   7.992  32.032  0.00  0.00     0.114 C 
BRANCH  34  35
HETATM   35  C   UNK     0       2.325   7.030  30.894  0.00  0.00     0.139 C 
HETATM   36  O   UNK     0       2.739   5.845  31.062  0.00  0.00    -0.650 OA
BRANCH  35  37
HETATM   37  O   UNK     0       1.882   7.372  29.622  0.00  0.00    -0.776 OA
HETATM   38  H   UNK     0       1.062   6.956  29.211  0.00  0.00     0.167 HD
ENDBRANCH  35  37
ENDBRANCH  34  35
ENDBRANCH  33  34
ENDBRANCH   6  33
BRANCH  27  39
HETATM   39  C   UNK     0      -0.756   8.744  41.385  0.00  0.00     0.051 C 
BRANCH  39  40
HETATM   40  C   UNK     0      -0.374   9.278  42.692  0.00  0.00     0.114 C 
BRANCH  40  41
HETATM   41  C   UNK     0       0.494  10.425  42.833  0.00  0.00     0.139 C 
HETATM   42  O   UNK     0       0.120  11.591  42.648  0.00  0.00    -0.650 OA
BRANCH  41  43
HETATM   43  O   UNK     0       1.854  10.222  43.203  0.00  0.00    -0.776 OA
HETATM   44  H   UNK     0       2.523  10.717  42.626  0.00  0.00     0.167 HD
ENDBRANCH  41  43
ENDBRANCH  40  41
ENDBRANCH  39  40
ENDBRANCH  27  39
BRANCH  11  45
HETATM   45  C   UNK     0       2.364   0.308  36.443  0.00  0.00     0.051 C 
BRANCH  45  46
HETATM   46  C   UNK     0       1.506  -0.691  35.755  0.00  0.00     0.114 C 
BRANCH  46  47
HETATM   47  C   UNK     0       0.898  -1.551  36.809  0.00  0.00     0.139 C 
HETATM   48  O   UNK     0      -0.014  -2.327  36.488  0.00  0.00    -0.650 OA
BRANCH  47  49
HETATM   49  O   UNK     0       1.334  -1.486  38.108  0.00  0.00    -0.776 OA
HETATM   50  H   UNK     0       0.778  -1.853  38.890  0.00  0.00     0.167 HD
ENDBRANCH  47  49
ENDBRANCH  46  47
ENDBRANCH  45  46
ENDBRANCH  11  45
BRANCH  18  51
HETATM   51  C   UNK     0       1.403   3.187  42.731  0.00  0.00     0.051 C 
BRANCH  51  52
HETATM   52  C   UNK     0       2.916   3.347  42.716  0.00  0.00     0.114 C 
BRANCH  52  53
HETATM   53  C   UNK     0       3.602   2.118  43.157  0.00  0.00     0.139 C 
HETATM   54  O   UNK     0       4.169   1.390  42.326  0.00  0.00    -0.650 OA
BRANCH  53  55
HETATM   55  O   UNK     0       3.608   1.783  44.489  0.00  0.00    -0.776 OA
HETATM   56  H   UNK     0       2.808   1.671  45.067  0.00  0.00     0.167 HD
ENDBRANCH  53  55
ENDBRANCH  52  53
ENDBRANCH  51  52
ENDBRANCH  18  51
TORSDOF 16
ENDMDL
MODEL 6
REMARK VINA RESULT:      -7.9      2.583      4.383
REMARK  16 active torsions:
REMARK  status: ('A' for Active; 'I' for Inactive)
REMARK    1  A    between atoms: C_6  and  C_7 
REMARK    2  A    between atoms: C_7  and  C_8 
REMARK    3  A    between atoms: C_8  and  C_9 
REMARK    4  A    between atoms: C_9  and  O_11 
REMARK    5  A    between atoms: C_16  and  C_17 
REMARK    6  A    between atoms: C_17  and  C_18 
REMARK    7  A    between atoms: C_18  and  C_19 
REMARK    8  A    between atoms: C_19  and  O_21 
REMARK    9  A    between atoms: C_28  and  C_29 
REMARK   10  A    between atoms: C_29  and  C_30 
REMARK   11  A    between atoms: C_30  and  C_31 
REMARK   12  A    between atoms: C_31  and  O_33 
REMARK   13  A    between atoms: C_42  and  C_43 
REMARK   14  A    between atoms: C_43  and  C_44 
REMARK   15  A    between atoms: C_44  and  C_45 
REMARK   16  A    between atoms: C_45  and  O_47 
ROOT
HETATM    1  C   UNK     0      36.497  -6.840  46.278  0.00  0.00     0.051 C 
HETATM    2  C   UNK     0      36.284  -5.361  46.029  0.00  0.00    -0.031 A 
HETATM    3  C   UNK     0      36.484  -4.625  44.872  0.00  0.00     0.021 A 
HETATM    4  N   UNK     0      36.193  -3.326  45.119  0.00  0.00    -0.361 N 
HETATM    5  C   UNK     0      35.803  -3.219  46.406  0.00  0.00     0.022 A 
HETATM    6  C   UNK     0      35.851  -4.473  47.006  0.00  0.00    -0.027 A 
HETATM    7  C   UNK     0      35.290  -2.025  47.149  0.00  0.00     0.115 C 
HETATM    8  C   UNK     0      34.299  -1.140  46.414  0.00  0.00     0.021 A 
HETATM    9  N   UNK     0      33.340  -1.499  45.547  0.00  0.00    -0.361 N 
HETATM   10  C   UNK     0      32.762  -0.375  45.071  0.00  0.00     0.022 A 
HETATM   11  C   UNK     0      33.359   0.738  45.656  0.00  0.00    -0.027 A 
HETATM   12  C   UNK     0      34.328   0.263  46.504  0.00  0.00    -0.031 A 
HETATM   13  C   UNK     0      35.234   1.118  47.361  0.00  0.00     0.051 C 
HETATM   14  C   UNK     0      31.666  -0.304  44.012  0.00  0.00     0.115 C 
HETATM   15  C   UNK     0      32.070  -0.888  42.668  0.00  0.00     0.021 A 
HETATM   16  N   UNK     0      32.484  -2.142  42.408  0.00  0.00    -0.361 N 
HETATM   17  C   UNK     0      32.811  -2.238  41.118  0.00  0.00     0.022 A 
HETATM   18  C   UNK     0      32.590  -0.988  40.505  0.00  0.00    -0.027 A 
HETATM   19  C   UNK     0      32.125  -0.152  41.486  0.00  0.00    -0.031 A 
HETATM   20  C   UNK     0      31.724   1.292  41.244  0.00  0.00     0.051 C 
HETATM   21  C   UNK     0      33.393  -3.400  40.346  0.00  0.00     0.115 C 
HETATM   22  C   UNK     0      34.347  -4.315  41.078  0.00  0.00     0.022 A 
HETATM   23  N   UNK     0      35.308  -3.986  41.950  0.00  0.00    -0.361 N 
HETATM   24  C   UNK     0      35.817  -5.122  42.469  0.00  0.00     0.021 A 
HETATM   25  C   UNK     0      35.174  -6.209  41.909  0.00  0.00    -0.031 A 
HETATM   26  C   UNK     0      35.421  -7.686  42.141  0.00  0.00     0.051 C 
HETATM   27  C   UNK     0      34.229  -5.718  41.015  0.00  0.00    -0.027 A 
HETATM   28  C   UNK     0      36.862  -5.258  43.562  0.00  0.00     0.115 C 
HETATM   29  H   UNK     0      36.302  -2.487  44.393  0.00  0.00     0.165 HD
HETATM   30  H   UNK     0      33.035  -2.546  45.305  0.00  0.00     0.165 HD
HETATM   31  H   UNK     0      32.501  -2.991  43.140  0.00  0.00     0.165 HD
HETATM   32  H   UNK     0      35.667  -2.948  42.177  0.00  0.00     0.165 HD
ENDROOT
BRANCH   6  33
HETATM   33  C   UNK     0      35.524  -4.886  48.419  0.00  0.00     0.051 C 
BRANCH  33  34
HETATM   34  C   UNK     0      34.033  -5.038  48.600  0.00  0.00     0.114 C 
BRANCH  34  35
HETATM   35  C   UNK     0      33.714  -6.490  48.481  0.00  0.00     0.139 C 
HETATM   36  O   UNK     0      32.850  -6.886  47.646  0.00  0.00    -0.650 OA
BRANCH  35  37
HETATM   37  O   UNK     0      34.336  -7.459  49.258  0.00  0.00    -0.776 OA
HETATM   38  H   UNK     0      35.324  -7.435  49.455  0.00  0.00     0.167 HD
ENDBRANCH  35  37
ENDBRANCH  34  35
ENDBRANCH  33  34
ENDBRANCH   6  33
BRANCH  27  39
HETATM   39  C   UNK     0      33.385  -6.599  40.163  0.00  0.00     0.051 C 
BRANCH  39  40
HETATM   40  C   UNK     0      33.873  -6.949  38.830  0.00  0.00     0.114 C 
BRANCH  40  41
HETATM   41  C   UNK     0      33.094  -6.706  37.636  0.00  0.00     0.139 C 
HETATM   42  O   UNK     0      32.118  -7.392  37.305  0.00  0.00    -0.650 OA
BRANCH  41  43
HETATM   43  O   UNK     0      33.455  -5.624  36.784  0.00  0.00    -0.776 OA
HETATM   44  H   UNK     0      34.273  -5.796  36.212  0.00  0.00     0.167 HD
ENDBRANCH  41  43
ENDBRANCH  40  41
ENDBRANCH  39  40
ENDBRANCH  27  39
BRANCH  11  45
HETATM   45  C   UNK     0      33.046   2.195  45.445  0.00  0.00     0.051 C 
BRANCH  45  46
HETATM   46  C   UNK     0      33.116   2.630  44.026  0.00  0.00     0.114 C 
BRANCH  46  47
HETATM   47  C   UNK     0      31.879   3.413  43.743  0.00  0.00     0.139 C 
HETATM   48  O   UNK     0      30.792   2.963  44.130  0.00  0.00    -0.650 OA
BRANCH  47  49
HETATM   49  O   UNK     0      31.942   4.605  43.067  0.00  0.00    -0.776 OA
HETATM   50  H   UNK     0      32.788   5.187  43.065  0.00  0.00     0.167 HD
ENDBRANCH  47  49
ENDBRANCH  46  47
ENDBRANCH  45  46
ENDBRANCH  11  45
BRANCH  18  51
HETATM   51  C   UNK     0      32.791  -0.618  39.058  0.00  0.00     0.051 C 
BRANCH  51  52
HETATM   52  C   UNK     0      31.556  -1.108  38.317  0.00  0.00     0.114 C 
BRANCH  52  53
HETATM   53  C   UNK     0      30.986  -0.062  37.447  0.00  0.00     0.139 C 
HETATM   54  O   UNK     0      30.502  -0.366  36.344  0.00  0.00    -0.650 OA
BRANCH  53  55
HETATM   55  O   UNK     0      30.996   1.247  37.862  0.00  0.00    -0.776 OA
HETATM   56  H   UNK     0      31.754   1.882  37.773  0.00  0.00     0.167 HD
ENDBRANCH  53  55
ENDBRANCH  52  53
ENDBRANCH  51  52
ENDBRANCH  18  51
TORSDOF 16
ENDMDL
MODEL 7
REMARK VINA RESULT:      -7.8     25.619     30.707
REMARK  16 active torsions:
REMARK  status: ('A' for Active; 'I' for Inactive)
REMARK    1  A    between atoms: C_6  and  C_7 
REMARK    2  A    between atoms: C_7  and  C_8 
REMARK    3  A    between atoms: C_8  and  C_9 
REMARK    4  A    between atoms: C_9  and  O_11 
REMARK    5  A    between atoms: C_16  and  C_17 
REMARK    6  A    between atoms: C_17  and  C_18 
REMARK    7  A    between atoms: C_18  and  C_19 
REMARK    8  A    between atoms: C_19  and  O_21 
REMARK    9  A    between atoms: C_28  and  C_29 
REMARK   10  A    between atoms: C_29  and  C_30 
REMARK   11  A    between atoms: C_30  and  C_31 
REMARK   12  A    between atoms: C_31  and  O_33 
REMARK   13  A    between atoms: C_42  and  C_43 
REMARK   14  A    between atoms: C_43  and  C_44 
REMARK   15  A    between atoms: C_44  and  C_45 
REMARK   16  A    between atoms: C_45  and  O_47 
ROOT
HETATM    1  C   UNK     0       1.990   7.664  31.965  0.00  0.00     0.051 C 
HETATM    2  C   UNK     0       3.384   7.154  31.663  0.00  0.00    -0.031 A 
HETATM    3  C   UNK     0       4.245   6.419  32.464  0.00  0.00     0.021 A 
HETATM    4  N   UNK     0       5.403   6.212  31.794  0.00  0.00    -0.361 N 
HETATM    5  C   UNK     0       5.296   6.791  30.580  0.00  0.00     0.022 A 
HETATM    6  C   UNK     0       4.047   7.392  30.466  0.00  0.00    -0.027 A 
HETATM    7  C   UNK     0       6.253   6.773  29.429  0.00  0.00     0.115 C 
HETATM    8  C   UNK     0       6.923   5.445  29.120  0.00  0.00     0.021 A 
HETATM    9  N   UNK     0       6.412   4.208  29.219  0.00  0.00    -0.361 N 
HETATM   10  C   UNK     0       7.392   3.326  28.932  0.00  0.00     0.022 A 
HETATM   11  C   UNK     0       8.564   4.014  28.630  0.00  0.00    -0.027 A 
HETATM   12  C   UNK     0       8.275   5.350  28.746  0.00  0.00    -0.031 A 
HETATM   13  C   UNK     0       9.251   6.479  28.505  0.00  0.00     0.051 C 
HETATM   14  C   UNK     0       7.279   1.805  28.982  0.00  0.00     0.115 C 
HETATM   15  C   UNK     0       6.934   1.258  30.358  0.00  0.00     0.021 A 
HETATM   16  N   UNK     0       5.852   1.540  31.106  0.00  0.00    -0.361 N 
HETATM   17  C   UNK     0       5.954   0.912  32.279  0.00  0.00     0.022 A 
HETATM   18  C   UNK     0       7.157   0.178  32.293  0.00  0.00    -0.027 A 
HETATM   19  C   UNK     0       7.761   0.402  31.083  0.00  0.00    -0.031 A 
HETATM   20  C   UNK     0       9.074  -0.234  30.664  0.00  0.00     0.051 C 
HETATM   21  C   UNK     0       5.046   0.956  33.488  0.00  0.00     0.115 C 
HETATM   22  C   UNK     0       4.339   2.258  33.782  0.00  0.00     0.022 A 
HETATM   23  N   UNK     0       4.822   3.504  33.688  0.00  0.00    -0.361 N 
HETATM   24  C   UNK     0       3.809   4.368  33.902  0.00  0.00     0.021 A 
HETATM   25  C   UNK     0       2.648   3.661  34.150  0.00  0.00    -0.031 A 
HETATM   26  C   UNK     0       1.266   4.184  34.485  0.00  0.00     0.051 C 
HETATM   27  C   UNK     0       2.962   2.309  34.079  0.00  0.00    -0.027 A 
HETATM   28  C   UNK     0       3.844   5.884  33.810  0.00  0.00     0.115 C 
HETATM   29  H   UNK     0       6.302   5.692  32.198  0.00  0.00     0.165 HD
HETATM   30  H   UNK     0       5.347   3.956  29.444  0.00  0.00     0.165 HD
HETATM   31  H   UNK     0       4.973   2.157  30.782  0.00  0.00     0.165 HD
HETATM   32  H   UNK     0       5.892   3.786  33.512  0.00  0.00     0.165 HD
ENDROOT
BRANCH   6  33
HETATM   33  C   UNK     0       3.444   8.167  29.322  0.00  0.00     0.051 C 
BRANCH  33  34
HETATM   34  C   UNK     0       3.793   9.632  29.426  0.00  0.00     0.114 C 
BRANCH  34  35
HETATM   35  C   UNK     0       2.512  10.394  29.469  0.00  0.00     0.139 C 
HETATM   36  O   UNK     0       2.194  11.048  30.505  0.00  0.00    -0.650 OA
BRANCH  35  37
HETATM   37  O   UNK     0       1.623  10.428  28.401  0.00  0.00    -0.776 OA
HETATM   38  H   UNK     0       1.784  11.003  27.590  0.00  0.00     0.167 HD
ENDBRANCH  35  37
ENDBRANCH  34  35
ENDBRANCH  33  34
ENDBRANCH   6  33
BRANCH  27  39
HETATM   39  C   UNK     0       1.976   1.231  34.362  0.00  0.00     0.051 C 
BRANCH  39  40
HETATM   40  C   UNK     0       2.054   0.538  35.648  0.00  0.00     0.114 C 
BRANCH  40  41
HETATM   41  C   UNK     0       2.748   1.100  36.785  0.00  0.00     0.139 C 
HETATM   42  O   UNK     0       3.911   0.803  37.091  0.00  0.00    -0.650 OA
BRANCH  41  43
HETATM   43  O   UNK     0       2.074   2.047  37.607  0.00  0.00    -0.776 OA
HETATM   44  H   UNK     0       2.565   2.286  38.460  0.00  0.00     0.167 HD
ENDBRANCH  41  43
ENDBRANCH  40  41
ENDBRANCH  39  40
ENDBRANCH  27  39
BRANCH  11  45
HETATM   45  C   UNK     0       9.909   3.459  28.243  0.00  0.00     0.051 C 
BRANCH  45  46
HETATM   46  C   UNK     0      10.730   3.003  29.393  0.00  0.00     0.114 C 
BRANCH  46  47
HETATM   47  C   UNK     0      12.035   3.720  29.316  0.00  0.00     0.139 C 
HETATM   48  O   UNK     0      12.108   4.867  29.778  0.00  0.00    -0.650 OA
BRANCH  47  49
HETATM   49  O   UNK     0      13.132   3.124  28.746  0.00  0.00    -0.776 OA
HETATM   50  H   UNK     0      14.011   3.632  28.595  0.00  0.00     0.167 HD
ENDBRANCH  47  49
ENDBRANCH  46  47
ENDBRANCH  45  46
ENDBRANCH  11  45
BRANCH  18  51
HETATM   51  C   UNK     0       7.690  -0.706  33.390  0.00  0.00     0.051 C 
BRANCH  51  52
HETATM   52  C   UNK     0       8.352   0.221  34.399  0.00  0.00     0.114 C 
BRANCH  52  53
HETATM   53  C   UNK     0       7.886  -0.043  35.775  0.00  0.00     0.139 C 
HETATM   54  O   UNK     0       8.380  -0.974  36.430  0.00  0.00    -0.650 OA
BRANCH  53  55
HETATM   55  O   UNK     0       6.902   0.745  36.321  0.00  0.00    -0.776 OA
HETATM   56  H   UNK     0       5.981   0.454  36.550  0.00  0.00     0.167 HD
ENDBRANCH  53  55
ENDBRANCH  52  53
ENDBRANCH  51  52
ENDBRANCH  18  51
TORSDOF 16
ENDMDL
MODEL 8
REMARK VINA RESULT:      -7.7     14.811     18.017
REMARK  16 active torsions:
REMARK  status: ('A' for Active; 'I' for Inactive)
REMARK    1  A    between atoms: C_6  and  C_7 
REMARK    2  A    between atoms: C_7  and  C_8 
REMARK    3  A    between atoms: C_8  and  C_9 
REMARK    4  A    between atoms: C_9  and  O_11 
REMARK    5  A    between atoms: C_16  and  C_17 
REMARK    6  A    between atoms: C_17  and  C_18 
REMARK    7  A    between atoms: C_18  and  C_19 
REMARK    8  A    between atoms: C_19  and  O_21 
REMARK    9  A    between atoms: C_28  and  C_29 
REMARK   10  A    between atoms: C_29  and  C_30 
REMARK   11  A    between atoms: C_30  and  C_31 
REMARK   12  A    between atoms: C_31  and  O_33 
REMARK   13  A    between atoms: C_42  and  C_43 
REMARK   14  A    between atoms: C_43  and  C_44 
REMARK   15  A    between atoms: C_44  and  C_45 
REMARK   16  A    between atoms: C_45  and  O_47 
ROOT
HETATM    1  C   UNK     0      12.072  -3.681  45.759  0.00  0.00     0.051 C 
HETATM    2  C   UNK     0      12.809  -4.934  46.185  0.00  0.00    -0.031 A 
HETATM    3  C   UNK     0      13.152  -6.051  45.439  0.00  0.00     0.021 A 
HETATM    4  N   UNK     0      13.779  -6.943  46.241  0.00  0.00    -0.361 N 
HETATM    5  C   UNK     0      13.851  -6.416  47.481  0.00  0.00     0.022 A 
HETATM    6  C   UNK     0      13.251  -5.161  47.482  0.00  0.00    -0.027 A 
HETATM    7  C   UNK     0      14.524  -6.952  48.706  0.00  0.00     0.115 C 
HETATM    8  C   UNK     0      15.898  -7.570  48.513  0.00  0.00     0.021 A 
HETATM    9  N   UNK     0      16.871  -7.197  47.667  0.00  0.00    -0.361 N 
HETATM   10  C   UNK     0      17.881  -8.086  47.772  0.00  0.00     0.022 A 
HETATM   11  C   UNK     0      17.554  -9.053  48.718  0.00  0.00    -0.027 A 
HETATM   12  C   UNK     0      16.306  -8.734  49.189  0.00  0.00    -0.031 A 
HETATM   13  C   UNK     0      15.544  -9.507  50.242  0.00  0.00     0.051 C 
HETATM   14  C   UNK     0      19.167  -8.091  46.949  0.00  0.00     0.115 C 
HETATM   15  C   UNK     0      18.940  -8.242  45.454  0.00  0.00     0.021 A 
HETATM   16  N   UNK     0      18.219  -7.441  44.647  0.00  0.00    -0.361 N 
HETATM   17  C   UNK     0      18.208  -7.954  43.415  0.00  0.00     0.022 A 
HETATM   18  C   UNK     0      18.968  -9.141  43.416  0.00  0.00    -0.027 A 
HETATM   19  C   UNK     0      19.422  -9.309  44.699  0.00  0.00    -0.031 A 
HETATM   20  C   UNK     0      20.316 -10.456  45.133  0.00  0.00     0.051 C 
HETATM   21  C   UNK     0      17.489  -7.481  42.172  0.00  0.00     0.115 C 
HETATM   22  C   UNK     0      16.141  -6.825  42.353  0.00  0.00     0.022 A 
HETATM   23  N   UNK     0      15.154  -7.173  43.190  0.00  0.00    -0.361 N 
HETATM   24  C   UNK     0      14.193  -6.230  43.126  0.00  0.00     0.021 A 
HETATM   25  C   UNK     0      14.564  -5.257  42.217  0.00  0.00    -0.031 A 
HETATM   26  C   UNK     0      13.801  -4.026  41.774  0.00  0.00     0.051 C 
HETATM   27  C   UNK     0      15.807  -5.617  41.709  0.00  0.00    -0.027 A 
HETATM   28  C   UNK     0      12.924  -6.138  43.956  0.00  0.00     0.115 C 
HETATM   29  H   UNK     0      14.130  -7.956  45.936  0.00  0.00     0.165 HD
HETATM   30  H   UNK     0      16.869  -6.278  47.031  0.00  0.00     0.165 HD
HETATM   31  H   UNK     0      17.746  -6.468  44.942  0.00  0.00     0.165 HD
HETATM   32  H   UNK     0      15.108  -8.110  43.803  0.00  0.00     0.165 HD
ENDROOT
BRANCH   6  33
HETATM   33  C   UNK     0      13.067  -4.175  48.608  0.00  0.00     0.051 C 
BRANCH  33  34
HETATM   34  C   UNK     0      11.652  -4.222  49.134  0.00  0.00     0.114 C 
BRANCH  34  35
HETATM   35  C   UNK     0      11.654  -5.089  50.347  0.00  0.00     0.139 C 
HETATM   36  O   UNK     0      11.407  -6.326  50.246  0.00  0.00    -0.650 OA
BRANCH  35  37
HETATM   37  O   UNK     0      11.924  -4.599  51.618  0.00  0.00    -0.776 OA
HETATM   38  H   UNK     0      12.865  -4.465  51.951  0.00  0.00     0.167 HD
ENDBRANCH  35  37
ENDBRANCH  34  35
ENDBRANCH  33  34
ENDBRANCH   6  33
BRANCH  27  39
HETATM   39  C   UNK     0      16.502  -4.843  40.645  0.00  0.00     0.051 C 
BRANCH  39  40
HETATM   40  C   UNK     0      17.518  -3.870  41.045  0.00  0.00     0.114 C 
BRANCH  40  41
HETATM   41  C   UNK     0      17.175  -2.597  41.637  0.00  0.00     0.139 C 
HETATM   42  O   UNK     0      17.326  -2.340  42.839  0.00  0.00    -0.650 OA
BRANCH  41  43
HETATM   43  O   UNK     0      16.634  -1.573  40.809  0.00  0.00    -0.776 OA
HETATM   44  H   UNK     0      15.660  -1.704  40.563  0.00  0.00     0.167 HD
ENDBRANCH  41  43
ENDBRANCH  40  41
ENDBRANCH  39  40
ENDBRANCH  27  39
BRANCH  11  45
HETATM   45  C   UNK     0      18.366 -10.235  49.177  0.00  0.00     0.051 C 
BRANCH  45  46
HETATM   46  C   UNK     0      19.100 -10.008  50.448  0.00  0.00     0.114 C 
BRANCH  46  47
HETATM   47  C   UNK     0      20.516  -9.707  50.092  0.00  0.00     0.139 C 
HETATM   48  O   UNK     0      20.989 -10.212  49.065  0.00  0.00    -0.650 OA
BRANCH  47  49
HETATM   49  O   UNK     0      21.281  -8.889  50.885  0.00  0.00    -0.776 OA
HETATM   50  H   UNK     0      21.055  -8.721  51.873  0.00  0.00     0.167 HD
ENDBRANCH  47  49
ENDBRANCH  46  47
ENDBRANCH  45  46
ENDBRANCH  11  45
BRANCH  18  51
HETATM   51  C   UNK     0      19.262 -10.053  42.254  0.00  0.00     0.051 C 
BRANCH  51  52
HETATM   52  C   UNK     0      20.556  -9.548  41.633  0.00  0.00     0.114 C 
BRANCH  52  53
HETATM   53  C   UNK     0      20.373  -9.163  40.220  0.00  0.00     0.139 C 
HETATM   54  O   UNK     0      20.476  -7.973  39.882  0.00  0.00    -0.650 OA
BRANCH  53  55
HETATM   55  O   UNK     0      20.086 -10.127  39.284  0.00  0.00    -0.776 OA
HETATM   56  H   UNK     0      20.437 -10.163  38.356  0.00  0.00     0.167 HD
ENDBRANCH  53  55
ENDBRANCH  52  53
ENDBRANCH  51  52
ENDBRANCH  18  51
TORSDOF 16
ENDMDL
MODEL 9
REMARK VINA RESULT:      -7.7     27.691     32.602
REMARK  16 active torsions:
REMARK  status: ('A' for Active; 'I' for Inactive)
REMARK    1  A    between atoms: C_6  and  C_7 
REMARK    2  A    between atoms: C_7  and  C_8 
REMARK    3  A    between atoms: C_8  and  C_9 
REMARK    4  A    between atoms: C_9  and  O_11 
REMARK    5  A    between atoms: C_16  and  C_17 
REMARK    6  A    between atoms: C_17  and  C_18 
REMARK    7  A    between atoms: C_18  and  C_19 
REMARK    8  A    between atoms: C_19  and  O_21 
REMARK    9  A    between atoms: C_28  and  C_29 
REMARK   10  A    between atoms: C_29  and  C_30 
REMARK   11  A    between atoms: C_30  and  C_31 
REMARK   12  A    between atoms: C_31  and  O_33 
REMARK   13  A    between atoms: C_42  and  C_43 
REMARK   14  A    between atoms: C_43  and  C_44 
REMARK   15  A    between atoms: C_44  and  C_45 
REMARK   16  A    between atoms: C_45  and  O_47 
ROOT
HETATM    1  C   UNK     0       3.800  12.010  29.655  0.00  0.00     0.051 C 
HETATM    2  C   UNK     0       3.364  10.662  30.193  0.00  0.00    -0.031 A 
HETATM    3  C   UNK     0       3.335   9.430  29.560  0.00  0.00     0.021 A 
HETATM    4  N   UNK     0       2.840   8.505  30.416  0.00  0.00    -0.361 N 
HETATM    5  C   UNK     0       2.560   9.120  31.584  0.00  0.00     0.022 A 
HETATM    6  C   UNK     0       2.874  10.471  31.478  0.00  0.00    -0.027 A 
HETATM    7  C   UNK     0       2.084   8.535  32.878  0.00  0.00     0.115 C 
HETATM    8  C   UNK     0       2.735   7.236  33.319  0.00  0.00     0.021 A 
HETATM    9  N   UNK     0       4.008   6.842  33.161  0.00  0.00    -0.361 N 
HETATM   10  C   UNK     0       4.117   5.579  33.624  0.00  0.00     0.022 A 
HETATM   11  C   UNK     0       2.882   5.150  34.101  0.00  0.00    -0.027 A 
HETATM   12  C   UNK     0       2.007   6.189  33.913  0.00  0.00    -0.031 A 
HETATM   13  C   UNK     0       0.542   6.178  34.290  0.00  0.00     0.051 C 
HETATM   14  C   UNK     0       5.370   4.710  33.585  0.00  0.00     0.115 C 
HETATM   15  C   UNK     0       5.889   4.439  32.182  0.00  0.00     0.021 A 
HETATM   16  N   UNK     0       6.273   5.341  31.260  0.00  0.00    -0.361 N 
HETATM   17  C   UNK     0       6.596   4.705  30.132  0.00  0.00     0.022 A 
HETATM   18  C   UNK     0       6.425   3.321  30.332  0.00  0.00    -0.027 A 
HETATM   19  C   UNK     0       5.983   3.167  31.621  0.00  0.00    -0.031 A 
HETATM   20  C   UNK     0       5.706   1.820  32.263  0.00  0.00     0.051 C 
HETATM   21  C   UNK     0       7.016   5.260  28.790  0.00  0.00     0.115 C 
HETATM   22  C   UNK     0       6.410   6.574  28.358  0.00  0.00     0.022 A 
HETATM   23  N   UNK     0       5.147   6.994  28.506  0.00  0.00    -0.361 N 
HETATM   24  C   UNK     0       5.080   8.282  28.110  0.00  0.00     0.021 A 
HETATM   25  C   UNK     0       6.328   8.697  27.687  0.00  0.00    -0.031 A 
HETATM   26  C   UNK     0       6.744  10.038  27.119  0.00  0.00     0.051 C 
HETATM   27  C   UNK     0       7.196   7.622  27.836  0.00  0.00    -0.027 A 
HETATM   28  C   UNK     0       3.882   9.213  28.177  0.00  0.00     0.115 C 
HETATM   29  H   UNK     0       2.654   7.432  30.177  0.00  0.00     0.165 HD
HETATM   30  H   UNK     0       4.844   7.472  32.769  0.00  0.00     0.165 HD
HETATM   31  H   UNK     0       6.362   6.447  31.422  0.00  0.00     0.165 HD
HETATM   32  H   UNK     0       4.281   6.372  28.851  0.00  0.00     0.165 HD
ENDROOT
BRANCH   6  33
HETATM   33  C   UNK     0       2.742  11.579  32.492  0.00  0.00     0.051 C 
BRANCH  33  34
HETATM   34  C   UNK     0       1.352  12.171  32.460  0.00  0.00     0.114 C 
BRANCH  34  35
HETATM   35  C   UNK     0       1.498  13.642  32.264  0.00  0.00     0.139 C 
HETATM   36  O   UNK     0       2.646  14.173  32.260  0.00  0.00    -0.650 OA
BRANCH  35  37
HETATM   37  O   UNK     0       0.408  14.484  32.078  0.00  0.00    -0.776 OA
HETATM   38  H   UNK     0       0.250  14.969  31.209  0.00  0.00     0.167 HD
ENDBRANCH  35  37
ENDBRANCH  34  35
ENDBRANCH  33  34
ENDBRANCH   6  33
BRANCH  27  39
HETATM   39  C   UNK     0       8.623   7.668  27.415  0.00  0.00     0.051 C 
BRANCH  39  40
HETATM   40  C   UNK     0       8.991   7.049  26.141  0.00  0.00     0.114 C 
BRANCH  40  41
HETATM   41  C   UNK     0       8.052   6.915  25.050  0.00  0.00     0.139 C 
HETATM   42  O   UNK     0       7.874   7.789  24.191  0.00  0.00    -0.650 OA
BRANCH  41  43
HETATM   43  O   UNK     0       7.284   5.721  24.943  0.00  0.00    -0.776 OA
HETATM   44  H   UNK     0       7.125   5.244  25.822  0.00  0.00     0.167 HD
ENDBRANCH  41  43
ENDBRANCH  40  41
ENDBRANCH  39  40
ENDBRANCH  27  39
BRANCH  11  45
HETATM   45  C   UNK     0       2.518   3.825  34.716  0.00  0.00     0.051 C 
BRANCH  45  46
HETATM   46  C   UNK     0       1.987   2.833  33.747  0.00  0.00     0.114 C 
BRANCH  46  47
HETATM   47  C   UNK     0       2.457   1.489  34.189  0.00  0.00     0.139 C 
HETATM   48  O   UNK     0       3.367   1.426  35.027  0.00  0.00    -0.650 OA
BRANCH  47  49
HETATM   49  O   UNK     0       1.897   0.346  33.678  0.00  0.00    -0.776 OA
HETATM   50  H   UNK     0       0.886   0.258  33.519  0.00  0.00     0.167 HD
ENDBRANCH  47  49
ENDBRANCH  46  47
ENDBRANCH  45  46
ENDBRANCH  11  45
BRANCH  18  51
HETATM   51  C   UNK     0       6.689   2.204  29.356  0.00  0.00     0.051 C 
BRANCH  51  52
HETATM   52  C   UNK     0       8.171   1.879  29.470  0.00  0.00     0.114 C 
BRANCH  52  53
HETATM   53  C   UNK     0       8.399   0.457  29.790  0.00  0.00     0.139 C 
HETATM   54  O   UNK     0       8.471   0.090  30.974  0.00  0.00    -0.650 OA
BRANCH  53  55
HETATM   55  O   UNK     0       8.534  -0.456  28.772  0.00  0.00    -0.776 OA
HETATM   56  H   UNK     0       8.559  -0.248  27.802  0.00  0.00     0.167 HD
ENDBRANCH  53  55
ENDBRANCH  52  53
ENDBRANCH  51  52
ENDBRANCH  18  51
TORSDOF 16
ENDMDL
MODEL 10
REMARK VINA RESULT:      -7.7     25.769     30.342
REMARK  16 active torsions:
REMARK  status: ('A' for Active; 'I' for Inactive)
REMARK    1  A    between atoms: C_6  and  C_7 
REMARK    2  A    between atoms: C_7  and  C_8 
REMARK    3  A    between atoms: C_8  and  C_9 
REMARK    4  A    between atoms: C_9  and  O_11 
REMARK    5  A    between atoms: C_16  and  C_17 
REMARK    6  A    between atoms: C_17  and  C_18 
REMARK    7  A    between atoms: C_18  and  C_19 
REMARK    8  A    between atoms: C_19  and  O_21 
REMARK    9  A    between atoms: C_28  and  C_29 
REMARK   10  A    between atoms: C_29  and  C_30 
REMARK   11  A    between atoms: C_30  and  C_31 
REMARK   12  A    between atoms: C_31  and  O_33 
REMARK   13  A    between atoms: C_42  and  C_43 
REMARK   14  A    between atoms: C_43  and  C_44 
REMARK   15  A    between atoms: C_44  and  C_45 
REMARK   16  A    between atoms: C_45  and  O_47 
ROOT
HETATM    1  C   UNK     0      10.232   2.921  28.471  0.00  0.00     0.051 C 
HETATM    2  C   UNK     0       8.878   3.554  28.719  0.00  0.00    -0.031 A 
HETATM    3  C   UNK     0       7.652   2.950  28.948  0.00  0.00     0.021 A 
HETATM    4  N   UNK     0       6.706   3.909  29.086  0.00  0.00    -0.361 N 
HETATM    5  C   UNK     0       7.304   5.111  28.958  0.00  0.00     0.022 A 
HETATM    6  C   UNK     0       8.662   4.926  28.725  0.00  0.00    -0.027 A 
HETATM    7  C   UNK     0       6.726   6.483  29.119  0.00  0.00     0.115 C 
HETATM    8  C   UNK     0       5.779   6.691  30.287  0.00  0.00     0.021 A 
HETATM    9  N   UNK     0       5.830   6.146  31.512  0.00  0.00    -0.361 N 
HETATM   10  C   UNK     0       4.733   6.542  32.193  0.00  0.00     0.022 A 
HETATM   11  C   UNK     0       3.960   7.372  31.387  0.00  0.00    -0.027 A 
HETATM   12  C   UNK     0       4.613   7.471  30.185  0.00  0.00    -0.031 A 
HETATM   13  C   UNK     0       4.141   8.280  28.998  0.00  0.00     0.051 C 
HETATM   14  C   UNK     0       4.346   6.113  33.605  0.00  0.00     0.115 C 
HETATM   15  C   UNK     0       4.128   4.616  33.756  0.00  0.00     0.021 A 
HETATM   16  N   UNK     0       5.008   3.628  33.507  0.00  0.00    -0.361 N 
HETATM   17  C   UNK     0       4.410   2.450  33.694  0.00  0.00     0.022 A 
HETATM   18  C   UNK     0       3.078   2.680  34.093  0.00  0.00    -0.027 A 
HETATM   19  C   UNK     0       2.914   4.041  34.129  0.00  0.00    -0.031 A 
HETATM   20  C   UNK     0       1.626   4.725  34.548  0.00  0.00     0.051 C 
HETATM   21  C   UNK     0       4.935   1.048  33.480  0.00  0.00     0.115 C 
HETATM   22  C   UNK     0       5.913   0.835  32.348  0.00  0.00     0.022 A 
HETATM   23  N   UNK     0       5.889   1.368  31.119  0.00  0.00    -0.361 N 
HETATM   24  C   UNK     0       7.029   1.023  30.487  0.00  0.00     0.021 A 
HETATM   25  C   UNK     0       7.800   0.241  31.324  0.00  0.00    -0.031 A 
HETATM   26  C   UNK     0       9.138  -0.415  31.052  0.00  0.00     0.051 C 
HETATM   27  C   UNK     0       7.107   0.107  32.522  0.00  0.00    -0.027 A 
HETATM   28  C   UNK     0       7.497   1.464  29.110  0.00  0.00     0.115 C 
HETATM   29  H   UNK     0       5.616   3.728  29.234  0.00  0.00     0.165 HD
HETATM   30  H   UNK     0       6.664   5.522  31.917  0.00  0.00     0.165 HD
HETATM   31  H   UNK     0       6.088   3.765  33.240  0.00  0.00     0.165 HD
HETATM   32  H   UNK     0       5.047   1.957  30.671  0.00  0.00     0.165 HD
ENDROOT
BRANCH   6  33
HETATM   33  C   UNK     0       9.756   5.941  28.507  0.00  0.00     0.051 C 
BRANCH  33  34
HETATM   34  C   UNK     0      10.366   6.362  29.823  0.00  0.00     0.114 C 
BRANCH  34  35
HETATM   35  C   UNK     0      10.081   7.814  30.003  0.00  0.00     0.139 C 
HETATM   36  O   UNK     0       9.296   8.201  30.917  0.00  0.00    -0.650 OA
BRANCH  35  37
HETATM   37  O   UNK     0      10.651   8.794  29.200  0.00  0.00    -0.776 OA
HETATM   38  H   UNK     0      10.093   9.469  28.703  0.00  0.00     0.167 HD
ENDBRANCH  35  37
ENDBRANCH  34  35
ENDBRANCH  33  34
ENDBRANCH   6  33
BRANCH  27  39
HETATM   39  C   UNK     0       7.594  -0.732  33.651  0.00  0.00     0.051 C 
BRANCH  39  40
HETATM   40  C   UNK     0       8.664  -0.203  34.497  0.00  0.00     0.114 C 
BRANCH  40  41
HETATM   41  C   UNK     0       8.406   0.362  35.802  0.00  0.00     0.139 C 
HETATM   42  O   UNK     0       9.299   0.666  36.604  0.00  0.00    -0.650 OA
BRANCH  41  43
HETATM   43  O   UNK     0       7.058   0.588  36.203  0.00  0.00    -0.776 OA
HETATM   44  H   UNK     0       6.957   1.187  37.014  0.00  0.00     0.167 HD
ENDBRANCH  41  43
ENDBRANCH  40  41
ENDBRANCH  39  40
ENDBRANCH  27  39
BRANCH  11  45
HETATM   45  C   UNK     0       2.660   8.057  31.714  0.00  0.00     0.051 C 
BRANCH  45  46
HETATM   46  C   UNK     0       2.753   9.033  32.830  0.00  0.00     0.114 C 
BRANCH  46  47
HETATM   47  C   UNK     0       2.523  10.388  32.252  0.00  0.00     0.139 C 
HETATM   48  O   UNK     0       2.419  10.497  31.022  0.00  0.00    -0.650 OA
BRANCH  47  49
HETATM   49  O   UNK     0       2.431  11.492  33.062  0.00  0.00    -0.776 OA
HETATM   50  H   UNK     0       3.235  11.849  33.591  0.00  0.00     0.167 HD
ENDBRANCH  47  49
ENDBRANCH  46  47
ENDBRANCH  45  46
ENDBRANCH  11  45
BRANCH  18  51
HETATM   51  C   UNK     0       2.026   1.660  34.441  0.00  0.00     0.051 C 
BRANCH  51  52
HETATM   52  C   UNK     0       2.207   1.349  35.919  0.00  0.00     0.114 C 
BRANCH  52  53
HETATM   53  C   UNK     0       2.579  -0.062  36.142  0.00  0.00     0.139 C 
HETATM   54  O   UNK     0       3.612  -0.340  36.771  0.00  0.00    -0.650 OA
BRANCH  53  55
HETATM   55  O   UNK     0       1.779  -1.062  35.646  0.00  0.00    -0.776 OA
HETATM   56  H   UNK     0       1.652  -1.288  34.688  0.00  0.00     0.167 HD
ENDBRANCH  53  55
ENDBRANCH  52  53
ENDBRANCH  51  52
ENDBRANCH  18  51
TORSDOF 16
ENDMDL
MODEL 11
REMARK VINA RESULT:      -7.6     14.642     18.767
REMARK  16 active torsions:
REMARK  status: ('A' for Active; 'I' for Inactive)
REMARK    1  A    between atoms: C_6  and  C_7 
REMARK    2  A    between atoms: C_7  and  C_8 
REMARK    3  A    between atoms: C_8  and  C_9 
REMARK    4  A    between atoms: C_9  and  O_11 
REMARK    5  A    between atoms: C_16  and  C_17 
REMARK    6  A    between atoms: C_17  and  C_18 
REMARK    7  A    between atoms: C_18  and  C_19 
REMARK    8  A    between atoms: C_19  and  O_21 
REMARK    9  A    between atoms: C_28  and  C_29 
REMARK   10  A    between atoms: C_29  and  C_30 
REMARK   11  A    between atoms: C_30  and  C_31 
REMARK   12  A    between atoms: C_31  and  O_33 
REMARK   13  A    between atoms: C_42  and  C_43 
REMARK   14  A    between atoms: C_43  and  C_44 
REMARK   15  A    between atoms: C_44  and  C_45 
REMARK   16  A    between atoms: C_45  and  O_47 
ROOT
HETATM    1  C   UNK     0      21.565 -10.972  58.640  0.00  0.00     0.051 C 
HETATM    2  C   UNK     0      22.676 -10.057  59.114  0.00  0.00    -0.031 A 
HETATM    3  C   UNK     0      24.048 -10.191  58.971  0.00  0.00     0.021 A 
HETATM    4  N   UNK     0      24.659  -9.147  59.580  0.00  0.00    -0.361 N 
HETATM    5  C   UNK     0      23.706  -8.346  60.100  0.00  0.00     0.022 A 
HETATM    6  C   UNK     0      22.454  -8.887  59.830  0.00  0.00    -0.027 A 
HETATM    7  C   UNK     0      23.845  -7.024  60.787  0.00  0.00     0.115 C 
HETATM    8  C   UNK     0      24.828  -6.039  60.178  0.00  0.00     0.021 A 
HETATM    9  N   UNK     0      25.113  -5.836  58.883  0.00  0.00    -0.361 N 
HETATM   10  C   UNK     0      26.113  -4.932  58.811  0.00  0.00     0.022 A 
HETATM   11  C   UNK     0      26.476  -4.535  60.094  0.00  0.00    -0.027 A 
HETATM   12  C   UNK     0      25.670  -5.229  60.961  0.00  0.00    -0.031 A 
HETATM   13  C   UNK     0      25.705  -5.115  62.468  0.00  0.00     0.051 C 
HETATM   14  C   UNK     0      26.800  -4.447  57.537  0.00  0.00     0.115 C 
HETATM   15  C   UNK     0      27.490  -5.551  56.751  0.00  0.00     0.021 A 
HETATM   16  N   UNK     0      26.935  -6.665  56.239  0.00  0.00    -0.361 N 
HETATM   17  C   UNK     0      27.889  -7.414  55.682  0.00  0.00     0.022 A 
HETATM   18  C   UNK     0      29.123  -6.752  55.830  0.00  0.00    -0.027 A 
HETATM   19  C   UNK     0      28.860  -5.586  56.500  0.00  0.00    -0.031 A 
HETATM   20  C   UNK     0      29.916  -4.549  56.837  0.00  0.00     0.051 C 
HETATM   21  C   UNK     0      27.801  -8.780  55.040  0.00  0.00     0.115 C 
HETATM   22  C   UNK     0      26.796  -9.754  55.608  0.00  0.00     0.022 A 
HETATM   23  N   UNK     0      26.488  -9.975  56.892  0.00  0.00    -0.361 N 
HETATM   24  C   UNK     0      25.438 -10.820  56.937  0.00  0.00     0.021 A 
HETATM   25  C   UNK     0      25.067 -11.159  55.651  0.00  0.00    -0.031 A 
HETATM   26  C   UNK     0      23.975 -12.103  55.191  0.00  0.00     0.051 C 
HETATM   27  C   UNK     0      25.921 -10.489  54.782  0.00  0.00    -0.027 A 
HETATM   28  C   UNK     0      24.677 -11.291  58.164  0.00  0.00     0.115 C 
HETATM   29  H   UNK     0      25.761  -9.004  59.672  0.00  0.00     0.165 HD
HETATM   30  H   UNK     0      24.576  -6.291  58.015  0.00  0.00     0.165 HD
HETATM   31  H   UNK     0      25.840  -6.906  56.228  0.00  0.00     0.165 HD
HETATM   32  H   UNK     0      27.038  -9.571  57.782  0.00  0.00     0.165 HD
ENDROOT
BRANCH   6  33
HETATM   33  C   UNK     0      21.080  -8.385  60.197  0.00  0.00     0.051 C 
BRANCH  33  34
HETATM   34  C   UNK     0      20.670  -8.894  61.558  0.00  0.00     0.114 C 
BRANCH  34  35
HETATM   35  C   UNK     0      19.297  -9.461  61.428  0.00  0.00     0.139 C 
HETATM   36  O   UNK     0      18.666  -9.843  62.456  0.00  0.00    -0.650 OA
BRANCH  35  37
HETATM   37  O   UNK     0      18.655  -9.595  60.203  0.00  0.00    -0.776 OA
HETATM   38  H   UNK     0      18.960  -9.097  59.382  0.00  0.00     0.167 HD
ENDBRANCH  35  37
ENDBRANCH  34  35
ENDBRANCH  33  34
ENDBRANCH   6  33
BRANCH  27  39
HETATM   39  C   UNK     0      25.874 -10.663  53.305  0.00  0.00     0.051 C 
BRANCH  39  40
HETATM   40  C   UNK     0      25.446  -9.528  52.486  0.00  0.00     0.114 C 
BRANCH  40  41
HETATM   41  C   UNK     0      26.144  -9.141  51.281  0.00  0.00     0.139 C 
HETATM   42  O   UNK     0      27.376  -9.037  51.208  0.00  0.00    -0.650 OA
BRANCH  41  43
HETATM   43  O   UNK     0      25.391  -8.862  50.105  0.00  0.00    -0.776 OA
HETATM   44  H   UNK     0      24.565  -9.437  49.990  0.00  0.00     0.167 HD
ENDBRANCH  41  43
ENDBRANCH  40  41
ENDBRANCH  39  40
ENDBRANCH  27  39
BRANCH  11  45
HETATM   45  C   UNK     0      27.530  -3.546  60.512  0.00  0.00     0.051 C 
BRANCH  45  46
HETATM   46  C   UNK     0      26.995  -2.213  60.891  0.00  0.00     0.114 C 
BRANCH  46  47
HETATM   47  C   UNK     0      27.315  -1.275  59.777  0.00  0.00     0.139 C 
HETATM   48  O   UNK     0      26.403  -0.927  59.015  0.00  0.00    -0.650 OA
BRANCH  47  49
HETATM   49  O   UNK     0      28.593  -0.808  59.598  0.00  0.00    -0.776 OA
HETATM   50  H   UNK     0      29.270  -1.290  58.996  0.00  0.00     0.167 HD
ENDBRANCH  47  49
ENDBRANCH  46  47
ENDBRANCH  45  46
ENDBRANCH  11  45
BRANCH  18  51
HETATM   51  C   UNK     0      30.477  -7.196  55.340  0.00  0.00     0.051 C 
BRANCH  51  52
HETATM   52  C   UNK     0      31.016  -8.157  56.389  0.00  0.00     0.114 C 
BRANCH  52  53
HETATM   53  C   UNK     0      32.136  -7.570  57.149  0.00  0.00     0.139 C 
HETATM   54  O   UNK     0      31.977  -7.238  58.335  0.00  0.00    -0.650 OA
BRANCH  53  55
HETATM   55  O   UNK     0      33.352  -7.391  56.536  0.00  0.00    -0.776 OA
HETATM   56  H   UNK     0      33.616  -6.614  55.977  0.00  0.00     0.167 HD
ENDBRANCH  53  55
ENDBRANCH  52  53
ENDBRANCH  51  52
ENDBRANCH  18  51
TORSDOF 16
ENDMDL
MODEL 12
REMARK VINA RESULT:      -7.5     15.645     20.253
REMARK  16 active torsions:
REMARK  status: ('A' for Active; 'I' for Inactive)
REMARK    1  A    between atoms: C_6  and  C_7 
REMARK    2  A    between atoms: C_7  and  C_8 
REMARK    3  A    between atoms: C_8  and  C_9 
REMARK    4  A    between atoms: C_9  and  O_11 
REMARK    5  A    between atoms: C_16  and  C_17 
REMARK    6  A    between atoms: C_17  and  C_18 
REMARK    7  A    between atoms: C_18  and  C_19 
REMARK    8  A    between atoms: C_19  and  O_21 
REMARK    9  A    between atoms: C_28  and  C_29 
REMARK   10  A    between atoms: C_29  and  C_30 
REMARK   11  A    between atoms: C_30  and  C_31 
REMARK   12  A    between atoms: C_31  and  O_33 
REMARK   13  A    between atoms: C_42  and  C_43 
REMARK   14  A    between atoms: C_43  and  C_44 
REMARK   15  A    between atoms: C_44  and  C_45 
REMARK   16  A    between atoms: C_45  and  O_47 
ROOT
HETATM    1  C   UNK     0      27.488  -2.657  60.026  0.00  0.00     0.051 C 
HETATM    2  C   UNK     0      26.361  -3.640  59.777  0.00  0.00    -0.031 A 
HETATM    3  C   UNK     0      25.921  -4.189  58.583  0.00  0.00     0.021 A 
HETATM    4  N   UNK     0      24.863  -4.996  58.832  0.00  0.00    -0.361 N 
HETATM    5  C   UNK     0      24.625  -4.980  60.160  0.00  0.00     0.022 A 
HETATM    6  C   UNK     0      25.542  -4.139  60.781  0.00  0.00    -0.027 A 
HETATM    7  C   UNK     0      23.634  -5.767  60.959  0.00  0.00     0.115 C 
HETATM    8  C   UNK     0      23.480  -7.235  60.599  0.00  0.00     0.021 A 
HETATM    9  N   UNK     0      24.422  -8.098  60.190  0.00  0.00    -0.361 N 
HETATM   10  C   UNK     0      23.817  -9.269  59.895  0.00  0.00     0.022 A 
HETATM   11  C   UNK     0      22.450  -9.159  60.130  0.00  0.00    -0.027 A 
HETATM   12  C   UNK     0      22.231  -7.880  60.574  0.00  0.00    -0.031 A 
HETATM   13  C   UNK     0      20.885  -7.308  60.961  0.00  0.00     0.051 C 
HETATM   14  C   UNK     0      24.494 -10.516  59.332  0.00  0.00     0.115 C 
HETATM   15  C   UNK     0      25.152 -10.301  57.978  0.00  0.00     0.021 A 
HETATM   16  N   UNK     0      26.121  -9.419  57.667  0.00  0.00    -0.361 N 
HETATM   17  C   UNK     0      26.377  -9.493  56.359  0.00  0.00     0.022 A 
HETATM   18  C   UNK     0      25.542 -10.477  55.793  0.00  0.00    -0.027 A 
HETATM   19  C   UNK     0      24.781 -10.976  56.818  0.00  0.00    -0.031 A 
HETATM   20  C   UNK     0      23.765 -12.091  56.648  0.00  0.00     0.051 C 
HETATM   21  C   UNK     0      27.318  -8.674  55.506  0.00  0.00     0.115 C 
HETATM   22  C   UNK     0      27.515  -7.223  55.879  0.00  0.00     0.022 A 
HETATM   23  N   UNK     0      26.596  -6.341  56.294  0.00  0.00    -0.361 N 
HETATM   24  C   UNK     0      27.231  -5.208  56.656  0.00  0.00     0.021 A 
HETATM   25  C   UNK     0      28.590  -5.360  56.459  0.00  0.00    -0.031 A 
HETATM   26  C   UNK     0      29.703  -4.357  56.680  0.00  0.00     0.051 C 
HETATM   27  C   UNK     0      28.796  -6.642  55.962  0.00  0.00    -0.027 A 
HETATM   28  C   UNK     0      26.624  -3.960  57.275  0.00  0.00     0.115 C 
HETATM   29  H   UNK     0      24.267  -5.541  58.064  0.00  0.00     0.165 HD
HETATM   30  H   UNK     0      25.521  -7.900  60.155  0.00  0.00     0.165 HD
HETATM   31  H   UNK     0      26.669  -8.764  58.393  0.00  0.00     0.165 HD
HETATM   32  H   UNK     0      25.486  -6.495  56.295  0.00  0.00     0.165 HD
ENDROOT
BRANCH   6  33
HETATM   33  C   UNK     0      25.696  -3.777  62.236  0.00  0.00     0.051 C 
BRANCH  33  34
HETATM   34  C   UNK     0      24.531  -2.938  62.705  0.00  0.00     0.114 C 
BRANCH  34  35
HETATM   35  C   UNK     0      24.927  -1.507  62.570  0.00  0.00     0.139 C 
HETATM   36  O   UNK     0      24.073  -0.638  62.229  0.00  0.00    -0.650 OA
BRANCH  35  37
HETATM   37  O   UNK     0      26.222  -1.063  62.808  0.00  0.00    -0.776 OA
HETATM   38  H   UNK     0      26.948  -1.133  62.112  0.00  0.00     0.167 HD
ENDBRANCH  35  37
ENDBRANCH  34  35
ENDBRANCH  33  34
ENDBRANCH   6  33
BRANCH  27  39
HETATM   39  C   UNK     0      30.136  -7.149  55.560  0.00  0.00     0.051 C 
BRANCH  39  40
HETATM   40  C   UNK     0      30.964  -7.803  56.573  0.00  0.00     0.114 C 
BRANCH  40  41
HETATM   41  C   UNK     0      30.762  -9.181  56.961  0.00  0.00     0.139 C 
HETATM   42  O   UNK     0      31.424 -10.123  56.507  0.00  0.00    -0.650 OA
BRANCH  41  43
HETATM   43  O   UNK     0      29.750  -9.488  57.915  0.00  0.00    -0.776 OA
HETATM   44  H   UNK     0      30.017  -9.318  58.878  0.00  0.00     0.167 HD
ENDBRANCH  41  43
ENDBRANCH  40  41
ENDBRANCH  39  40
ENDBRANCH  27  39
BRANCH  11  45
HETATM   45  C   UNK     0      21.378 -10.200  59.954  0.00  0.00     0.051 C 
BRANCH  45  46
HETATM   46  C   UNK     0      20.894 -10.343  58.557  0.00  0.00     0.114 C 
BRANCH  46  47
HETATM   47  C   UNK     0      19.434 -10.042  58.563  0.00  0.00     0.139 C 
HETATM   48  O   UNK     0      18.830 -10.021  57.481  0.00  0.00    -0.650 OA
BRANCH  47  49
HETATM   49  O   UNK     0      18.772  -9.792  59.738  0.00  0.00    -0.776 OA
HETATM   50  H   UNK     0      19.254  -9.427  60.568  0.00  0.00     0.167 HD
ENDBRANCH  47  49
ENDBRANCH  46  47
ENDBRANCH  45  46
ENDBRANCH  11  45
BRANCH  18  51
HETATM   51  C   UNK     0      25.488 -10.931  54.357  0.00  0.00     0.051 C 
BRANCH  51  52
HETATM   52  C   UNK     0      24.139 -10.479  53.818  0.00  0.00     0.114 C 
BRANCH  52  53
HETATM   53  C   UNK     0      24.063  -9.012  53.688  0.00  0.00     0.139 C 
HETATM   54  O   UNK     0      24.884  -8.407  52.980  0.00  0.00    -0.650 OA
BRANCH  53  55
HETATM   55  O   UNK     0      23.081  -8.320  54.356  0.00  0.00    -0.776 OA
HETATM   56  H   UNK     0      22.738  -8.526  55.264  0.00  0.00     0.167 HD
ENDBRANCH  53  55
ENDBRANCH  52  53
ENDBRANCH  51  52
ENDBRANCH  18  51
TORSDOF 16
ENDMDL
MODEL 13
REMARK VINA RESULT:      -7.4     14.697     17.933
REMARK  16 active torsions:
REMARK  status: ('A' for Active; 'I' for Inactive)
REMARK    1  A    between atoms: C_6  and  C_7 
REMARK    2  A    between atoms: C_7  and  C_8 
REMARK    3  A    between atoms: C_8  and  C_9 
REMARK    4  A    between atoms: C_9  and  O_11 
REMARK    5  A    between atoms: C_16  and  C_17 
REMARK    6  A    between atoms: C_17  and  C_18 
REMARK    7  A    between atoms: C_18  and  C_19 
REMARK    8  A    between atoms: C_19  and  O_21 
REMARK    9  A    between atoms: C_28  and  C_29 
REMARK   10  A    between atoms: C_29  and  C_30 
REMARK   11  A    between atoms: C_30  and  C_31 
REMARK   12  A    between atoms: C_31  and  O_33 
REMARK   13  A    between atoms: C_42  and  C_43 
REMARK   14  A    between atoms: C_43  and  C_44 
REMARK   15  A    between atoms: C_44  and  C_45 
REMARK   16  A    between atoms: C_45  and  O_47 
ROOT
HETATM    1  C   UNK     0      12.505  -3.575  45.812  0.00  0.00     0.051 C 
HETATM    2  C   UNK     0      13.111  -4.886  46.271  0.00  0.00    -0.031 A 
HETATM    3  C   UNK     0      13.442  -6.010  45.530  0.00  0.00     0.021 A 
HETATM    4  N   UNK     0      13.928  -6.960  46.363  0.00  0.00    -0.361 N 
HETATM    5  C   UNK     0      13.921  -6.464  47.618  0.00  0.00     0.022 A 
HETATM    6  C   UNK     0      13.413  -5.170  47.597  0.00  0.00    -0.027 A 
HETATM    7  C   UNK     0      14.439  -7.071  48.884  0.00  0.00     0.115 C 
HETATM    8  C   UNK     0      15.778  -7.782  48.802  0.00  0.00     0.021 A 
HETATM    9  N   UNK     0      16.849  -7.463  48.058  0.00  0.00    -0.361 N 
HETATM   10  C   UNK     0      17.781  -8.425  48.231  0.00  0.00     0.022 A 
HETATM   11  C   UNK     0      17.300  -9.384  49.118  0.00  0.00    -0.027 A 
HETATM   12  C   UNK     0      16.039  -8.985  49.481  0.00  0.00    -0.031 A 
HETATM   13  C   UNK     0      15.131  -9.722  50.440  0.00  0.00     0.051 C 
HETATM   14  C   UNK     0      19.134  -8.506  47.530  0.00  0.00     0.115 C 
HETATM   15  C   UNK     0      19.038  -8.611  46.016  0.00  0.00     0.021 A 
HETATM   16  N   UNK     0      18.452  -7.745  45.169  0.00  0.00    -0.361 N 
HETATM   17  C   UNK     0      18.520  -8.231  43.928  0.00  0.00     0.022 A 
HETATM   18  C   UNK     0      19.191  -9.470  43.967  0.00  0.00    -0.027 A 
HETATM   19  C   UNK     0      19.511  -9.695  45.281  0.00  0.00    -0.031 A 
HETATM   20  C   UNK     0      20.279 -10.911  45.765  0.00  0.00     0.051 C 
HETATM   21  C   UNK     0      17.954  -7.684  42.637  0.00  0.00     0.115 C 
HETATM   22  C   UNK     0      16.644  -6.937  42.711  0.00  0.00     0.022 A 
HETATM   23  N   UNK     0      15.562  -7.228  43.445  0.00  0.00    -0.361 N 
HETATM   24  C   UNK     0      14.679  -6.218  43.318  0.00  0.00     0.021 A 
HETATM   25  C   UNK     0      15.200  -5.257  42.473  0.00  0.00    -0.031 A 
HETATM   26  C   UNK     0      14.570  -3.965  41.994  0.00  0.00     0.051 C 
HETATM   27  C   UNK     0      16.457  -5.695  42.071  0.00  0.00    -0.027 A 
HETATM   28  C   UNK     0      13.348  -6.051  44.031  0.00  0.00     0.115 C 
HETATM   29  H   UNK     0      14.235  -7.989  46.064  0.00  0.00     0.165 HD
HETATM   30  H   UNK     0      16.971  -6.535  47.449  0.00  0.00     0.165 HD
HETATM   31  H   UNK     0      18.023  -6.746  45.445  0.00  0.00     0.165 HD
HETATM   32  H   UNK     0      15.394  -8.172  44.027  0.00  0.00     0.165 HD
ENDROOT
BRANCH   6  33
HETATM   33  C   UNK     0      13.194  -4.195  48.726  0.00  0.00     0.051 C 
BRANCH  33  34
HETATM   34  C   UNK     0      11.747  -4.195  49.160  0.00  0.00     0.114 C 
BRANCH  34  35
HETATM   35  C   UNK     0      11.646  -5.049  50.378  0.00  0.00     0.139 C 
HETATM   36  O   UNK     0      11.258  -6.250  50.283  0.00  0.00    -0.650 OA
BRANCH  35  37
HETATM   37  O   UNK     0      11.967  -4.585  51.647  0.00  0.00    -0.776 OA
HETATM   38  H   UNK     0      11.263  -4.407  52.346  0.00  0.00     0.167 HD
ENDBRANCH  35  37
ENDBRANCH  34  35
ENDBRANCH  33  34
ENDBRANCH   6  33
BRANCH  27  39
HETATM   39  C   UNK     0      17.300  -4.952  41.095  0.00  0.00     0.051 C 
BRANCH  39  40
HETATM   40  C   UNK     0      17.575  -5.575  39.801  0.00  0.00     0.114 C 
BRANCH  40  41
HETATM   41  C   UNK     0      18.856  -5.452  39.143  0.00  0.00     0.139 C 
HETATM   42  O   UNK     0      19.368  -6.355  38.467  0.00  0.00    -0.650 OA
BRANCH  41  43
HETATM   43  O   UNK     0      19.582  -4.233  39.268  0.00  0.00    -0.776 OA
HETATM   44  H   UNK     0      20.131  -4.157  40.116  0.00  0.00     0.167 HD
ENDBRANCH  41  43
ENDBRANCH  40  41
ENDBRANCH  39  40
ENDBRANCH  27  39
BRANCH  11  45
HETATM   45  C   UNK     0      17.981 -10.630  49.618  0.00  0.00     0.051 C 
BRANCH  45  46
HETATM   46  C   UNK     0      18.718 -10.446  50.895  0.00  0.00     0.114 C 
BRANCH  46  47
HETATM   47  C   UNK     0      20.157 -10.261  50.551  0.00  0.00     0.139 C 
HETATM   48  O   UNK     0      20.747 -11.175  49.957  0.00  0.00    -0.650 OA
BRANCH  47  49
HETATM   49  O   UNK     0      20.816  -9.105  50.886  0.00  0.00    -0.776 OA
HETATM   50  H   UNK     0      21.325  -9.005  51.773  0.00  0.00     0.167 HD
ENDBRANCH  47  49
ENDBRANCH  46  47
ENDBRANCH  45  46
ENDBRANCH  11  45
BRANCH  18  51
HETATM   51  C   UNK     0      19.528 -10.378  42.813  0.00  0.00     0.051 C 
BRANCH  51  52
HETATM   52  C   UNK     0      20.810  -9.833  42.202  0.00  0.00     0.114 C 
BRANCH  52  53
HETATM   53  C   UNK     0      20.678  -9.620  40.747  0.00  0.00     0.139 C 
HETATM   54  O   UNK     0      20.692 -10.591  39.974  0.00  0.00    -0.650 OA
BRANCH  53  55
HETATM   55  O   UNK     0      20.543  -8.344  40.257  0.00  0.00    -0.776 OA
HETATM   56  H   UNK     0      21.103  -7.562  40.502  0.00  0.00     0.167 HD
ENDBRANCH  53  55
ENDBRANCH  52  53
ENDBRANCH  51  52
ENDBRANCH  18  51
TORSDOF 16
ENDMDL
MODEL 14
REMARK VINA RESULT:      -7.3     16.874     19.671
REMARK  16 active torsions:
REMARK  status: ('A' for Active; 'I' for Inactive)
REMARK    1  A    between atoms: C_6  and  C_7 
REMARK    2  A    between atoms: C_7  and  C_8 
REMARK    3  A    between atoms: C_8  and  C_9 
REMARK    4  A    between atoms: C_9  and  O_11 
REMARK    5  A    between atoms: C_16  and  C_17 
REMARK    6  A    between atoms: C_17  and  C_18 
REMARK    7  A    between atoms: C_18  and  C_19 
REMARK    8  A    between atoms: C_19  and  O_21 
REMARK    9  A    between atoms: C_28  and  C_29 
REMARK   10  A    between atoms: C_29  and  C_30 
REMARK   11  A    between atoms: C_30  and  C_31 
REMARK   12  A    between atoms: C_31  and  O_33 
REMARK   13  A    between atoms: C_42  and  C_43 
REMARK   14  A    between atoms: C_43  and  C_44 
REMARK   15  A    between atoms: C_44  and  C_45 
REMARK   16  A    between atoms: C_45  and  O_47 
ROOT
HETATM    1  C   UNK     0      14.549 -11.571  53.001  0.00  0.00     0.051 C 
HETATM    2  C   UNK     0      15.131 -11.423  51.610  0.00  0.00    -0.031 A 
HETATM    3  C   UNK     0      14.514 -11.015  50.438  0.00  0.00     0.021 A 
HETATM    4  N   UNK     0      15.413 -11.064  49.426  0.00  0.00    -0.361 N 
HETATM    5  C   UNK     0      16.592 -11.485  49.930  0.00  0.00     0.022 A 
HETATM    6  C   UNK     0      16.449 -11.722  51.294  0.00  0.00    -0.027 A 
HETATM    7  C   UNK     0      17.922 -11.620  49.257  0.00  0.00     0.115 C 
HETATM    8  C   UNK     0      18.329 -10.495  48.322  0.00  0.00     0.021 A 
HETATM    9  N   UNK     0      18.085  -9.181  48.439  0.00  0.00    -0.361 N 
HETATM   10  C   UNK     0      18.553  -8.567  47.331  0.00  0.00     0.022 A 
HETATM   11  C   UNK     0      19.122  -9.511  46.481  0.00  0.00    -0.027 A 
HETATM   12  C   UNK     0      18.985 -10.728  47.099  0.00  0.00    -0.031 A 
HETATM   13  C   UNK     0      19.465 -12.050  46.544  0.00  0.00     0.051 C 
HETATM   14  C   UNK     0      18.435  -7.081  47.006  0.00  0.00     0.115 C 
HETATM   15  C   UNK     0      17.001  -6.585  46.903  0.00  0.00     0.021 A 
HETATM   16  N   UNK     0      16.045  -6.635  47.848  0.00  0.00    -0.361 N 
HETATM   17  C   UNK     0      14.903  -6.162  47.343  0.00  0.00     0.022 A 
HETATM   18  C   UNK     0      15.130  -5.776  46.007  0.00  0.00    -0.027 A 
HETATM   19  C   UNK     0      16.448  -6.045  45.744  0.00  0.00    -0.031 A 
HETATM   20  C   UNK     0      17.122  -5.744  44.418  0.00  0.00     0.051 C 
HETATM   21  C   UNK     0      13.529  -6.070  47.966  0.00  0.00     0.115 C 
HETATM   22  C   UNK     0      13.127  -7.160  48.932  0.00  0.00     0.022 A 
HETATM   23  N   UNK     0      13.360  -8.476  48.843  0.00  0.00    -0.361 N 
HETATM   24  C   UNK     0      12.956  -9.056  49.991  0.00  0.00     0.021 A 
HETATM   25  C   UNK     0      12.441  -8.092  50.836  0.00  0.00    -0.031 A 
HETATM   26  C   UNK     0      11.831  -8.258  52.212  0.00  0.00     0.051 C 
HETATM   27  C   UNK     0      12.539  -6.870  50.180  0.00  0.00    -0.027 A 
HETATM   28  C   UNK     0      13.099 -10.513  50.396  0.00  0.00     0.115 C 
HETATM   29  H   UNK     0      15.199 -10.838  48.356  0.00  0.00     0.165 HD
HETATM   30  H   UNK     0      17.628  -8.676  49.325  0.00  0.00     0.165 HD
HETATM   31  H   UNK     0      16.188  -6.967  48.910  0.00  0.00     0.165 HD
HETATM   32  H   UNK     0      13.772  -9.014  47.950  0.00  0.00     0.165 HD
ENDROOT
BRANCH   6  33
HETATM   33  C   UNK     0      17.458 -12.206  52.305  0.00  0.00     0.051 C 
BRANCH  33  34
HETATM   34  C   UNK     0      18.105 -11.041  53.016  0.00  0.00     0.114 C 
BRANCH  34  35
HETATM   35  C   UNK     0      19.298 -10.638  52.218  0.00  0.00     0.139 C 
HETATM   36  O   UNK     0      20.295 -11.412  52.128  0.00  0.00    -0.650 OA
BRANCH  35  37
HETATM   37  O   UNK     0      19.375  -9.424  51.547  0.00  0.00    -0.776 OA
HETATM   38  H   UNK     0      20.256  -9.011  51.288  0.00  0.00     0.167 HD
ENDBRANCH  35  37
ENDBRANCH  34  35
ENDBRANCH  33  34
ENDBRANCH   6  33
BRANCH  27  39
HETATM   39  C   UNK     0      12.018  -5.599  50.752  0.00  0.00     0.051 C 
BRANCH  39  40
HETATM   40  C   UNK     0      10.739  -5.089  50.258  0.00  0.00     0.114 C 
BRANCH  40  41
HETATM   41  C   UNK     0      10.655  -4.145  49.167  0.00  0.00     0.139 C 
HETATM   42  O   UNK     0      10.165  -4.418  48.062  0.00  0.00    -0.650 OA
BRANCH  41  43
HETATM   43  O   UNK     0      11.158  -2.826  49.354  0.00  0.00    -0.776 OA
HETATM   44  H   UNK     0      10.850  -2.378  50.209  0.00  0.00     0.167 HD
ENDBRANCH  41  43
ENDBRANCH  40  41
ENDBRANCH  39  40
ENDBRANCH  27  39
BRANCH  11  45
HETATM   45  C   UNK     0      19.775  -9.300  45.142  0.00  0.00     0.051 C 
BRANCH  45  46
HETATM   46  C   UNK     0      18.874  -8.722  44.113  0.00  0.00     0.114 C 
BRANCH  46  47
HETATM   47  C   UNK     0      17.754  -9.686  43.914  0.00  0.00     0.139 C 
HETATM   48  O   UNK     0      18.007 -10.794  43.421  0.00  0.00    -0.650 OA
BRANCH  47  49
HETATM   49  O   UNK     0      16.470  -9.355  44.267  0.00  0.00    -0.776 OA
HETATM   50  H   UNK     0      16.135  -8.385  44.254  0.00  0.00     0.167 HD
ENDBRANCH  47  49
ENDBRANCH  46  47
ENDBRANCH  45  46
ENDBRANCH  11  45
BRANCH  18  51
HETATM   51  C   UNK     0      14.149  -5.165  45.040  0.00  0.00     0.051 C 
BRANCH  51  52
HETATM   52  C   UNK     0      14.332  -3.658  45.143  0.00  0.00     0.114 C 
BRANCH  52  53
HETATM   53  C   UNK     0      13.048  -2.961  45.351  0.00  0.00     0.139 C 
HETATM   54  O   UNK     0      12.552  -2.286  44.435  0.00  0.00    -0.650 OA
BRANCH  53  55
HETATM   55  O   UNK     0      12.409  -3.061  46.563  0.00  0.00    -0.776 OA
HETATM   56  H   UNK     0      12.122  -2.303  47.136  0.00  0.00     0.167 HD
ENDBRANCH  53  55
ENDBRANCH  52  53
ENDBRANCH  51  52
ENDBRANCH  18  51
TORSDOF 16
ENDMDL
MODEL 15
REMARK VINA RESULT:      -7.3     27.264     32.317
REMARK  16 active torsions:
REMARK  status: ('A' for Active; 'I' for Inactive)
REMARK    1  A    between atoms: C_6  and  C_7 
REMARK    2  A    between atoms: C_7  and  C_8 
REMARK    3  A    between atoms: C_8  and  C_9 
REMARK    4  A    between atoms: C_9  and  O_11 
REMARK    5  A    between atoms: C_16  and  C_17 
REMARK    6  A    between atoms: C_17  and  C_18 
REMARK    7  A    between atoms: C_18  and  C_19 
REMARK    8  A    between atoms: C_19  and  O_21 
REMARK    9  A    between atoms: C_28  and  C_29 
REMARK   10  A    between atoms: C_29  and  C_30 
REMARK   11  A    between atoms: C_30  and  C_31 
REMARK   12  A    between atoms: C_31  and  O_33 
REMARK   13  A    between atoms: C_42  and  C_43 
REMARK   14  A    between atoms: C_43  and  C_44 
REMARK   15  A    between atoms: C_44  and  C_45 
REMARK   16  A    between atoms: C_45  and  O_47 
ROOT
HETATM    1  C   UNK     0      35.950  24.801  60.332  0.00  0.00     0.051 C 
HETATM    2  C   UNK     0      34.660  24.228  59.782  0.00  0.00    -0.031 A 
HETATM    3  C   UNK     0      34.445  23.039  59.102  0.00  0.00     0.021 A 
HETATM    4  N   UNK     0      33.135  22.951  58.771  0.00  0.00    -0.361 N 
HETATM    5  C   UNK     0      32.509  24.052  59.233  0.00  0.00     0.022 A 
HETATM    6  C   UNK     0      33.434  24.874  59.869  0.00  0.00    -0.027 A 
HETATM    7  C   UNK     0      31.052  24.398  59.214  0.00  0.00     0.115 C 
HETATM    8  C   UNK     0      30.082  23.280  59.556  0.00  0.00     0.021 A 
HETATM    9  N   UNK     0      30.233  22.284  60.442  0.00  0.00    -0.361 N 
HETATM   10  C   UNK     0      29.159  21.472  60.346  0.00  0.00     0.022 A 
HETATM   11  C   UNK     0      28.288  21.964  59.378  0.00  0.00    -0.027 A 
HETATM   12  C   UNK     0      28.864  23.103  58.876  0.00  0.00    -0.031 A 
HETATM   13  C   UNK     0      28.268  23.981  57.799  0.00  0.00     0.051 C 
HETATM   14  C   UNK     0      28.937  20.176  61.122  0.00  0.00     0.115 C 
HETATM   15  C   UNK     0      29.995  19.116  60.866  0.00  0.00     0.021 A 
HETATM   16  N   UNK     0      31.323  19.215  61.066  0.00  0.00    -0.361 N 
HETATM   17  C   UNK     0      31.914  18.092  60.652  0.00  0.00     0.022 A 
HETATM   18  C   UNK     0      30.923  17.215  60.168  0.00  0.00    -0.027 A 
HETATM   19  C   UNK     0      29.726  17.868  60.308  0.00  0.00    -0.031 A 
HETATM   20  C   UNK     0      28.385  17.260  59.938  0.00  0.00     0.051 C 
HETATM   21  C   UNK     0      33.381  17.731  60.593  0.00  0.00     0.115 C 
HETATM   22  C   UNK     0      34.361  18.842  60.298  0.00  0.00     0.022 A 
HETATM   23  N   UNK     0      34.236  19.849  59.424  0.00  0.00    -0.361 N 
HETATM   24  C   UNK     0      35.279  20.687  59.591  0.00  0.00     0.021 A 
HETATM   25  C   UNK     0      36.101  20.203  60.590  0.00  0.00    -0.031 A 
HETATM   26  C   UNK     0      37.407  20.769  61.108  0.00  0.00     0.051 C 
HETATM   27  C   UNK     0      35.535  19.022  61.058  0.00  0.00    -0.027 A 
HETATM   28  C   UNK     0      35.525  22.015  58.895  0.00  0.00     0.115 C 
HETATM   29  H   UNK     0      32.670  22.129  58.179  0.00  0.00     0.165 HD
HETATM   30  H   UNK     0      31.072  22.179  61.172  0.00  0.00     0.165 HD
HETATM   31  H   UNK     0      31.850  20.077  61.553  0.00  0.00     0.165 HD
HETATM   32  H   UNK     0      33.432  19.955  58.649  0.00  0.00     0.165 HD
ENDROOT
BRANCH   6  33
HETATM   33  C   UNK     0      33.244  26.210  60.541  0.00  0.00     0.051 C 
BRANCH  33  34
HETATM   34  C   UNK     0      32.937  27.283  59.522  0.00  0.00     0.114 C 
BRANCH  34  35
HETATM   35  C   UNK     0      34.190  28.061  59.303  0.00  0.00     0.139 C 
HETATM   36  O   UNK     0      34.781  28.607  60.280  0.00  0.00    -0.650 OA
BRANCH  35  37
HETATM   37  O   UNK     0      34.762  28.221  58.046  0.00  0.00    -0.776 OA
HETATM   38  H   UNK     0      35.748  28.090  57.887  0.00  0.00     0.167 HD
ENDBRANCH  35  37
ENDBRANCH  34  35
ENDBRANCH  33  34
ENDBRANCH   6  33
BRANCH  27  39
HETATM   39  C   UNK     0      36.178  18.170  62.095  0.00  0.00     0.051 C 
BRANCH  39  40
HETATM   40  C   UNK     0      36.869  16.955  61.664  0.00  0.00     0.114 C 
BRANCH  40  41
HETATM   41  C   UNK     0      36.894  16.532  60.282  0.00  0.00     0.139 C 
HETATM   42  O   UNK     0      37.676  16.994  59.440  0.00  0.00    -0.650 OA
BRANCH  41  43
HETATM   43  O   UNK     0      35.978  15.532  59.848  0.00  0.00    -0.776 OA
HETATM   44  H   UNK     0      36.165  15.165  58.923  0.00  0.00     0.167 HD
ENDBRANCH  41  43
ENDBRANCH  40  41
ENDBRANCH  39  40
ENDBRANCH  27  39
BRANCH  11  45
HETATM   45  C   UNK     0      26.965  21.404  58.930  0.00  0.00     0.051 C 
BRANCH  45  46
HETATM   46  C   UNK     0      26.991  20.799  57.574  0.00  0.00     0.114 C 
BRANCH  46  47
HETATM   47  C   UNK     0      26.318  19.472  57.669  0.00  0.00     0.139 C 
HETATM   48  O   UNK     0      25.241  19.396  58.278  0.00  0.00    -0.650 OA
BRANCH  47  49
HETATM   49  O   UNK     0      26.878  18.357  57.097  0.00  0.00    -0.776 OA
HETATM   50  H   UNK     0      27.772  18.394  56.595  0.00  0.00     0.167 HD
ENDBRANCH  47  49
ENDBRANCH  46  47
ENDBRANCH  45  46
ENDBRANCH  11  45
BRANCH  18  51
HETATM   51  C   UNK     0      31.105  15.823  59.621  0.00  0.00     0.051 C 
BRANCH  51  52
HETATM   52  C   UNK     0      31.238  14.906  60.827  0.00  0.00     0.114 C 
BRANCH  52  53
HETATM   53  C   UNK     0      32.324  13.921  60.651  0.00  0.00     0.139 C 
HETATM   54  O   UNK     0      33.489  14.219  60.959  0.00  0.00    -0.650 OA
BRANCH  53  55
HETATM   55  O   UNK     0      32.037  12.677  60.144  0.00  0.00    -0.776 OA
HETATM   56  H   UNK     0      31.131  12.314  59.964  0.00  0.00     0.167 HD
ENDBRANCH  53  55
ENDBRANCH  52  53
ENDBRANCH  51  52
ENDBRANCH  18  51
TORSDOF 16
ENDMDL
MODEL 16
REMARK VINA RESULT:      -7.3     45.018     47.920
REMARK  16 active torsions:
REMARK  status: ('A' for Active; 'I' for Inactive)
REMARK    1  A    between atoms: C_6  and  C_7 
REMARK    2  A    between atoms: C_7  and  C_8 
REMARK    3  A    between atoms: C_8  and  C_9 
REMARK    4  A    between atoms: C_9  and  O_11 
REMARK    5  A    between atoms: C_16  and  C_17 
REMARK    6  A    between atoms: C_17  and  C_18 
REMARK    7  A    between atoms: C_18  and  C_19 
REMARK    8  A    between atoms: C_19  and  O_21 
REMARK    9  A    between atoms: C_28  and  C_29 
REMARK   10  A    between atoms: C_29  and  C_30 
REMARK   11  A    between atoms: C_30  and  C_31 
REMARK   12  A    between atoms: C_31  and  O_33 
REMARK   13  A    between atoms: C_42  and  C_43 
REMARK   14  A    between atoms: C_43  and  C_44 
REMARK   15  A    between atoms: C_44  and  C_45 
REMARK   16  A    between atoms: C_45  and  O_47 
ROOT
HETATM    1  C   UNK     0      -9.501  14.402  31.080  0.00  0.00     0.051 C 
HETATM    2  C   UNK     0      -9.040  15.771  31.537  0.00  0.00    -0.031 A 
HETATM    3  C   UNK     0      -7.829  16.409  31.321  0.00  0.00     0.021 A 
HETATM    4  N   UNK     0      -7.847  17.613  31.942  0.00  0.00    -0.361 N 
HETATM    5  C   UNK     0      -9.046  17.759  32.542  0.00  0.00     0.022 A 
HETATM    6  C   UNK     0      -9.816  16.624  32.311  0.00  0.00    -0.027 A 
HETATM    7  C   UNK     0      -9.606  18.937  33.277  0.00  0.00     0.115 C 
HETATM    8  C   UNK     0      -9.359  20.303  32.662  0.00  0.00     0.021 A 
HETATM    9  N   UNK     0      -9.315  20.641  31.364  0.00  0.00    -0.361 N 
HETATM   10  C   UNK     0      -8.976  21.944  31.280  0.00  0.00     0.022 A 
HETATM   11  C   UNK     0      -8.806  22.464  32.560  0.00  0.00    -0.027 A 
HETATM   12  C   UNK     0      -9.046  21.435  33.435  0.00  0.00    -0.031 A 
HETATM   13  C   UNK     0      -8.982  21.537  34.943  0.00  0.00     0.051 C 
HETATM   14  C   UNK     0      -8.747  22.736  29.996  0.00  0.00     0.115 C 
HETATM   15  C   UNK     0      -7.620  22.195  29.132  0.00  0.00     0.021 A 
HETATM   16  N   UNK     0      -7.511  20.963  28.601  0.00  0.00    -0.361 N 
HETATM   17  C   UNK     0      -6.341  20.861  27.966  0.00  0.00     0.022 A 
HETATM   18  C   UNK     0      -5.659  22.089  28.081  0.00  0.00    -0.027 A 
HETATM   19  C   UNK     0      -6.471  22.916  28.812  0.00  0.00    -0.031 A 
HETATM   20  C   UNK     0      -6.131  24.359  29.140  0.00  0.00     0.051 C 
HETATM   21  C   UNK     0      -5.712  19.674  27.272  0.00  0.00     0.115 C 
HETATM   22  C   UNK     0      -5.985  18.304  27.847  0.00  0.00     0.022 A 
HETATM   23  N   UNK     0      -6.039  17.941  29.135  0.00  0.00    -0.361 N 
HETATM   24  C   UNK     0      -6.454  16.659  29.196  0.00  0.00     0.021 A 
HETATM   25  C   UNK     0      -6.663  16.183  27.916  0.00  0.00    -0.031 A 
HETATM   26  C   UNK     0      -7.091  14.800  27.472  0.00  0.00     0.051 C 
HETATM   27  C   UNK     0      -6.369  17.218  27.035  0.00  0.00    -0.027 A 
HETATM   28  C   UNK     0      -6.755  15.838  30.438  0.00  0.00     0.115 C 
HETATM   29  H   UNK     0      -6.997  18.333  31.986  0.00  0.00     0.165 HD
HETATM   30  H   UNK     0      -9.572  19.973  30.505  0.00  0.00     0.165 HD
HETATM   31  H   UNK     0      -8.295  20.163  28.633  0.00  0.00     0.165 HD
HETATM   32  H   UNK     0      -5.742  18.572  30.012  0.00  0.00     0.165 HD
ENDROOT
BRANCH   6  33
HETATM   33  C   UNK     0     -11.215  16.292  32.766  0.00  0.00     0.051 C 
BRANCH  33  34
HETATM   34  C   UNK     0     -11.184  15.354  33.950  0.00  0.00     0.114 C 
BRANCH  34  35
HETATM   35  C   UNK     0     -11.877  16.038  35.079  0.00  0.00     0.139 C 
HETATM   36  O   UNK     0     -12.027  15.445  36.187  0.00  0.00    -0.650 OA
BRANCH  35  37
HETATM   37  O   UNK     0     -12.380  17.329  34.978  0.00  0.00    -0.776 OA
HETATM   38  H   UNK     0     -13.367  17.514  34.904  0.00  0.00     0.167 HD
ENDBRANCH  35  37
ENDBRANCH  34  35
ENDBRANCH  33  34
ENDBRANCH   6  33
BRANCH  27  39
HETATM   39  C   UNK     0      -6.410  17.059  25.556  0.00  0.00     0.051 C 
BRANCH  39  40
HETATM   40  C   UNK     0      -5.148  16.855  24.845  0.00  0.00     0.114 C 
BRANCH  40  41
HETATM   41  C   UNK     0      -4.139  15.933  25.316  0.00  0.00     0.139 C 
HETATM   42  O   UNK     0      -4.173  14.714  25.100  0.00  0.00    -0.650 OA
BRANCH  41  43
HETATM   43  O   UNK     0      -3.040  16.436  26.070  0.00  0.00    -0.776 OA
HETATM   44  H   UNK     0      -2.169  15.942  25.921  0.00  0.00     0.167 HD
ENDBRANCH  41  43
ENDBRANCH  40  41
ENDBRANCH  39  40
ENDBRANCH  27  39
BRANCH  11  45
HETATM   45  C   UNK     0      -8.436  23.865  32.967  0.00  0.00     0.051 C 
BRANCH  45  46
HETATM   46  C   UNK     0      -7.026  24.229  32.674  0.00  0.00     0.114 C 
BRANCH  46  47
HETATM   47  C   UNK     0      -6.268  24.122  33.953  0.00  0.00     0.139 C 
HETATM   48  O   UNK     0      -5.074  23.794  33.908  0.00  0.00    -0.650 OA
BRANCH  47  49
HETATM   49  O   UNK     0      -6.877  24.380  35.155  0.00  0.00    -0.776 OA
HETATM   50  H   UNK     0      -6.951  25.331  35.536  0.00  0.00     0.167 HD
ENDBRANCH  47  49
ENDBRANCH  46  47
ENDBRANCH  45  46
ENDBRANCH  11  45
BRANCH  18  51
HETATM   51  C   UNK     0      -4.316  22.460  27.506  0.00  0.00     0.051 C 
BRANCH  51  52
HETATM   52  C   UNK     0      -4.598  23.178  26.195  0.00  0.00     0.114 C 
BRANCH  52  53
HETATM   53  C   UNK     0      -3.897  24.474  26.117  0.00  0.00     0.139 C 
HETATM   54  O   UNK     0      -3.968  25.158  25.083  0.00  0.00    -0.650 OA
BRANCH  53  55
HETATM   55  O   UNK     0      -3.165  24.917  27.192  0.00  0.00    -0.776 OA
HETATM   56  H   UNK     0      -2.481  25.637  27.176  0.00  0.00     0.167 HD
ENDBRANCH  53  55
ENDBRANCH  52  53
ENDBRANCH  51  52
ENDBRANCH  18  51
TORSDOF 16
ENDMDL
MODEL 17
REMARK VINA RESULT:      -7.2     13.903     18.004
REMARK  16 active torsions:
REMARK  status: ('A' for Active; 'I' for Inactive)
REMARK    1  A    between atoms: C_6  and  C_7 
REMARK    2  A    between atoms: C_7  and  C_8 
REMARK    3  A    between atoms: C_8  and  C_9 
REMARK    4  A    between atoms: C_9  and  O_11 
REMARK    5  A    between atoms: C_16  and  C_17 
REMARK    6  A    between atoms: C_17  and  C_18 
REMARK    7  A    between atoms: C_18  and  C_19 
REMARK    8  A    between atoms: C_19  and  O_21 
REMARK    9  A    between atoms: C_28  and  C_29 
REMARK   10  A    between atoms: C_29  and  C_30 
REMARK   11  A    between atoms: C_30  and  C_31 
REMARK   12  A    between atoms: C_31  and  O_33 
REMARK   13  A    between atoms: C_42  and  C_43 
REMARK   14  A    between atoms: C_43  and  C_44 
REMARK   15  A    between atoms: C_44  and  C_45 
REMARK   16  A    between atoms: C_45  and  O_47 
ROOT
HETATM    1  C   UNK     0      20.917  -9.848  41.376  0.00  0.00     0.051 C 
HETATM    2  C   UNK     0      19.579  -9.137  41.363  0.00  0.00    -0.031 A 
HETATM    3  C   UNK     0      18.463  -9.348  42.157  0.00  0.00     0.021 A 
HETATM    4  N   UNK     0      17.480  -8.499  41.772  0.00  0.00    -0.361 N 
HETATM    5  C   UNK     0      17.949  -7.747  40.755  0.00  0.00     0.022 A 
HETATM    6  C   UNK     0      19.258  -8.122  40.471  0.00  0.00    -0.027 A 
HETATM    7  C   UNK     0      17.299  -6.604  40.038  0.00  0.00     0.115 C 
HETATM    8  C   UNK     0      16.552  -5.598  40.895  0.00  0.00     0.021 A 
HETATM    9  N   UNK     0      16.855  -5.161  42.127  0.00  0.00    -0.361 N 
HETATM   10  C   UNK     0      15.863  -4.343  42.538  0.00  0.00     0.022 A 
HETATM   11  C   UNK     0      14.899  -4.243  41.539  0.00  0.00    -0.027 A 
HETATM   12  C   UNK     0      15.327  -5.031  40.501  0.00  0.00    -0.031 A 
HETATM   13  C   UNK     0      14.596  -5.225  39.192  0.00  0.00     0.051 C 
HETATM   14  C   UNK     0      15.757  -3.668  43.902  0.00  0.00     0.115 C 
HETATM   15  C   UNK     0      15.689  -4.642  45.067  0.00  0.00     0.021 A 
HETATM   16  N   UNK     0      16.590  -5.583  45.406  0.00  0.00    -0.361 N 
HETATM   17  C   UNK     0      16.129  -6.277  46.448  0.00  0.00     0.022 A 
HETATM   18  C   UNK     0      14.871  -5.758  46.813  0.00  0.00    -0.027 A 
HETATM   19  C   UNK     0      14.607  -4.733  45.941  0.00  0.00    -0.031 A 
HETATM   20  C   UNK     0      13.359  -3.872  46.004  0.00  0.00     0.051 C 
HETATM   21  C   UNK     0      16.720  -7.475  47.156  0.00  0.00     0.115 C 
HETATM   22  C   UNK     0      17.504  -8.461  46.323  0.00  0.00     0.022 A 
HETATM   23  N   UNK     0      17.228  -8.911  45.092  0.00  0.00    -0.361 N 
HETATM   24  C   UNK     0      18.267  -9.662  44.673  0.00  0.00     0.021 A 
HETATM   25  C   UNK     0      19.231  -9.705  45.662  0.00  0.00    -0.031 A 
HETATM   26  C   UNK     0      20.550 -10.448  45.676  0.00  0.00     0.051 C 
HETATM   27  C   UNK     0      18.765  -8.944  46.728  0.00  0.00    -0.027 A 
HETATM   28  C   UNK     0      18.457 -10.309  43.312  0.00  0.00     0.115 C 
HETATM   29  H   UNK     0      16.450  -8.465  42.194  0.00  0.00     0.165 HD
HETATM   30  H   UNK     0      17.793  -5.389  42.691  0.00  0.00     0.165 HD
HETATM   31  H   UNK     0      17.594  -5.730  44.929  0.00  0.00     0.165 HD
HETATM   32  H   UNK     0      16.278  -8.739  44.523  0.00  0.00     0.165 HD
ENDROOT
BRANCH   6  33
HETATM   33  C   UNK     0      20.213  -7.597  39.430  0.00  0.00     0.051 C 
BRANCH  33  34
HETATM   34  C   UNK     0      19.814  -8.067  38.051  0.00  0.00     0.114 C 
BRANCH  34  35
HETATM   35  C   UNK     0      20.371  -7.093  37.069  0.00  0.00     0.139 C 
HETATM   36  O   UNK     0      20.239  -5.849  37.260  0.00  0.00    -0.650 OA
BRANCH  35  37
HETATM   37  O   UNK     0      21.048  -7.490  35.922  0.00  0.00    -0.776 OA
HETATM   38  H   UNK     0      21.690  -8.267  35.923  0.00  0.00     0.167 HD
ENDBRANCH  35  37
ENDBRANCH  34  35
ENDBRANCH  33  34
ENDBRANCH   6  33
BRANCH  27  39
HETATM   39  C   UNK     0      19.503  -8.812  48.014  0.00  0.00     0.051 C 
BRANCH  39  40
HETATM   40  C   UNK     0      20.746  -8.040  48.024  0.00  0.00     0.114 C 
BRANCH  40  41
HETATM   41  C   UNK     0      21.155  -7.255  49.167  0.00  0.00     0.139 C 
HETATM   42  O   UNK     0      21.200  -6.018  49.166  0.00  0.00    -0.650 OA
BRANCH  41  43
HETATM   43  O   UNK     0      21.531  -7.925  50.366  0.00  0.00    -0.776 OA
HETATM   44  H   UNK     0      21.235  -7.460  51.216  0.00  0.00     0.167 HD
ENDBRANCH  41  43
ENDBRANCH  40  41
ENDBRANCH  39  40
ENDBRANCH  27  39
BRANCH  11  45
HETATM   45  C   UNK     0      13.623  -3.444  41.537  0.00  0.00     0.051 C 
BRANCH  45  46
HETATM   46  C   UNK     0      12.430  -4.206  41.987  0.00  0.00     0.114 C 
BRANCH  46  47
HETATM   47  C   UNK     0      11.662  -3.320  42.908  0.00  0.00     0.139 C 
HETATM   48  O   UNK     0      12.041  -2.150  43.057  0.00  0.00    -0.650 OA
BRANCH  47  49
HETATM   49  O   UNK     0      10.559  -3.789  43.577  0.00  0.00    -0.776 OA
HETATM   50  H   UNK     0      10.346  -3.507  44.541  0.00  0.00     0.167 HD
ENDBRANCH  47  49
ENDBRANCH  46  47
ENDBRANCH  45  46
ENDBRANCH  11  45
BRANCH  18  51
HETATM   51  C   UNK     0      13.978  -6.200  47.943  0.00  0.00     0.051 C 
BRANCH  51  52
HETATM   52  C   UNK     0      14.367  -5.356  49.148  0.00  0.00     0.114 C 
BRANCH  52  53
HETATM   53  C   UNK     0      13.184  -4.803  49.836  0.00  0.00     0.139 C 
HETATM   54  O   UNK     0      12.499  -3.926  49.286  0.00  0.00    -0.650 OA
BRANCH  53  55
HETATM   55  O   UNK     0      12.850  -5.261  51.087  0.00  0.00    -0.776 OA
HETATM   56  H   UNK     0      12.367  -6.104  51.290  0.00  0.00     0.167 HD
ENDBRANCH  53  55
ENDBRANCH  52  53
ENDBRANCH  51  52
ENDBRANCH  18  51
TORSDOF 16
ENDMDL
MODEL 18
REMARK VINA RESULT:      -7.2     26.397     28.658
REMARK  16 active torsions:
REMARK  status: ('A' for Active; 'I' for Inactive)
REMARK    1  A    between atoms: C_6  and  C_7 
REMARK    2  A    between atoms: C_7  and  C_8 
REMARK    3  A    between atoms: C_8  and  C_9 
REMARK    4  A    between atoms: C_9  and  O_11 
REMARK    5  A    between atoms: C_16  and  C_17 
REMARK    6  A    between atoms: C_17  and  C_18 
REMARK    7  A    between atoms: C_18  and  C_19 
REMARK    8  A    between atoms: C_19  and  O_21 
REMARK    9  A    between atoms: C_28  and  C_29 
REMARK   10  A    between atoms: C_29  and  C_30 
REMARK   11  A    between atoms: C_30  and  C_31 
REMARK   12  A    between atoms: C_31  and  O_33 
REMARK   13  A    between atoms: C_42  and  C_43 
REMARK   14  A    between atoms: C_43  and  C_44 
REMARK   15  A    between atoms: C_44  and  C_45 
REMARK   16  A    between atoms: C_45  and  O_47 
ROOT
HETATM    1  C   UNK     0      18.215  21.572  36.069  0.00  0.00     0.051 C 
HETATM    2  C   UNK     0      17.048  20.702  35.649  0.00  0.00    -0.031 A 
HETATM    3  C   UNK     0      16.639  20.333  34.377  0.00  0.00     0.021 A 
HETATM    4  N   UNK     0      15.524  19.571  34.476  0.00  0.00    -0.361 N 
HETATM    5  C   UNK     0      15.218  19.440  35.784  0.00  0.00     0.022 A 
HETATM    6  C   UNK     0      16.150  20.137  36.545  0.00  0.00    -0.027 A 
HETATM    7  C   UNK     0      14.143  18.626  36.433  0.00  0.00     0.115 C 
HETATM    8  C   UNK     0      13.922  17.227  35.885  0.00  0.00     0.021 A 
HETATM    9  N   UNK     0      14.832  16.361  35.413  0.00  0.00    -0.361 N 
HETATM   10  C   UNK     0      14.176  15.277  34.947  0.00  0.00     0.022 A 
HETATM   11  C   UNK     0      12.807  15.445  35.133  0.00  0.00    -0.027 A 
HETATM   12  C   UNK     0      12.640  16.671  35.724  0.00  0.00    -0.031 A 
HETATM   13  C   UNK     0      11.312  17.277  36.119  0.00  0.00     0.051 C 
HETATM   14  C   UNK     0      14.807  14.067  34.262  0.00  0.00     0.115 C 
HETATM   15  C   UNK     0      15.547  14.403  32.977  0.00  0.00     0.021 A 
HETATM   16  N   UNK     0      16.580  15.252  32.822  0.00  0.00    -0.361 N 
HETATM   17  C   UNK     0      16.900  15.323  31.528  0.00  0.00     0.022 A 
HETATM   18  C   UNK     0      16.039  14.472  30.806  0.00  0.00    -0.027 A 
HETATM   19  C   UNK     0      15.198  13.901  31.725  0.00  0.00    -0.031 A 
HETATM   20  C   UNK     0      14.129  12.883  31.373  0.00  0.00     0.051 C 
HETATM   21  C   UNK     0      17.930  16.178  30.827  0.00  0.00     0.115 C 
HETATM   22  C   UNK     0      18.191  17.556  31.388  0.00  0.00     0.022 A 
HETATM   23  N   UNK     0      17.306  18.438  31.869  0.00  0.00    -0.361 N 
HETATM   24  C   UNK     0      17.985  19.476  32.398  0.00  0.00     0.021 A 
HETATM   25  C   UNK     0      19.342  19.261  32.245  0.00  0.00    -0.031 A 
HETATM   26  C   UNK     0      20.499  20.156  32.639  0.00  0.00     0.051 C 
HETATM   27  C   UNK     0      19.498  18.039  31.600  0.00  0.00    -0.027 A 
HETATM   28  C   UNK     0      17.421  20.674  33.141  0.00  0.00     0.115 C 
HETATM   29  H   UNK     0      14.938  19.164  33.620  0.00  0.00     0.165 HD
HETATM   30  H   UNK     0      15.941  16.490  35.452  0.00  0.00     0.165 HD
HETATM   31  H   UNK     0      17.127  15.777  33.649  0.00  0.00     0.165 HD
HETATM   32  H   UNK     0      16.189  18.357  31.801  0.00  0.00     0.165 HD
ENDROOT
BRANCH   6  33
HETATM   33  C   UNK     0      16.248  20.308  38.040  0.00  0.00     0.051 C 
BRANCH  33  34
HETATM   34  C   UNK     0      16.695  19.023  38.697  0.00  0.00     0.114 C 
BRANCH  34  35
HETATM   35  C   UNK     0      17.644  19.385  39.788  0.00  0.00     0.139 C 
HETATM   36  O   UNK     0      17.371  19.102  40.991  0.00  0.00    -0.650 OA
BRANCH  35  37
HETATM   37  O   UNK     0      18.849  20.035  39.548  0.00  0.00    -0.776 OA
HETATM   38  H   UNK     0      19.722  19.536  39.486  0.00  0.00     0.167 HD
ENDBRANCH  35  37
ENDBRANCH  34  35
ENDBRANCH  33  34
ENDBRANCH   6  33
BRANCH  27  39
HETATM   39  C   UNK     0      20.826  17.500  31.197  0.00  0.00     0.051 C 
BRANCH  39  40
HETATM   40  C   UNK     0      21.159  17.471  29.773  0.00  0.00     0.114 C 
BRANCH  40  41
HETATM   41  C   UNK     0      22.268  16.700  29.257  0.00  0.00     0.139 C 
HETATM   42  O   UNK     0      22.191  15.498  28.971  0.00  0.00    -0.650 OA
BRANCH  41  43
HETATM   43  O   UNK     0      23.524  17.342  29.062  0.00  0.00    -0.776 OA
HETATM   44  H   UNK     0      23.816  17.934  29.830  0.00  0.00     0.167 HD
ENDBRANCH  41  43
ENDBRANCH  40  41
ENDBRANCH  39  40
ENDBRANCH  27  39
BRANCH  11  45
HETATM   45  C   UNK     0      11.687  14.504  34.781  0.00  0.00     0.051 C 
BRANCH  45  46
HETATM   46  C   UNK     0      11.626  13.288  35.631  0.00  0.00     0.114 C 
BRANCH  46  47
HETATM   47  C   UNK     0      10.359  13.358  36.413  0.00  0.00     0.139 C 
HETATM   48  O   UNK     0       9.536  14.240  36.130  0.00  0.00    -0.650 OA
BRANCH  47  49
HETATM   49  O   UNK     0      10.108  12.468  37.427  0.00  0.00    -0.776 OA
HETATM   50  H   UNK     0      10.819  12.226  38.128  0.00  0.00     0.167 HD
ENDBRANCH  47  49
ENDBRANCH  46  47
ENDBRANCH  45  46
ENDBRANCH  11  45
BRANCH  18  51
HETATM   51  C   UNK     0      16.033  14.202  29.324  0.00  0.00     0.051 C 
BRANCH  51  52
HETATM   52  C   UNK     0      17.108  13.153  29.078  0.00  0.00     0.114 C 
BRANCH  52  53
HETATM   53  C   UNK     0      18.144  13.635  28.144  0.00  0.00     0.139 C 
HETATM   54  O   UNK     0      17.878  13.775  26.940  0.00  0.00    -0.650 OA
BRANCH  53  55
HETATM   55  O   UNK     0      19.401  13.925  28.615  0.00  0.00    -0.776 OA
HETATM   56  H   UNK     0      20.259  13.638  28.205  0.00  0.00     0.167 HD
ENDBRANCH  53  55
ENDBRANCH  52  53
ENDBRANCH  51  52
ENDBRANCH  18  51
TORSDOF 16
ENDMDL
MODEL 19
REMARK VINA RESULT:      -7.1     27.327     31.819
REMARK  16 active torsions:
REMARK  status: ('A' for Active; 'I' for Inactive)
REMARK    1  A    between atoms: C_6  and  C_7 
REMARK    2  A    between atoms: C_7  and  C_8 
REMARK    3  A    between atoms: C_8  and  C_9 
REMARK    4  A    between atoms: C_9  and  O_11 
REMARK    5  A    between atoms: C_16  and  C_17 
REMARK    6  A    between atoms: C_17  and  C_18 
REMARK    7  A    between atoms: C_18  and  C_19 
REMARK    8  A    between atoms: C_19  and  O_21 
REMARK    9  A    between atoms: C_28  and  C_29 
REMARK   10  A    between atoms: C_29  and  C_30 
REMARK   11  A    between atoms: C_30  and  C_31 
REMARK   12  A    between atoms: C_31  and  O_33 
REMARK   13  A    between atoms: C_42  and  C_43 
REMARK   14  A    between atoms: C_43  and  C_44 
REMARK   15  A    between atoms: C_44  and  C_45 
REMARK   16  A    between atoms: C_45  and  O_47 
ROOT
HETATM    1  C   UNK     0      32.981  18.989  59.186  0.00  0.00     0.051 C 
HETATM    2  C   UNK     0      32.189  18.687  60.442  0.00  0.00    -0.031 A 
HETATM    3  C   UNK     0      31.415  19.534  61.220  0.00  0.00     0.021 A 
HETATM    4  N   UNK     0      30.916  18.837  62.268  0.00  0.00    -0.361 N 
HETATM    5  C   UNK     0      31.348  17.563  62.171  0.00  0.00     0.022 A 
HETATM    6  C   UNK     0      32.149  17.434  61.042  0.00  0.00    -0.027 A 
HETATM    7  C   UNK     0      31.010  16.376  63.019  0.00  0.00     0.115 C 
HETATM    8  C   UNK     0      29.553  16.217  63.419  0.00  0.00     0.021 A 
HETATM    9  N   UNK     0      28.454  16.512  62.708  0.00  0.00    -0.361 N 
HETATM   10  C   UNK     0      27.377  16.296  63.493  0.00  0.00     0.022 A 
HETATM   11  C   UNK     0      27.794  15.841  64.741  0.00  0.00    -0.027 A 
HETATM   12  C   UNK     0      29.164  15.788  64.701  0.00  0.00    -0.031 A 
HETATM   13  C   UNK     0      30.056  15.342  65.838  0.00  0.00     0.051 C 
HETATM   14  C   UNK     0      25.921  16.560  63.119  0.00  0.00     0.115 C 
HETATM   15  C   UNK     0      25.624  18.015  62.791  0.00  0.00     0.021 A 
HETATM   16  N   UNK     0      26.192  18.774  61.836  0.00  0.00    -0.361 N 
HETATM   17  C   UNK     0      25.708  20.016  61.917  0.00  0.00     0.022 A 
HETATM   18  C   UNK     0      24.773  20.065  62.970  0.00  0.00    -0.027 A 
HETATM   19  C   UNK     0      24.728  18.805  63.508  0.00  0.00    -0.031 A 
HETATM   20  C   UNK     0      23.814  18.409  64.653  0.00  0.00     0.051 C 
HETATM   21  C   UNK     0      26.070  21.253  61.128  0.00  0.00     0.115 C 
HETATM   22  C   UNK     0      27.506  21.403  60.685  0.00  0.00     0.022 A 
HETATM   23  N   UNK     0      28.621  21.113  61.369  0.00  0.00    -0.361 N 
HETATM   24  C   UNK     0      29.676  21.261  60.543  0.00  0.00     0.021 A 
HETATM   25  C   UNK     0      29.231  21.665  59.299  0.00  0.00    -0.031 A 
HETATM   26  C   UNK     0      30.037  21.998  58.061  0.00  0.00     0.051 C 
HETATM   27  C   UNK     0      27.846  21.764  59.365  0.00  0.00    -0.027 A 
HETATM   28  C   UNK     0      31.135  20.959  60.837  0.00  0.00     0.115 C 
HETATM   29  H   UNK     0      30.294  19.260  63.091  0.00  0.00     0.165 HD
HETATM   30  H   UNK     0      28.432  16.825  61.636  0.00  0.00     0.165 HD
HETATM   31  H   UNK     0      26.914  18.416  61.057  0.00  0.00     0.165 HD
HETATM   32  H   UNK     0      28.676  20.843  62.456  0.00  0.00     0.165 HD
ENDROOT
BRANCH   6  33
HETATM   33  C   UNK     0      32.872  16.228  60.497  0.00  0.00     0.051 C 
BRANCH  33  34
HETATM   34  C   UNK     0      32.089  15.599  59.369  0.00  0.00     0.114 C 
BRANCH  34  35
HETATM   35  C   UNK     0      31.231  14.534  59.962  0.00  0.00     0.139 C 
HETATM   36  O   UNK     0      31.720  13.398  60.232  0.00  0.00    -0.650 OA
BRANCH  35  37
HETATM   37  O   UNK     0      29.884  14.727  60.245  0.00  0.00    -0.776 OA
HETATM   38  H   UNK     0      29.259  13.957  60.422  0.00  0.00     0.167 HD
ENDBRANCH  35  37
ENDBRANCH  34  35
ENDBRANCH  33  34
ENDBRANCH   6  33
BRANCH  27  39
HETATM   39  C   UNK     0      27.012  22.244  58.230  0.00  0.00     0.051 C 
BRANCH  39  40
HETATM   40  C   UNK     0      26.491  21.256  57.285  0.00  0.00     0.114 C 
BRANCH  40  41
HETATM   41  C   UNK     0      26.285  19.873  57.652  0.00  0.00     0.139 C 
HETATM   42  O   UNK     0      27.068  18.962  57.351  0.00  0.00    -0.650 OA
BRANCH  41  43
HETATM   43  O   UNK     0      25.124  19.522  58.398  0.00  0.00    -0.776 OA
HETATM   44  H   UNK     0      24.820  20.228  59.057  0.00  0.00     0.167 HD
ENDBRANCH  41  43
ENDBRANCH  40  41
ENDBRANCH  39  40
ENDBRANCH  27  39
BRANCH  11  45
HETATM   45  C   UNK     0      26.957  15.462  65.933  0.00  0.00     0.051 C 
BRANCH  45  46
HETATM   46  C   UNK     0      26.559  16.613  66.784  0.00  0.00     0.114 C 
BRANCH  46  47
HETATM   47  C   UNK     0      26.852  16.240  68.197  0.00  0.00     0.139 C 
HETATM   48  O   UNK     0      26.215  16.797  69.101  0.00  0.00    -0.650 OA
BRANCH  47  49
HETATM   49  O   UNK     0      27.809  15.301  68.492  0.00  0.00    -0.776 OA
HETATM   50  H   UNK     0      28.806  15.461  68.305  0.00  0.00     0.167 HD
ENDBRANCH  47  49
ENDBRANCH  46  47
ENDBRANCH  45  46
ENDBRANCH  11  45
BRANCH  18  51
HETATM   51  C   UNK     0      23.951  21.243  63.423  0.00  0.00     0.051 C 
BRANCH  51  52
HETATM   52  C   UNK     0      22.745  21.304  62.497  0.00  0.00     0.114 C 
BRANCH  52  53
HETATM   53  C   UNK     0      21.525  21.731  63.210  0.00  0.00     0.139 C 
HETATM   54  O   UNK     0      20.896  22.728  62.822  0.00  0.00    -0.650 OA
BRANCH  53  55
HETATM   55  O   UNK     0      21.094  21.022  64.304  0.00  0.00    -0.776 OA
HETATM   56  H   UNK     0      21.663  20.478  64.909  0.00  0.00     0.167 HD
ENDBRANCH  53  55
ENDBRANCH  52  53
ENDBRANCH  51  52
ENDBRANCH  18  51
TORSDOF 16
ENDMDL
MODEL 20
REMARK VINA RESULT:      -7.1     15.252     19.858
REMARK  16 active torsions:
REMARK  status: ('A' for Active; 'I' for Inactive)
REMARK    1  A    between atoms: C_6  and  C_7 
REMARK    2  A    between atoms: C_7  and  C_8 
REMARK    3  A    between atoms: C_8  and  C_9 
REMARK    4  A    between atoms: C_9  and  O_11 
REMARK    5  A    between atoms: C_16  and  C_17 
REMARK    6  A    between atoms: C_17  and  C_18 
REMARK    7  A    between atoms: C_18  and  C_19 
REMARK    8  A    between atoms: C_19  and  O_21 
REMARK    9  A    between atoms: C_28  and  C_29 
REMARK   10  A    between atoms: C_29  and  C_30 
REMARK   11  A    between atoms: C_30  and  C_31 
REMARK   12  A    between atoms: C_31  and  O_33 
REMARK   13  A    between atoms: C_42  and  C_43 
REMARK   14  A    between atoms: C_43  and  C_44 
REMARK   15  A    between atoms: C_44  and  C_45 
REMARK   16  A    between atoms: C_45  and  O_47 
ROOT
HETATM    1  C   UNK     0      24.475   5.102  32.691  0.00  0.00     0.051 C 
HETATM    2  C   UNK     0      23.243   5.461  33.498  0.00  0.00    -0.031 A 
HETATM    3  C   UNK     0      22.542   6.655  33.548  0.00  0.00     0.021 A 
HETATM    4  N   UNK     0      21.523   6.532  34.432  0.00  0.00    -0.361 N 
HETATM    5  C   UNK     0      21.555   5.282  34.939  0.00  0.00     0.022 A 
HETATM    6  C   UNK     0      22.620   4.586  34.378  0.00  0.00    -0.027 A 
HETATM    7  C   UNK     0      20.601   4.611  35.877  0.00  0.00     0.115 C 
HETATM    8  C   UNK     0      19.121   4.845  35.627  0.00  0.00     0.021 A 
HETATM    9  N   UNK     0      18.482   4.979  34.455  0.00  0.00    -0.361 N 
HETATM   10  C   UNK     0      17.188   5.264  34.713  0.00  0.00     0.022 A 
HETATM   11  C   UNK     0      16.986   5.305  36.089  0.00  0.00    -0.027 A 
HETATM   12  C   UNK     0      18.200   5.042  36.671  0.00  0.00    -0.031 A 
HETATM   13  C   UNK     0      18.460   4.978  38.160  0.00  0.00     0.051 C 
HETATM   14  C   UNK     0      16.107   5.560  33.677  0.00  0.00     0.115 C 
HETATM   15  C   UNK     0      16.397   6.777  32.815  0.00  0.00     0.021 A 
HETATM   16  N   UNK     0      17.464   6.985  32.020  0.00  0.00    -0.361 N 
HETATM   17  C   UNK     0      17.382   8.206  31.487  0.00  0.00     0.022 A 
HETATM   18  C   UNK     0      16.200   8.820  31.949  0.00  0.00    -0.027 A 
HETATM   19  C   UNK     0      15.592   7.914  32.779  0.00  0.00    -0.031 A 
HETATM   20  C   UNK     0      14.262   8.160  33.467  0.00  0.00     0.051 C 
HETATM   21  C   UNK     0      18.352   8.943  30.592  0.00  0.00     0.115 C 
HETATM   22  C   UNK     0      19.826   8.687  30.800  0.00  0.00     0.022 A 
HETATM   23  N   UNK     0      20.488   8.545  31.956  0.00  0.00    -0.361 N 
HETATM   24  C   UNK     0      21.757   8.185  31.675  0.00  0.00     0.021 A 
HETATM   25  C   UNK     0      21.918   8.103  30.305  0.00  0.00    -0.031 A 
HETATM   26  C   UNK     0      23.165   7.776  29.510  0.00  0.00     0.051 C 
HETATM   27  C   UNK     0      20.696   8.420  29.724  0.00  0.00    -0.027 A 
HETATM   28  C   UNK     0      22.859   7.822  32.655  0.00  0.00     0.115 C 
HETATM   29  H   UNK     0      20.813   7.341  34.720  0.00  0.00     0.165 HD
HETATM   30  H   UNK     0      18.931   4.823  33.443  0.00  0.00     0.165 HD
HETATM   31  H   UNK     0      18.267   6.238  31.792  0.00  0.00     0.165 HD
HETATM   32  H   UNK     0      20.078   8.741  32.980  0.00  0.00     0.165 HD
ENDROOT
BRANCH   6  33
HETATM   33  C   UNK     0      23.087   3.171  34.614  0.00  0.00     0.051 C 
BRANCH  33  34
HETATM   34  C   UNK     0      22.165   2.184  33.938  0.00  0.00     0.114 C 
BRANCH  34  35
HETATM   35  C   UNK     0      21.785   1.160  34.953  0.00  0.00     0.139 C 
HETATM   36  O   UNK     0      21.263   0.066  34.589  0.00  0.00    -0.650 OA
BRANCH  35  37
HETATM   37  O   UNK     0      21.982   1.347  36.316  0.00  0.00    -0.776 OA
HETATM   38  H   UNK     0      21.764   0.631  36.990  0.00  0.00     0.167 HD
ENDBRANCH  35  37
ENDBRANCH  34  35
ENDBRANCH  33  34
ENDBRANCH   6  33
BRANCH  27  39
HETATM   39  C   UNK     0      20.497   8.507  28.251  0.00  0.00     0.051 C 
BRANCH  39  40
HETATM   40  C   UNK     0      20.590   9.821  27.615  0.00  0.00     0.114 C 
BRANCH  40  41
HETATM   41  C   UNK     0      21.842  10.353  27.124  0.00  0.00     0.139 C 
HETATM   42  O   UNK     0      22.203  10.269  25.943  0.00  0.00    -0.650 OA
BRANCH  41  43
HETATM   43  O   UNK     0      22.718  11.010  28.034  0.00  0.00    -0.776 OA
HETATM   44  H   UNK     0      23.546  11.405  27.606  0.00  0.00     0.167 HD
ENDBRANCH  41  43
ENDBRANCH  40  41
ENDBRANCH  39  40
ENDBRANCH  27  39
BRANCH  11  45
HETATM   45  C   UNK     0      15.714   5.576  36.846  0.00  0.00     0.051 C 
BRANCH  45  46
HETATM   46  C   UNK     0      15.070   4.360  37.404  0.00  0.00     0.114 C 
BRANCH  46  47
HETATM   47  C   UNK     0      14.839   4.608  38.856  0.00  0.00     0.139 C 
HETATM   48  O   UNK     0      15.109   3.705  39.661  0.00  0.00    -0.650 OA
BRANCH  47  49
HETATM   49  O   UNK     0      14.339   5.808  39.293  0.00  0.00    -0.776 OA
HETATM   50  H   UNK     0      14.537   6.172  40.233  0.00  0.00     0.167 HD
ENDBRANCH  47  49
ENDBRANCH  46  47
ENDBRANCH  45  46
ENDBRANCH  11  45
BRANCH  18  51
HETATM   51  C   UNK     0      15.669  10.186  31.602  0.00  0.00     0.051 C 
BRANCH  51  52
HETATM   52  C   UNK     0      16.228  11.139  32.648  0.00  0.00     0.114 C 
BRANCH  52  53
HETATM   53  C   UNK     0      15.165  11.937  33.289  0.00  0.00     0.139 C 
HETATM   54  O   UNK     0      14.008  11.905  32.841  0.00  0.00    -0.650 OA
BRANCH  53  55
HETATM   55  O   UNK     0      15.465  12.716  34.380  0.00  0.00    -0.776 OA
HETATM   56  H   UNK     0      15.465  12.418  35.328  0.00  0.00     0.167 HD
ENDBRANCH  53  55
ENDBRANCH  52  53
ENDBRANCH  51  52
ENDBRANCH  18  51
TORSDOF 16
ENDMDL
