MODEL 1
REMARK VINA RESULT:      -9.2      0.000      0.000
REMARK  16 active torsions:
REMARK  status: ('A' for Active; 'I' for Inactive)
REMARK    1  A    between atoms: C_6  and  C_7 
REMARK    2  A    between atoms: C_7  and  C_8 
REMARK    3  A    between atoms: C_8  and  C_9 
REMARK    4  A    between atoms: C_9  and  O_11 
REMARK    5  A    between atoms: C_16  and  C_17 
REMARK    6  A    between atoms: C_17  and  C_18 
REMARK    7  A    between atoms: C_18  and  C_19 
REMARK    8  A    between atoms: C_19  and  O_21 
REMARK    9  A    between atoms: C_28  and  C_29 
REMARK   10  A    between atoms: C_29  and  C_30 
REMARK   11  A    between atoms: C_30  and  C_31 
REMARK   12  A    between atoms: C_31  and  O_33 
REMARK   13  A    between atoms: C_42  and  C_43 
REMARK   14  A    between atoms: C_43  and  C_44 
REMARK   15  A    between atoms: C_44  and  C_45 
REMARK   16  A    between atoms: C_45  and  O_47 
ROOT
HETATM    1  C   UNK     0     -35.827  11.433   3.516  0.00  0.00     0.051 C 
HETATM    2  C   UNK     0     -36.093  10.062   4.104  0.00  0.00    -0.031 A 
HETATM    3  C   UNK     0     -36.055   8.820   3.491  0.00  0.00     0.021 A 
HETATM    4  N   UNK     0     -36.393   7.870   4.396  0.00  0.00    -0.361 N 
HETATM    5  C   UNK     0     -36.636   8.480   5.574  0.00  0.00     0.022 A 
HETATM    6  C   UNK     0     -36.461   9.852   5.427  0.00  0.00    -0.027 A 
HETATM    7  C   UNK     0     -36.953   7.880   6.909  0.00  0.00     0.115 C 
HETATM    8  C   UNK     0     -36.151   6.656   7.313  0.00  0.00     0.021 A 
HETATM    9  N   UNK     0     -34.863   6.378   7.059  0.00  0.00    -0.361 N 
HETATM   10  C   UNK     0     -34.601   5.140   7.528  0.00  0.00     0.022 A 
HETATM   11  C   UNK     0     -35.749   4.609   8.108  0.00  0.00    -0.027 A 
HETATM   12  C   UNK     0     -36.729   5.558   7.976  0.00  0.00    -0.031 A 
HETATM   13  C   UNK     0     -38.152   5.420   8.469  0.00  0.00     0.051 C 
HETATM   14  C   UNK     0     -33.278   4.390   7.401  0.00  0.00     0.115 C 
HETATM   15  C   UNK     0     -32.847   4.140   5.964  0.00  0.00     0.021 A 
HETATM   16  N   UNK     0     -32.623   5.055   5.003  0.00  0.00    -0.361 N 
HETATM   17  C   UNK     0     -32.330   4.429   3.861  0.00  0.00     0.022 A 
HETATM   18  C   UNK     0     -32.355   3.039   4.092  0.00  0.00    -0.027 A 
HETATM   19  C   UNK     0     -32.678   2.872   5.413  0.00  0.00    -0.031 A 
HETATM   20  C   UNK     0     -32.777   1.518   6.092  0.00  0.00     0.051 C 
HETATM   21  C   UNK     0     -32.070   4.993   2.483  0.00  0.00     0.115 C 
HETATM   22  C   UNK     0     -32.829   6.237   2.083  0.00  0.00     0.022 A 
HETATM   23  N   UNK     0     -34.110   6.542   2.326  0.00  0.00    -0.361 N 
HETATM   24  C   UNK     0     -34.329   7.809   1.921  0.00  0.00     0.021 A 
HETATM   25  C   UNK     0     -33.162   8.330   1.395  0.00  0.00    -0.031 A 
HETATM   26  C   UNK     0     -32.919   9.692   0.778  0.00  0.00     0.051 C 
HETATM   27  C   UNK     0     -32.188   7.342   1.487  0.00  0.00    -0.027 A 
HETATM   28  C   UNK     0     -35.599   8.627   2.072  0.00  0.00     0.115 C 
HETATM   29  H   UNK     0     -36.495   6.781   4.185  0.00  0.00     0.165 HD
HETATM   30  H   UNK     0     -34.123   7.074   6.594  0.00  0.00     0.165 HD
HETATM   31  H   UNK     0     -32.625   6.168   5.144  0.00  0.00     0.165 HD
HETATM   32  H   UNK     0     -34.885   5.849   2.747  0.00  0.00     0.165 HD
ENDROOT
BRANCH   6  33
HETATM   33  C   UNK     0     -36.616  10.964   6.433  0.00  0.00     0.051 C 
BRANCH  33  34
HETATM   34  C   UNK     0     -38.018  11.524   6.399  0.00  0.00     0.114 C 
BRANCH  34  35
HETATM   35  C   UNK     0     -38.573  11.422   7.780  0.00  0.00     0.139 C 
HETATM   36  O   UNK     0     -39.567  12.128   8.120  0.00  0.00    -0.650 OA
BRANCH  35  37
HETATM   37  O   UNK     0     -38.043  10.569   8.739  0.00  0.00    -0.776 OA
HETATM   38  H   UNK     0     -38.228   9.579   8.735  0.00  0.00     0.167 HD
ENDBRANCH  35  37
ENDBRANCH  34  35
ENDBRANCH  33  34
ENDBRANCH   6  33
BRANCH  27  39
HETATM   39  C   UNK     0     -30.809   7.511   0.954  0.00  0.00     0.051 C 
BRANCH  39  40
HETATM   40  C   UNK     0     -30.548   7.120  -0.431  0.00  0.00     0.114 C 
BRANCH  40  41
HETATM   41  C   UNK     0     -29.737   5.972  -0.768  0.00  0.00     0.139 C 
HETATM   42  O   UNK     0     -30.193   4.829  -0.908  0.00  0.00    -0.650 OA
BRANCH  41  43
HETATM   43  O   UNK     0     -28.336   6.146  -0.952  0.00  0.00    -0.776 OA
HETATM   44  H   UNK     0     -27.878   6.670  -0.216  0.00  0.00     0.167 HD
ENDBRANCH  41  43
ENDBRANCH  40  41
ENDBRANCH  39  40
ENDBRANCH  27  39
BRANCH  11  45
HETATM   45  C   UNK     0     -35.938   3.269   8.766  0.00  0.00     0.051 C 
BRANCH  45  46
HETATM   46  C   UNK     0     -35.080   3.054   9.960  0.00  0.00     0.114 C 
BRANCH  46  47
HETATM   47  C   UNK     0     -35.153   1.604  10.301  0.00  0.00     0.139 C 
HETATM   48  O   UNK     0     -34.118   1.028  10.664  0.00  0.00    -0.650 OA
BRANCH  47  49
HETATM   49  O   UNK     0     -36.339   0.920  10.213  0.00  0.00    -0.776 OA
HETATM   50  H   UNK     0     -36.382  -0.105  10.254  0.00  0.00     0.167 HD
ENDBRANCH  47  49
ENDBRANCH  46  47
ENDBRANCH  45  46
ENDBRANCH  11  45
BRANCH  18  51
HETATM   51  C   UNK     0     -32.065   1.933   3.111  0.00  0.00     0.051 C 
BRANCH  51  52
HETATM   52  C   UNK     0     -30.925   1.121   3.710  0.00  0.00     0.114 C 
BRANCH  52  53
HETATM   53  C   UNK     0     -31.071  -0.320   3.430  0.00  0.00     0.139 C 
HETATM   54  O   UNK     0     -30.334  -0.869   2.596  0.00  0.00    -0.650 OA
BRANCH  53  55
HETATM   55  O   UNK     0     -32.028  -1.048   4.094  0.00  0.00    -0.776 OA
HETATM   56  H   UNK     0     -32.356  -0.879   5.016  0.00  0.00     0.167 HD
ENDBRANCH  53  55
ENDBRANCH  52  53
ENDBRANCH  51  52
ENDBRANCH  18  51
TORSDOF 16
ENDMDL
MODEL 2
REMARK VINA RESULT:      -8.7      9.635     13.772
REMARK  16 active torsions:
REMARK  status: ('A' for Active; 'I' for Inactive)
REMARK    1  A    between atoms: C_6  and  C_7 
REMARK    2  A    between atoms: C_7  and  C_8 
REMARK    3  A    between atoms: C_8  and  C_9 
REMARK    4  A    between atoms: C_9  and  O_11 
REMARK    5  A    between atoms: C_16  and  C_17 
REMARK    6  A    between atoms: C_17  and  C_18 
REMARK    7  A    between atoms: C_18  and  C_19 
REMARK    8  A    between atoms: C_19  and  O_21 
REMARK    9  A    between atoms: C_28  and  C_29 
REMARK   10  A    between atoms: C_29  and  C_30 
REMARK   11  A    between atoms: C_30  and  C_31 
REMARK   12  A    between atoms: C_31  and  O_33 
REMARK   13  A    between atoms: C_42  and  C_43 
REMARK   14  A    between atoms: C_43  and  C_44 
REMARK   15  A    between atoms: C_44  and  C_45 
REMARK   16  A    between atoms: C_45  and  O_47 
ROOT
HETATM    1  C   UNK     0     -42.141  20.708  -3.109  0.00  0.00     0.051 C 
HETATM    2  C   UNK     0     -41.802  19.574  -2.162  0.00  0.00    -0.031 A 
HETATM    3  C   UNK     0     -40.733  18.693  -2.193  0.00  0.00     0.021 A 
HETATM    4  N   UNK     0     -40.850  17.821  -1.163  0.00  0.00    -0.361 N 
HETATM    5  C   UNK     0     -41.966  18.133  -0.473  0.00  0.00     0.022 A 
HETATM    6  C   UNK     0     -42.587  19.223  -1.072  0.00  0.00    -0.027 A 
HETATM    7  C   UNK     0     -42.496  17.542   0.796  0.00  0.00     0.115 C 
HETATM    8  C   UNK     0     -41.483  17.255   1.890  0.00  0.00     0.021 A 
HETATM    9  N   UNK     0     -40.385  17.954   2.217  0.00  0.00    -0.361 N 
HETATM   10  C   UNK     0     -39.733  17.280   3.188  0.00  0.00     0.022 A 
HETATM   11  C   UNK     0     -40.435  16.121   3.503  0.00  0.00    -0.027 A 
HETATM   12  C   UNK     0     -41.539  16.099   2.689  0.00  0.00    -0.031 A 
HETATM   13  C   UNK     0     -42.599  15.020   2.682  0.00  0.00     0.051 C 
HETATM   14  C   UNK     0     -38.400  17.674   3.819  0.00  0.00     0.115 C 
HETATM   15  C   UNK     0     -37.246  17.738   2.832  0.00  0.00     0.021 A 
HETATM   16  N   UNK     0     -37.151  18.503   1.728  0.00  0.00    -0.361 N 
HETATM   17  C   UNK     0     -36.014  18.216   1.092  0.00  0.00     0.022 A 
HETATM   18  C   UNK     0     -35.330  17.223   1.821  0.00  0.00    -0.027 A 
HETATM   19  C   UNK     0     -36.112  16.933   2.909  0.00  0.00    -0.031 A 
HETATM   20  C   UNK     0     -35.726  15.932   3.983  0.00  0.00     0.051 C 
HETATM   21  C   UNK     0     -35.475  18.739  -0.220  0.00  0.00     0.115 C 
HETATM   22  C   UNK     0     -36.476  19.071  -1.302  0.00  0.00     0.022 A 
HETATM   23  N   UNK     0     -37.580  18.395  -1.647  0.00  0.00    -0.361 N 
HETATM   24  C   UNK     0     -38.254  19.123  -2.560  0.00  0.00     0.021 A 
HETATM   25  C   UNK     0     -37.561  20.291  -2.818  0.00  0.00    -0.031 A 
HETATM   26  C   UNK     0     -37.894  21.401  -3.793  0.00  0.00     0.051 C 
HETATM   27  C   UNK     0     -36.419  20.280  -2.025  0.00  0.00    -0.027 A 
HETATM   28  C   UNK     0     -39.606  18.816  -3.180  0.00  0.00     0.115 C 
HETATM   29  H   UNK     0     -40.165  16.967  -0.955  0.00  0.00     0.165 HD
HETATM   30  H   UNK     0     -40.093  18.948   1.799  0.00  0.00     0.165 HD
HETATM   31  H   UNK     0     -37.879  19.297   1.416  0.00  0.00     0.165 HD
HETATM   32  H   UNK     0     -37.872  17.377  -1.280  0.00  0.00     0.165 HD
ENDROOT
BRANCH   6  33
HETATM   33  C   UNK     0     -43.856  19.946  -0.694  0.00  0.00     0.051 C 
BRANCH  33  34
HETATM   34  C   UNK     0     -45.007  19.496  -1.561  0.00  0.00     0.114 C 
BRANCH  34  35
HETATM   35  C   UNK     0     -45.785  18.489  -0.783  0.00  0.00     0.139 C 
HETATM   36  O   UNK     0     -45.805  18.538   0.481  0.00  0.00    -0.650 OA
BRANCH  35  37
HETATM   37  O   UNK     0     -46.513  17.473  -1.390  0.00  0.00    -0.776 OA
HETATM   38  H   UNK     0     -47.521  17.475  -1.409  0.00  0.00     0.167 HD
ENDBRANCH  35  37
ENDBRANCH  34  35
ENDBRANCH  33  34
ENDBRANCH   6  33
BRANCH  27  39
HETATM   39  C   UNK     0     -35.383  21.347  -2.081  0.00  0.00     0.051 C 
BRANCH  39  40
HETATM   40  C   UNK     0     -34.105  21.040  -2.721  0.00  0.00     0.114 C 
BRANCH  40  41
HETATM   41  C   UNK     0     -33.976  20.017  -3.735  0.00  0.00     0.139 C 
HETATM   42  O   UNK     0     -33.412  18.932  -3.543  0.00  0.00    -0.650 OA
BRANCH  41  43
HETATM   43  O   UNK     0     -34.522  20.255  -5.028  0.00  0.00    -0.776 OA
HETATM   44  H   UNK     0     -34.888  19.429  -5.487  0.00  0.00     0.167 HD
ENDBRANCH  41  43
ENDBRANCH  40  41
ENDBRANCH  39  40
ENDBRANCH  27  39
BRANCH  11  45
HETATM   45  C   UNK     0     -40.103  15.066   4.523  0.00  0.00     0.051 C 
BRANCH  45  46
HETATM   46  C   UNK     0     -39.652  13.777   3.938  0.00  0.00     0.114 C 
BRANCH  46  47
HETATM   47  C   UNK     0     -38.977  13.011   5.025  0.00  0.00     0.139 C 
HETATM   48  O   UNK     0     -39.646  12.662   6.007  0.00  0.00    -0.650 OA
BRANCH  47  49
HETATM   49  O   UNK     0     -37.643  12.700   4.941  0.00  0.00    -0.776 OA
HETATM   50  H   UNK     0     -36.909  13.379   5.178  0.00  0.00     0.167 HD
ENDBRANCH  47  49
ENDBRANCH  46  47
ENDBRANCH  45  46
ENDBRANCH  11  45
BRANCH  18  51
HETATM   51  C   UNK     0     -33.994  16.599   1.509  0.00  0.00     0.051 C 
BRANCH  51  52
HETATM   52  C   UNK     0     -34.291  15.298   0.780  0.00  0.00     0.114 C 
BRANCH  52  53
HETATM   53  C   UNK     0     -33.381  14.214   1.197  0.00  0.00     0.139 C 
HETATM   54  O   UNK     0     -32.168  14.439   1.336  0.00  0.00    -0.650 OA
BRANCH  53  55
HETATM   55  O   UNK     0     -33.882  12.956   1.426  0.00  0.00    -0.776 OA
HETATM   56  H   UNK     0     -34.370  12.392   0.770  0.00  0.00     0.167 HD
ENDBRANCH  53  55
ENDBRANCH  52  53
ENDBRANCH  51  52
ENDBRANCH  18  51
TORSDOF 16
ENDMDL
MODEL 3
REMARK VINA RESULT:      -8.5      9.545     13.742
REMARK  16 active torsions:
REMARK  status: ('A' for Active; 'I' for Inactive)
REMARK    1  A    between atoms: C_6  and  C_7 
REMARK    2  A    between atoms: C_7  and  C_8 
REMARK    3  A    between atoms: C_8  and  C_9 
REMARK    4  A    between atoms: C_9  and  O_11 
REMARK    5  A    between atoms: C_16  and  C_17 
REMARK    6  A    between atoms: C_17  and  C_18 
REMARK    7  A    between atoms: C_18  and  C_19 
REMARK    8  A    between atoms: C_19  and  O_21 
REMARK    9  A    between atoms: C_28  and  C_29 
REMARK   10  A    between atoms: C_29  and  C_30 
REMARK   11  A    between atoms: C_30  and  C_31 
REMARK   12  A    between atoms: C_31  and  O_33 
REMARK   13  A    between atoms: C_42  and  C_43 
REMARK   14  A    between atoms: C_43  and  C_44 
REMARK   15  A    between atoms: C_44  and  C_45 
REMARK   16  A    between atoms: C_45  and  O_47 
ROOT
HETATM    1  C   UNK     0     -40.807  20.827  -3.653  0.00  0.00     0.051 C 
HETATM    2  C   UNK     0     -40.670  19.728  -2.619  0.00  0.00    -0.031 A 
HETATM    3  C   UNK     0     -39.724  18.719  -2.528  0.00  0.00     0.021 A 
HETATM    4  N   UNK     0     -40.010  17.942  -1.456  0.00  0.00    -0.361 N 
HETATM    5  C   UNK     0     -41.112  18.438  -0.858  0.00  0.00     0.022 A 
HETATM    6  C   UNK     0     -41.553  19.554  -1.561  0.00  0.00    -0.027 A 
HETATM    7  C   UNK     0     -41.784  18.008   0.409  0.00  0.00     0.115 C 
HETATM    8  C   UNK     0     -40.878  17.672   1.580  0.00  0.00     0.021 A 
HETATM    9  N   UNK     0     -39.718  18.248   1.933  0.00  0.00    -0.361 N 
HETATM   10  C   UNK     0     -39.213  17.566   2.983  0.00  0.00     0.022 A 
HETATM   11  C   UNK     0     -40.077  16.529   3.323  0.00  0.00    -0.027 A 
HETATM   12  C   UNK     0     -41.127  16.590   2.443  0.00  0.00    -0.031 A 
HETATM   13  C   UNK     0     -42.317  15.656   2.436  0.00  0.00     0.051 C 
HETATM   14  C   UNK     0     -37.878  17.831   3.672  0.00  0.00     0.115 C 
HETATM   15  C   UNK     0     -36.673  17.681   2.757  0.00  0.00     0.021 A 
HETATM   16  N   UNK     0     -36.419  18.350   1.616  0.00  0.00    -0.361 N 
HETATM   17  C   UNK     0     -35.295  17.879   1.072  0.00  0.00     0.022 A 
HETATM   18  C   UNK     0     -34.787  16.861   1.903  0.00  0.00    -0.027 A 
HETATM   19  C   UNK     0     -35.658  16.747   2.955  0.00  0.00    -0.031 A 
HETATM   20  C   UNK     0     -35.465  15.783   4.111  0.00  0.00     0.051 C 
HETATM   21  C   UNK     0     -34.622  18.239  -0.233  0.00  0.00     0.115 C 
HETATM   22  C   UNK     0     -35.510  18.618  -1.394  0.00  0.00     0.022 A 
HETATM   23  N   UNK     0     -36.672  18.065  -1.766  0.00  0.00    -0.361 N 
HETATM   24  C   UNK     0     -37.194  18.807  -2.763  0.00  0.00     0.021 A 
HETATM   25  C   UNK     0     -36.343  19.857  -3.048  0.00  0.00    -0.031 A 
HETATM   26  C   UNK     0     -36.475  20.931  -4.108  0.00  0.00     0.051 C 
HETATM   27  C   UNK     0     -35.257  19.758  -2.185  0.00  0.00    -0.027 A 
HETATM   28  C   UNK     0     -38.539  18.630  -3.447  0.00  0.00     0.115 C 
HETATM   29  H   UNK     0     -39.454  17.025  -1.153  0.00  0.00     0.165 HD
HETATM   30  H   UNK     0     -39.277  19.166   1.473  0.00  0.00     0.165 HD
HETATM   31  H   UNK     0     -37.019  19.206   1.211  0.00  0.00     0.165 HD
HETATM   32  H   UNK     0     -37.114  17.120  -1.356  0.00  0.00     0.165 HD
ENDROOT
BRANCH   6  33
HETATM   33  C   UNK     0     -42.736  20.455  -1.309  0.00  0.00     0.051 C 
BRANCH  33  34
HETATM   34  C   UNK     0     -43.964  19.937  -2.020  0.00  0.00     0.114 C 
BRANCH  34  35
HETATM   35  C   UNK     0     -44.874  19.370  -0.983  0.00  0.00     0.139 C 
HETATM   36  O   UNK     0     -45.100  18.126  -0.947  0.00  0.00    -0.650 OA
BRANCH  35  37
HETATM   37  O   UNK     0     -45.502  20.157  -0.026  0.00  0.00    -0.776 OA
HETATM   38  H   UNK     0     -45.533  21.162  -0.096  0.00  0.00     0.167 HD
ENDBRANCH  35  37
ENDBRANCH  34  35
ENDBRANCH  33  34
ENDBRANCH   6  33
BRANCH  27  39
HETATM   39  C   UNK     0     -34.090  20.679  -2.240  0.00  0.00     0.051 C 
BRANCH  39  40
HETATM   40  C   UNK     0     -33.998  21.743  -1.240  0.00  0.00     0.114 C 
BRANCH  40  41
HETATM   41  C   UNK     0     -33.183  21.616  -0.053  0.00  0.00     0.139 C 
HETATM   42  O   UNK     0     -31.947  21.698  -0.060  0.00  0.00    -0.650 OA
BRANCH  41  43
HETATM   43  O   UNK     0     -33.819  21.383   1.199  0.00  0.00    -0.776 OA
HETATM   44  H   UNK     0     -33.204  21.028   1.922  0.00  0.00     0.167 HD
ENDBRANCH  41  43
ENDBRANCH  40  41
ENDBRANCH  39  40
ENDBRANCH  27  39
BRANCH  11  45
HETATM   45  C   UNK     0     -39.941  15.513   4.425  0.00  0.00     0.051 C 
BRANCH  45  46
HETATM   46  C   UNK     0     -39.328  14.230   3.995  0.00  0.00     0.114 C 
BRANCH  46  47
HETATM   47  C   UNK     0     -39.999  13.142   4.763  0.00  0.00     0.139 C 
HETATM   48  O   UNK     0     -39.925  11.982   4.334  0.00  0.00    -0.650 OA
BRANCH  47  49
HETATM   49  O   UNK     0     -40.684  13.417   5.920  0.00  0.00    -0.776 OA
HETATM   50  H   UNK     0     -40.350  14.111   6.599  0.00  0.00     0.167 HD
ENDBRANCH  47  49
ENDBRANCH  46  47
ENDBRANCH  45  46
ENDBRANCH  11  45
BRANCH  18  51
HETATM   51  C   UNK     0     -33.528  16.054   1.715  0.00  0.00     0.051 C 
BRANCH  51  52
HETATM   52  C   UNK     0     -33.935  14.800   0.955  0.00  0.00     0.114 C 
BRANCH  52  53
HETATM   53  C   UNK     0     -33.406  13.577   1.589  0.00  0.00     0.139 C 
HETATM   54  O   UNK     0     -33.922  12.476   1.341  0.00  0.00    -0.650 OA
BRANCH  53  55
HETATM   55  O   UNK     0     -32.344  13.666   2.455  0.00  0.00    -0.776 OA
HETATM   56  H   UNK     0     -32.277  14.274   3.237  0.00  0.00     0.167 HD
ENDBRANCH  53  55
ENDBRANCH  52  53
ENDBRANCH  51  52
ENDBRANCH  18  51
TORSDOF 16
ENDMDL
MODEL 4
REMARK VINA RESULT:      -8.2      2.264      2.952
REMARK  16 active torsions:
REMARK  status: ('A' for Active; 'I' for Inactive)
REMARK    1  A    between atoms: C_6  and  C_7 
REMARK    2  A    between atoms: C_7  and  C_8 
REMARK    3  A    between atoms: C_8  and  C_9 
REMARK    4  A    between atoms: C_9  and  O_11 
REMARK    5  A    between atoms: C_16  and  C_17 
REMARK    6  A    between atoms: C_17  and  C_18 
REMARK    7  A    between atoms: C_18  and  C_19 
REMARK    8  A    between atoms: C_19  and  O_21 
REMARK    9  A    between atoms: C_28  and  C_29 
REMARK   10  A    between atoms: C_29  and  C_30 
REMARK   11  A    between atoms: C_30  and  C_31 
REMARK   12  A    between atoms: C_31  and  O_33 
REMARK   13  A    between atoms: C_42  and  C_43 
REMARK   14  A    between atoms: C_43  and  C_44 
REMARK   15  A    between atoms: C_44  and  C_45 
REMARK   16  A    between atoms: C_45  and  O_47 
ROOT
HETATM    1  C   UNK     0     -33.943  11.658   0.929  0.00  0.00     0.051 C 
HETATM    2  C   UNK     0     -34.482  10.612   1.883  0.00  0.00    -0.031 A 
HETATM    3  C   UNK     0     -34.758   9.273   1.656  0.00  0.00     0.021 A 
HETATM    4  N   UNK     0     -35.256   8.726   2.791  0.00  0.00    -0.361 N 
HETATM    5  C   UNK     0     -35.294   9.686   3.739  0.00  0.00     0.022 A 
HETATM    6  C   UNK     0     -34.820  10.879   3.204  0.00  0.00    -0.027 A 
HETATM    7  C   UNK     0     -35.670   9.582   5.184  0.00  0.00     0.115 C 
HETATM    8  C   UNK     0     -35.147   8.372   5.939  0.00  0.00     0.021 A 
HETATM    9  N   UNK     0     -33.970   7.743   5.798  0.00  0.00    -0.361 N 
HETATM   10  C   UNK     0     -33.971   6.665   6.609  0.00  0.00     0.022 A 
HETATM   11  C   UNK     0     -35.179   6.602   7.299  0.00  0.00    -0.027 A 
HETATM   12  C   UNK     0     -35.924   7.675   6.881  0.00  0.00    -0.031 A 
HETATM   13  C   UNK     0     -37.314   8.016   7.369  0.00  0.00     0.051 C 
HETATM   14  C   UNK     0     -32.861   5.624   6.727  0.00  0.00     0.115 C 
HETATM   15  C   UNK     0     -32.572   4.882   5.432  0.00  0.00     0.021 A 
HETATM   16  N   UNK     0     -32.197   5.408   4.251  0.00  0.00    -0.361 N 
HETATM   17  C   UNK     0     -32.112   4.432   3.344  0.00  0.00     0.022 A 
HETATM   18  C   UNK     0     -32.439   3.211   3.966  0.00  0.00    -0.027 A 
HETATM   19  C   UNK     0     -32.724   3.506   5.274  0.00  0.00    -0.031 A 
HETATM   20  C   UNK     0     -33.093   2.464   6.314  0.00  0.00     0.051 C 
HETATM   21  C   UNK     0     -31.802   4.503   1.866  0.00  0.00     0.115 C 
HETATM   22  C   UNK     0     -32.278   5.722   1.111  0.00  0.00     0.022 A 
HETATM   23  N   UNK     0     -33.443   6.372   1.234  0.00  0.00    -0.361 N 
HETATM   24  C   UNK     0     -33.389   7.485   0.476  0.00  0.00     0.021 A 
HETATM   25  C   UNK     0     -32.163   7.549  -0.159  0.00  0.00    -0.031 A 
HETATM   26  C   UNK     0     -31.649   8.584  -1.138  0.00  0.00     0.051 C 
HETATM   27  C   UNK     0     -31.435   6.431   0.232  0.00  0.00    -0.027 A 
HETATM   28  C   UNK     0     -34.432   8.584   0.362  0.00  0.00     0.115 C 
HETATM   29  H   UNK     0     -35.613   7.677   2.903  0.00  0.00     0.165 HD
HETATM   30  H   UNK     0     -33.116   8.086   5.164  0.00  0.00     0.165 HD
HETATM   31  H   UNK     0     -31.939   6.483   4.064  0.00  0.00     0.165 HD
HETATM   32  H   UNK     0     -34.332   6.027   1.824  0.00  0.00     0.165 HD
ENDROOT
BRANCH   6  33
HETATM   33  C   UNK     0     -34.667  12.236   3.843  0.00  0.00     0.051 C 
BRANCH  33  34
HETATM   34  C   UNK     0     -33.296  12.806   3.568  0.00  0.00     0.114 C 
BRANCH  34  35
HETATM   35  C   UNK     0     -33.460  14.268   3.325  0.00  0.00     0.139 C 
HETATM   36  O   UNK     0     -34.538  14.849   3.644  0.00  0.00    -0.650 OA
BRANCH  35  37
HETATM   37  O   UNK     0     -32.464  15.048   2.751  0.00  0.00    -0.776 OA
HETATM   38  H   UNK     0     -31.620  14.647   2.376  0.00  0.00     0.167 HD
ENDBRANCH  35  37
ENDBRANCH  34  35
ENDBRANCH  33  34
ENDBRANCH   6  33
BRANCH  27  39
HETATM   39  C   UNK     0     -30.083   6.117  -0.304  0.00  0.00     0.051 C 
BRANCH  39  40
HETATM   40  C   UNK     0     -28.915   6.638   0.407  0.00  0.00     0.114 C 
BRANCH  40  41
HETATM   41  C   UNK     0     -27.585   6.592  -0.158  0.00  0.00     0.139 C 
HETATM   42  O   UNK     0     -26.567   6.921   0.465  0.00  0.00    -0.650 OA
BRANCH  41  43
HETATM   43  O   UNK     0     -27.419   6.148  -1.500  0.00  0.00    -0.776 OA
HETATM   44  H   UNK     0     -28.286   5.957  -1.989  0.00  0.00     0.167 HD
ENDBRANCH  41  43
ENDBRANCH  40  41
ENDBRANCH  39  40
ENDBRANCH  27  39
BRANCH  11  45
HETATM   45  C   UNK     0     -35.633   5.587   8.313  0.00  0.00     0.051 C 
BRANCH  45  46
HETATM   46  C   UNK     0     -36.166   4.334   7.720  0.00  0.00     0.114 C 
BRANCH  46  47
HETATM   47  C   UNK     0     -35.958   3.249   8.721  0.00  0.00     0.139 C 
HETATM   48  O   UNK     0     -35.002   3.340   9.504  0.00  0.00    -0.650 OA
BRANCH  47  49
HETATM   49  O   UNK     0     -36.805   2.170   8.775  0.00  0.00    -0.776 OA
HETATM   50  H   UNK     0     -37.730   2.182   8.330  0.00  0.00     0.167 HD
ENDBRANCH  47  49
ENDBRANCH  46  47
ENDBRANCH  45  46
ENDBRANCH  11  45
BRANCH  18  51
HETATM   51  C   UNK     0     -32.458   1.835   3.353  0.00  0.00     0.051 C 
BRANCH  51  52
HETATM   52  C   UNK     0     -31.254   1.099   3.920  0.00  0.00     0.114 C 
BRANCH  52  53
HETATM   53  C   UNK     0     -31.362  -0.361   3.731  0.00  0.00     0.139 C 
HETATM   54  O   UNK     0     -30.804  -0.905   2.764  0.00  0.00    -0.650 OA
BRANCH  53  55
HETATM   55  O   UNK     0     -32.085  -1.111   4.626  0.00  0.00    -0.776 OA
HETATM   56  H   UNK     0     -32.993  -1.484   4.477  0.00  0.00     0.167 HD
ENDBRANCH  53  55
ENDBRANCH  52  53
ENDBRANCH  51  52
ENDBRANCH  18  51
TORSDOF 16
ENDMDL
MODEL 5
REMARK VINA RESULT:      -8.1     11.170     15.508
REMARK  16 active torsions:
REMARK  status: ('A' for Active; 'I' for Inactive)
REMARK    1  A    between atoms: C_6  and  C_7 
REMARK    2  A    between atoms: C_7  and  C_8 
REMARK    3  A    between atoms: C_8  and  C_9 
REMARK    4  A    between atoms: C_9  and  O_11 
REMARK    5  A    between atoms: C_16  and  C_17 
REMARK    6  A    between atoms: C_17  and  C_18 
REMARK    7  A    between atoms: C_18  and  C_19 
REMARK    8  A    between atoms: C_19  and  O_21 
REMARK    9  A    between atoms: C_28  and  C_29 
REMARK   10  A    between atoms: C_29  and  C_30 
REMARK   11  A    between atoms: C_30  and  C_31 
REMARK   12  A    between atoms: C_31  and  O_33 
REMARK   13  A    between atoms: C_42  and  C_43 
REMARK   14  A    between atoms: C_43  and  C_44 
REMARK   15  A    between atoms: C_44  and  C_45 
REMARK   16  A    between atoms: C_45  and  O_47 
ROOT
HETATM    1  C   UNK     0     -44.534  19.559  -0.368  0.00  0.00     0.051 C 
HETATM    2  C   UNK     0     -43.300  18.801   0.077  0.00  0.00    -0.031 A 
HETATM    3  C   UNK     0     -42.340  18.157  -0.687  0.00  0.00     0.021 A 
HETATM    4  N   UNK     0     -41.431  17.584   0.138  0.00  0.00    -0.361 N 
HETATM    5  C   UNK     0     -41.787  17.856   1.410  0.00  0.00     0.022 A 
HETATM    6  C   UNK     0     -42.954  18.613   1.409  0.00  0.00    -0.027 A 
HETATM    7  C   UNK     0     -41.074  17.536   2.687  0.00  0.00     0.115 C 
HETATM    8  C   UNK     0     -39.570  17.743   2.698  0.00  0.00     0.021 A 
HETATM    9  N   UNK     0     -38.852  18.694   2.082  0.00  0.00    -0.361 N 
HETATM   10  C   UNK     0     -37.544  18.436   2.293  0.00  0.00     0.022 A 
HETATM   11  C   UNK     0     -37.416  17.292   3.076  0.00  0.00    -0.027 A 
HETATM   12  C   UNK     0     -38.689  16.850   3.335  0.00  0.00    -0.031 A 
HETATM   13  C   UNK     0     -39.040  15.632   4.158  0.00  0.00     0.051 C 
HETATM   14  C   UNK     0     -36.367  19.223   1.725  0.00  0.00     0.115 C 
HETATM   15  C   UNK     0     -36.310  19.235   0.206  0.00  0.00     0.021 A 
HETATM   16  N   UNK     0     -37.250  19.684  -0.648  0.00  0.00    -0.361 N 
HETATM   17  C   UNK     0     -36.850  19.454  -1.900  0.00  0.00     0.022 A 
HETATM   18  C   UNK     0     -35.585  18.835  -1.862  0.00  0.00    -0.027 A 
HETATM   19  C   UNK     0     -35.258  18.705  -0.537  0.00  0.00    -0.031 A 
HETATM   20  C   UNK     0     -33.948  18.115  -0.045  0.00  0.00     0.051 C 
HETATM   21  C   UNK     0     -37.566  19.700  -3.209  0.00  0.00     0.115 C 
HETATM   22  C   UNK     0     -39.068  19.541  -3.224  0.00  0.00     0.022 A 
HETATM   23  N   UNK     0     -39.809  18.606  -2.616  0.00  0.00    -0.361 N 
HETATM   24  C   UNK     0     -41.109  18.926  -2.775  0.00  0.00     0.021 A 
HETATM   25  C   UNK     0     -41.207  20.091  -3.512  0.00  0.00    -0.031 A 
HETATM   26  C   UNK     0     -42.449  20.821  -3.980  0.00  0.00     0.051 C 
HETATM   27  C   UNK     0     -39.914  20.503  -3.811  0.00  0.00    -0.027 A 
HETATM   28  C   UNK     0     -42.319  18.220  -2.188  0.00  0.00     0.115 C 
HETATM   29  H   UNK     0     -40.567  16.959  -0.184  0.00  0.00     0.165 HD
HETATM   30  H   UNK     0     -39.267  19.578   1.538  0.00  0.00     0.165 HD
HETATM   31  H   UNK     0     -38.194  20.216  -0.362  0.00  0.00     0.165 HD
HETATM   32  H   UNK     0     -39.422  17.686  -2.105  0.00  0.00     0.165 HD
ENDROOT
BRANCH   6  33
HETATM   33  C   UNK     0     -43.755  19.162   2.562  0.00  0.00     0.051 C 
BRANCH  33  34
HETATM   34  C   UNK     0     -44.513  18.057   3.261  0.00  0.00     0.114 C 
BRANCH  34  35
HETATM   35  C   UNK     0     -44.152  18.113   4.706  0.00  0.00     0.139 C 
HETATM   36  O   UNK     0     -43.287  18.941   5.115  0.00  0.00    -0.650 OA
BRANCH  35  37
HETATM   37  O   UNK     0     -44.732  17.282   5.656  0.00  0.00    -0.776 OA
HETATM   38  H   UNK     0     -45.153  16.400   5.410  0.00  0.00     0.167 HD
ENDBRANCH  35  37
ENDBRANCH  34  35
ENDBRANCH  33  34
ENDBRANCH   6  33
BRANCH  27  39
HETATM   39  C   UNK     0     -39.617  21.690  -4.659  0.00  0.00     0.051 C 
BRANCH  39  40
HETATM   40  C   UNK     0     -39.341  21.477  -6.079  0.00  0.00     0.114 C 
BRANCH  40  41
HETATM   41  C   UNK     0     -40.194  20.663  -6.916  0.00  0.00     0.139 C 
HETATM   42  O   UNK     0     -41.313  21.023  -7.307  0.00  0.00    -0.650 OA
BRANCH  41  43
HETATM   43  O   UNK     0     -39.740  19.376  -7.322  0.00  0.00    -0.776 OA
HETATM   44  H   UNK     0     -40.301  18.606  -6.979  0.00  0.00     0.167 HD
ENDBRANCH  41  43
ENDBRANCH  40  41
ENDBRANCH  39  40
ENDBRANCH  27  39
BRANCH  11  45
HETATM   45  C   UNK     0     -36.161  16.627   3.573  0.00  0.00     0.051 C 
BRANCH  45  46
HETATM   46  C   UNK     0     -35.256  16.157   2.493  0.00  0.00     0.114 C 
BRANCH  46  47
HETATM   47  C   UNK     0     -34.131  15.429   3.146  0.00  0.00     0.139 C 
HETATM   48  O   UNK     0     -34.370  14.350   3.708  0.00  0.00    -0.650 OA
BRANCH  47  49
HETATM   49  O   UNK     0     -32.858  15.940   3.129  0.00  0.00    -0.776 OA
HETATM   50  H   UNK     0     -32.486  16.504   3.902  0.00  0.00     0.167 HD
ENDBRANCH  47  49
ENDBRANCH  46  47
ENDBRANCH  45  46
ENDBRANCH  11  45
BRANCH  18  51
HETATM   51  C   UNK     0     -34.726  18.410  -3.024  0.00  0.00     0.051 C 
BRANCH  51  52
HETATM   52  C   UNK     0     -33.661  19.485  -3.182  0.00  0.00     0.114 C 
BRANCH  52  53
HETATM   53  C   UNK     0     -34.106  20.574  -4.072  0.00  0.00     0.139 C 
HETATM   54  O   UNK     0     -33.824  21.753  -3.801  0.00  0.00    -0.650 OA
BRANCH  53  55
HETATM   55  O   UNK     0     -34.837  20.277  -5.196  0.00  0.00    -0.776 OA
HETATM   56  H   UNK     0     -35.702  20.688  -5.456  0.00  0.00     0.167 HD
ENDBRANCH  53  55
ENDBRANCH  52  53
ENDBRANCH  51  52
ENDBRANCH  18  51
TORSDOF 16
ENDMDL
MODEL 6
REMARK VINA RESULT:      -8.0     10.310     16.011
REMARK  16 active torsions:
REMARK  status: ('A' for Active; 'I' for Inactive)
REMARK    1  A    between atoms: C_6  and  C_7 
REMARK    2  A    between atoms: C_7  and  C_8 
REMARK    3  A    between atoms: C_8  and  C_9 
REMARK    4  A    between atoms: C_9  and  O_11 
REMARK    5  A    between atoms: C_16  and  C_17 
REMARK    6  A    between atoms: C_17  and  C_18 
REMARK    7  A    between atoms: C_18  and  C_19 
REMARK    8  A    between atoms: C_19  and  O_21 
REMARK    9  A    between atoms: C_28  and  C_29 
REMARK   10  A    between atoms: C_29  and  C_30 
REMARK   11  A    between atoms: C_30  and  C_31 
REMARK   12  A    between atoms: C_31  and  O_33 
REMARK   13  A    between atoms: C_42  and  C_43 
REMARK   14  A    between atoms: C_43  and  C_44 
REMARK   15  A    between atoms: C_44  and  C_45 
REMARK   16  A    between atoms: C_45  and  O_47 
ROOT
HETATM    1  C   UNK     0     -39.955  15.995   4.068  0.00  0.00     0.051 C 
HETATM    2  C   UNK     0     -39.955  17.064   2.994  0.00  0.00    -0.031 A 
HETATM    3  C   UNK     0     -39.017  18.051   2.735  0.00  0.00     0.021 A 
HETATM    4  N   UNK     0     -39.445  18.805   1.695  0.00  0.00    -0.361 N 
HETATM    5  C   UNK     0     -40.631  18.315   1.280  0.00  0.00     0.022 A 
HETATM    6  C   UNK     0     -40.981  17.227   2.073  0.00  0.00    -0.027 A 
HETATM    7  C   UNK     0     -41.475  18.725   0.113  0.00  0.00     0.115 C 
HETATM    8  C   UNK     0     -40.746  19.012  -1.188  0.00  0.00     0.021 A 
HETATM    9  N   UNK     0     -39.660  18.404  -1.689  0.00  0.00    -0.361 N 
HETATM   10  C   UNK     0     -39.305  19.047  -2.822  0.00  0.00     0.022 A 
HETATM   11  C   UNK     0     -40.192  20.092  -3.061  0.00  0.00    -0.027 A 
HETATM   12  C   UNK     0     -41.103  20.075  -2.036  0.00  0.00    -0.031 A 
HETATM   13  C   UNK     0     -42.263  21.033  -1.881  0.00  0.00     0.051 C 
HETATM   14  C   UNK     0     -38.089  18.737  -3.691  0.00  0.00     0.115 C 
HETATM   15  C   UNK     0     -36.761  18.887  -2.967  0.00  0.00     0.021 A 
HETATM   16  N   UNK     0     -36.352  18.244  -1.858  0.00  0.00    -0.361 N 
HETATM   17  C   UNK     0     -35.153  18.707  -1.499  0.00  0.00     0.022 A 
HETATM   18  C   UNK     0     -34.757  19.693  -2.424  0.00  0.00    -0.027 A 
HETATM   19  C   UNK     0     -35.772  19.795  -3.339  0.00  0.00    -0.031 A 
HETATM   20  C   UNK     0     -35.736  20.725  -4.539  0.00  0.00     0.051 C 
HETATM   21  C   UNK     0     -34.301  18.369  -0.296  0.00  0.00     0.115 C 
HETATM   22  C   UNK     0     -35.014  18.038   0.993  0.00  0.00     0.022 A 
HETATM   23  N   UNK     0     -36.100  18.623   1.515  0.00  0.00    -0.361 N 
HETATM   24  C   UNK     0     -36.481  17.919   2.600  0.00  0.00     0.021 A 
HETATM   25  C   UNK     0     -35.614  16.859   2.786  0.00  0.00    -0.031 A 
HETATM   26  C   UNK     0     -35.605  15.817   3.885  0.00  0.00     0.051 C 
HETATM   27  C   UNK     0     -34.666  16.915   1.771  0.00  0.00    -0.027 A 
HETATM   28  C   UNK     0     -37.708  18.140   3.468  0.00  0.00     0.115 C 
HETATM   29  H   UNK     0     -38.925  19.703   1.287  0.00  0.00     0.165 HD
HETATM   30  H   UNK     0     -39.171  17.489  -1.273  0.00  0.00     0.165 HD
HETATM   31  H   UNK     0     -36.900  17.411  -1.344  0.00  0.00     0.165 HD
HETATM   32  H   UNK     0     -36.582  19.566   1.148  0.00  0.00     0.165 HD
ENDROOT
BRANCH   6  33
HETATM   33  C   UNK     0     -42.202  16.343   2.023  0.00  0.00     0.051 C 
BRANCH  33  34
HETATM   34  C   UNK     0     -43.193  16.740   3.092  0.00  0.00     0.114 C 
BRANCH  34  35
HETATM   35  C   UNK     0     -43.993  17.879   2.558  0.00  0.00     0.139 C 
HETATM   36  O   UNK     0     -44.258  18.872   3.296  0.00  0.00    -0.650 OA
BRANCH  35  37
HETATM   37  O   UNK     0     -44.476  17.911   1.255  0.00  0.00    -0.776 OA
HETATM   38  H   UNK     0     -44.762  18.769   0.812  0.00  0.00     0.167 HD
ENDBRANCH  35  37
ENDBRANCH  34  35
ENDBRANCH  33  34
ENDBRANCH   6  33
BRANCH  27  39
HETATM   39  C   UNK     0     -33.518  15.972   1.681  0.00  0.00     0.051 C 
BRANCH  39  40
HETATM   40  C   UNK     0     -33.720  14.696   0.996  0.00  0.00     0.114 C 
BRANCH  40  41
HETATM   41  C   UNK     0     -33.309  13.436   1.575  0.00  0.00     0.139 C 
HETATM   42  O   UNK     0     -33.950  12.384   1.448  0.00  0.00    -0.650 OA
BRANCH  41  43
HETATM   43  O   UNK     0     -32.106  13.385   2.334  0.00  0.00    -0.776 OA
HETATM   44  H   UNK     0     -32.228  13.560   3.325  0.00  0.00     0.167 HD
ENDBRANCH  41  43
ENDBRANCH  40  41
ENDBRANCH  39  40
ENDBRANCH  27  39
BRANCH  11  45
HETATM   45  C   UNK     0     -40.204  21.075  -4.201  0.00  0.00     0.051 C 
BRANCH  45  46
HETATM   46  C   UNK     0     -41.126  20.710  -5.306  0.00  0.00     0.114 C 
BRANCH  46  47
HETATM   47  C   UNK     0     -40.284  20.350  -6.483  0.00  0.00     0.139 C 
HETATM   48  O   UNK     0     -39.066  20.571  -6.429  0.00  0.00    -0.650 OA
BRANCH  47  49
HETATM   49  O   UNK     0     -40.844  19.787  -7.602  0.00  0.00    -0.776 OA
HETATM   50  H   UNK     0     -41.836  19.912  -7.837  0.00  0.00     0.167 HD
ENDBRANCH  47  49
ENDBRANCH  46  47
ENDBRANCH  45  46
ENDBRANCH  11  45
BRANCH  18  51
HETATM   51  C   UNK     0     -33.471  20.479  -2.446  0.00  0.00     0.051 C 
BRANCH  51  52
HETATM   52  C   UNK     0     -33.760  21.789  -1.728  0.00  0.00     0.114 C 
BRANCH  52  53
HETATM   53  C   UNK     0     -33.198  21.803  -0.364  0.00  0.00     0.139 C 
HETATM   54  O   UNK     0     -33.953  21.772   0.620  0.00  0.00    -0.650 OA
BRANCH  53  55
HETATM   55  O   UNK     0     -31.836  21.854  -0.191  0.00  0.00    -0.776 OA
HETATM   56  H   UNK     0     -31.248  21.090   0.045  0.00  0.00     0.167 HD
ENDBRANCH  53  55
ENDBRANCH  52  53
ENDBRANCH  51  52
ENDBRANCH  18  51
TORSDOF 16
ENDMDL
MODEL 7
REMARK VINA RESULT:      -8.0     16.532     20.394
REMARK  16 active torsions:
REMARK  status: ('A' for Active; 'I' for Inactive)
REMARK    1  A    between atoms: C_6  and  C_7 
REMARK    2  A    between atoms: C_7  and  C_8 
REMARK    3  A    between atoms: C_8  and  C_9 
REMARK    4  A    between atoms: C_9  and  O_11 
REMARK    5  A    between atoms: C_16  and  C_17 
REMARK    6  A    between atoms: C_17  and  C_18 
REMARK    7  A    between atoms: C_18  and  C_19 
REMARK    8  A    between atoms: C_19  and  O_21 
REMARK    9  A    between atoms: C_28  and  C_29 
REMARK   10  A    between atoms: C_29  and  C_30 
REMARK   11  A    between atoms: C_30  and  C_31 
REMARK   12  A    between atoms: C_31  and  O_33 
REMARK   13  A    between atoms: C_42  and  C_43 
REMARK   14  A    between atoms: C_43  and  C_44 
REMARK   15  A    between atoms: C_44  and  C_45 
REMARK   16  A    between atoms: C_45  and  O_47 
ROOT
HETATM    1  C   UNK     0     -48.870  19.769   9.361  0.00  0.00     0.051 C 
HETATM    2  C   UNK     0     -49.943  19.311   8.394  0.00  0.00    -0.031 A 
HETATM    3  C   UNK     0     -50.220  19.758   7.112  0.00  0.00     0.021 A 
HETATM    4  N   UNK     0     -51.292  19.083   6.631  0.00  0.00    -0.361 N 
HETATM    5  C   UNK     0     -51.698  18.210   7.576  0.00  0.00     0.022 A 
HETATM    6  C   UNK     0     -50.878  18.328   8.693  0.00  0.00    -0.027 A 
HETATM    7  C   UNK     0     -52.773  17.170   7.513  0.00  0.00     0.115 C 
HETATM    8  C   UNK     0     -52.861  16.358   6.233  0.00  0.00     0.021 A 
HETATM    9  N   UNK     0     -51.864  15.933   5.442  0.00  0.00    -0.361 N 
HETATM   10  C   UNK     0     -52.411  15.328   4.366  0.00  0.00     0.022 A 
HETATM   11  C   UNK     0     -53.798  15.356   4.472  0.00  0.00    -0.027 A 
HETATM   12  C   UNK     0     -54.089  16.003   5.646  0.00  0.00    -0.031 A 
HETATM   13  C   UNK     0     -55.479  16.262   6.180  0.00  0.00     0.051 C 
HETATM   14  C   UNK     0     -51.652  14.750   3.175  0.00  0.00     0.115 C 
HETATM   15  C   UNK     0     -50.829  15.776   2.412  0.00  0.00     0.021 A 
HETATM   16  N   UNK     0     -49.839  16.554   2.890  0.00  0.00    -0.361 N 
HETATM   17  C   UNK     0     -49.417  17.370   1.922  0.00  0.00     0.022 A 
HETATM   18  C   UNK     0     -50.160  17.104   0.754  0.00  0.00    -0.027 A 
HETATM   19  C   UNK     0     -51.040  16.103   1.074  0.00  0.00    -0.031 A 
HETATM   20  C   UNK     0     -52.012  15.485   0.086  0.00  0.00     0.051 C 
HETATM   21  C   UNK     0     -48.385  18.474   1.962  0.00  0.00     0.115 C 
HETATM   22  C   UNK     0     -48.256  19.261   3.245  0.00  0.00     0.022 A 
HETATM   23  N   UNK     0     -49.231  19.693   4.055  0.00  0.00    -0.361 N 
HETATM   24  C   UNK     0     -48.662  20.223   5.157  0.00  0.00     0.021 A 
HETATM   25  C   UNK     0     -47.288  20.139   5.049  0.00  0.00    -0.031 A 
HETATM   26  C   UNK     0     -46.224  20.632   6.008  0.00  0.00     0.051 C 
HETATM   27  C   UNK     0     -47.003  19.527   3.834  0.00  0.00    -0.027 A 
HETATM   28  C   UNK     0     -49.359  20.759   6.396  0.00  0.00     0.115 C 
HETATM   29  H   UNK     0     -51.778  19.256   5.643  0.00  0.00     0.165 HD
HETATM   30  H   UNK     0     -50.772  16.015   5.664  0.00  0.00     0.165 HD
HETATM   31  H   UNK     0     -49.397  16.494   3.918  0.00  0.00     0.165 HD
HETATM   32  H   UNK     0     -50.330  19.668   3.837  0.00  0.00     0.165 HD
ENDROOT
BRANCH   6  33
HETATM   33  C   UNK     0     -50.916  17.590  10.008  0.00  0.00     0.051 C 
BRANCH  33  34
HETATM   34  C   UNK     0     -50.457  16.162   9.832  0.00  0.00     0.114 C 
BRANCH  34  35
HETATM   35  C   UNK     0     -51.488  15.282  10.454  0.00  0.00     0.139 C 
HETATM   36  O   UNK     0     -51.203  14.090  10.769  0.00  0.00    -0.650 OA
BRANCH  35  37
HETATM   37  O   UNK     0     -52.782  15.714  10.717  0.00  0.00    -0.776 OA
HETATM   38  H   UNK     0     -53.062  16.042  11.628  0.00  0.00     0.167 HD
ENDBRANCH  35  37
ENDBRANCH  34  35
ENDBRANCH  33  34
ENDBRANCH   6  33
BRANCH  27  39
HETATM   39  C   UNK     0     -45.616  19.327   3.332  0.00  0.00     0.051 C 
BRANCH  39  40
HETATM   40  C   UNK     0     -44.994  18.016   3.517  0.00  0.00     0.114 C 
BRANCH  40  41
HETATM   41  C   UNK     0     -44.010  17.768   4.546  0.00  0.00     0.139 C 
HETATM   42  O   UNK     0     -42.788  17.791   4.342  0.00  0.00    -0.650 OA
BRANCH  41  43
HETATM   43  O   UNK     0     -44.450  17.481   5.869  0.00  0.00    -0.776 OA
HETATM   44  H   UNK     0     -45.378  17.825   6.086  0.00  0.00     0.167 HD
ENDBRANCH  41  43
ENDBRANCH  40  41
ENDBRANCH  39  40
ENDBRANCH  27  39
BRANCH  11  45
HETATM   45  C   UNK     0     -54.826  14.801   3.523  0.00  0.00     0.051 C 
BRANCH  45  46
HETATM   46  C   UNK     0     -55.529  13.594   4.029  0.00  0.00     0.114 C 
BRANCH  46  47
HETATM   47  C   UNK     0     -54.566  12.458   3.952  0.00  0.00     0.139 C 
HETATM   48  O   UNK     0     -54.096  12.154   2.847  0.00  0.00    -0.650 OA
BRANCH  47  49
HETATM   49  O   UNK     0     -54.209  11.762   5.079  0.00  0.00    -0.776 OA
HETATM   50  H   UNK     0     -54.869  11.591   5.847  0.00  0.00     0.167 HD
ENDBRANCH  47  49
ENDBRANCH  46  47
ENDBRANCH  45  46
ENDBRANCH  11  45
BRANCH  18  51
HETATM   51  C   UNK     0     -50.024  17.754  -0.598  0.00  0.00     0.051 C 
BRANCH  51  52
HETATM   52  C   UNK     0     -48.862  17.058  -1.291  0.00  0.00     0.114 C 
BRANCH  52  53
HETATM   53  C   UNK     0     -49.257  16.497  -2.597  0.00  0.00     0.139 C 
HETATM   54  O   UNK     0     -50.443  16.542  -2.960  0.00  0.00    -0.650 OA
BRANCH  53  55
HETATM   55  O   UNK     0     -48.307  15.922  -3.405  0.00  0.00    -0.776 OA
HETATM   56  H   UNK     0     -47.460  16.346  -3.704  0.00  0.00     0.167 HD
ENDBRANCH  53  55
ENDBRANCH  52  53
ENDBRANCH  51  52
ENDBRANCH  18  51
TORSDOF 16
ENDMDL
MODEL 8
REMARK VINA RESULT:      -8.0     10.987     16.257
REMARK  16 active torsions:
REMARK  status: ('A' for Active; 'I' for Inactive)
REMARK    1  A    between atoms: C_6  and  C_7 
REMARK    2  A    between atoms: C_7  and  C_8 
REMARK    3  A    between atoms: C_8  and  C_9 
REMARK    4  A    between atoms: C_9  and  O_11 
REMARK    5  A    between atoms: C_16  and  C_17 
REMARK    6  A    between atoms: C_17  and  C_18 
REMARK    7  A    between atoms: C_18  and  C_19 
REMARK    8  A    between atoms: C_19  and  O_21 
REMARK    9  A    between atoms: C_28  and  C_29 
REMARK   10  A    between atoms: C_29  and  C_30 
REMARK   11  A    between atoms: C_30  and  C_31 
REMARK   12  A    between atoms: C_31  and  O_33 
REMARK   13  A    between atoms: C_42  and  C_43 
REMARK   14  A    between atoms: C_43  and  C_44 
REMARK   15  A    between atoms: C_44  and  C_45 
REMARK   16  A    between atoms: C_45  and  O_47 
ROOT
HETATM    1  C   UNK     0     -36.571  16.240   4.037  0.00  0.00     0.051 C 
HETATM    2  C   UNK     0     -37.723  17.063   3.498  0.00  0.00    -0.031 A 
HETATM    3  C   UNK     0     -37.697  18.216   2.730  0.00  0.00     0.021 A 
HETATM    4  N   UNK     0     -38.968  18.626   2.505  0.00  0.00    -0.361 N 
HETATM    5  C   UNK     0     -39.804  17.754   3.106  0.00  0.00     0.022 A 
HETATM    6  C   UNK     0     -39.058  16.765   3.739  0.00  0.00    -0.027 A 
HETATM    7  C   UNK     0     -41.299  17.700   3.083  0.00  0.00     0.115 C 
HETATM    8  C   UNK     0     -41.970  17.954   1.745  0.00  0.00     0.021 A 
HETATM    9  N   UNK     0     -41.550  17.604   0.519  0.00  0.00    -0.361 N 
HETATM   10  C   UNK     0     -42.415  18.117  -0.382  0.00  0.00     0.022 A 
HETATM   11  C   UNK     0     -43.424  18.808   0.281  0.00  0.00    -0.027 A 
HETATM   12  C   UNK     0     -43.150  18.709   1.622  0.00  0.00    -0.031 A 
HETATM   13  C   UNK     0     -43.986  19.308   2.731  0.00  0.00     0.051 C 
HETATM   14  C   UNK     0     -42.295  18.021  -1.901  0.00  0.00     0.115 C 
HETATM   15  C   UNK     0     -41.038  18.666  -2.461  0.00  0.00     0.021 A 
HETATM   16  N   UNK     0     -39.759  18.367  -2.165  0.00  0.00    -0.361 N 
HETATM   17  C   UNK     0     -38.950  19.207  -2.814  0.00  0.00     0.022 A 
HETATM   18  C   UNK     0     -39.739  20.090  -3.577  0.00  0.00    -0.027 A 
HETATM   19  C   UNK     0     -41.045  19.740  -3.349  0.00  0.00    -0.031 A 
HETATM   20  C   UNK     0     -42.229  20.421  -4.010  0.00  0.00     0.051 C 
HETATM   21  C   UNK     0     -37.445  19.338  -2.767  0.00  0.00     0.115 C 
HETATM   22  C   UNK     0     -36.760  19.045  -1.453  0.00  0.00     0.022 A 
HETATM   23  N   UNK     0     -37.157  19.378  -0.217  0.00  0.00    -0.361 N 
HETATM   24  C   UNK     0     -36.325  18.791   0.667  0.00  0.00     0.021 A 
HETATM   25  C   UNK     0     -35.363  18.072  -0.015  0.00  0.00    -0.031 A 
HETATM   26  C   UNK     0     -34.195  17.280   0.536  0.00  0.00     0.051 C 
HETATM   27  C   UNK     0     -35.620  18.219  -1.374  0.00  0.00    -0.027 A 
HETATM   28  C   UNK     0     -36.425  18.800   2.183  0.00  0.00     0.115 C 
HETATM   29  H   UNK     0     -39.264  19.551   1.957  0.00  0.00     0.165 HD
HETATM   30  H   UNK     0     -40.672  16.952   0.289  0.00  0.00     0.165 HD
HETATM   31  H   UNK     0     -39.418  17.514  -1.522  0.00  0.00     0.165 HD
HETATM   32  H   UNK     0     -38.003  20.066   0.041  0.00  0.00     0.165 HD
ENDROOT
BRANCH   6  33
HETATM   33  C   UNK     0     -39.512  15.576   4.547  0.00  0.00     0.051 C 
BRANCH  33  34
HETATM   34  C   UNK     0     -39.845  14.412   3.644  0.00  0.00     0.114 C 
BRANCH  34  35
HETATM   35  C   UNK     0     -40.195  13.255   4.518  0.00  0.00     0.139 C 
HETATM   36  O   UNK     0     -39.956  12.073   4.136  0.00  0.00    -0.650 OA
BRANCH  35  37
HETATM   37  O   UNK     0     -40.786  13.411   5.766  0.00  0.00    -0.776 OA
HETATM   38  H   UNK     0     -41.492  14.108   5.940  0.00  0.00     0.167 HD
ENDBRANCH  35  37
ENDBRANCH  34  35
ENDBRANCH  33  34
ENDBRANCH   6  33
BRANCH  27  39
HETATM   39  C   UNK     0     -34.747  17.642  -2.431  0.00  0.00     0.051 C 
BRANCH  39  40
HETATM   40  C   UNK     0     -33.673  18.473  -2.975  0.00  0.00     0.114 C 
BRANCH  40  41
HETATM   41  C   UNK     0     -33.893  19.839  -3.395  0.00  0.00     0.139 C 
HETATM   42  O   UNK     0     -33.603  20.822  -2.700  0.00  0.00    -0.650 OA
BRANCH  41  43
HETATM   43  O   UNK     0     -34.474  20.084  -4.671  0.00  0.00    -0.776 OA
HETATM   44  H   UNK     0     -34.895  21.000  -4.771  0.00  0.00     0.167 HD
ENDBRANCH  41  43
ENDBRANCH  40  41
ENDBRANCH  39  40
ENDBRANCH  27  39
BRANCH  11  45
HETATM   45  C   UNK     0     -44.607  19.535  -0.300  0.00  0.00     0.051 C 
BRANCH  45  46
HETATM   46  C   UNK     0     -45.831  18.703  -0.420  0.00  0.00     0.114 C 
BRANCH  46  47
HETATM   47  C   UNK     0     -46.009  18.385  -1.865  0.00  0.00     0.139 C 
HETATM   48  O   UNK     0     -46.649  17.370  -2.174  0.00  0.00    -0.650 OA
BRANCH  47  49
HETATM   49  O   UNK     0     -45.474  19.196  -2.834  0.00  0.00    -0.776 OA
HETATM   50  H   UNK     0     -46.063  19.747  -3.470  0.00  0.00     0.167 HD
ENDBRANCH  47  49
ENDBRANCH  46  47
ENDBRANCH  45  46
ENDBRANCH  11  45
BRANCH  18  51
HETATM   51  C   UNK     0     -39.274  21.194  -4.491  0.00  0.00     0.051 C 
BRANCH  51  52
HETATM   52  C   UNK     0     -38.798  20.517  -5.768  0.00  0.00     0.114 C 
BRANCH  52  53
HETATM   53  C   UNK     0     -39.670  20.834  -6.916  0.00  0.00     0.139 C 
HETATM   54  O   UNK     0     -40.647  20.113  -7.172  0.00  0.00    -0.650 OA
BRANCH  53  55
HETATM   55  O   UNK     0     -39.392  21.929  -7.698  0.00  0.00    -0.776 OA
HETATM   56  H   UNK     0     -39.146  21.912  -8.660  0.00  0.00     0.167 HD
ENDBRANCH  53  55
ENDBRANCH  52  53
ENDBRANCH  51  52
ENDBRANCH  18  51
TORSDOF 16
ENDMDL
MODEL 9
REMARK VINA RESULT:      -7.8     11.044     15.734
REMARK  16 active torsions:
REMARK  status: ('A' for Active; 'I' for Inactive)
REMARK    1  A    between atoms: C_6  and  C_7 
REMARK    2  A    between atoms: C_7  and  C_8 
REMARK    3  A    between atoms: C_8  and  C_9 
REMARK    4  A    between atoms: C_9  and  O_11 
REMARK    5  A    between atoms: C_16  and  C_17 
REMARK    6  A    between atoms: C_17  and  C_18 
REMARK    7  A    between atoms: C_18  and  C_19 
REMARK    8  A    between atoms: C_19  and  O_21 
REMARK    9  A    between atoms: C_28  and  C_29 
REMARK   10  A    between atoms: C_29  and  C_30 
REMARK   11  A    between atoms: C_30  and  C_31 
REMARK   12  A    between atoms: C_31  and  O_33 
REMARK   13  A    between atoms: C_42  and  C_43 
REMARK   14  A    between atoms: C_43  and  C_44 
REMARK   15  A    between atoms: C_44  and  C_45 
REMARK   16  A    between atoms: C_45  and  O_47 
ROOT
HETATM    1  C   UNK     0     -36.367  22.414  -5.540  0.00  0.00     0.051 C 
HETATM    2  C   UNK     0     -37.020  21.304  -4.740  0.00  0.00    -0.031 A 
HETATM    3  C   UNK     0     -36.436  20.227  -4.092  0.00  0.00     0.021 A 
HETATM    4  N   UNK     0     -37.409  19.470  -3.530  0.00  0.00    -0.361 N 
HETATM    5  C   UNK     0     -38.598  20.047  -3.799  0.00  0.00     0.022 A 
HETATM    6  C   UNK     0     -38.392  21.195  -4.556  0.00  0.00    -0.027 A 
HETATM    7  C   UNK     0     -39.968  19.665  -3.332  0.00  0.00     0.115 C 
HETATM    8  C   UNK     0     -40.103  19.258  -1.875  0.00  0.00     0.021 A 
HETATM    9  N   UNK     0     -39.451  19.744  -0.807  0.00  0.00    -0.361 N 
HETATM   10  C   UNK     0     -39.820  19.023   0.273  0.00  0.00     0.022 A 
HETATM   11  C   UNK     0     -40.742  18.053  -0.108  0.00  0.00    -0.027 A 
HETATM   12  C   UNK     0     -40.925  18.195  -1.460  0.00  0.00    -0.031 A 
HETATM   13  C   UNK     0     -41.850  17.353  -2.310  0.00  0.00     0.051 C 
HETATM   14  C   UNK     0     -39.281  19.185   1.691  0.00  0.00     0.115 C 
HETATM   15  C   UNK     0     -37.784  18.947   1.811  0.00  0.00     0.021 A 
HETATM   16  N   UNK     0     -36.795  19.598   1.172  0.00  0.00    -0.361 N 
HETATM   17  C   UNK     0     -35.624  19.045   1.496  0.00  0.00     0.022 A 
HETATM   18  C   UNK     0     -35.861  17.989   2.398  0.00  0.00    -0.027 A 
HETATM   19  C   UNK     0     -37.217  17.939   2.588  0.00  0.00    -0.031 A 
HETATM   20  C   UNK     0     -37.902  16.959   3.523  0.00  0.00     0.051 C 
HETATM   21  C   UNK     0     -34.231  19.357   0.998  0.00  0.00     0.115 C 
HETATM   22  C   UNK     0     -34.087  19.805  -0.437  0.00  0.00     0.022 A 
HETATM   23  N   UNK     0     -34.726  19.343  -1.519  0.00  0.00    -0.361 N 
HETATM   24  C   UNK     0     -34.403  20.125  -2.569  0.00  0.00     0.021 A 
HETATM   25  C   UNK     0     -33.526  21.109  -2.155  0.00  0.00    -0.031 A 
HETATM   26  C   UNK     0     -32.854  22.192  -2.972  0.00  0.00     0.051 C 
HETATM   27  C   UNK     0     -33.308  20.925  -0.794  0.00  0.00    -0.027 A 
HETATM   28  C   UNK     0     -34.948  20.052  -3.985  0.00  0.00     0.115 C 
HETATM   29  H   UNK     0     -37.251  18.513  -2.982  0.00  0.00     0.165 HD
HETATM   30  H   UNK     0     -38.767  20.628  -0.804  0.00  0.00     0.165 HD
HETATM   31  H   UNK     0     -36.920  20.498   0.514  0.00  0.00     0.165 HD
HETATM   32  H   UNK     0     -35.379  18.432  -1.562  0.00  0.00     0.165 HD
ENDROOT
BRANCH   6  33
HETATM   33  C   UNK     0     -39.387  22.181  -5.114  0.00  0.00     0.051 C 
BRANCH  33  34
HETATM   34  C   UNK     0     -39.566  21.979  -6.600  0.00  0.00     0.114 C 
BRANCH  34  35
HETATM   35  C   UNK     0     -40.431  20.779  -6.786  0.00  0.00     0.139 C 
HETATM   36  O   UNK     0     -39.948  19.714  -7.269  0.00  0.00    -0.650 OA
BRANCH  35  37
HETATM   37  O   UNK     0     -41.778  20.766  -6.445  0.00  0.00    -0.776 OA
HETATM   38  H   UNK     0     -42.441  20.167  -6.909  0.00  0.00     0.167 HD
ENDBRANCH  35  37
ENDBRANCH  34  35
ENDBRANCH  33  34
ENDBRANCH   6  33
BRANCH  27  39
HETATM   39  C   UNK     0     -32.359  21.756  -0.006  0.00  0.00     0.051 C 
BRANCH  39  40
HETATM   40  C   UNK     0     -30.995  21.262   0.183  0.00  0.00     0.114 C 
BRANCH  40  41
HETATM   41  C   UNK     0     -30.351  21.253   1.478  0.00  0.00     0.139 C 
HETATM   42  O   UNK     0     -30.966  21.359   2.548  0.00  0.00    -0.650 OA
BRANCH  41  43
HETATM   43  O   UNK     0     -28.936  21.115   1.544  0.00  0.00    -0.776 OA
HETATM   44  H   UNK     0     -28.440  21.975   1.747  0.00  0.00     0.167 HD
ENDBRANCH  41  43
ENDBRANCH  40  41
ENDBRANCH  39  40
ENDBRANCH  27  39
BRANCH  11  45
HETATM   45  C   UNK     0     -41.436  17.027   0.747  0.00  0.00     0.051 C 
BRANCH  45  46
HETATM   46  C   UNK     0     -42.498  17.585   1.623  0.00  0.00     0.114 C 
BRANCH  46  47
HETATM   47  C   UNK     0     -42.314  16.986   2.976  0.00  0.00     0.139 C 
HETATM   48  O   UNK     0     -41.970  17.725   3.909  0.00  0.00    -0.650 OA
BRANCH  47  49
HETATM   49  O   UNK     0     -42.519  15.646   3.185  0.00  0.00    -0.776 OA
HETATM   50  H   UNK     0     -42.329  14.946   2.458  0.00  0.00     0.167 HD
ENDBRANCH  47  49
ENDBRANCH  46  47
ENDBRANCH  45  46
ENDBRANCH  11  45
BRANCH  18  51
HETATM   51  C   UNK     0     -34.848  17.090   3.059  0.00  0.00     0.051 C 
BRANCH  51  52
HETATM   52  C   UNK     0     -34.590  15.950   2.085  0.00  0.00     0.114 C 
BRANCH  52  53
HETATM   53  C   UNK     0     -33.608  14.986   2.615  0.00  0.00     0.139 C 
HETATM   54  O   UNK     0     -33.970  14.101   3.407  0.00  0.00    -0.650 OA
BRANCH  53  55
HETATM   55  O   UNK     0     -32.292  15.075   2.231  0.00  0.00    -0.776 OA
HETATM   56  H   UNK     0     -31.585  15.603   2.686  0.00  0.00     0.167 HD
ENDBRANCH  53  55
ENDBRANCH  52  53
ENDBRANCH  51  52
ENDBRANCH  18  51
TORSDOF 16
ENDMDL
MODEL 10
REMARK VINA RESULT:      -7.6     11.994     17.185
REMARK  16 active torsions:
REMARK  status: ('A' for Active; 'I' for Inactive)
REMARK    1  A    between atoms: C_6  and  C_7 
REMARK    2  A    between atoms: C_7  and  C_8 
REMARK    3  A    between atoms: C_8  and  C_9 
REMARK    4  A    between atoms: C_9  and  O_11 
REMARK    5  A    between atoms: C_16  and  C_17 
REMARK    6  A    between atoms: C_17  and  C_18 
REMARK    7  A    between atoms: C_18  and  C_19 
REMARK    8  A    between atoms: C_19  and  O_21 
REMARK    9  A    between atoms: C_28  and  C_29 
REMARK   10  A    between atoms: C_29  and  C_30 
REMARK   11  A    between atoms: C_30  and  C_31 
REMARK   12  A    between atoms: C_31  and  O_33 
REMARK   13  A    between atoms: C_42  and  C_43 
REMARK   14  A    between atoms: C_43  and  C_44 
REMARK   15  A    between atoms: C_44  and  C_45 
REMARK   16  A    between atoms: C_45  and  O_47 
ROOT
HETATM    1  C   UNK     0     -34.271  18.446  -1.128  0.00  0.00     0.051 C 
HETATM    2  C   UNK     0     -35.538  18.770  -0.363  0.00  0.00    -0.031 A 
HETATM    3  C   UNK     0     -36.425  19.821  -0.535  0.00  0.00     0.021 A 
HETATM    4  N   UNK     0     -37.402  19.731   0.398  0.00  0.00    -0.361 N 
HETATM    5  C   UNK     0     -37.162  18.642   1.156  0.00  0.00     0.022 A 
HETATM    6  C   UNK     0     -36.001  18.018   0.709  0.00  0.00    -0.027 A 
HETATM    7  C   UNK     0     -37.984  18.047   2.256  0.00  0.00     0.115 C 
HETATM    8  C   UNK     0     -39.484  17.983   2.027  0.00  0.00     0.021 A 
HETATM    9  N   UNK     0     -40.147  17.758   0.882  0.00  0.00    -0.361 N 
HETATM   10  C   UNK     0     -41.468  17.884   1.130  0.00  0.00     0.022 A 
HETATM   11  C   UNK     0     -41.662  18.189   2.474  0.00  0.00    -0.027 A 
HETATM   12  C   UNK     0     -40.416  18.253   3.045  0.00  0.00    -0.031 A 
HETATM   13  C   UNK     0     -40.136  18.553   4.501  0.00  0.00     0.051 C 
HETATM   14  C   UNK     0     -42.592  17.775   0.104  0.00  0.00     0.115 C 
HETATM   15  C   UNK     0     -42.513  18.808  -1.008  0.00  0.00     0.021 A 
HETATM   16  N   UNK     0     -41.502  19.006  -1.875  0.00  0.00    -0.361 N 
HETATM   17  C   UNK     0     -41.788  20.055  -2.650  0.00  0.00     0.022 A 
HETATM   18  C   UNK     0     -43.050  20.558  -2.276  0.00  0.00    -0.027 A 
HETATM   19  C   UNK     0     -43.494  19.768  -1.248  0.00  0.00    -0.031 A 
HETATM   20  C   UNK     0     -44.840  19.943  -0.570  0.00  0.00     0.051 C 
HETATM   21  C   UNK     0     -40.960  20.725  -3.722  0.00  0.00     0.115 C 
HETATM   22  C   UNK     0     -39.462  20.756  -3.529  0.00  0.00     0.022 A 
HETATM   23  N   UNK     0     -38.775  20.974  -2.400  0.00  0.00    -0.361 N 
HETATM   24  C   UNK     0     -37.467  20.767  -2.653  0.00  0.00     0.021 A 
HETATM   25  C   UNK     0     -37.306  20.418  -3.980  0.00  0.00    -0.031 A 
HETATM   26  C   UNK     0     -36.030  20.129  -4.742  0.00  0.00     0.051 C 
HETATM   27  C   UNK     0     -38.569  20.405  -4.562  0.00  0.00    -0.027 A 
HETATM   28  C   UNK     0     -36.312  20.803  -1.667  0.00  0.00     0.115 C 
HETATM   29  H   UNK     0     -38.233  20.461   0.540  0.00  0.00     0.165 HD
HETATM   30  H   UNK     0     -39.687  17.461  -0.092  0.00  0.00     0.165 HD
HETATM   31  H   UNK     0     -40.589  18.364  -1.974  0.00  0.00     0.165 HD
HETATM   32  H   UNK     0     -39.203  21.318  -1.422  0.00  0.00     0.165 HD
ENDROOT
BRANCH   6  33
HETATM   33  C   UNK     0     -35.307  16.780   1.218  0.00  0.00     0.051 C 
BRANCH  33  34
HETATM   34  C   UNK     0     -34.369  17.121   2.351  0.00  0.00     0.114 C 
BRANCH  34  35
HETATM   35  C   UNK     0     -34.809  16.342   3.545  0.00  0.00     0.139 C 
HETATM   36  O   UNK     0     -34.203  16.471   4.648  0.00  0.00    -0.650 OA
BRANCH  35  37
HETATM   37  O   UNK     0     -35.880  15.458   3.509  0.00  0.00    -0.776 OA
HETATM   38  H   UNK     0     -35.970  14.701   4.167  0.00  0.00     0.167 HD
ENDBRANCH  35  37
ENDBRANCH  34  35
ENDBRANCH  33  34
ENDBRANCH   6  33
BRANCH  27  39
HETATM   39  C   UNK     0     -38.792  20.140  -6.009  0.00  0.00     0.051 C 
BRANCH  39  40
HETATM   40  C   UNK     0     -39.564  21.113  -6.781  0.00  0.00     0.114 C 
BRANCH  40  41
HETATM   41  C   UNK     0     -40.372  20.729  -7.917  0.00  0.00     0.139 C 
HETATM   42  O   UNK     0     -39.898  20.371  -9.004  0.00  0.00    -0.650 OA
BRANCH  41  43
HETATM   43  O   UNK     0     -41.791  20.758  -7.798  0.00  0.00    -0.776 OA
HETATM   44  H   UNK     0     -42.145  20.388  -6.924  0.00  0.00     0.167 HD
ENDBRANCH  41  43
ENDBRANCH  40  41
ENDBRANCH  39  40
ENDBRANCH  27  39
BRANCH  11  45
HETATM   45  C   UNK     0     -42.954  18.412   3.212  0.00  0.00     0.051 C 
BRANCH  45  46
HETATM   46  C   UNK     0     -43.771  17.184   3.389  0.00  0.00     0.114 C 
BRANCH  46  47
HETATM   47  C   UNK     0     -44.850  17.508   4.366  0.00  0.00     0.139 C 
HETATM   48  O   UNK     0     -45.971  17.807   3.933  0.00  0.00    -0.650 OA
BRANCH  47  49
HETATM   49  O   UNK     0     -44.607  17.477   5.716  0.00  0.00    -0.776 OA
HETATM   50  H   UNK     0     -44.495  18.335   6.270  0.00  0.00     0.167 HD
ENDBRANCH  47  49
ENDBRANCH  46  47
ENDBRANCH  45  46
ENDBRANCH  11  45
BRANCH  18  51
HETATM   51  C   UNK     0     -43.801  21.716  -2.881  0.00  0.00     0.051 C 
BRANCH  51  52
HETATM   52  C   UNK     0     -44.636  21.137  -4.013  0.00  0.00     0.114 C 
BRANCH  52  53
HETATM   53  C   UNK     0     -44.246  21.694  -5.323  0.00  0.00     0.139 C 
HETATM   54  O   UNK     0     -43.775  22.840  -5.397  0.00  0.00    -0.650 OA
BRANCH  53  55
HETATM   55  O   UNK     0     -44.411  20.938  -6.459  0.00  0.00    -0.776 OA
HETATM   56  H   UNK     0     -44.688  19.985  -6.491  0.00  0.00     0.167 HD
ENDBRANCH  53  55
ENDBRANCH  52  53
ENDBRANCH  51  52
ENDBRANCH  18  51
TORSDOF 16
ENDMDL
MODEL 11
REMARK VINA RESULT:      -7.5     11.612     15.594
REMARK  16 active torsions:
REMARK  status: ('A' for Active; 'I' for Inactive)
REMARK    1  A    between atoms: C_6  and  C_7 
REMARK    2  A    between atoms: C_7  and  C_8 
REMARK    3  A    between atoms: C_8  and  C_9 
REMARK    4  A    between atoms: C_9  and  O_11 
REMARK    5  A    between atoms: C_16  and  C_17 
REMARK    6  A    between atoms: C_17  and  C_18 
REMARK    7  A    between atoms: C_18  and  C_19 
REMARK    8  A    between atoms: C_19  and  O_21 
REMARK    9  A    between atoms: C_28  and  C_29 
REMARK   10  A    between atoms: C_29  and  C_30 
REMARK   11  A    between atoms: C_30  and  C_31 
REMARK   12  A    between atoms: C_31  and  O_33 
REMARK   13  A    between atoms: C_42  and  C_43 
REMARK   14  A    between atoms: C_43  and  C_44 
REMARK   15  A    between atoms: C_44  and  C_45 
REMARK   16  A    between atoms: C_45  and  O_47 
ROOT
HETATM    1  C   UNK     0     -44.547  19.539  -0.505  0.00  0.00     0.051 C 
HETATM    2  C   UNK     0     -43.324  18.799  -0.002  0.00  0.00    -0.031 A 
HETATM    3  C   UNK     0     -42.339  18.138  -0.719  0.00  0.00     0.021 A 
HETATM    4  N   UNK     0     -41.453  17.593   0.148  0.00  0.00    -0.361 N 
HETATM    5  C   UNK     0     -41.847  17.900   1.401  0.00  0.00     0.022 A 
HETATM    6  C   UNK     0     -43.016  18.651   1.344  0.00  0.00    -0.027 A 
HETATM    7  C   UNK     0     -41.170  17.619   2.707  0.00  0.00     0.115 C 
HETATM    8  C   UNK     0     -39.668  17.833   2.756  0.00  0.00     0.021 A 
HETATM    9  N   UNK     0     -38.935  18.769   2.132  0.00  0.00    -0.361 N 
HETATM   10  C   UNK     0     -37.633  18.523   2.389  0.00  0.00     0.022 A 
HETATM   11  C   UNK     0     -37.524  17.402   3.208  0.00  0.00    -0.027 A 
HETATM   12  C   UNK     0     -38.802  16.963   3.443  0.00  0.00    -0.031 A 
HETATM   13  C   UNK     0     -39.174  15.767   4.291  0.00  0.00     0.051 C 
HETATM   14  C   UNK     0     -36.442  19.298   1.832  0.00  0.00     0.115 C 
HETATM   15  C   UNK     0     -36.342  19.266   0.316  0.00  0.00     0.021 A 
HETATM   16  N   UNK     0     -37.258  19.686  -0.577  0.00  0.00    -0.361 N 
HETATM   17  C   UNK     0     -36.821  19.421  -1.810  0.00  0.00     0.022 A 
HETATM   18  C   UNK     0     -35.556  18.809  -1.717  0.00  0.00    -0.027 A 
HETATM   19  C   UNK     0     -35.266  18.719  -0.380  0.00  0.00    -0.031 A 
HETATM   20  C   UNK     0     -33.970  18.149   0.166  0.00  0.00     0.051 C 
HETATM   21  C   UNK     0     -37.499  19.627  -3.146  0.00  0.00     0.115 C 
HETATM   22  C   UNK     0     -39.000  19.461  -3.200  0.00  0.00     0.022 A 
HETATM   23  N   UNK     0     -39.755  18.541  -2.586  0.00  0.00    -0.361 N 
HETATM   24  C   UNK     0     -41.051  18.851  -2.792  0.00  0.00     0.021 A 
HETATM   25  C   UNK     0     -41.132  19.994  -3.565  0.00  0.00    -0.031 A 
HETATM   26  C   UNK     0     -42.362  20.705  -4.090  0.00  0.00     0.051 C 
HETATM   27  C   UNK     0     -39.831  20.402  -3.839  0.00  0.00    -0.027 A 
HETATM   28  C   UNK     0     -42.275  18.158  -2.220  0.00  0.00     0.115 C 
HETATM   29  H   UNK     0     -40.578  16.962  -0.131  0.00  0.00     0.165 HD
HETATM   30  H   UNK     0     -39.337  19.635   1.551  0.00  0.00     0.165 HD
HETATM   31  H   UNK     0     -38.212  20.223  -0.334  0.00  0.00     0.165 HD
HETATM   32  H   UNK     0     -39.381  17.637  -2.038  0.00  0.00     0.165 HD
ENDROOT
BRANCH   6  33
HETATM   33  C   UNK     0     -43.852  19.230   2.457  0.00  0.00     0.051 C 
BRANCH  33  34
HETATM   34  C   UNK     0     -44.704  18.160   3.098  0.00  0.00     0.114 C 
BRANCH  34  35
HETATM   35  C   UNK     0     -44.364  18.128   4.549  0.00  0.00     0.139 C 
HETATM   36  O   UNK     0     -43.591  19.001   5.042  0.00  0.00    -0.650 OA
BRANCH  35  37
HETATM   37  O   UNK     0     -44.866  17.165   5.416  0.00  0.00    -0.776 OA
HETATM   38  H   UNK     0     -45.855  17.022   5.540  0.00  0.00     0.167 HD
ENDBRANCH  35  37
ENDBRANCH  34  35
ENDBRANCH  33  34
ENDBRANCH   6  33
BRANCH  27  39
HETATM   39  C   UNK     0     -39.514  21.565  -4.712  0.00  0.00     0.051 C 
BRANCH  39  40
HETATM   40  C   UNK     0     -39.419  22.889  -4.097  0.00  0.00     0.114 C 
BRANCH  40  41
HETATM   41  C   UNK     0     -38.972  23.075  -2.735  0.00  0.00     0.139 C 
HETATM   42  O   UNK     0     -39.741  23.252  -1.781  0.00  0.00    -0.650 OA
BRANCH  41  43
HETATM   43  O   UNK     0     -37.575  23.058  -2.457  0.00  0.00    -0.776 OA
HETATM   44  H   UNK     0     -37.069  22.302  -2.903  0.00  0.00     0.167 HD
ENDBRANCH  41  43
ENDBRANCH  40  41
ENDBRANCH  39  40
ENDBRANCH  27  39
BRANCH  11  45
HETATM   45  C   UNK     0     -36.282  16.757   3.760  0.00  0.00     0.051 C 
BRANCH  45  46
HETATM   46  C   UNK     0     -35.351  16.247   2.722  0.00  0.00     0.114 C 
BRANCH  46  47
HETATM   47  C   UNK     0     -34.001  16.149   3.348  0.00  0.00     0.139 C 
HETATM   48  O   UNK     0     -33.517  15.024   3.538  0.00  0.00    -0.650 OA
BRANCH  47  49
HETATM   49  O   UNK     0     -33.310  17.278   3.709  0.00  0.00    -0.776 OA
HETATM   50  H   UNK     0     -32.336  17.241   4.030  0.00  0.00     0.167 HD
ENDBRANCH  47  49
ENDBRANCH  46  47
ENDBRANCH  45  46
ENDBRANCH  11  45
BRANCH  18  51
HETATM   51  C   UNK     0     -34.662  18.354  -2.841  0.00  0.00     0.051 C 
BRANCH  51  52
HETATM   52  C   UNK     0     -33.623  19.450  -3.029  0.00  0.00     0.114 C 
BRANCH  52  53
HETATM   53  C   UNK     0     -34.105  20.515  -3.929  0.00  0.00     0.139 C 
HETATM   54  O   UNK     0     -33.958  21.707  -3.615  0.00  0.00    -0.650 OA
BRANCH  53  55
HETATM   55  O   UNK     0     -34.718  20.180  -5.112  0.00  0.00    -0.776 OA
HETATM   56  H   UNK     0     -34.260  19.933  -5.958  0.00  0.00     0.167 HD
ENDBRANCH  53  55
ENDBRANCH  52  53
ENDBRANCH  51  52
ENDBRANCH  18  51
TORSDOF 16
ENDMDL
MODEL 12
REMARK VINA RESULT:      -7.5     11.672     17.608
REMARK  16 active torsions:
REMARK  status: ('A' for Active; 'I' for Inactive)
REMARK    1  A    between atoms: C_6  and  C_7 
REMARK    2  A    between atoms: C_7  and  C_8 
REMARK    3  A    between atoms: C_8  and  C_9 
REMARK    4  A    between atoms: C_9  and  O_11 
REMARK    5  A    between atoms: C_16  and  C_17 
REMARK    6  A    between atoms: C_17  and  C_18 
REMARK    7  A    between atoms: C_18  and  C_19 
REMARK    8  A    between atoms: C_19  and  O_21 
REMARK    9  A    between atoms: C_28  and  C_29 
REMARK   10  A    between atoms: C_29  and  C_30 
REMARK   11  A    between atoms: C_30  and  C_31 
REMARK   12  A    between atoms: C_31  and  O_33 
REMARK   13  A    between atoms: C_42  and  C_43 
REMARK   14  A    between atoms: C_43  and  C_44 
REMARK   15  A    between atoms: C_44  and  C_45 
REMARK   16  A    between atoms: C_45  and  O_47 
ROOT
HETATM    1  C   UNK     0     -46.768  18.685   1.058  0.00  0.00     0.051 C 
HETATM    2  C   UNK     0     -45.636  19.366   0.316  0.00  0.00    -0.031 A 
HETATM    3  C   UNK     0     -44.510  19.998   0.818  0.00  0.00     0.021 A 
HETATM    4  N   UNK     0     -43.784  20.492  -0.214  0.00  0.00    -0.361 N 
HETATM    5  C   UNK     0     -44.419  20.180  -1.362  0.00  0.00     0.022 A 
HETATM    6  C   UNK     0     -45.583  19.478  -1.068  0.00  0.00    -0.027 A 
HETATM    7  C   UNK     0     -43.992  20.410  -2.779  0.00  0.00     0.115 C 
HETATM    8  C   UNK     0     -42.535  20.135  -3.105  0.00  0.00     0.021 A 
HETATM    9  N   UNK     0     -41.733  19.180  -2.608  0.00  0.00    -0.361 N 
HETATM   10  C   UNK     0     -40.495  19.369  -3.112  0.00  0.00     0.022 A 
HETATM   11  C   UNK     0     -40.502  20.470  -3.963  0.00  0.00    -0.027 A 
HETATM   12  C   UNK     0     -41.784  20.957  -3.964  0.00  0.00    -0.031 A 
HETATM   13  C   UNK     0     -42.265  22.152  -4.756  0.00  0.00     0.051 C 
HETATM   14  C   UNK     0     -39.250  18.556  -2.771  0.00  0.00     0.115 C 
HETATM   15  C   UNK     0     -38.863  18.609  -1.302  0.00  0.00     0.021 A 
HETATM   16  N   UNK     0     -39.608  18.242  -0.242  0.00  0.00    -0.361 N 
HETATM   17  C   UNK     0     -38.936  18.510   0.880  0.00  0.00     0.022 A 
HETATM   18  C   UNK     0     -37.689  19.068   0.535  0.00  0.00    -0.027 A 
HETATM   19  C   UNK     0     -37.655  19.124  -0.834  0.00  0.00    -0.031 A 
HETATM   20  C   UNK     0     -36.466  19.631  -1.629  0.00  0.00     0.051 C 
HETATM   21  C   UNK     0     -39.356  18.355   2.324  0.00  0.00     0.115 C 
HETATM   22  C   UNK     0     -40.812  18.583   2.656  0.00  0.00     0.022 A 
HETATM   23  N   UNK     0     -41.635  19.522   2.174  0.00  0.00    -0.361 N 
HETATM   24  C   UNK     0     -42.879  19.268   2.628  0.00  0.00     0.021 A 
HETATM   25  C   UNK     0     -42.854  18.144   3.430  0.00  0.00    -0.031 A 
HETATM   26  C   UNK     0     -43.988  17.493   4.194  0.00  0.00     0.051 C 
HETATM   27  C   UNK     0     -41.542  17.687   3.463  0.00  0.00    -0.027 A 
HETATM   28  C   UNK     0     -44.163  20.002   2.280  0.00  0.00     0.115 C 
HETATM   29  H   UNK     0     -42.849  21.092  -0.121  0.00  0.00     0.165 HD
HETATM   30  H   UNK     0     -42.049  18.341  -1.941  0.00  0.00     0.165 HD
HETATM   31  H   UNK     0     -40.609  17.741  -0.287  0.00  0.00     0.165 HD
HETATM   32  H   UNK     0     -41.338  20.400   1.543  0.00  0.00     0.165 HD
ENDROOT
BRANCH   6  33
HETATM   33  C   UNK     0     -46.636  18.915  -1.989  0.00  0.00     0.051 C 
BRANCH  33  34
HETATM   34  C   UNK     0     -46.305  17.492  -2.373  0.00  0.00     0.114 C 
BRANCH  34  35
HETATM   35  C   UNK     0     -47.458  16.962  -3.156  0.00  0.00     0.139 C 
HETATM   36  O   UNK     0     -47.460  17.040  -4.419  0.00  0.00    -0.650 OA
BRANCH  35  37
HETATM   37  O   UNK     0     -48.561  16.367  -2.555  0.00  0.00    -0.776 OA
HETATM   38  H   UNK     0     -48.525  15.995  -1.619  0.00  0.00     0.167 HD
ENDBRANCH  35  37
ENDBRANCH  34  35
ENDBRANCH  33  34
ENDBRANCH   6  33
BRANCH  27  39
HETATM   39  C   UNK     0     -41.108  16.527   4.289  0.00  0.00     0.051 C 
BRANCH  39  40
HETATM   40  C   UNK     0     -40.701  15.301   3.603  0.00  0.00     0.114 C 
BRANCH  40  41
HETATM   41  C   UNK     0     -40.056  14.208   4.296  0.00  0.00     0.139 C 
HETATM   42  O   UNK     0     -38.832  14.021   4.286  0.00  0.00    -0.650 OA
BRANCH  41  43
HETATM   43  O   UNK     0     -40.855  13.289   5.032  0.00  0.00    -0.776 OA
HETATM   44  H   UNK     0     -40.757  12.323   4.744  0.00  0.00     0.167 HD
ENDBRANCH  41  43
ENDBRANCH  40  41
ENDBRANCH  39  40
ENDBRANCH  27  39
BRANCH  11  45
HETATM   45  C   UNK     0     -39.364  21.054  -4.756  0.00  0.00     0.051 C 
BRANCH  45  46
HETATM   46  C   UNK     0     -38.929  20.215  -5.901  0.00  0.00     0.114 C 
BRANCH  46  47
HETATM   47  C   UNK     0     -39.764  20.602  -7.074  0.00  0.00     0.139 C 
HETATM   48  O   UNK     0     -39.590  21.718  -7.583  0.00  0.00    -0.650 OA
BRANCH  47  49
HETATM   49  O   UNK     0     -40.706  19.742  -7.580  0.00  0.00    -0.776 OA
HETATM   50  H   UNK     0     -40.648  18.727  -7.440  0.00  0.00     0.167 HD
ENDBRANCH  47  49
ENDBRANCH  46  47
ENDBRANCH  45  46
ENDBRANCH  11  45
BRANCH  18  51
HETATM   51  C   UNK     0     -36.582  19.505   1.459  0.00  0.00     0.051 C 
BRANCH  51  52
HETATM   52  C   UNK     0     -35.880  18.234   1.914  0.00  0.00     0.114 C 
BRANCH  52  53
HETATM   53  C   UNK     0     -34.419  18.316   1.725  0.00  0.00     0.139 C 
HETATM   54  O   UNK     0     -33.952  18.614   0.614  0.00  0.00    -0.650 OA
BRANCH  53  55
HETATM   55  O   UNK     0     -33.581  18.055   2.782  0.00  0.00    -0.776 OA
HETATM   56  H   UNK     0     -33.429  17.169   3.202  0.00  0.00     0.167 HD
ENDBRANCH  53  55
ENDBRANCH  52  53
ENDBRANCH  51  52
ENDBRANCH  18  51
TORSDOF 16
ENDMDL
MODEL 13
REMARK VINA RESULT:      -7.5     12.055     17.777
REMARK  16 active torsions:
REMARK  status: ('A' for Active; 'I' for Inactive)
REMARK    1  A    between atoms: C_6  and  C_7 
REMARK    2  A    between atoms: C_7  and  C_8 
REMARK    3  A    between atoms: C_8  and  C_9 
REMARK    4  A    between atoms: C_9  and  O_11 
REMARK    5  A    between atoms: C_16  and  C_17 
REMARK    6  A    between atoms: C_17  and  C_18 
REMARK    7  A    between atoms: C_18  and  C_19 
REMARK    8  A    between atoms: C_19  and  O_21 
REMARK    9  A    between atoms: C_28  and  C_29 
REMARK   10  A    between atoms: C_29  and  C_30 
REMARK   11  A    between atoms: C_30  and  C_31 
REMARK   12  A    between atoms: C_31  and  O_33 
REMARK   13  A    between atoms: C_42  and  C_43 
REMARK   14  A    between atoms: C_43  and  C_44 
REMARK   15  A    between atoms: C_44  and  C_45 
REMARK   16  A    between atoms: C_45  and  O_47 
ROOT
HETATM    1  C   UNK     0     -43.263  20.960  -4.446  0.00  0.00     0.051 C 
HETATM    2  C   UNK     0     -41.805  21.266  -4.171  0.00  0.00    -0.031 A 
HETATM    3  C   UNK     0     -41.160  21.457  -2.959  0.00  0.00     0.021 A 
HETATM    4  N   UNK     0     -39.856  21.739  -3.193  0.00  0.00    -0.361 N 
HETATM    5  C   UNK     0     -39.655  21.723  -4.527  0.00  0.00     0.022 A 
HETATM    6  C   UNK     0     -40.854  21.434  -5.169  0.00  0.00    -0.027 A 
HETATM    7  C   UNK     0     -38.382  21.879  -5.300  0.00  0.00     0.115 C 
HETATM    8  C   UNK     0     -37.163  21.153  -4.759  0.00  0.00     0.021 A 
HETATM    9  N   UNK     0     -37.104  19.958  -4.150  0.00  0.00    -0.361 N 
HETATM   10  C   UNK     0     -35.829  19.752  -3.755  0.00  0.00     0.022 A 
HETATM   11  C   UNK     0     -35.045  20.839  -4.129  0.00  0.00    -0.027 A 
HETATM   12  C   UNK     0     -35.879  21.725  -4.762  0.00  0.00    -0.031 A 
HETATM   13  C   UNK     0     -35.460  23.056  -5.345  0.00  0.00     0.051 C 
HETATM   14  C   UNK     0     -35.313  18.551  -2.967  0.00  0.00     0.115 C 
HETATM   15  C   UNK     0     -35.959  18.388  -1.601  0.00  0.00     0.021 A 
HETATM   16  N   UNK     0     -37.267  18.230  -1.325  0.00  0.00    -0.361 N 
HETATM   17  C   UNK     0     -37.434  18.193  -0.001  0.00  0.00     0.022 A 
HETATM   18  C   UNK     0     -36.173  18.322   0.615  0.00  0.00    -0.027 A 
HETATM   19  C   UNK     0     -35.258  18.442  -0.398  0.00  0.00    -0.031 A 
HETATM   20  C   UNK     0     -33.762  18.568  -0.173  0.00  0.00     0.051 C 
HETATM   21  C   UNK     0     -38.703  18.104   0.817  0.00  0.00     0.115 C 
HETATM   22  C   UNK     0     -39.935  18.785   0.269  0.00  0.00     0.022 A 
HETATM   23  N   UNK     0     -40.023  19.972  -0.346  0.00  0.00    -0.361 N 
HETATM   24  C   UNK     0     -41.284  20.122  -0.799  0.00  0.00     0.021 A 
HETATM   25  C   UNK     0     -42.029  19.009  -0.459  0.00  0.00    -0.031 A 
HETATM   26  C   UNK     0     -43.496  18.730  -0.710  0.00  0.00     0.051 C 
HETATM   27  C   UNK     0     -41.187  18.139   0.226  0.00  0.00    -0.027 A 
HETATM   28  C   UNK     0     -41.842  21.260  -1.635  0.00  0.00     0.115 C 
HETATM   29  H   UNK     0     -39.096  21.986  -2.416  0.00  0.00     0.165 HD
HETATM   30  H   UNK     0     -37.949  19.236  -4.041  0.00  0.00     0.165 HD
HETATM   31  H   UNK     0     -38.085  18.095  -2.079  0.00  0.00     0.165 HD
HETATM   32  H   UNK     0     -39.206  20.735  -0.428  0.00  0.00     0.165 HD
ENDROOT
BRANCH   6  33
HETATM   33  C   UNK     0     -41.161  21.308  -6.640  0.00  0.00     0.051 C 
BRANCH  33  34
HETATM   34  C   UNK     0     -40.440  20.124  -7.238  0.00  0.00     0.114 C 
BRANCH  34  35
HETATM   35  C   UNK     0     -40.675  20.155  -8.710  0.00  0.00     0.139 C 
HETATM   36  O   UNK     0     -39.735  20.463  -9.499  0.00  0.00    -0.650 OA
BRANCH  35  37
HETATM   37  O   UNK     0     -41.906  19.853  -9.279  0.00  0.00    -0.776 OA
HETATM   38  H   UNK     0     -42.282  20.378 -10.053  0.00  0.00     0.167 HD
ENDBRANCH  35  37
ENDBRANCH  34  35
ENDBRANCH  33  34
ENDBRANCH   6  33
BRANCH  27  39
HETATM   39  C   UNK     0     -41.654  16.856   0.816  0.00  0.00     0.051 C 
BRANCH  39  40
HETATM   40  C   UNK     0     -41.937  16.814   2.250  0.00  0.00     0.114 C 
BRANCH  40  41
HETATM   41  C   UNK     0     -41.114  16.069   3.177  0.00  0.00     0.139 C 
HETATM   42  O   UNK     0     -40.045  16.494   3.636  0.00  0.00    -0.650 OA
BRANCH  41  43
HETATM   43  O   UNK     0     -41.539  14.775   3.593  0.00  0.00    -0.776 OA
HETATM   44  H   UNK     0     -40.805  14.076   3.602  0.00  0.00     0.167 HD
ENDBRANCH  41  43
ENDBRANCH  40  41
ENDBRANCH  39  40
ENDBRANCH  27  39
BRANCH  11  45
HETATM   45  C   UNK     0     -33.571  21.055  -3.913  0.00  0.00     0.051 C 
BRANCH  45  46
HETATM   46  C   UNK     0     -33.231  21.637  -2.589  0.00  0.00     0.114 C 
BRANCH  46  47
HETATM   47  C   UNK     0     -32.771  23.035  -2.827  0.00  0.00     0.139 C 
HETATM   48  O   UNK     0     -31.695  23.213  -3.415  0.00  0.00    -0.650 OA
BRANCH  47  49
HETATM   49  O   UNK     0     -33.520  24.104  -2.403  0.00  0.00    -0.776 OA
HETATM   50  H   UNK     0     -34.518  24.014  -2.179  0.00  0.00     0.167 HD
ENDBRANCH  47  49
ENDBRANCH  46  47
ENDBRANCH  45  46
ENDBRANCH  11  45
BRANCH  18  51
HETATM   51  C   UNK     0     -35.856  18.311   2.088  0.00  0.00     0.051 C 
BRANCH  51  52
HETATM   52  C   UNK     0     -35.896  16.853   2.521  0.00  0.00     0.114 C 
BRANCH  52  53
HETATM   53  C   UNK     0     -34.559  16.230   2.477  0.00  0.00     0.139 C 
HETATM   54  O   UNK     0     -34.421  15.085   2.018  0.00  0.00    -0.650 OA
BRANCH  53  55
HETATM   55  O   UNK     0     -33.471  16.923   2.951  0.00  0.00    -0.776 OA
HETATM   56  H   UNK     0     -33.464  17.873   3.239  0.00  0.00     0.167 HD
ENDBRANCH  53  55
ENDBRANCH  52  53
ENDBRANCH  51  52
ENDBRANCH  18  51
TORSDOF 16
ENDMDL
MODEL 14
REMARK VINA RESULT:      -7.4     16.132     19.990
REMARK  16 active torsions:
REMARK  status: ('A' for Active; 'I' for Inactive)
REMARK    1  A    between atoms: C_6  and  C_7 
REMARK    2  A    between atoms: C_7  and  C_8 
REMARK    3  A    between atoms: C_8  and  C_9 
REMARK    4  A    between atoms: C_9  and  O_11 
REMARK    5  A    between atoms: C_16  and  C_17 
REMARK    6  A    between atoms: C_17  and  C_18 
REMARK    7  A    between atoms: C_18  and  C_19 
REMARK    8  A    between atoms: C_19  and  O_21 
REMARK    9  A    between atoms: C_28  and  C_29 
REMARK   10  A    between atoms: C_29  and  C_30 
REMARK   11  A    between atoms: C_30  and  C_31 
REMARK   12  A    between atoms: C_31  and  O_33 
REMARK   13  A    between atoms: C_42  and  C_43 
REMARK   14  A    between atoms: C_43  and  C_44 
REMARK   15  A    between atoms: C_44  and  C_45 
REMARK   16  A    between atoms: C_45  and  O_47 
ROOT
HETATM    1  C   UNK     0     -22.263  14.470  12.556  0.00  0.00     0.051 C 
HETATM    2  C   UNK     0     -22.653  15.745  11.836  0.00  0.00    -0.031 A 
HETATM    3  C   UNK     0     -23.865  16.095  11.262  0.00  0.00     0.021 A 
HETATM    4  N   UNK     0     -23.748  17.321  10.699  0.00  0.00    -0.361 N 
HETATM    5  C   UNK     0     -22.491  17.763  10.909  0.00  0.00     0.022 A 
HETATM    6  C   UNK     0     -21.778  16.800  11.615  0.00  0.00    -0.027 A 
HETATM    7  C   UNK     0     -21.879  19.088  10.574  0.00  0.00     0.115 C 
HETATM    8  C   UNK     0     -22.727  20.318  10.844  0.00  0.00     0.021 A 
HETATM    9  N   UNK     0     -23.592  20.533  11.847  0.00  0.00    -0.361 N 
HETATM   10  C   UNK     0     -24.188  21.726  11.638  0.00  0.00     0.022 A 
HETATM   11  C   UNK     0     -23.686  22.299  10.473  0.00  0.00    -0.027 A 
HETATM   12  C   UNK     0     -22.765  21.418   9.968  0.00  0.00    -0.031 A 
HETATM   13  C   UNK     0     -21.957  21.625   8.707  0.00  0.00     0.051 C 
HETATM   14  C   UNK     0     -25.288  22.347  12.494  0.00  0.00     0.115 C 
HETATM   15  C   UNK     0     -26.558  21.514  12.564  0.00  0.00     0.021 A 
HETATM   16  N   UNK     0     -26.687  20.247  13.002  0.00  0.00    -0.361 N 
HETATM   17  C   UNK     0     -27.951  19.852  12.835  0.00  0.00     0.022 A 
HETATM   18  C   UNK     0     -28.683  20.915  12.270  0.00  0.00    -0.027 A 
HETATM   19  C   UNK     0     -27.800  21.950  12.106  0.00  0.00    -0.031 A 
HETATM   20  C   UNK     0     -28.187  23.311  11.556  0.00  0.00     0.051 C 
HETATM   21  C   UNK     0     -28.592  18.508  13.098  0.00  0.00     0.115 C 
HETATM   22  C   UNK     0     -27.746  17.276  12.875  0.00  0.00     0.022 A 
HETATM   23  N   UNK     0     -26.873  17.037  11.887  0.00  0.00    -0.361 N 
HETATM   24  C   UNK     0     -26.235  15.880  12.158  0.00  0.00     0.021 A 
HETATM   25  C   UNK     0     -26.716  15.357  13.343  0.00  0.00    -0.031 A 
HETATM   26  C   UNK     0     -26.341  14.063  14.035  0.00  0.00     0.051 C 
HETATM   27  C   UNK     0     -27.684  16.233  13.820  0.00  0.00    -0.027 A 
HETATM   28  C   UNK     0     -25.096  15.243  11.380  0.00  0.00     0.115 C 
HETATM   29  H   UNK     0     -24.543  17.849  10.123  0.00  0.00     0.165 HD
HETATM   30  H   UNK     0     -23.748  19.868  12.731  0.00  0.00     0.165 HD
HETATM   31  H   UNK     0     -25.881  19.635  13.483  0.00  0.00     0.165 HD
HETATM   32  H   UNK     0     -26.730  17.661  10.967  0.00  0.00     0.165 HD
ENDROOT
BRANCH   6  33
HETATM   33  C   UNK     0     -20.346  16.806  12.087  0.00  0.00     0.051 C 
BRANCH  33  34
HETATM   34  C   UNK     0     -20.266  17.171  13.550  0.00  0.00     0.114 C 
BRANCH  34  35
HETATM   35  C   UNK     0     -20.274  18.660  13.640  0.00  0.00     0.139 C 
HETATM   36  O   UNK     0     -19.233  19.320  13.353  0.00  0.00    -0.650 OA
BRANCH  35  37
HETATM   37  O   UNK     0     -21.395  19.381  14.031  0.00  0.00    -0.776 OA
HETATM   38  H   UNK     0     -21.574  19.610  14.996  0.00  0.00     0.167 HD
ENDBRANCH  35  37
ENDBRANCH  34  35
ENDBRANCH  33  34
ENDBRANCH   6  33
BRANCH  27  39
HETATM   39  C   UNK     0     -28.481  15.968  15.049  0.00  0.00     0.051 C 
BRANCH  39  40
HETATM   40  C   UNK     0     -28.146  16.706  16.266  0.00  0.00     0.114 C 
BRANCH  40  41
HETATM   41  C   UNK     0     -26.801  17.151  16.552  0.00  0.00     0.139 C 
HETATM   42  O   UNK     0     -25.931  16.422  17.047  0.00  0.00    -0.650 OA
BRANCH  41  43
HETATM   43  O   UNK     0     -26.440  18.496  16.255  0.00  0.00    -0.776 OA
HETATM   44  H   UNK     0     -25.674  18.856  16.811  0.00  0.00     0.167 HD
ENDBRANCH  41  43
ENDBRANCH  40  41
ENDBRANCH  39  40
ENDBRANCH  27  39
BRANCH  11  45
HETATM   45  C   UNK     0     -24.042  23.620   9.845  0.00  0.00     0.051 C 
BRANCH  45  46
HETATM   46  C   UNK     0     -23.103  24.722  10.178  0.00  0.00     0.114 C 
BRANCH  46  47
HETATM   47  C   UNK     0     -22.489  25.181   8.899  0.00  0.00     0.139 C 
HETATM   48  O   UNK     0     -23.079  24.936   7.838  0.00  0.00    -0.650 OA
BRANCH  47  49
HETATM   49  O   UNK     0     -21.297  25.860   8.897  0.00  0.00    -0.776 OA
HETATM   50  H   UNK     0     -21.128  26.668   9.507  0.00  0.00     0.167 HD
ENDBRANCH  47  49
ENDBRANCH  46  47
ENDBRANCH  45  46
ENDBRANCH  11  45
BRANCH  18  51
HETATM   51  C   UNK     0     -30.149  20.949  11.924  0.00  0.00     0.051 C 
BRANCH  51  52
HETATM   52  C   UNK     0     -30.257  20.490  10.478  0.00  0.00     0.114 C 
BRANCH  52  53
HETATM   53  C   UNK     0     -31.334  19.498  10.295  0.00  0.00     0.139 C 
HETATM   54  O   UNK     0     -32.286  19.747   9.538  0.00  0.00    -0.650 OA
BRANCH  53  55
HETATM   55  O   UNK     0     -31.278  18.302  10.968  0.00  0.00    -0.776 OA
HETATM   56  H   UNK     0     -30.476  17.916  11.406  0.00  0.00     0.167 HD
ENDBRANCH  53  55
ENDBRANCH  52  53
ENDBRANCH  51  52
ENDBRANCH  18  51
TORSDOF 16
ENDMDL
MODEL 15
REMARK VINA RESULT:      -7.4     14.444     19.234
REMARK  16 active torsions:
REMARK  status: ('A' for Active; 'I' for Inactive)
REMARK    1  A    between atoms: C_6  and  C_7 
REMARK    2  A    between atoms: C_7  and  C_8 
REMARK    3  A    between atoms: C_8  and  C_9 
REMARK    4  A    between atoms: C_9  and  O_11 
REMARK    5  A    between atoms: C_16  and  C_17 
REMARK    6  A    between atoms: C_17  and  C_18 
REMARK    7  A    between atoms: C_18  and  C_19 
REMARK    8  A    between atoms: C_19  and  O_21 
REMARK    9  A    between atoms: C_28  and  C_29 
REMARK   10  A    between atoms: C_29  and  C_30 
REMARK   11  A    between atoms: C_30  and  C_31 
REMARK   12  A    between atoms: C_31  and  O_33 
REMARK   13  A    between atoms: C_42  and  C_43 
REMARK   14  A    between atoms: C_43  and  C_44 
REMARK   15  A    between atoms: C_44  and  C_45 
REMARK   16  A    between atoms: C_45  and  O_47 
ROOT
HETATM    1  C   UNK     0     -43.246  21.515  -7.846  0.00  0.00     0.051 C 
HETATM    2  C   UNK     0     -42.173  21.538  -6.777  0.00  0.00    -0.031 A 
HETATM    3  C   UNK     0     -42.247  21.982  -5.466  0.00  0.00     0.021 A 
HETATM    4  N   UNK     0     -41.033  21.842  -4.883  0.00  0.00    -0.361 N 
HETATM    5  C   UNK     0     -40.189  21.311  -5.792  0.00  0.00     0.022 A 
HETATM    6  C   UNK     0     -40.869  21.111  -6.988  0.00  0.00    -0.027 A 
HETATM    7  C   UNK     0     -38.766  20.875  -5.629  0.00  0.00     0.115 C 
HETATM    8  C   UNK     0     -38.427  20.115  -4.358  0.00  0.00     0.021 A 
HETATM    9  N   UNK     0     -39.183  19.234  -3.684  0.00  0.00    -0.361 N 
HETATM   10  C   UNK     0     -38.516  18.880  -2.565  0.00  0.00     0.022 A 
HETATM   11  C   UNK     0     -37.294  19.544  -2.522  0.00  0.00    -0.027 A 
HETATM   12  C   UNK     0     -37.231  20.324  -3.648  0.00  0.00    -0.031 A 
HETATM   13  C   UNK     0     -36.075  21.222  -4.027  0.00  0.00     0.051 C 
HETATM   14  C   UNK     0     -39.025  17.947  -1.470  0.00  0.00     0.115 C 
HETATM   15  C   UNK     0     -40.292  18.434  -0.786  0.00  0.00     0.021 A 
HETATM   16  N   UNK     0     -41.482  18.703  -1.355  0.00  0.00    -0.361 N 
HETATM   17  C   UNK     0     -42.316  19.174  -0.426  0.00  0.00     0.022 A 
HETATM   18  C   UNK     0     -41.641  19.205   0.810  0.00  0.00    -0.027 A 
HETATM   19  C   UNK     0     -40.374  18.738   0.572  0.00  0.00    -0.031 A 
HETATM   20  C   UNK     0     -39.319  18.572   1.650  0.00  0.00     0.051 C 
HETATM   21  C   UNK     0     -43.733  19.685  -0.561  0.00  0.00     0.115 C 
HETATM   22  C   UNK     0     -44.096  20.405  -1.839  0.00  0.00     0.022 A 
HETATM   23  N   UNK     0     -43.362  21.284  -2.534  0.00  0.00    -0.361 N 
HETATM   24  C   UNK     0     -44.011  21.563  -3.682  0.00  0.00     0.021 A 
HETATM   25  C   UNK     0     -45.196  20.854  -3.723  0.00  0.00    -0.031 A 
HETATM   26  C   UNK     0     -46.277  20.866  -4.784  0.00  0.00     0.051 C 
HETATM   27  C   UNK     0     -45.273  20.106  -2.554  0.00  0.00    -0.027 A 
HETATM   28  C   UNK     0     -43.533  22.433  -4.832  0.00  0.00     0.115 C 
HETATM   29  H   UNK     0     -40.770  22.156  -3.846  0.00  0.00     0.165 HD
HETATM   30  H   UNK     0     -40.165  18.822  -4.021  0.00  0.00     0.165 HD
HETATM   31  H   UNK     0     -41.755  18.511  -2.426  0.00  0.00     0.165 HD
HETATM   32  H   UNK     0     -42.398  21.749  -2.199  0.00  0.00     0.165 HD
ENDROOT
BRANCH   6  33
HETATM   33  C   UNK     0     -40.379  20.554  -8.301  0.00  0.00     0.051 C 
BRANCH  33  34
HETATM   34  C   UNK     0     -39.713  21.632  -9.124  0.00  0.00     0.114 C 
BRANCH  34  35
HETATM   35  C   UNK     0     -39.932  21.296 -10.561  0.00  0.00     0.139 C 
HETATM   36  O   UNK     0     -39.160  20.484 -11.150  0.00  0.00    -0.650 OA
BRANCH  35  37
HETATM   37  O   UNK     0     -40.970  21.840 -11.308  0.00  0.00    -0.776 OA
HETATM   38  H   UNK     0     -41.189  21.513 -12.235  0.00  0.00     0.167 HD
ENDBRANCH  35  37
ENDBRANCH  34  35
ENDBRANCH  33  34
ENDBRANCH   6  33
BRANCH  27  39
HETATM   39  C   UNK     0     -46.450  19.264  -2.207  0.00  0.00     0.051 C 
BRANCH  39  40
HETATM   40  C   UNK     0     -46.325  17.812  -2.332  0.00  0.00     0.114 C 
BRANCH  40  41
HETATM   41  C   UNK     0     -47.158  17.041  -3.228  0.00  0.00     0.139 C 
HETATM   42  O   UNK     0     -48.098  16.330  -2.846  0.00  0.00    -0.650 OA
BRANCH  41  43
HETATM   43  O   UNK     0     -46.898  17.090  -4.627  0.00  0.00    -0.776 OA
HETATM   44  H   UNK     0     -46.154  16.477  -4.936  0.00  0.00     0.167 HD
ENDBRANCH  41  43
ENDBRANCH  40  41
ENDBRANCH  39  40
ENDBRANCH  27  39
BRANCH  11  45
HETATM   45  C   UNK     0     -36.214  19.462  -1.476  0.00  0.00     0.051 C 
BRANCH  45  46
HETATM   46  C   UNK     0     -35.421  18.207  -1.521  0.00  0.00     0.114 C 
BRANCH  46  47
HETATM   47  C   UNK     0     -34.526  18.292  -2.710  0.00  0.00     0.139 C 
HETATM   48  O   UNK     0     -33.583  19.096  -2.686  0.00  0.00    -0.650 OA
BRANCH  47  49
HETATM   49  O   UNK     0     -34.742  17.500  -3.810  0.00  0.00    -0.776 OA
HETATM   50  H   UNK     0     -34.376  16.542  -3.872  0.00  0.00     0.167 HD
ENDBRANCH  47  49
ENDBRANCH  46  47
ENDBRANCH  45  46
ENDBRANCH  11  45
BRANCH  18  51
HETATM   51  C   UNK     0     -42.179  19.636   2.150  0.00  0.00     0.051 C 
BRANCH  51  52
HETATM   52  C   UNK     0     -42.834  18.407   2.762  0.00  0.00     0.114 C 
BRANCH  52  53
HETATM   53  C   UNK     0     -42.439  18.218   4.171  0.00  0.00     0.139 C 
HETATM   54  O   UNK     0     -41.347  18.649   4.573  0.00  0.00    -0.650 OA
BRANCH  53  55
HETATM   55  O   UNK     0     -43.285  17.561   5.031  0.00  0.00    -0.776 OA
HETATM   56  H   UNK     0     -43.855  17.983   5.726  0.00  0.00     0.167 HD
ENDBRANCH  53  55
ENDBRANCH  52  53
ENDBRANCH  51  52
ENDBRANCH  18  51
TORSDOF 16
ENDMDL
MODEL 16
REMARK VINA RESULT:      -7.3     11.797     17.017
REMARK  16 active torsions:
REMARK  status: ('A' for Active; 'I' for Inactive)
REMARK    1  A    between atoms: C_6  and  C_7 
REMARK    2  A    between atoms: C_7  and  C_8 
REMARK    3  A    between atoms: C_8  and  C_9 
REMARK    4  A    between atoms: C_9  and  O_11 
REMARK    5  A    between atoms: C_16  and  C_17 
REMARK    6  A    between atoms: C_17  and  C_18 
REMARK    7  A    between atoms: C_18  and  C_19 
REMARK    8  A    between atoms: C_19  and  O_21 
REMARK    9  A    between atoms: C_28  and  C_29 
REMARK   10  A    between atoms: C_29  and  C_30 
REMARK   11  A    between atoms: C_30  and  C_31 
REMARK   12  A    between atoms: C_31  and  O_33 
REMARK   13  A    between atoms: C_42  and  C_43 
REMARK   14  A    between atoms: C_43  and  C_44 
REMARK   15  A    between atoms: C_44  and  C_45 
REMARK   16  A    between atoms: C_45  and  O_47 
ROOT
HETATM    1  C   UNK     0     -42.566  17.618   1.674  0.00  0.00     0.051 C 
HETATM    2  C   UNK     0     -41.765  18.528   0.765  0.00  0.00    -0.031 A 
HETATM    3  C   UNK     0     -40.639  19.285   1.049  0.00  0.00     0.021 A 
HETATM    4  N   UNK     0     -40.278  19.972  -0.061  0.00  0.00    -0.361 N 
HETATM    5  C   UNK     0     -41.144  19.662  -1.048  0.00  0.00     0.022 A 
HETATM    6  C   UNK     0     -42.089  18.763  -0.565  0.00  0.00    -0.027 A 
HETATM    7  C   UNK     0     -41.134  20.074  -2.487  0.00  0.00     0.115 C 
HETATM    8  C   UNK     0     -39.789  20.060  -3.191  0.00  0.00     0.021 A 
HETATM    9  N   UNK     0     -38.768  19.204  -3.026  0.00  0.00    -0.361 N 
HETATM   10  C   UNK     0     -37.739  19.627  -3.791  0.00  0.00     0.022 A 
HETATM   11  C   UNK     0     -38.111  20.781  -4.475  0.00  0.00    -0.027 A 
HETATM   12  C   UNK     0     -39.401  21.059  -4.102  0.00  0.00    -0.031 A 
HETATM   13  C   UNK     0     -40.223  22.226  -4.601  0.00  0.00     0.051 C 
HETATM   14  C   UNK     0     -36.353  18.993  -3.867  0.00  0.00     0.115 C 
HETATM   15  C   UNK     0     -35.607  18.983  -2.542  0.00  0.00     0.021 A 
HETATM   16  N   UNK     0     -35.997  18.416  -1.385  0.00  0.00    -0.361 N 
HETATM   17  C   UNK     0     -35.097  18.690  -0.438  0.00  0.00     0.022 A 
HETATM   18  C   UNK     0     -34.066  19.464  -1.008  0.00  0.00    -0.027 A 
HETATM   19  C   UNK     0     -34.397  19.640  -2.326  0.00  0.00    -0.031 A 
HETATM   20  C   UNK     0     -33.532  20.392  -3.320  0.00  0.00     0.051 C 
HETATM   21  C   UNK     0     -35.102  18.350   1.035  0.00  0.00     0.115 C 
HETATM   22  C   UNK     0     -36.439  18.318   1.739  0.00  0.00     0.022 A 
HETATM   23  N   UNK     0     -37.475  19.154   1.591  0.00  0.00    -0.361 N 
HETATM   24  C   UNK     0     -38.513  18.670   2.302  0.00  0.00     0.021 A 
HETATM   25  C   UNK     0     -38.134  17.500   2.931  0.00  0.00    -0.031 A 
HETATM   26  C   UNK     0     -38.935  16.617   3.865  0.00  0.00     0.051 C 
HETATM   27  C   UNK     0     -36.810  17.254   2.586  0.00  0.00    -0.027 A 
HETATM   28  C   UNK     0     -39.928  19.220   2.371  0.00  0.00     0.115 C 
HETATM   29  H   UNK     0     -39.437  20.701  -0.128  0.00  0.00     0.165 HD
HETATM   30  H   UNK     0     -38.787  18.273  -2.408  0.00  0.00     0.165 HD
HETATM   31  H   UNK     0     -36.901  17.769  -1.244  0.00  0.00     0.165 HD
HETATM   32  H   UNK     0     -37.469  20.117   1.018  0.00  0.00     0.165 HD
ENDROOT
BRANCH   6  33
HETATM   33  C   UNK     0     -43.262  18.122  -1.261  0.00  0.00     0.051 C 
BRANCH  33  34
HETATM   34  C   UNK     0     -44.460  19.042  -1.249  0.00  0.00     0.114 C 
BRANCH  34  35
HETATM   35  C   UNK     0     -45.626  18.250  -0.763  0.00  0.00     0.139 C 
HETATM   36  O   UNK     0     -45.925  18.244   0.467  0.00  0.00    -0.650 OA
BRANCH  35  37
HETATM   37  O   UNK     0     -46.428  17.499  -1.613  0.00  0.00    -0.776 OA
HETATM   38  H   UNK     0     -46.249  16.524  -1.796  0.00  0.00     0.167 HD
ENDBRANCH  35  37
ENDBRANCH  34  35
ENDBRANCH  33  34
ENDBRANCH   6  33
BRANCH  27  39
HETATM   39  C   UNK     0     -36.029  16.111   3.132  0.00  0.00     0.051 C 
BRANCH  39  40
HETATM   40  C   UNK     0     -35.013  16.388   4.148  0.00  0.00     0.114 C 
BRANCH  40  41
HETATM   41  C   UNK     0     -33.599  16.367   3.849  0.00  0.00     0.139 C 
HETATM   42  O   UNK     0     -32.981  15.340   3.537  0.00  0.00    -0.650 OA
BRANCH  41  43
HETATM   43  O   UNK     0     -32.861  17.583   3.911  0.00  0.00    -0.776 OA
HETATM   44  H   UNK     0     -32.996  18.196   3.116  0.00  0.00     0.167 HD
ENDBRANCH  41  43
ENDBRANCH  40  41
ENDBRANCH  39  40
ENDBRANCH  27  39
BRANCH  11  45
HETATM   45  C   UNK     0     -37.304  21.601  -5.445  0.00  0.00     0.051 C 
BRANCH  45  46
HETATM   46  C   UNK     0     -36.262  22.444  -4.806  0.00  0.00     0.114 C 
BRANCH  46  47
HETATM   47  C   UNK     0     -36.081  23.650  -5.664  0.00  0.00     0.139 C 
HETATM   48  O   UNK     0     -36.422  23.587  -6.854  0.00  0.00    -0.650 OA
BRANCH  47  49
HETATM   49  O   UNK     0     -35.547  24.805  -5.150  0.00  0.00    -0.776 OA
HETATM   50  H   UNK     0     -35.466  24.965  -4.139  0.00  0.00     0.167 HD
ENDBRANCH  47  49
ENDBRANCH  46  47
ENDBRANCH  45  46
ENDBRANCH  11  45
BRANCH  18  51
HETATM   51  C   UNK     0     -32.824  19.990  -0.337  0.00  0.00     0.051 C 
BRANCH  51  52
HETATM   52  C   UNK     0     -33.233  21.272   0.373  0.00  0.00     0.114 C 
BRANCH  52  53
HETATM   53  C   UNK     0     -32.735  21.315   1.761  0.00  0.00     0.139 C 
HETATM   54  O   UNK     0     -32.508  22.406   2.307  0.00  0.00    -0.650 OA
BRANCH  53  55
HETATM   55  O   UNK     0     -32.523  20.141   2.443  0.00  0.00    -0.776 OA
HETATM   56  H   UNK     0     -32.706  19.226   2.103  0.00  0.00     0.167 HD
ENDBRANCH  53  55
ENDBRANCH  52  53
ENDBRANCH  51  52
ENDBRANCH  18  51
TORSDOF 16
ENDMDL
MODEL 17
REMARK VINA RESULT:      -7.3     12.397     17.689
REMARK  16 active torsions:
REMARK  status: ('A' for Active; 'I' for Inactive)
REMARK    1  A    between atoms: C_6  and  C_7 
REMARK    2  A    between atoms: C_7  and  C_8 
REMARK    3  A    between atoms: C_8  and  C_9 
REMARK    4  A    between atoms: C_9  and  O_11 
REMARK    5  A    between atoms: C_16  and  C_17 
REMARK    6  A    between atoms: C_17  and  C_18 
REMARK    7  A    between atoms: C_18  and  C_19 
REMARK    8  A    between atoms: C_19  and  O_21 
REMARK    9  A    between atoms: C_28  and  C_29 
REMARK   10  A    between atoms: C_29  and  C_30 
REMARK   11  A    between atoms: C_30  and  C_31 
REMARK   12  A    between atoms: C_31  and  O_33 
REMARK   13  A    between atoms: C_42  and  C_43 
REMARK   14  A    between atoms: C_43  and  C_44 
REMARK   15  A    between atoms: C_44  and  C_45 
REMARK   16  A    between atoms: C_45  and  O_47 
ROOT
HETATM    1  C   UNK     0     -33.896  21.239  -2.631  0.00  0.00     0.051 C 
HETATM    2  C   UNK     0     -35.108  20.983  -1.758  0.00  0.00    -0.031 A 
HETATM    3  C   UNK     0     -36.318  21.657  -1.713  0.00  0.00     0.021 A 
HETATM    4  N   UNK     0     -37.098  21.101  -0.757  0.00  0.00    -0.361 N 
HETATM    5  C   UNK     0     -36.415  20.082  -0.196  0.00  0.00     0.022 A 
HETATM    6  C   UNK     0     -35.165  19.982  -0.797  0.00  0.00    -0.027 A 
HETATM    7  C   UNK     0     -36.859  19.092   0.835  0.00  0.00     0.115 C 
HETATM    8  C   UNK     0     -38.258  18.524   0.678  0.00  0.00     0.021 A 
HETATM    9  N   UNK     0     -38.918  18.228  -0.452  0.00  0.00    -0.361 N 
HETATM   10  C   UNK     0     -40.166  17.836  -0.118  0.00  0.00     0.022 A 
HETATM   11  C   UNK     0     -40.311  17.872   1.266  0.00  0.00    -0.027 A 
HETATM   12  C   UNK     0     -39.112  18.304   1.774  0.00  0.00    -0.031 A 
HETATM   13  C   UNK     0     -38.802  18.492   3.242  0.00  0.00     0.051 C 
HETATM   14  C   UNK     0     -41.284  17.465  -1.088  0.00  0.00     0.115 C 
HETATM   15  C   UNK     0     -41.687  18.594  -2.024  0.00  0.00     0.021 A 
HETATM   16  N   UNK     0     -40.906  19.254  -2.899  0.00  0.00    -0.361 N 
HETATM   17  C   UNK     0     -41.619  20.221  -3.480  0.00  0.00     0.022 A 
HETATM   18  C   UNK     0     -42.931  20.184  -2.966  0.00  0.00    -0.027 A 
HETATM   19  C   UNK     0     -42.961  19.159  -2.056  0.00  0.00    -0.031 A 
HETATM   20  C   UNK     0     -44.204  18.748  -1.288  0.00  0.00     0.051 C 
HETATM   21  C   UNK     0     -41.194  21.279  -4.473  0.00  0.00     0.115 C 
HETATM   22  C   UNK     0     -39.789  21.821  -4.356  0.00  0.00     0.022 A 
HETATM   23  N   UNK     0     -39.105  22.122  -3.244  0.00  0.00    -0.361 N 
HETATM   24  C   UNK     0     -37.842  22.434  -3.595  0.00  0.00     0.021 A 
HETATM   25  C   UNK     0     -37.711  22.343  -4.968  0.00  0.00    -0.031 A 
HETATM   26  C   UNK     0     -36.502  22.635  -5.832  0.00  0.00     0.051 C 
HETATM   27  C   UNK     0     -38.945  21.953  -5.477  0.00  0.00    -0.027 A 
HETATM   28  C   UNK     0     -36.674  22.753  -2.678  0.00  0.00     0.115 C 
HETATM   29  H   UNK     0     -38.111  21.458  -0.456  0.00  0.00     0.165 HD
HETATM   30  H   UNK     0     -38.490  18.246  -1.484  0.00  0.00     0.165 HD
HETATM   31  H   UNK     0     -39.843  19.002  -3.148  0.00  0.00     0.165 HD
HETATM   32  H   UNK     0     -39.520  22.157  -2.203  0.00  0.00     0.165 HD
ENDROOT
BRANCH   6  33
HETATM   33  C   UNK     0     -34.034  19.021  -0.530  0.00  0.00     0.051 C 
BRANCH  33  34
HETATM   34  C   UNK     0     -34.143  17.805  -1.420  0.00  0.00     0.114 C 
BRANCH  34  35
HETATM   35  C   UNK     0     -34.599  16.669  -0.569  0.00  0.00     0.139 C 
HETATM   36  O   UNK     0     -33.883  16.266   0.393  0.00  0.00    -0.650 OA
BRANCH  35  37
HETATM   37  O   UNK     0     -35.805  16.011  -0.781  0.00  0.00    -0.776 OA
HETATM   38  H   UNK     0     -36.178  15.352  -0.116  0.00  0.00     0.167 HD
ENDBRANCH  35  37
ENDBRANCH  34  35
ENDBRANCH  33  34
ENDBRANCH   6  33
BRANCH  27  39
HETATM   39  C   UNK     0     -39.214  21.817  -6.934  0.00  0.00     0.051 C 
BRANCH  39  40
HETATM   40  C   UNK     0     -39.548  20.493  -7.458  0.00  0.00     0.114 C 
BRANCH  40  41
HETATM   41  C   UNK     0     -40.098  20.304  -8.782  0.00  0.00     0.139 C 
HETATM   42  O   UNK     0     -39.505  20.628  -9.820  0.00  0.00    -0.650 OA
BRANCH  41  43
HETATM   43  O   UNK     0     -41.388  19.717  -8.917  0.00  0.00    -0.776 OA
HETATM   44  H   UNK     0     -41.709  19.627  -9.874  0.00  0.00     0.167 HD
ENDBRANCH  41  43
ENDBRANCH  40  41
ENDBRANCH  39  40
ENDBRANCH  27  39
BRANCH  11  45
HETATM   45  C   UNK     0     -41.515  17.517   2.096  0.00  0.00     0.051 C 
BRANCH  45  46
HETATM   46  C   UNK     0     -41.776  16.058   2.192  0.00  0.00     0.114 C 
BRANCH  46  47
HETATM   47  C   UNK     0     -41.163  15.583   3.466  0.00  0.00     0.139 C 
HETATM   48  O   UNK     0     -40.613  14.473   3.481  0.00  0.00    -0.650 OA
BRANCH  47  49
HETATM   49  O   UNK     0     -41.209  16.356   4.599  0.00  0.00    -0.776 OA
HETATM   50  H   UNK     0     -40.635  16.147   5.424  0.00  0.00     0.167 HD
ENDBRANCH  47  49
ENDBRANCH  46  47
ENDBRANCH  45  46
ENDBRANCH  11  45
BRANCH  18  51
HETATM   51  C   UNK     0     -44.097  21.063  -3.337  0.00  0.00     0.051 C 
BRANCH  51  52
HETATM   52  C   UNK     0     -44.038  22.264  -2.406  0.00  0.00     0.114 C 
BRANCH  52  53
HETATM   53  C   UNK     0     -44.060  23.538  -3.151  0.00  0.00     0.139 C 
HETATM   54  O   UNK     0     -43.938  23.538  -4.386  0.00  0.00    -0.650 OA
BRANCH  53  55
HETATM   55  O   UNK     0     -44.214  24.721  -2.469  0.00  0.00    -0.776 OA
HETATM   56  H   UNK     0     -43.482  25.326  -2.177  0.00  0.00     0.167 HD
ENDBRANCH  53  55
ENDBRANCH  52  53
ENDBRANCH  51  52
ENDBRANCH  18  51
TORSDOF 16
ENDMDL
MODEL 18
REMARK VINA RESULT:      -7.3     10.799     16.312
REMARK  16 active torsions:
REMARK  status: ('A' for Active; 'I' for Inactive)
REMARK    1  A    between atoms: C_6  and  C_7 
REMARK    2  A    between atoms: C_7  and  C_8 
REMARK    3  A    between atoms: C_8  and  C_9 
REMARK    4  A    between atoms: C_9  and  O_11 
REMARK    5  A    between atoms: C_16  and  C_17 
REMARK    6  A    between atoms: C_17  and  C_18 
REMARK    7  A    between atoms: C_18  and  C_19 
REMARK    8  A    between atoms: C_19  and  O_21 
REMARK    9  A    between atoms: C_28  and  C_29 
REMARK   10  A    between atoms: C_29  and  C_30 
REMARK   11  A    between atoms: C_30  and  C_31 
REMARK   12  A    between atoms: C_31  and  O_33 
REMARK   13  A    between atoms: C_42  and  C_43 
REMARK   14  A    between atoms: C_43  and  C_44 
REMARK   15  A    between atoms: C_44  and  C_45 
REMARK   16  A    between atoms: C_45  and  O_47 
ROOT
HETATM    1  C   UNK     0     -39.864  17.630   4.566  0.00  0.00     0.051 C 
HETATM    2  C   UNK     0     -39.751  18.613   3.418  0.00  0.00    -0.031 A 
HETATM    3  C   UNK     0     -38.626  19.236   2.900  0.00  0.00     0.021 A 
HETATM    4  N   UNK     0     -39.002  20.060   1.894  0.00  0.00    -0.361 N 
HETATM    5  C   UNK     0     -40.341  19.970   1.754  0.00  0.00     0.022 A 
HETATM    6  C   UNK     0     -40.842  19.075   2.693  0.00  0.00    -0.027 A 
HETATM    7  C   UNK     0     -41.236  20.601   0.733  0.00  0.00     0.115 C 
HETATM    8  C   UNK     0     -40.738  20.602  -0.702  0.00  0.00     0.021 A 
HETATM    9  N   UNK     0     -40.023  19.662  -1.340  0.00  0.00    -0.361 N 
HETATM   10  C   UNK     0     -39.726  20.126  -2.572  0.00  0.00     0.022 A 
HETATM   11  C   UNK     0     -40.272  21.396  -2.736  0.00  0.00    -0.027 A 
HETATM   12  C   UNK     0     -40.911  21.702  -1.562  0.00  0.00    -0.031 A 
HETATM   13  C   UNK     0     -41.657  22.987  -1.281  0.00  0.00     0.051 C 
HETATM   14  C   UNK     0     -38.874  19.417  -3.621  0.00  0.00     0.115 C 
HETATM   15  C   UNK     0     -37.446  19.148  -3.175  0.00  0.00     0.021 A 
HETATM   16  N   UNK     0     -37.040  18.435  -2.107  0.00  0.00    -0.361 N 
HETATM   17  C   UNK     0     -35.709  18.494  -2.022  0.00  0.00     0.022 A 
HETATM   18  C   UNK     0     -35.224  19.274  -3.090  0.00  0.00    -0.027 A 
HETATM   19  C   UNK     0     -36.322  19.676  -3.806  0.00  0.00    -0.031 A 
HETATM   20  C   UNK     0     -36.245  20.513  -5.070  0.00  0.00     0.051 C 
HETATM   21  C   UNK     0     -34.777  17.930  -0.974  0.00  0.00     0.115 C 
HETATM   22  C   UNK     0     -35.276  17.881   0.451  0.00  0.00     0.022 A 
HETATM   23  N   UNK     0     -35.993  18.801   1.111  0.00  0.00    -0.361 N 
HETATM   24  C   UNK     0     -36.343  18.286   2.307  0.00  0.00     0.021 A 
HETATM   25  C   UNK     0     -35.831  17.008   2.424  0.00  0.00    -0.031 A 
HETATM   26  C   UNK     0     -35.922  16.048   3.592  0.00  0.00     0.051 C 
HETATM   27  C   UNK     0     -35.144  16.727   1.249  0.00  0.00    -0.027 A 
HETATM   28  C   UNK     0     -37.234  18.915   3.364  0.00  0.00     0.115 C 
HETATM   29  H   UNK     0     -38.324  20.730   1.316  0.00  0.00     0.165 HD
HETATM   30  H   UNK     0     -39.769  18.650  -0.941  0.00  0.00     0.165 HD
HETATM   31  H   UNK     0     -37.702  17.839  -1.427  0.00  0.00     0.165 HD
HETATM   32  H   UNK     0     -36.222  19.839   0.756  0.00  0.00     0.165 HD
ENDROOT
BRANCH   6  33
HETATM   33  C   UNK     0     -42.260  18.634   2.953  0.00  0.00     0.051 C 
BRANCH  33  34
HETATM   34  C   UNK     0     -42.772  17.783   1.815  0.00  0.00     0.114 C 
BRANCH  34  35
HETATM   35  C   UNK     0     -42.393  16.371   2.107  0.00  0.00     0.139 C 
HETATM   36  O   UNK     0     -41.920  15.636   1.192  0.00  0.00    -0.650 OA
BRANCH  35  37
HETATM   37  O   UNK     0     -42.532  15.803   3.367  0.00  0.00    -0.776 OA
HETATM   38  H   UNK     0     -43.334  15.983   3.949  0.00  0.00     0.167 HD
ENDBRANCH  35  37
ENDBRANCH  34  35
ENDBRANCH  33  34
ENDBRANCH   6  33
BRANCH  27  39
HETATM   39  C   UNK     0     -34.392  15.461   1.032  0.00  0.00     0.051 C 
BRANCH  39  40
HETATM   40  C   UNK     0     -32.945  15.539   0.832  0.00  0.00     0.114 C 
BRANCH  40  41
HETATM   41  C   UNK     0     -32.063  14.438   1.146  0.00  0.00     0.139 C 
HETATM   42  O   UNK     0     -32.310  13.591   2.016  0.00  0.00    -0.650 OA
BRANCH  41  43
HETATM   43  O   UNK     0     -30.841  14.304   0.428  0.00  0.00    -0.776 OA
HETATM   44  H   UNK     0     -30.268  13.521   0.719  0.00  0.00     0.167 HD
ENDBRANCH  41  43
ENDBRANCH  40  41
ENDBRANCH  39  40
ENDBRANCH  27  39
BRANCH  11  45
HETATM   45  C   UNK     0     -40.211  22.300  -3.938  0.00  0.00     0.051 C 
BRANCH  45  46
HETATM   46  C   UNK     0     -38.837  22.729  -4.304  0.00  0.00     0.114 C 
BRANCH  46  47
HETATM   47  C   UNK     0     -38.278  23.466  -3.134  0.00  0.00     0.139 C 
HETATM   48  O   UNK     0     -38.797  24.543  -2.809  0.00  0.00    -0.650 OA
BRANCH  47  49
HETATM   49  O   UNK     0     -37.212  22.964  -2.432  0.00  0.00    -0.776 OA
HETATM   50  H   UNK     0     -37.255  22.798  -1.420  0.00  0.00     0.167 HD
ENDBRANCH  47  49
ENDBRANCH  46  47
ENDBRANCH  45  46
ENDBRANCH  11  45
BRANCH  18  51
HETATM   51  C   UNK     0     -33.792  19.601  -3.423  0.00  0.00     0.051 C 
BRANCH  51  52
HETATM   52  C   UNK     0     -33.617  21.086  -3.142  0.00  0.00     0.114 C 
BRANCH  52  53
HETATM   53  C   UNK     0     -33.750  21.393  -1.705  0.00  0.00     0.139 C 
HETATM   54  O   UNK     0     -34.623  22.186  -1.317  0.00  0.00    -0.650 OA
BRANCH  53  55
HETATM   55  O   UNK     0     -32.902  20.799  -0.802  0.00  0.00    -0.776 OA
HETATM   56  H   UNK     0     -32.011  21.140  -0.526  0.00  0.00     0.167 HD
ENDBRANCH  53  55
ENDBRANCH  52  53
ENDBRANCH  51  52
ENDBRANCH  18  51
TORSDOF 16
ENDMDL
MODEL 19
REMARK VINA RESULT:      -7.3     16.600     18.976
REMARK  16 active torsions:
REMARK  status: ('A' for Active; 'I' for Inactive)
REMARK    1  A    between atoms: C_6  and  C_7 
REMARK    2  A    between atoms: C_7  and  C_8 
REMARK    3  A    between atoms: C_8  and  C_9 
REMARK    4  A    between atoms: C_9  and  O_11 
REMARK    5  A    between atoms: C_16  and  C_17 
REMARK    6  A    between atoms: C_17  and  C_18 
REMARK    7  A    between atoms: C_18  and  C_19 
REMARK    8  A    between atoms: C_19  and  O_21 
REMARK    9  A    between atoms: C_28  and  C_29 
REMARK   10  A    between atoms: C_29  and  C_30 
REMARK   11  A    between atoms: C_30  and  C_31 
REMARK   12  A    between atoms: C_31  and  O_33 
REMARK   13  A    between atoms: C_42  and  C_43 
REMARK   14  A    between atoms: C_43  and  C_44 
REMARK   15  A    between atoms: C_44  and  C_45 
REMARK   16  A    between atoms: C_45  and  O_47 
ROOT
HETATM    1  C   UNK     0     -30.554  23.228  12.510  0.00  0.00     0.051 C 
HETATM    2  C   UNK     0     -29.777  21.932  12.388  0.00  0.00    -0.031 A 
HETATM    3  C   UNK     0     -28.932  21.505  11.376  0.00  0.00     0.021 A 
HETATM    4  N   UNK     0     -28.480  20.264  11.673  0.00  0.00    -0.361 N 
HETATM    5  C   UNK     0     -29.012  19.894  12.857  0.00  0.00     0.022 A 
HETATM    6  C   UNK     0     -29.830  20.914  13.331  0.00  0.00    -0.027 A 
HETATM    7  C   UNK     0     -28.761  18.663  13.670  0.00  0.00     0.115 C 
HETATM    8  C   UNK     0     -27.318  18.202  13.781  0.00  0.00     0.021 A 
HETATM    9  N   UNK     0     -26.205  18.948  13.853  0.00  0.00    -0.361 N 
HETATM   10  C   UNK     0     -25.142  18.116  13.846  0.00  0.00     0.022 A 
HETATM   11  C   UNK     0     -25.582  16.798  13.777  0.00  0.00    -0.027 A 
HETATM   12  C   UNK     0     -26.952  16.845  13.736  0.00  0.00    -0.031 A 
HETATM   13  C   UNK     0     -27.866  15.642  13.663  0.00  0.00     0.051 C 
HETATM   14  C   UNK     0     -23.673  18.531  13.850  0.00  0.00     0.115 C 
HETATM   15  C   UNK     0     -23.265  19.364  12.645  0.00  0.00     0.021 A 
HETATM   16  N   UNK     0     -23.780  20.544  12.250  0.00  0.00    -0.361 N 
HETATM   17  C   UNK     0     -23.200  20.915  11.107  0.00  0.00     0.022 A 
HETATM   18  C   UNK     0     -22.254  19.935  10.745  0.00  0.00    -0.027 A 
HETATM   19  C   UNK     0     -22.304  18.970  11.717  0.00  0.00    -0.031 A 
HETATM   20  C   UNK     0     -21.414  17.741  11.733  0.00  0.00     0.051 C 
HETATM   21  C   UNK     0     -23.470  22.111  10.223  0.00  0.00     0.115 C 
HETATM   22  C   UNK     0     -24.894  22.608  10.138  0.00  0.00     0.022 A 
HETATM   23  N   UNK     0     -26.022  21.888  10.070  0.00  0.00    -0.361 N 
HETATM   24  C   UNK     0     -27.069  22.733  10.157  0.00  0.00     0.021 A 
HETATM   25  C   UNK     0     -26.605  24.029  10.274  0.00  0.00    -0.031 A 
HETATM   26  C   UNK     0     -27.393  25.319  10.360  0.00  0.00     0.051 C 
HETATM   27  C   UNK     0     -25.216  23.975  10.264  0.00  0.00    -0.027 A 
HETATM   28  C   UNK     0     -28.545  22.380  10.217  0.00  0.00     0.115 C 
HETATM   29  H   UNK     0     -27.820  19.641  11.026  0.00  0.00     0.165 HD
HETATM   30  H   UNK     0     -26.168  20.060  13.959  0.00  0.00     0.165 HD
HETATM   31  H   UNK     0     -24.535  21.151  12.814  0.00  0.00     0.165 HD
HETATM   32  H   UNK     0     -26.089  20.780   9.916  0.00  0.00     0.165 HD
ENDROOT
BRANCH   6  33
HETATM   33  C   UNK     0     -30.650  20.992  14.594  0.00  0.00     0.051 C 
BRANCH  33  34
HETATM   34  C   UNK     0     -29.794  21.418  15.763  0.00  0.00     0.114 C 
BRANCH  34  35
HETATM   35  C   UNK     0     -30.277  20.677  16.963  0.00  0.00     0.139 C 
HETATM   36  O   UNK     0     -31.090  19.716  16.835  0.00  0.00    -0.650 OA
BRANCH  35  37
HETATM   37  O   UNK     0     -29.869  20.994  18.253  0.00  0.00    -0.776 OA
HETATM   38  H   UNK     0     -29.983  21.918  18.639  0.00  0.00     0.167 HD
ENDBRANCH  35  37
ENDBRANCH  34  35
ENDBRANCH  33  34
ENDBRANCH   6  33
BRANCH  27  39
HETATM   39  C   UNK     0     -24.357  25.190  10.300  0.00  0.00     0.051 C 
BRANCH  39  40
HETATM   40  C   UNK     0     -23.763  25.657   9.048  0.00  0.00     0.114 C 
BRANCH  40  41
HETATM   41  C   UNK     0     -22.540  25.096   8.518  0.00  0.00     0.139 C 
HETATM   42  O   UNK     0     -22.514  24.188   7.676  0.00  0.00    -0.650 OA
BRANCH  41  43
HETATM   43  O   UNK     0     -21.291  25.602   8.978  0.00  0.00    -0.776 OA
HETATM   44  H   UNK     0     -20.551  24.912   9.023  0.00  0.00     0.167 HD
ENDBRANCH  41  43
ENDBRANCH  40  41
ENDBRANCH  39  40
ENDBRANCH  27  39
BRANCH  11  45
HETATM   45  C   UNK     0     -24.768  15.533  13.752  0.00  0.00     0.051 C 
BRANCH  45  46
HETATM   46  C   UNK     0     -23.882  15.405  12.567  0.00  0.00     0.114 C 
BRANCH  46  47
HETATM   47  C   UNK     0     -24.747  15.499  11.357  0.00  0.00     0.139 C 
HETATM   48  O   UNK     0     -25.635  14.650  11.197  0.00  0.00    -0.650 OA
BRANCH  47  49
HETATM   49  O   UNK     0     -24.565  16.501  10.438  0.00  0.00    -0.776 OA
HETATM   50  H   UNK     0     -25.135  16.571   9.586  0.00  0.00     0.167 HD
ENDBRANCH  47  49
ENDBRANCH  46  47
ENDBRANCH  45  46
ENDBRANCH  11  45
BRANCH  18  51
HETATM   51  C   UNK     0     -21.338  19.929   9.548  0.00  0.00     0.051 C 
BRANCH  51  52
HETATM   52  C   UNK     0     -20.203  20.887   9.876  0.00  0.00     0.114 C 
BRANCH  52  53
HETATM   53  C   UNK     0     -20.150  22.020   8.933  0.00  0.00     0.139 C 
HETATM   54  O   UNK     0     -19.569  23.070   9.254  0.00  0.00    -0.650 OA
BRANCH  53  55
HETATM   55  O   UNK     0     -20.750  21.909   7.702  0.00  0.00    -0.776 OA
HETATM   56  H   UNK     0     -20.438  22.332   6.860  0.00  0.00     0.167 HD
ENDBRANCH  53  55
ENDBRANCH  52  53
ENDBRANCH  51  52
ENDBRANCH  18  51
TORSDOF 16
ENDMDL
MODEL 20
REMARK VINA RESULT:      -7.2     11.591     17.392
REMARK  16 active torsions:
REMARK  status: ('A' for Active; 'I' for Inactive)
REMARK    1  A    between atoms: C_6  and  C_7 
REMARK    2  A    between atoms: C_7  and  C_8 
REMARK    3  A    between atoms: C_8  and  C_9 
REMARK    4  A    between atoms: C_9  and  O_11 
REMARK    5  A    between atoms: C_16  and  C_17 
REMARK    6  A    between atoms: C_17  and  C_18 
REMARK    7  A    between atoms: C_18  and  C_19 
REMARK    8  A    between atoms: C_19  and  O_21 
REMARK    9  A    between atoms: C_28  and  C_29 
REMARK   10  A    between atoms: C_29  and  C_30 
REMARK   11  A    between atoms: C_30  and  C_31 
REMARK   12  A    between atoms: C_31  and  O_33 
REMARK   13  A    between atoms: C_42  and  C_43 
REMARK   14  A    between atoms: C_43  and  C_44 
REMARK   15  A    between atoms: C_44  and  C_45 
REMARK   16  A    between atoms: C_45  and  O_47 
ROOT
HETATM    1  C   UNK     0     -34.053  17.984  -2.045  0.00  0.00     0.051 C 
HETATM    2  C   UNK     0     -35.101  18.426  -1.043  0.00  0.00    -0.031 A 
HETATM    3  C   UNK     0     -35.759  19.641  -0.937  0.00  0.00     0.021 A 
HETATM    4  N   UNK     0     -36.591  19.600   0.130  0.00  0.00    -0.361 N 
HETATM    5  C   UNK     0     -36.484  18.383   0.702  0.00  0.00     0.022 A 
HETATM    6  C   UNK     0     -35.558  17.624  -0.006  0.00  0.00    -0.027 A 
HETATM    7  C   UNK     0     -37.252  17.797   1.846  0.00  0.00     0.115 C 
HETATM    8  C   UNK     0     -38.747  18.058   1.867  0.00  0.00     0.021 A 
HETATM    9  N   UNK     0     -39.597  18.139   0.832  0.00  0.00    -0.361 N 
HETATM   10  C   UNK     0     -40.813  18.477   1.312  0.00  0.00     0.022 A 
HETATM   11  C   UNK     0     -40.746  18.607   2.696  0.00  0.00    -0.027 A 
HETATM   12  C   UNK     0     -39.448  18.344   3.053  0.00  0.00    -0.031 A 
HETATM   13  C   UNK     0     -38.909  18.362   4.465  0.00  0.00     0.051 C 
HETATM   14  C   UNK     0     -42.067  18.741   0.485  0.00  0.00     0.115 C 
HETATM   15  C   UNK     0     -41.928  19.896  -0.494  0.00  0.00     0.021 A 
HETATM   16  N   UNK     0     -41.030  20.025  -1.489  0.00  0.00    -0.361 N 
HETATM   17  C   UNK     0     -41.192  21.213  -2.074  0.00  0.00     0.022 A 
HETATM   18  C   UNK     0     -42.253  21.887  -1.436  0.00  0.00    -0.027 A 
HETATM   19  C   UNK     0     -42.706  21.051  -0.449  0.00  0.00    -0.031 A 
HETATM   20  C   UNK     0     -43.874  21.376   0.462  0.00  0.00     0.051 C 
HETATM   21  C   UNK     0     -40.400  21.867  -3.183  0.00  0.00     0.115 C 
HETATM   22  C   UNK     0     -38.917  21.581  -3.243  0.00  0.00     0.022 A 
HETATM   23  N   UNK     0     -38.048  21.490  -2.228  0.00  0.00    -0.361 N 
HETATM   24  C   UNK     0     -36.863  21.077  -2.722  0.00  0.00     0.021 A 
HETATM   25  C   UNK     0     -36.969  20.908  -4.089  0.00  0.00    -0.031 A 
HETATM   26  C   UNK     0     -35.904  20.499  -5.084  0.00  0.00     0.051 C 
HETATM   27  C   UNK     0     -38.275  21.225  -4.446  0.00  0.00    -0.027 A 
HETATM   28  C   UNK     0     -35.600  20.742  -1.947  0.00  0.00     0.115 C 
HETATM   29  H   UNK     0     -37.219  20.445   0.496  0.00  0.00     0.165 HD
HETATM   30  H   UNK     0     -39.353  17.911  -0.235  0.00  0.00     0.165 HD
HETATM   31  H   UNK     0     -40.298  19.242  -1.817  0.00  0.00     0.165 HD
HETATM   32  H   UNK     0     -38.251  21.758  -1.159  0.00  0.00     0.165 HD
ENDROOT
BRANCH   6  33
HETATM   33  C   UNK     0     -35.079  16.213   0.228  0.00  0.00     0.051 C 
BRANCH  33  34
HETATM   34  C   UNK     0     -34.052  16.174   1.335  0.00  0.00     0.114 C 
BRANCH  34  35
HETATM   35  C   UNK     0     -33.285  14.904   1.187  0.00  0.00     0.139 C 
HETATM   36  O   UNK     0     -33.887  13.791   1.191  0.00  0.00    -0.650 OA
BRANCH  35  37
HETATM   37  O   UNK     0     -31.903  14.876   1.038  0.00  0.00    -0.776 OA
HETATM   38  H   UNK     0     -31.400  15.618   0.579  0.00  0.00     0.167 HD
ENDBRANCH  35  37
ENDBRANCH  34  35
ENDBRANCH  33  34
ENDBRANCH   6  33
BRANCH  27  39
HETATM   39  C   UNK     0     -38.751  21.230  -5.856  0.00  0.00     0.051 C 
BRANCH  39  40
HETATM   40  C   UNK     0     -39.684  20.185  -6.277  0.00  0.00     0.114 C 
BRANCH  40  41
HETATM   41  C   UNK     0     -40.304  20.186  -7.583  0.00  0.00     0.139 C 
HETATM   42  O   UNK     0     -39.710  19.865  -8.621  0.00  0.00    -0.650 OA
BRANCH  41  43
HETATM   43  O   UNK     0     -41.669  20.573  -7.700  0.00  0.00    -0.776 OA
HETATM   44  H   UNK     0     -41.962  20.794  -8.644  0.00  0.00     0.167 HD
ENDBRANCH  41  43
ENDBRANCH  40  41
ENDBRANCH  39  40
ENDBRANCH  27  39
BRANCH  11  45
HETATM   45  C   UNK     0     -41.845  18.959   3.663  0.00  0.00     0.051 C 
BRANCH  45  46
HETATM   46  C   UNK     0     -42.611  17.789   4.162  0.00  0.00     0.114 C 
BRANCH  46  47
HETATM   47  C   UNK     0     -43.412  18.252   5.332  0.00  0.00     0.139 C 
HETATM   48  O   UNK     0     -43.086  19.308   5.892  0.00  0.00    -0.650 OA
BRANCH  47  49
HETATM   49  O   UNK     0     -44.485  17.525   5.781  0.00  0.00    -0.776 OA
HETATM   50  H   UNK     0     -45.433  17.669   5.413  0.00  0.00     0.167 HD
ENDBRANCH  47  49
ENDBRANCH  46  47
ENDBRANCH  45  46
ENDBRANCH  11  45
BRANCH  18  51
HETATM   51  C   UNK     0     -42.818  23.245  -1.763  0.00  0.00     0.051 C 
BRANCH  51  52
HETATM   52  C   UNK     0     -42.129  24.229  -0.830  0.00  0.00     0.114 C 
BRANCH  52  53
HETATM   53  C   UNK     0     -41.022  24.940  -1.500  0.00  0.00     0.139 C 
HETATM   54  O   UNK     0     -41.202  25.462  -2.612  0.00  0.00    -0.650 OA
BRANCH  53  55
HETATM   55  O   UNK     0     -39.795  25.017  -0.889  0.00  0.00    -0.776 OA
HETATM   56  H   UNK     0     -39.099  24.309  -0.886  0.00  0.00     0.167 HD
ENDBRANCH  53  55
ENDBRANCH  52  53
ENDBRANCH  51  52
ENDBRANCH  18  51
TORSDOF 16
ENDMDL
