MODEL 1
REMARK VINA RESULT:      -9.8      0.000      0.000
REMARK  28 active torsions:
REMARK  status: ('A' for Active; 'I' for Inactive)
REMARK    1  A    between atoms: C_2  and  O_3 
REMARK    2  A    between atoms: C_2  and  C_4 
REMARK    3  A    between atoms: C_4  and  C_5 
REMARK    4  A    between atoms: C_5  and  C_6 
REMARK    5  A    between atoms: C_7  and  C_8 
REMARK    6  A    between atoms: C_8  and  C_9 
REMARK    7  A    between atoms: C_9  and  O_11 
REMARK    8  A    between atoms: C_28  and  C_29 
REMARK    9  A    between atoms: C_29  and  C_30 
REMARK   10  A    between atoms: C_30  and  O_32 
REMARK   11  A    between atoms: C_33  and  C_34 
REMARK   12  A    between atoms: C_34  and  C_35 
REMARK   13  A    between atoms: C_35  and  C_36 
REMARK   14  A    between atoms: C_36  and  O_38 
REMARK   15  A    between atoms: C_39  and  C_40 
REMARK   16  A    between atoms: C_40  and  C_41 
REMARK   17  A    between atoms: C_41  and  C_42 
REMARK   18  A    between atoms: C_42  and  O_44 
REMARK   19  A    between atoms: C_45  and  C_46 
REMARK   20  A    between atoms: C_46  and  C_47 
REMARK   21  A    between atoms: C_47  and  O_49 
REMARK   22  A    between atoms: C_50  and  C_51 
REMARK   23  A    between atoms: C_51  and  C_52 
REMARK   24  A    between atoms: C_52  and  O_54 
REMARK   25  A    between atoms: C_55  and  C_56 
REMARK   26  A    between atoms: C_56  and  C_57 
REMARK   27  A    between atoms: C_57  and  C_58 
REMARK   28  A    between atoms: C_58  and  O_60 
ROOT
ATOM      1  O   UNK d   0     -14.943  -4.520  15.938  0.00  0.00    -0.650 OA
ATOM      2  C   UNK d   0     -14.679  -5.115  17.006  0.00  0.00     0.139 C 
ENDROOT
BRANCH   2   3
ATOM      3  O   UNK d   0     -15.419  -6.216  17.364  0.00  0.00    -0.776 OA
ATOM      4  H   UNK d   0     -16.431  -6.153  17.493  0.00  0.00     0.167 HD
ENDBRANCH   2   3
BRANCH   2   5
ATOM      5  C   UNK d   0     -13.573  -4.629  17.880  0.00  0.00     0.115 C 
BRANCH   5   6
ATOM      6  C   UNK d   0     -12.450  -4.087  17.039  0.00  0.00     0.052 C 
BRANCH   6   7
ATOM      7  C   UNK d   0     -11.092  -4.347  17.646  0.00  0.00    -0.020 A 
ATOM      8  C   UNK d   0     -10.284  -3.477  18.197  0.00  0.00    -0.011 A 
ATOM      9  C   UNK d   0      -9.093  -4.189  18.630  0.00  0.00     0.067 A 
ATOM     10  C   UNK d   0      -7.897  -3.856  19.286  0.00  0.00     0.062 C 
ATOM     11  N   UNK d   0      -9.258  -5.486  18.297  0.00  0.00    -0.248 NA
ATOM     12  C   UNK d   0      -6.979  -4.735  19.871  0.00  0.00     0.041 A 
ATOM     13  N   UNK d   0      -6.482  -5.911  19.443  0.00  0.00    -0.355 N 
ATOM     14  C   UNK d   0      -6.478  -4.443  21.153  0.00  0.00    -0.022 A 
ATOM     15  C   UNK d   0      -5.684  -6.376  20.423  0.00  0.00     0.042 A 
ATOM     16  H   UNK d   0      -6.675  -6.393  18.459  0.00  0.00     0.166 HD
ATOM     17  C   UNK d   0      -4.920  -7.558  20.495  0.00  0.00     0.062 C 
ATOM     18  C   UNK d   0      -5.657  -5.483  21.512  0.00  0.00    -0.013 A 
ATOM     19  C   UNK d   0      -5.276  -8.838  20.153  0.00  0.00     0.067 A 
ATOM     20  N   UNK d   0      -6.418  -8.987  19.477  0.00  0.00    -0.248 NA
ATOM     21  C   UNK d   0      -4.718 -10.165  20.350  0.00  0.00    -0.011 A 
ATOM     22  C   UNK d   0      -6.649 -10.317  19.220  0.00  0.00     0.066 A 
ATOM     23  C   UNK d   0      -7.789 -10.614  18.488  0.00  0.00     0.062 C 
ATOM     24  C   UNK d   0      -5.529 -11.027  19.805  0.00  0.00    -0.020 A 
ATOM     25  C   UNK d   0      -8.692  -9.715  17.898  0.00  0.00     0.041 A 
ATOM     26  N   UNK d   0      -9.198  -8.554  18.330  0.00  0.00    -0.355 N 
ATOM     27  C   UNK d   0      -9.191 -10.007  16.610  0.00  0.00    -0.022 A 
ATOM     28  C   UNK d   0     -10.000  -8.092  17.358  0.00  0.00     0.042 A 
ATOM     29  H   UNK d   0      -9.011  -8.076  19.323  0.00  0.00     0.166 HD
ATOM     30  C   UNK d   0     -10.773  -6.923  17.277  0.00  0.00     0.062 C 
ATOM     31  C   UNK d   0     -10.018  -8.985  16.260  0.00  0.00    -0.013 A 
ATOM     32  C   UNK d   0     -10.441  -5.647  17.703  0.00  0.00     0.066 A 
BRANCH   8  33
ATOM     33  C   UNK d   0     -10.517  -2.030  18.356  0.00  0.00     0.151 C 
BRANCH  33  34
ATOM     34  C   UNK d   0      -9.472  -1.210  17.716  0.00  0.00     0.143 C 
ATOM     35  O   UNK d   0      -9.371  -1.157  16.482  0.00  0.00    -0.650 OA
BRANCH  34  36
ATOM     36  O   UNK d   0      -8.597  -0.497  18.502  0.00  0.00    -0.776 OA
ATOM     37  H   UNK d   0      -8.525   0.527  18.428  0.00  0.00     0.167 HD
ENDBRANCH  34  36
ENDBRANCH  33  34
ENDBRANCH   8  33
BRANCH  31  38
ATOM     38  C   UNK d   0     -10.773  -8.854  14.957  0.00  0.00     0.151 C 
BRANCH  38  39
ATOM     39  C   UNK d   0     -12.145  -9.305  15.055  0.00  0.00     0.143 C 
ATOM     40  O   UNK d   0     -12.451 -10.510  15.052  0.00  0.00    -0.650 OA
BRANCH  39  41
ATOM     41  O   UNK d   0     -13.170  -8.365  15.158  0.00  0.00    -0.776 OA
ATOM     42  H   UNK d   0     -12.978  -7.534  15.725  0.00  0.00     0.167 HD
ENDBRANCH  39  41
ENDBRANCH  38  39
ENDBRANCH  31  38
BRANCH  27  43
ATOM     43  C   UNK d   0      -8.916 -11.195  15.723  0.00  0.00     0.052 C 
BRANCH  43  44
ATOM     44  C   UNK d   0      -7.774 -10.980  14.784  0.00  0.00     0.115 C 
BRANCH  44  45
ATOM     45  C   UNK d   0      -6.708 -11.935  15.185  0.00  0.00     0.139 C 
ATOM     46  O   UNK d   0      -5.787 -11.515  15.928  0.00  0.00    -0.650 OA
BRANCH  45  47
ATOM     47  O   UNK d   0      -6.696 -13.253  14.783  0.00  0.00    -0.776 OA
ATOM     48  H   UNK d   0      -7.491 -13.894  14.938  0.00  0.00     0.167 HD
ENDBRANCH  45  47
ENDBRANCH  44  45
ENDBRANCH  43  44
ENDBRANCH  27  43
BRANCH  24  49
ATOM     49  C   UNK d   0      -5.330 -12.485  19.739  0.00  0.00     0.052 C 
BRANCH  49  50
ATOM     50  C   UNK d   0      -6.474 -13.200  20.410  0.00  0.00     0.115 C 
BRANCH  50  51
ATOM     51  C   UNK d   0      -6.815 -12.787  21.764  0.00  0.00     0.139 C 
ATOM     52  O   UNK d   0      -7.848 -12.127  22.031  0.00  0.00    -0.650 OA
BRANCH  51  53
ATOM     53  O   UNK d   0      -5.977 -13.123  22.816  0.00  0.00    -0.776 OA
ATOM     54  H   UNK d   0      -5.151 -13.659  22.613  0.00  0.00     0.167 HD
ENDBRANCH  51  53
ENDBRANCH  50  51
ENDBRANCH  49  50
ENDBRANCH  24  49
BRANCH  21  55
ATOM     55  C   UNK d   0      -3.432 -10.434  21.057  0.00  0.00     0.151 C 
BRANCH  55  56
ATOM     56  C   UNK d   0      -3.552 -10.244  22.511  0.00  0.00     0.143 C 
ATOM     57  O   UNK d   0      -4.074 -11.091  23.262  0.00  0.00    -0.650 OA
BRANCH  56  58
ATOM     58  O   UNK d   0      -3.056  -9.059  23.054  0.00  0.00    -0.776 OA
ATOM     59  H   UNK d   0      -3.380  -8.850  24.015  0.00  0.00     0.167 HD
ENDBRANCH  56  58
ENDBRANCH  55  56
ENDBRANCH  21  55
BRANCH  18  60
ATOM     60  C   UNK d   0      -4.914  -5.586  22.820  0.00  0.00     0.151 C 
BRANCH  60  61
ATOM     61  C   UNK d   0      -3.540  -5.142  22.539  0.00  0.00     0.143 C 
ATOM     62  O   UNK d   0      -3.145  -3.982  22.419  0.00  0.00    -0.650 OA
BRANCH  61  63
ATOM     63  O   UNK d   0      -2.588  -6.180  22.397  0.00  0.00    -0.776 OA
ATOM     64  H   UNK d   0      -2.727  -6.923  21.735  0.00  0.00     0.167 HD
ENDBRANCH  61  63
ENDBRANCH  60  61
ENDBRANCH  18  60
BRANCH  14  65
ATOM     65  C   UNK d   0      -6.637  -3.222  22.013  0.00  0.00     0.052 C 
BRANCH  65  66
ATOM     66  C   UNK d   0      -5.787  -2.084  21.571  0.00  0.00     0.115 C 
BRANCH  66  67
ATOM     67  C   UNK d   0      -5.867  -0.826  22.259  0.00  0.00     0.139 C 
ATOM     68  O   UNK d   0      -6.871  -0.614  23.033  0.00  0.00    -0.650 OA
BRANCH  67  69
ATOM     69  O   UNK d   0      -4.969   0.238  22.198  0.00  0.00    -0.776 OA
ATOM     70  H   UNK d   0      -5.038   0.927  22.961  0.00  0.00     0.167 HD
ENDBRANCH  67  69
ENDBRANCH  66  67
ENDBRANCH  65  66
ENDBRANCH  14  65
ENDBRANCH   6   7
ENDBRANCH   5   6
ENDBRANCH   2   5
TORSDOF 28
ENDMDL
MODEL 2
REMARK VINA RESULT:      -9.6      1.614      7.841
REMARK  28 active torsions:
REMARK  status: ('A' for Active; 'I' for Inactive)
REMARK    1  A    between atoms: C_2  and  O_3 
REMARK    2  A    between atoms: C_2  and  C_4 
REMARK    3  A    between atoms: C_4  and  C_5 
REMARK    4  A    between atoms: C_5  and  C_6 
REMARK    5  A    between atoms: C_7  and  C_8 
REMARK    6  A    between atoms: C_8  and  C_9 
REMARK    7  A    between atoms: C_9  and  O_11 
REMARK    8  A    between atoms: C_28  and  C_29 
REMARK    9  A    between atoms: C_29  and  C_30 
REMARK   10  A    between atoms: C_30  and  O_32 
REMARK   11  A    between atoms: C_33  and  C_34 
REMARK   12  A    between atoms: C_34  and  C_35 
REMARK   13  A    between atoms: C_35  and  C_36 
REMARK   14  A    between atoms: C_36  and  O_38 
REMARK   15  A    between atoms: C_39  and  C_40 
REMARK   16  A    between atoms: C_40  and  C_41 
REMARK   17  A    between atoms: C_41  and  C_42 
REMARK   18  A    between atoms: C_42  and  O_44 
REMARK   19  A    between atoms: C_45  and  C_46 
REMARK   20  A    between atoms: C_46  and  C_47 
REMARK   21  A    between atoms: C_47  and  O_49 
REMARK   22  A    between atoms: C_50  and  C_51 
REMARK   23  A    between atoms: C_51  and  C_52 
REMARK   24  A    between atoms: C_52  and  O_54 
REMARK   25  A    between atoms: C_55  and  C_56 
REMARK   26  A    between atoms: C_56  and  C_57 
REMARK   27  A    between atoms: C_57  and  C_58 
REMARK   28  A    between atoms: C_58  and  O_60 
ROOT
ATOM      1  O   UNK d   0     -10.816   0.319  18.505  0.00  0.00    -0.650 OA
ATOM      2  C   UNK d   0     -10.009  -0.635  18.440  0.00  0.00     0.139 C 
ENDROOT
BRANCH   2   3
ATOM      3  O   UNK d   0      -8.660  -0.376  18.424  0.00  0.00    -0.776 OA
ATOM      4  H   UNK d   0      -8.012  -0.914  19.004  0.00  0.00     0.167 HD
ENDBRANCH   2   3
BRANCH   2   5
ATOM      5  C   UNK d   0     -10.511  -2.037  18.381  0.00  0.00     0.115 C 
BRANCH   5   6
ATOM      6  C   UNK d   0      -9.885  -2.763  17.221  0.00  0.00     0.052 C 
BRANCH   6   7
ATOM      7  C   UNK d   0      -9.601  -4.214  17.527  0.00  0.00    -0.020 A 
ATOM      8  C   UNK d   0     -10.212  -5.266  17.047  0.00  0.00    -0.011 A 
ATOM      9  C   UNK d   0      -9.599  -6.444  17.637  0.00  0.00     0.067 A 
ATOM     10  C   UNK d   0      -9.767  -7.834  17.530  0.00  0.00     0.062 C 
ATOM     11  N   UNK d   0      -8.627  -6.016  18.469  0.00  0.00    -0.248 NA
ATOM     12  C   UNK d   0      -8.889  -8.830  17.971  0.00  0.00     0.041 A 
ATOM     13  N   UNK d   0      -8.183  -8.947  19.111  0.00  0.00    -0.355 N 
ATOM     14  C   UNK d   0      -8.595  -9.906  17.114  0.00  0.00    -0.022 A 
ATOM     15  C   UNK d   0      -7.442 -10.066  18.997  0.00  0.00     0.042 A 
ATOM     16  H   UNK d   0      -8.221  -8.263  19.988  0.00  0.00     0.166 HD
ATOM     17  C   UNK d   0      -6.531 -10.654  19.896  0.00  0.00     0.062 C 
ATOM     18  C   UNK d   0      -7.674 -10.694  17.758  0.00  0.00    -0.013 A 
ATOM     19  C   UNK d   0      -5.546 -10.056  20.640  0.00  0.00     0.067 A 
ATOM     20  N   UNK d   0      -5.552  -8.722  20.691  0.00  0.00    -0.248 NA
ATOM     21  C   UNK d   0      -4.413 -10.509  21.430  0.00  0.00    -0.011 A 
ATOM     22  C   UNK d   0      -4.504  -8.269  21.455  0.00  0.00     0.066 A 
ATOM     23  C   UNK d   0      -4.412  -6.896  21.624  0.00  0.00     0.062 C 
ATOM     24  C   UNK d   0      -3.805  -9.459  21.900  0.00  0.00    -0.020 A 
ATOM     25  C   UNK d   0      -5.312  -5.913  21.183  0.00  0.00     0.041 A 
ATOM     26  N   UNK d   0      -6.003  -5.788  20.044  0.00  0.00    -0.355 N 
ATOM     27  C   UNK d   0      -5.610  -4.835  22.046  0.00  0.00    -0.022 A 
ATOM     28  C   UNK d   0      -6.736  -4.669  20.152  0.00  0.00     0.042 A 
ATOM     29  H   UNK d   0      -5.955  -6.471  19.160  0.00  0.00     0.166 HD
ATOM     30  C   UNK d   0      -7.639  -4.067  19.261  0.00  0.00     0.062 C 
ATOM     31  C   UNK d   0      -6.510  -4.044  21.401  0.00  0.00    -0.013 A 
ATOM     32  C   UNK d   0      -8.576  -4.684  18.448  0.00  0.00     0.066 A 
BRANCH   8  33
ATOM     33  C   UNK d   0     -11.329  -5.278  16.084  0.00  0.00     0.151 C 
BRANCH  33  34
ATOM     34  C   UNK d   0     -12.550  -5.894  16.634  0.00  0.00     0.143 C 
ATOM     35  O   UNK d   0     -13.005  -5.538  17.730  0.00  0.00    -0.650 OA
BRANCH  34  36
ATOM     36  O   UNK d   0     -13.189  -6.880  15.918  0.00  0.00    -0.776 OA
ATOM     37  H   UNK d   0     -12.721  -7.365  15.140  0.00  0.00     0.167 HD
ENDBRANCH  34  36
ENDBRANCH  33  34
ENDBRANCH   8  33
BRANCH  31  38
ATOM     38  C   UNK d   0      -7.131  -2.777  21.942  0.00  0.00     0.151 C 
BRANCH  38  39
ATOM     39  C   UNK d   0      -6.419  -1.584  21.535  0.00  0.00     0.143 C 
ATOM     40  O   UNK d   0      -6.959  -0.679  20.875  0.00  0.00    -0.650 OA
BRANCH  39  41
ATOM     41  O   UNK d   0      -5.079  -1.431  21.889  0.00  0.00    -0.776 OA
ATOM     42  H   UNK d   0      -4.861  -0.692  22.564  0.00  0.00     0.167 HD
ENDBRANCH  39  41
ENDBRANCH  38  39
ENDBRANCH  31  38
BRANCH  27  43
ATOM     43  C   UNK d   0      -5.080  -4.538  23.426  0.00  0.00     0.052 C 
BRANCH  43  44
ATOM     44  C   UNK d   0      -3.599  -4.341  23.460  0.00  0.00     0.115 C 
BRANCH  44  45
ATOM     45  C   UNK d   0      -3.324  -3.381  24.560  0.00  0.00     0.139 C 
ATOM     46  O   UNK d   0      -3.821  -2.230  24.479  0.00  0.00    -0.650 OA
BRANCH  45  47
ATOM     47  O   UNK d   0      -2.556  -3.702  25.659  0.00  0.00    -0.776 OA
ATOM     48  H   UNK d   0      -2.915  -4.261  26.449  0.00  0.00     0.167 HD
ENDBRANCH  45  47
ENDBRANCH  44  45
ENDBRANCH  43  44
ENDBRANCH  27  43
BRANCH  24  49
ATOM     49  C   UNK d   0      -2.627  -9.460  22.785  0.00  0.00     0.052 C 
BRANCH  49  50
ATOM     50  C   UNK d   0      -1.954  -8.112  22.765  0.00  0.00     0.115 C 
BRANCH  50  51
ATOM     51  C   UNK d   0      -0.893  -7.884  23.737  0.00  0.00     0.139 C 
ATOM     52  O   UNK d   0       0.308  -8.155  23.503  0.00  0.00    -0.650 OA
BRANCH  51  53
ATOM     53  O   UNK d   0      -1.203  -7.348  24.977  0.00  0.00    -0.776 OA
ATOM     54  H   UNK d   0      -2.120  -6.960  25.112  0.00  0.00     0.167 HD
ENDBRANCH  51  53
ENDBRANCH  50  51
ENDBRANCH  49  50
ENDBRANCH  24  49
BRANCH  21  55
ATOM     55  C   UNK d   0      -4.059 -11.945  21.635  0.00  0.00     0.151 C 
BRANCH  55  56
ATOM     56  C   UNK d   0      -4.876 -12.570  22.687  0.00  0.00     0.143 C 
ATOM     57  O   UNK d   0      -5.954 -13.149  22.449  0.00  0.00    -0.650 OA
BRANCH  56  58
ATOM     58  O   UNK d   0      -4.409 -12.501  23.999  0.00  0.00    -0.776 OA
ATOM     59  H   UNK d   0      -4.257 -11.541  24.358  0.00  0.00     0.167 HD
ENDBRANCH  56  58
ENDBRANCH  55  56
ENDBRANCH  21  55
BRANCH  18  60
ATOM     60  C   UNK d   0      -7.072 -11.958  17.194  0.00  0.00     0.151 C 
BRANCH  60  61
ATOM     61  C   UNK d   0      -5.820 -11.551  16.538  0.00  0.00     0.143 C 
ATOM     62  O   UNK d   0      -4.711 -11.440  17.061  0.00  0.00    -0.650 OA
BRANCH  61  63
ATOM     63  O   UNK d   0      -5.929 -11.262  15.157  0.00  0.00    -0.776 OA
ATOM     64  H   UNK d   0      -6.827 -11.170  14.716  0.00  0.00     0.167 HD
ENDBRANCH  61  63
ENDBRANCH  60  61
ENDBRANCH  18  60
BRANCH  14  65
ATOM     65  C   UNK d   0      -9.187 -10.295  15.789  0.00  0.00     0.052 C 
BRANCH  65  66
ATOM     66  C   UNK d   0     -10.535 -10.911  15.912  0.00  0.00     0.115 C 
BRANCH  66  67
ATOM     67  C   UNK d   0     -11.643 -10.348  15.193  0.00  0.00     0.139 C 
ATOM     68  O   UNK d   0     -11.577  -9.116  14.830  0.00  0.00    -0.650 OA
BRANCH  67  69
ATOM     69  O   UNK d   0     -12.828 -10.981  14.819  0.00  0.00    -0.776 OA
ATOM     70  H   UNK d   0     -12.745 -11.680  14.067  0.00  0.00     0.167 HD
ENDBRANCH  67  69
ENDBRANCH  66  67
ENDBRANCH  65  66
ENDBRANCH  14  65
ENDBRANCH   6   7
ENDBRANCH   5   6
ENDBRANCH   2   5
TORSDOF 28
ENDMDL
MODEL 3
REMARK VINA RESULT:      -9.5      2.483      8.163
REMARK  28 active torsions:
REMARK  status: ('A' for Active; 'I' for Inactive)
REMARK    1  A    between atoms: C_2  and  O_3 
REMARK    2  A    between atoms: C_2  and  C_4 
REMARK    3  A    between atoms: C_4  and  C_5 
REMARK    4  A    between atoms: C_5  and  C_6 
REMARK    5  A    between atoms: C_7  and  C_8 
REMARK    6  A    between atoms: C_8  and  C_9 
REMARK    7  A    between atoms: C_9  and  O_11 
REMARK    8  A    between atoms: C_28  and  C_29 
REMARK    9  A    between atoms: C_29  and  C_30 
REMARK   10  A    between atoms: C_30  and  O_32 
REMARK   11  A    between atoms: C_33  and  C_34 
REMARK   12  A    between atoms: C_34  and  C_35 
REMARK   13  A    between atoms: C_35  and  C_36 
REMARK   14  A    between atoms: C_36  and  O_38 
REMARK   15  A    between atoms: C_39  and  C_40 
REMARK   16  A    between atoms: C_40  and  C_41 
REMARK   17  A    between atoms: C_41  and  C_42 
REMARK   18  A    between atoms: C_42  and  O_44 
REMARK   19  A    between atoms: C_45  and  C_46 
REMARK   20  A    between atoms: C_46  and  C_47 
REMARK   21  A    between atoms: C_47  and  O_49 
REMARK   22  A    between atoms: C_50  and  C_51 
REMARK   23  A    between atoms: C_51  and  C_52 
REMARK   24  A    between atoms: C_52  and  O_54 
REMARK   25  A    between atoms: C_55  and  C_56 
REMARK   26  A    between atoms: C_56  and  C_57 
REMARK   27  A    between atoms: C_57  and  C_58 
REMARK   28  A    between atoms: C_58  and  O_60 
ROOT
ATOM      1  O   UNK d   0      -9.609  -3.337  17.819  0.00  0.00    -0.650 OA
ATOM      2  C   UNK d   0      -9.400  -3.668  16.631  0.00  0.00     0.139 C 
ENDROOT
BRANCH   2   3
ATOM      3  O   UNK d   0      -9.432  -2.709  15.648  0.00  0.00    -0.776 OA
ATOM      4  H   UNK d   0      -8.713  -2.672  14.923  0.00  0.00     0.167 HD
ENDBRANCH   2   3
BRANCH   2   5
ATOM      5  C   UNK d   0      -9.120  -5.092  16.290  0.00  0.00     0.115 C 
BRANCH   5   6
ATOM      6  C   UNK d   0     -10.001  -6.002  17.102  0.00  0.00     0.052 C 
BRANCH   6   7
ATOM      7  C   UNK d   0      -9.219  -7.063  17.838  0.00  0.00    -0.020 A 
ATOM      8  C   UNK d   0      -9.413  -8.357  17.817  0.00  0.00    -0.011 A 
ATOM      9  C   UNK d   0      -8.422  -8.970  18.686  0.00  0.00     0.067 A 
ATOM     10  C   UNK d   0      -8.084 -10.276  19.072  0.00  0.00     0.062 C 
ATOM     11  N   UNK d   0      -7.670  -7.974  19.200  0.00  0.00    -0.248 NA
ATOM     12  C   UNK d   0      -6.910 -10.694  19.709  0.00  0.00     0.041 A 
ATOM     13  N   UNK d   0      -6.213 -10.154  20.726  0.00  0.00    -0.355 N 
ATOM     14  C   UNK d   0      -6.248 -11.840  19.232  0.00  0.00    -0.022 A 
ATOM     15  C   UNK d   0      -5.122 -10.922  20.902  0.00  0.00     0.042 A 
ATOM     16  H   UNK d   0      -6.496  -9.258  21.321  0.00  0.00     0.166 HD
ATOM     17  C   UNK d   0      -4.064 -10.810  21.827  0.00  0.00     0.062 C 
ATOM     18  C   UNK d   0      -5.109 -11.990  19.983  0.00  0.00    -0.013 A 
ATOM     19  C   UNK d   0      -3.360  -9.694  22.200  0.00  0.00     0.067 A 
ATOM     20  N   UNK d   0      -3.842  -8.514  21.802  0.00  0.00    -0.248 NA
ATOM     21  C   UNK d   0      -2.144  -9.429  22.950  0.00  0.00    -0.011 A 
ATOM     22  C   UNK d   0      -3.028  -7.496  22.235  0.00  0.00     0.066 A 
ATOM     23  C   UNK d   0      -3.433  -6.207  21.922  0.00  0.00     0.062 C 
ATOM     24  C   UNK d   0      -1.952  -8.141  22.963  0.00  0.00    -0.020 A 
ATOM     25  C   UNK d   0      -4.622  -5.808  21.293  0.00  0.00     0.041 A 
ATOM     26  N   UNK d   0      -5.307  -6.336  20.272  0.00  0.00    -0.355 N 
ATOM     27  C   UNK d   0      -5.288  -4.660  21.775  0.00  0.00    -0.022 A 
ATOM     28  C   UNK d   0      -6.391  -5.566  20.089  0.00  0.00     0.042 A 
ATOM     29  H   UNK d   0      -5.015  -7.231  19.668  0.00  0.00     0.166 HD
ATOM     30  C   UNK d   0      -7.446  -5.661  19.168  0.00  0.00     0.062 C 
ATOM     31  C   UNK d   0      -6.409  -4.500  21.020  0.00  0.00    -0.013 A 
ATOM     32  C   UNK d   0      -8.098  -6.802  18.729  0.00  0.00     0.066 A 
BRANCH   8  33
ATOM     33  C   UNK d   0     -10.448  -9.084  17.059  0.00  0.00     0.151 C 
BRANCH  33  34
ATOM     34  C   UNK d   0      -9.883  -9.944  16.003  0.00  0.00     0.143 C 
ATOM     35  O   UNK d   0     -10.532 -10.893  15.540  0.00  0.00    -0.650 OA
BRANCH  34  36
ATOM     36  O   UNK d   0      -8.617  -9.689  15.529  0.00  0.00    -0.776 OA
ATOM     37  H   UNK d   0      -8.048  -8.922  15.912  0.00  0.00     0.167 HD
ENDBRANCH  34  36
ENDBRANCH  33  34
ENDBRANCH   8  33
BRANCH  31  38
ATOM     38  C   UNK d   0      -7.443  -3.410  21.178  0.00  0.00     0.151 C 
BRANCH  38  39
ATOM     39  C   UNK d   0      -7.103  -2.204  20.453  0.00  0.00     0.143 C 
ATOM     40  O   UNK d   0      -6.772  -1.153  21.029  0.00  0.00    -0.650 OA
BRANCH  39  41
ATOM     41  O   UNK d   0      -7.143  -2.207  19.059  0.00  0.00    -0.776 OA
ATOM     42  H   UNK d   0      -6.384  -2.699  18.577  0.00  0.00     0.167 HD
ENDBRANCH  39  41
ENDBRANCH  38  39
ENDBRANCH  31  38
BRANCH  27  43
ATOM     43  C   UNK d   0      -4.905  -3.731  22.900  0.00  0.00     0.052 C 
BRANCH  43  44
ATOM     44  C   UNK d   0      -5.598  -4.043  24.187  0.00  0.00     0.115 C 
BRANCH  44  45
ATOM     45  C   UNK d   0      -6.478  -2.883  24.487  0.00  0.00     0.139 C 
ATOM     46  O   UNK d   0      -6.039  -1.731  24.249  0.00  0.00    -0.650 OA
BRANCH  45  47
ATOM     47  O   UNK d   0      -7.747  -3.022  25.006  0.00  0.00    -0.776 OA
ATOM     48  H   UNK d   0      -8.278  -3.907  24.958  0.00  0.00     0.167 HD
ENDBRANCH  45  47
ENDBRANCH  44  45
ENDBRANCH  43  44
ENDBRANCH  27  43
BRANCH  24  49
ATOM     49  C   UNK d   0      -0.856  -7.433  23.645  0.00  0.00     0.052 C 
BRANCH  49  50
ATOM     50  C   UNK d   0       0.187  -6.996  22.648  0.00  0.00     0.115 C 
BRANCH  50  51
ATOM     51  C   UNK d   0       0.260  -5.573  22.343  0.00  0.00     0.139 C 
ATOM     52  O   UNK d   0       0.512  -4.707  23.214  0.00  0.00    -0.650 OA
BRANCH  51  53
ATOM     53  O   UNK d   0       0.043  -5.137  21.045  0.00  0.00    -0.776 OA
ATOM     54  H   UNK d   0      -0.900  -4.937  20.762  0.00  0.00     0.167 HD
ENDBRANCH  51  53
ENDBRANCH  50  51
ENDBRANCH  49  50
ENDBRANCH  24  49
BRANCH  21  55
ATOM     55  C   UNK d   0      -1.302 -10.489  23.578  0.00  0.00     0.151 C 
BRANCH  55  56
ATOM     56  C   UNK d   0      -1.733 -10.795  24.951  0.00  0.00     0.143 C 
ATOM     57  O   UNK d   0      -2.700 -11.538  25.205  0.00  0.00    -0.650 OA
BRANCH  56  58
ATOM     58  O   UNK d   0      -1.017 -10.219  25.999  0.00  0.00    -0.776 OA
ATOM     59  H   UNK d   0      -0.195 -10.764  26.317  0.00  0.00     0.167 HD
ENDBRANCH  56  58
ENDBRANCH  55  56
ENDBRANCH  21  55
BRANCH  18  60
ATOM     60  C   UNK d   0      -4.094 -13.092  19.804  0.00  0.00     0.151 C 
BRANCH  60  61
ATOM     61  C   UNK d   0      -2.988 -12.501  19.034  0.00  0.00     0.143 C 
ATOM     62  O   UNK d   0      -3.033 -11.499  18.321  0.00  0.00    -0.650 OA
BRANCH  61  63
ATOM     63  O   UNK d   0      -1.750 -13.178  19.143  0.00  0.00    -0.776 OA
ATOM     64  H   UNK d   0      -0.907 -12.780  18.769  0.00  0.00     0.167 HD
ENDBRANCH  61  63
ENDBRANCH  60  61
ENDBRANCH  18  60
BRANCH  14  65
ATOM     65  C   UNK d   0      -6.656 -12.849  18.196  0.00  0.00     0.052 C 
BRANCH  65  66
ATOM     66  C   UNK d   0      -5.959 -12.663  16.896  0.00  0.00     0.115 C 
BRANCH  66  67
ATOM     67  C   UNK d   0      -6.707 -12.258  15.739  0.00  0.00     0.139 C 
ATOM     68  O   UNK d   0      -7.860 -12.791  15.536  0.00  0.00    -0.650 OA
BRANCH  67  69
ATOM     69  O   UNK d   0      -6.338 -11.329  14.767  0.00  0.00    -0.776 OA
ATOM     70  H   UNK d   0      -5.912 -10.459  15.117  0.00  0.00     0.167 HD
ENDBRANCH  67  69
ENDBRANCH  66  67
ENDBRANCH  65  66
ENDBRANCH  14  65
ENDBRANCH   6   7
ENDBRANCH   5   6
ENDBRANCH   2   5
TORSDOF 28
ENDMDL
MODEL 4
REMARK VINA RESULT:      -9.5      1.861      6.949
REMARK  28 active torsions:
REMARK  status: ('A' for Active; 'I' for Inactive)
REMARK    1  A    between atoms: C_2  and  O_3 
REMARK    2  A    between atoms: C_2  and  C_4 
REMARK    3  A    between atoms: C_4  and  C_5 
REMARK    4  A    between atoms: C_5  and  C_6 
REMARK    5  A    between atoms: C_7  and  C_8 
REMARK    6  A    between atoms: C_8  and  C_9 
REMARK    7  A    between atoms: C_9  and  O_11 
REMARK    8  A    between atoms: C_28  and  C_29 
REMARK    9  A    between atoms: C_29  and  C_30 
REMARK   10  A    between atoms: C_30  and  O_32 
REMARK   11  A    between atoms: C_33  and  C_34 
REMARK   12  A    between atoms: C_34  and  C_35 
REMARK   13  A    between atoms: C_35  and  C_36 
REMARK   14  A    between atoms: C_36  and  O_38 
REMARK   15  A    between atoms: C_39  and  C_40 
REMARK   16  A    between atoms: C_40  and  C_41 
REMARK   17  A    between atoms: C_41  and  C_42 
REMARK   18  A    between atoms: C_42  and  O_44 
REMARK   19  A    between atoms: C_45  and  C_46 
REMARK   20  A    between atoms: C_46  and  C_47 
REMARK   21  A    between atoms: C_47  and  O_49 
REMARK   22  A    between atoms: C_50  and  C_51 
REMARK   23  A    between atoms: C_51  and  C_52 
REMARK   24  A    between atoms: C_52  and  O_54 
REMARK   25  A    between atoms: C_55  and  C_56 
REMARK   26  A    between atoms: C_56  and  C_57 
REMARK   27  A    between atoms: C_57  and  C_58 
REMARK   28  A    between atoms: C_58  and  O_60 
ROOT
ATOM      1  O   UNK d   0      -7.248  -3.610  25.244  0.00  0.00    -0.650 OA
ATOM      2  C   UNK d   0      -7.385  -2.418  24.890  0.00  0.00     0.139 C 
ENDROOT
BRANCH   2   3
ATOM      3  O   UNK d   0      -8.498  -1.719  25.292  0.00  0.00    -0.776 OA
ATOM      4  H   UNK d   0      -9.412  -1.896  24.871  0.00  0.00     0.167 HD
ENDBRANCH   2   3
BRANCH   2   5
ATOM      5  C   UNK d   0      -6.348  -1.765  24.041  0.00  0.00     0.115 C 
BRANCH   5   6
ATOM      6  C   UNK d   0      -6.673  -1.962  22.585  0.00  0.00     0.052 C 
BRANCH   6   7
ATOM      7  C   UNK d   0      -6.144  -3.268  22.042  0.00  0.00    -0.020 A 
ATOM      8  C   UNK d   0      -4.992  -3.832  22.302  0.00  0.00    -0.011 A 
ATOM      9  C   UNK d   0      -4.923  -5.070  21.544  0.00  0.00     0.067 A 
ATOM     10  C   UNK d   0      -3.999  -6.117  21.398  0.00  0.00     0.062 C 
ATOM     11  N   UNK d   0      -6.073  -5.178  20.846  0.00  0.00    -0.248 NA
ATOM     12  C   UNK d   0      -4.228  -7.375  20.831  0.00  0.00     0.041 A 
ATOM     13  N   UNK d   0      -4.900  -7.739  19.722  0.00  0.00    -0.355 N 
ATOM     14  C   UNK d   0      -3.754  -8.519  21.498  0.00  0.00    -0.022 A 
ATOM     15  C   UNK d   0      -4.871  -9.084  19.673  0.00  0.00     0.042 A 
ATOM     16  H   UNK d   0      -5.368  -7.058  18.978  0.00  0.00     0.166 HD
ATOM     17  C   UNK d   0      -5.416  -9.976  18.728  0.00  0.00     0.062 C 
ATOM     18  C   UNK d   0      -4.162  -9.609  20.770  0.00  0.00    -0.013 A 
ATOM     19  C   UNK d   0      -6.659  -9.963  18.147  0.00  0.00     0.067 A 
ATOM     20  N   UNK d   0      -7.401  -8.869  18.331  0.00  0.00    -0.248 NA
ATOM     21  C   UNK d   0      -7.446 -10.884  17.344  0.00  0.00    -0.011 A 
ATOM     22  C   UNK d   0      -8.617  -9.007  17.707  0.00  0.00     0.066 A 
ATOM     23  C   UNK d   0      -9.477  -7.922  17.786  0.00  0.00     0.062 C 
ATOM     24  C   UNK d   0      -8.592 -10.320  17.093  0.00  0.00    -0.020 A 
ATOM     25  C   UNK d   0      -9.224  -6.662  18.350  0.00  0.00     0.041 A 
ATOM     26  N   UNK d   0      -8.569  -6.302  19.460  0.00  0.00    -0.355 N 
ATOM     27  C   UNK d   0      -9.696  -5.514  17.676  0.00  0.00    -0.022 A 
ATOM     28  C   UNK d   0      -8.604  -4.961  19.515  0.00  0.00     0.042 A 
ATOM     29  H   UNK d   0      -8.108  -6.988  20.212  0.00  0.00     0.166 HD
ATOM     30  C   UNK d   0      -8.074  -4.062  20.454  0.00  0.00     0.062 C 
ATOM     31  C   UNK d   0      -9.307  -4.434  18.407  0.00  0.00    -0.013 A 
ATOM     32  C   UNK d   0      -6.851  -4.125  21.103  0.00  0.00     0.066 A 
BRANCH   8  33
ATOM     33  C   UNK d   0      -3.937  -3.319  23.195  0.00  0.00     0.151 C 
BRANCH  33  34
ATOM     34  C   UNK d   0      -2.876  -2.598  22.469  0.00  0.00     0.143 C 
ATOM     35  O   UNK d   0      -1.747  -3.092  22.336  0.00  0.00    -0.650 OA
BRANCH  34  36
ATOM     36  O   UNK d   0      -3.145  -1.359  21.935  0.00  0.00    -0.776 OA
ATOM     37  H   UNK d   0      -2.986  -1.161  20.937  0.00  0.00     0.167 HD
ENDBRANCH  34  36
ENDBRANCH  33  34
ENDBRANCH   8  33
BRANCH  31  38
ATOM     38  C   UNK d   0      -9.575  -2.986  18.068  0.00  0.00     0.151 C 
BRANCH  38  39
ATOM     39  C   UNK d   0     -10.700  -2.437  18.796  0.00  0.00     0.143 C 
ATOM     40  O   UNK d   0     -11.428  -3.137  19.521  0.00  0.00    -0.650 OA
BRANCH  39  41
ATOM     41  O   UNK d   0     -10.988  -1.077  18.690  0.00  0.00    -0.776 OA
ATOM     42  H   UNK d   0     -10.620  -0.468  19.428  0.00  0.00     0.167 HD
ENDBRANCH  39  41
ENDBRANCH  38  39
ENDBRANCH  31  38
BRANCH  27  43
ATOM     43  C   UNK d   0     -10.486  -5.412  16.396  0.00  0.00     0.052 C 
BRANCH  43  44
ATOM     44  C   UNK d   0     -11.923  -5.066  16.614  0.00  0.00     0.115 C 
BRANCH  44  45
ATOM     45  C   UNK d   0     -12.649  -6.353  16.777  0.00  0.00     0.139 C 
ATOM     46  O   UNK d   0     -12.322  -7.314  16.037  0.00  0.00    -0.650 OA
BRANCH  45  47
ATOM     47  O   UNK d   0     -13.654  -6.532  17.702  0.00  0.00    -0.776 OA
ATOM     48  H   UNK d   0     -13.499  -6.985  18.617  0.00  0.00     0.167 HD
ENDBRANCH  45  47
ENDBRANCH  44  45
ENDBRANCH  43  44
ENDBRANCH  27  43
BRANCH  24  49
ATOM     49  C   UNK d   0      -9.679 -10.888  16.278  0.00  0.00     0.052 C 
BRANCH  49  50
ATOM     50  C   UNK d   0      -9.410 -10.659  14.812  0.00  0.00     0.115 C 
BRANCH  50  51
ATOM     51  C   UNK d   0      -9.548 -11.805  13.924  0.00  0.00     0.139 C 
ATOM     52  O   UNK d   0      -9.784 -11.687  12.698  0.00  0.00    -0.650 OA
BRANCH  51  53
ATOM     53  O   UNK d   0      -9.421 -13.088  14.434  0.00  0.00    -0.776 OA
ATOM     54  H   UNK d   0      -8.497 -13.475  14.522  0.00  0.00     0.167 HD
ENDBRANCH  51  53
ENDBRANCH  50  51
ENDBRANCH  49  50
ENDBRANCH  24  49
BRANCH  21  55
ATOM     55  C   UNK d   0      -6.968 -12.229  16.907  0.00  0.00     0.151 C 
BRANCH  55  56
ATOM     56  C   UNK d   0      -6.388 -12.196  15.555  0.00  0.00     0.143 C 
ATOM     57  O   UNK d   0      -6.393 -13.184  14.795  0.00  0.00    -0.650 OA
BRANCH  56  58
ATOM     58  O   UNK d   0      -5.814 -11.002  15.124  0.00  0.00    -0.776 OA
ATOM     59  H   UNK d   0      -6.153 -10.661  14.206  0.00  0.00     0.167 HD
ENDBRANCH  56  58
ENDBRANCH  55  56
ENDBRANCH  21  55
BRANCH  18  60
ATOM     60  C   UNK d   0      -3.877 -11.046  21.132  0.00  0.00     0.151 C 
BRANCH  60  61
ATOM     61  C   UNK d   0      -4.953 -11.453  22.048  0.00  0.00     0.143 C 
ATOM     62  O   UNK d   0      -4.916 -11.459  23.279  0.00  0.00    -0.650 OA
BRANCH  61  63
ATOM     63  O   UNK d   0      -6.149 -11.879  21.422  0.00  0.00    -0.776 OA
ATOM     64  H   UNK d   0      -7.005 -11.368  21.539  0.00  0.00     0.167 HD
ENDBRANCH  61  63
ENDBRANCH  60  61
ENDBRANCH  18  60
BRANCH  14  65
ATOM     65  C   UNK d   0      -2.870  -8.655  22.706  0.00  0.00     0.052 C 
BRANCH  65  66
ATOM     66  C   UNK d   0      -1.692  -7.747  22.669  0.00  0.00     0.115 C 
BRANCH  66  67
ATOM     67  C   UNK d   0      -1.386  -6.932  23.810  0.00  0.00     0.139 C 
ATOM     68  O   UNK d   0      -1.189  -7.510  24.942  0.00  0.00    -0.650 OA
BRANCH  67  69
ATOM     69  O   UNK d   0      -1.268  -5.543  23.860  0.00  0.00    -0.776 OA
ATOM     70  H   UNK d   0      -1.923  -5.061  24.492  0.00  0.00     0.167 HD
ENDBRANCH  67  69
ENDBRANCH  66  67
ENDBRANCH  65  66
ENDBRANCH  14  65
ENDBRANCH   6   7
ENDBRANCH   5   6
ENDBRANCH   2   5
TORSDOF 28
ENDMDL
MODEL 5
REMARK VINA RESULT:      -9.3      1.428      7.633
REMARK  28 active torsions:
REMARK  status: ('A' for Active; 'I' for Inactive)
REMARK    1  A    between atoms: C_2  and  O_3 
REMARK    2  A    between atoms: C_2  and  C_4 
REMARK    3  A    between atoms: C_4  and  C_5 
REMARK    4  A    between atoms: C_5  and  C_6 
REMARK    5  A    between atoms: C_7  and  C_8 
REMARK    6  A    between atoms: C_8  and  C_9 
REMARK    7  A    between atoms: C_9  and  O_11 
REMARK    8  A    between atoms: C_28  and  C_29 
REMARK    9  A    between atoms: C_29  and  C_30 
REMARK   10  A    between atoms: C_30  and  O_32 
REMARK   11  A    between atoms: C_33  and  C_34 
REMARK   12  A    between atoms: C_34  and  C_35 
REMARK   13  A    between atoms: C_35  and  C_36 
REMARK   14  A    between atoms: C_36  and  O_38 
REMARK   15  A    between atoms: C_39  and  C_40 
REMARK   16  A    between atoms: C_40  and  C_41 
REMARK   17  A    between atoms: C_41  and  C_42 
REMARK   18  A    between atoms: C_42  and  O_44 
REMARK   19  A    between atoms: C_45  and  C_46 
REMARK   20  A    between atoms: C_46  and  C_47 
REMARK   21  A    between atoms: C_47  and  O_49 
REMARK   22  A    between atoms: C_50  and  C_51 
REMARK   23  A    between atoms: C_51  and  C_52 
REMARK   24  A    between atoms: C_52  and  O_54 
REMARK   25  A    between atoms: C_55  and  C_56 
REMARK   26  A    between atoms: C_56  and  C_57 
REMARK   27  A    between atoms: C_57  and  C_58 
REMARK   28  A    between atoms: C_58  and  O_60 
ROOT
ATOM      1  O   UNK d   0     -10.830   0.604  18.538  0.00  0.00    -0.650 OA
ATOM      2  C   UNK d   0      -9.949  -0.262  18.343  0.00  0.00     0.139 C 
ENDROOT
BRANCH   2   3
ATOM      3  O   UNK d   0      -8.655   0.135  18.107  0.00  0.00    -0.776 OA
ATOM      4  H   UNK d   0      -7.970  -0.509  17.707  0.00  0.00     0.167 HD
ENDBRANCH   2   3
BRANCH   2   5
ATOM      5  C   UNK d   0     -10.304  -1.710  18.366  0.00  0.00     0.115 C 
BRANCH   5   6
ATOM      6  C   UNK d   0      -9.704  -2.409  17.176  0.00  0.00     0.052 C 
BRANCH   6   7
ATOM      7  C   UNK d   0      -9.654  -3.908  17.348  0.00  0.00    -0.020 A 
ATOM      8  C   UNK d   0     -10.490  -4.794  16.871  0.00  0.00    -0.011 A 
ATOM      9  C   UNK d   0     -10.041  -6.107  17.303  0.00  0.00     0.067 A 
ATOM     10  C   UNK d   0     -10.466  -7.433  17.122  0.00  0.00     0.062 C 
ATOM     11  N   UNK d   0      -8.928  -5.926  18.043  0.00  0.00    -0.248 NA
ATOM     12  C   UNK d   0      -9.740  -8.599  17.388  0.00  0.00     0.041 A 
ATOM     13  N   UNK d   0      -8.953  -8.935  18.427  0.00  0.00    -0.355 N 
ATOM     14  C   UNK d   0      -9.733  -9.630  16.431  0.00  0.00    -0.022 A 
ATOM     15  C   UNK d   0      -8.440 -10.149  18.151  0.00  0.00     0.042 A 
ATOM     16  H   UNK d   0      -8.778  -8.335  19.347  0.00  0.00     0.166 HD
ATOM     17  C   UNK d   0      -7.562 -10.961  18.896  0.00  0.00     0.062 C 
ATOM     18  C   UNK d   0      -8.907 -10.617  16.907  0.00  0.00    -0.013 A 
ATOM     19  C   UNK d   0      -6.414 -10.608  19.559  0.00  0.00     0.067 A 
ATOM     20  N   UNK d   0      -6.176  -9.302  19.701  0.00  0.00    -0.248 NA
ATOM     21  C   UNK d   0      -5.306 -11.315  20.178  0.00  0.00    -0.011 A 
ATOM     22  C   UNK d   0      -4.991  -9.104  20.367  0.00  0.00     0.066 A 
ATOM     23  C   UNK d   0      -4.638  -7.786  20.618  0.00  0.00     0.062 C 
ATOM     24  C   UNK d   0      -4.475 -10.429  20.645  0.00  0.00    -0.020 A 
ATOM     25  C   UNK d   0      -5.387  -6.629  20.354  0.00  0.00     0.041 A 
ATOM     26  N   UNK d   0      -6.158  -6.289  19.314  0.00  0.00    -0.355 N 
ATOM     27  C   UNK d   0      -5.397  -5.597  21.317  0.00  0.00    -0.022 A 
ATOM     28  C   UNK d   0      -6.663  -5.075  19.583  0.00  0.00     0.042 A 
ATOM     29  H   UNK d   0      -6.324  -6.889  18.385  0.00  0.00     0.166 HD
ATOM     30  C   UNK d   0      -7.530  -4.252  18.847  0.00  0.00     0.062 C 
ATOM     31  C   UNK d   0      -6.202  -4.609  20.838  0.00  0.00    -0.013 A 
ATOM     32  C   UNK d   0      -8.641  -4.625  18.108  0.00  0.00     0.066 A 
BRANCH   8  33
ATOM     33  C   UNK d   0     -11.684  -4.531  16.046  0.00  0.00     0.151 C 
BRANCH  33  34
ATOM     34  C   UNK d   0     -12.913  -4.395  16.848  0.00  0.00     0.143 C 
ATOM     35  O   UNK d   0     -12.947  -4.767  18.030  0.00  0.00    -0.650 OA
BRANCH  34  36
ATOM     36  O   UNK d   0     -14.038  -3.849  16.274  0.00  0.00    -0.776 OA
ATOM     37  H   UNK d   0     -14.954  -4.310  16.350  0.00  0.00     0.167 HD
ENDBRANCH  34  36
ENDBRANCH  33  34
ENDBRANCH   8  33
BRANCH  31  38
ATOM     38  C   UNK d   0      -6.527  -3.308  21.533  0.00  0.00     0.151 C 
BRANCH  38  39
ATOM     39  C   UNK d   0      -7.646  -3.422  22.443  0.00  0.00     0.143 C 
ATOM     40  O   UNK d   0      -7.531  -3.229  23.667  0.00  0.00    -0.650 OA
BRANCH  39  41
ATOM     41  O   UNK d   0      -8.905  -3.758  21.945  0.00  0.00    -0.776 OA
ATOM     42  H   UNK d   0      -9.515  -4.303  22.562  0.00  0.00     0.167 HD
ENDBRANCH  39  41
ENDBRANCH  38  39
ENDBRANCH  31  38
BRANCH  27  43
ATOM     43  C   UNK d   0      -4.683  -5.516  22.643  0.00  0.00     0.052 C 
BRANCH  43  44
ATOM     44  C   UNK d   0      -3.344  -4.859  22.555  0.00  0.00     0.115 C 
BRANCH  44  45
ATOM     45  C   UNK d   0      -3.372  -3.710  23.496  0.00  0.00     0.139 C 
ATOM     46  O   UNK d   0      -3.037  -2.580  23.061  0.00  0.00    -0.650 OA
BRANCH  45  47
ATOM     47  O   UNK d   0      -3.755  -3.832  24.814  0.00  0.00    -0.776 OA
ATOM     48  H   UNK d   0      -3.077  -3.882  25.592  0.00  0.00     0.167 HD
ENDBRANCH  45  47
ENDBRANCH  44  45
ENDBRANCH  43  44
ENDBRANCH  27  43
BRANCH  24  49
ATOM     49  C   UNK d   0      -3.232 -10.709  21.385  0.00  0.00     0.052 C 
BRANCH  49  50
ATOM     50  C   UNK d   0      -3.392 -10.341  22.838  0.00  0.00     0.115 C 
BRANCH  50  51
ATOM     51  C   UNK d   0      -3.499 -11.435  23.793  0.00  0.00     0.139 C 
ATOM     52  O   UNK d   0      -3.482 -11.253  25.034  0.00  0.00    -0.650 OA
BRANCH  51  53
ATOM     53  O   UNK d   0      -3.624 -12.737  23.334  0.00  0.00    -0.776 OA
ATOM     54  H   UNK d   0      -3.941 -13.440  23.979  0.00  0.00     0.167 HD
ENDBRANCH  51  53
ENDBRANCH  50  51
ENDBRANCH  49  50
ENDBRANCH  24  49
BRANCH  21  55
ATOM     55  C   UNK d   0      -5.196 -12.803  20.242  0.00  0.00     0.151 C 
BRANCH  55  56
ATOM     56  C   UNK d   0      -6.201 -13.392  21.139  0.00  0.00     0.143 C 
ATOM     57  O   UNK d   0      -6.372 -13.002  22.311  0.00  0.00    -0.650 OA
BRANCH  56  58
ATOM     58  O   UNK d   0      -6.987 -14.430  20.640  0.00  0.00    -0.776 OA
ATOM     59  H   UNK d   0      -6.935 -15.314  21.177  0.00  0.00     0.167 HD
ENDBRANCH  56  58
ENDBRANCH  55  56
ENDBRANCH  21  55
BRANCH  18  60
ATOM     60  C   UNK d   0      -8.603 -11.910  16.191  0.00  0.00     0.151 C 
BRANCH  60  61
ATOM     61  C   UNK d   0      -7.341 -11.685  15.470  0.00  0.00     0.143 C 
ATOM     62  O   UNK d   0      -7.180 -11.023  14.445  0.00  0.00    -0.650 OA
BRANCH  61  63
ATOM     63  O   UNK d   0      -6.203 -12.309  16.038  0.00  0.00    -0.776 OA
ATOM     64  H   UNK d   0      -5.790 -13.120  15.612  0.00  0.00     0.167 HD
ENDBRANCH  61  63
ENDBRANCH  60  61
ENDBRANCH  18  60
BRANCH  14  65
ATOM     65  C   UNK d   0     -10.518  -9.794  15.160  0.00  0.00     0.052 C 
BRANCH  65  66
ATOM     66  C   UNK d   0     -11.932 -10.191  15.397  0.00  0.00     0.115 C 
BRANCH  66  67
ATOM     67  C   UNK d   0     -12.303 -11.576  15.325  0.00  0.00     0.139 C 
ATOM     68  O   UNK d   0     -11.609 -12.360  14.580  0.00  0.00    -0.650 OA
BRANCH  67  69
ATOM     69  O   UNK d   0     -13.358 -12.211  15.981  0.00  0.00    -0.776 OA
ATOM     70  H   UNK d   0     -13.932 -11.612  16.591  0.00  0.00     0.167 HD
ENDBRANCH  67  69
ENDBRANCH  66  67
ENDBRANCH  65  66
ENDBRANCH  14  65
ENDBRANCH   6   7
ENDBRANCH   5   6
ENDBRANCH   2   5
TORSDOF 28
ENDMDL
MODEL 6
REMARK VINA RESULT:      -9.2      1.484      7.798
REMARK  28 active torsions:
REMARK  status: ('A' for Active; 'I' for Inactive)
REMARK    1  A    between atoms: C_2  and  O_3 
REMARK    2  A    between atoms: C_2  and  C_4 
REMARK    3  A    between atoms: C_4  and  C_5 
REMARK    4  A    between atoms: C_5  and  C_6 
REMARK    5  A    between atoms: C_7  and  C_8 
REMARK    6  A    between atoms: C_8  and  C_9 
REMARK    7  A    between atoms: C_9  and  O_11 
REMARK    8  A    between atoms: C_28  and  C_29 
REMARK    9  A    between atoms: C_29  and  C_30 
REMARK   10  A    between atoms: C_30  and  O_32 
REMARK   11  A    between atoms: C_33  and  C_34 
REMARK   12  A    between atoms: C_34  and  C_35 
REMARK   13  A    between atoms: C_35  and  C_36 
REMARK   14  A    between atoms: C_36  and  O_38 
REMARK   15  A    between atoms: C_39  and  C_40 
REMARK   16  A    between atoms: C_40  and  C_41 
REMARK   17  A    between atoms: C_41  and  C_42 
REMARK   18  A    between atoms: C_42  and  O_44 
REMARK   19  A    between atoms: C_45  and  C_46 
REMARK   20  A    between atoms: C_46  and  C_47 
REMARK   21  A    between atoms: C_47  and  O_49 
REMARK   22  A    between atoms: C_50  and  C_51 
REMARK   23  A    between atoms: C_51  and  C_52 
REMARK   24  A    between atoms: C_52  and  O_54 
REMARK   25  A    between atoms: C_55  and  C_56 
REMARK   26  A    between atoms: C_56  and  C_57 
REMARK   27  A    between atoms: C_57  and  C_58 
REMARK   28  A    between atoms: C_58  and  O_60 
ROOT
ATOM      1  O   UNK d   0      -5.576  -1.644  23.581  0.00  0.00    -0.650 OA
ATOM      2  C   UNK d   0      -5.732  -1.046  22.493  0.00  0.00     0.139 C 
ENDROOT
BRANCH   2   3
ATOM      3  O   UNK d   0      -5.085   0.147  22.281  0.00  0.00    -0.776 OA
ATOM      4  H   UNK d   0      -4.666   0.366  21.375  0.00  0.00     0.167 HD
ENDBRANCH   2   3
BRANCH   2   5
ATOM      5  C   UNK d   0      -6.614  -1.626  21.441  0.00  0.00     0.115 C 
BRANCH   5   6
ATOM      6  C   UNK d   0      -7.267  -2.884  21.948  0.00  0.00     0.052 C 
BRANCH   6   7
ATOM      7  C   UNK d   0      -6.919  -4.095  21.116  0.00  0.00    -0.020 A 
ATOM      8  C   UNK d   0      -5.783  -4.744  21.087  0.00  0.00    -0.011 A 
ATOM      9  C   UNK d   0      -5.917  -5.832  20.132  0.00  0.00     0.067 A 
ATOM     10  C   UNK d   0      -5.102  -6.875  19.665  0.00  0.00     0.062 C 
ATOM     11  N   UNK d   0      -7.165  -5.767  19.623  0.00  0.00    -0.248 NA
ATOM     12  C   UNK d   0      -5.501  -8.003  18.941  0.00  0.00     0.041 A 
ATOM     13  N   UNK d   0      -6.359  -8.137  17.911  0.00  0.00    -0.355 N 
ATOM     14  C   UNK d   0      -5.012  -9.265  19.322  0.00  0.00    -0.022 A 
ATOM     15  C   UNK d   0      -6.431  -9.453  17.634  0.00  0.00     0.042 A 
ATOM     16  H   UNK d   0      -6.887  -7.316  17.377  0.00  0.00     0.166 HD
ATOM     17  C   UNK d   0      -7.176 -10.141  16.655  0.00  0.00     0.062 C 
ATOM     18  C   UNK d   0      -5.601 -10.192  18.499  0.00  0.00    -0.013 A 
ATOM     19  C   UNK d   0      -8.488  -9.974  16.294  0.00  0.00     0.067 A 
ATOM     20  N   UNK d   0      -9.116  -8.898  16.776  0.00  0.00    -0.248 NA
ATOM     21  C   UNK d   0      -9.451 -10.705  15.487  0.00  0.00    -0.011 A 
ATOM     22  C   UNK d   0     -10.419  -8.873  16.344  0.00  0.00     0.066 A 
ATOM     23  C   UNK d   0     -11.180  -7.784  16.742  0.00  0.00     0.062 C 
ATOM     24  C   UNK d   0     -10.580 -10.058  15.524  0.00  0.00    -0.020 A 
ATOM     25  C   UNK d   0     -10.756  -6.654  17.459  0.00  0.00     0.041 A 
ATOM     26  N   UNK d   0      -9.915  -6.522  18.492  0.00  0.00    -0.355 N 
ATOM     27  C   UNK d   0     -11.244  -5.387  17.073  0.00  0.00    -0.022 A 
ATOM     28  C   UNK d   0      -9.848  -5.212  18.776  0.00  0.00     0.042 A 
ATOM     29  H   UNK d   0      -9.394  -7.349  19.034  0.00  0.00     0.166 HD
ATOM     30  C   UNK d   0      -9.119  -4.515  19.753  0.00  0.00     0.062 C 
ATOM     31  C   UNK d   0     -10.674  -4.469  17.900  0.00  0.00    -0.013 A 
ATOM     32  C   UNK d   0      -7.819  -4.744  20.174  0.00  0.00     0.066 A 
BRANCH   8  33
ATOM     33  C   UNK d   0      -4.571  -4.441  21.869  0.00  0.00     0.151 C 
BRANCH  33  34
ATOM     34  C   UNK d   0      -4.521  -5.169  23.150  0.00  0.00     0.143 C 
ATOM     35  O   UNK d   0      -3.740  -6.117  23.314  0.00  0.00    -0.650 OA
BRANCH  34  36
ATOM     36  O   UNK d   0      -5.356  -4.789  24.176  0.00  0.00    -0.776 OA
ATOM     37  H   UNK d   0      -5.881  -3.905  24.137  0.00  0.00     0.167 HD
ENDBRANCH  34  36
ENDBRANCH  33  34
ENDBRANCH   8  33
BRANCH  31  38
ATOM     38  C   UNK d   0     -10.889  -2.974  17.856  0.00  0.00     0.151 C 
BRANCH  38  39
ATOM     39  C   UNK d   0      -9.806  -2.270  17.203  0.00  0.00     0.143 C 
ATOM     40  O   UNK d   0      -9.214  -1.316  17.739  0.00  0.00    -0.650 OA
BRANCH  39  41
ATOM     41  O   UNK d   0      -9.400  -2.665  15.929  0.00  0.00    -0.776 OA
ATOM     42  H   UNK d   0      -9.817  -3.524  15.557  0.00  0.00     0.167 HD
ENDBRANCH  39  41
ENDBRANCH  38  39
ENDBRANCH  31  38
BRANCH  27  43
ATOM     43  C   UNK d   0     -12.212  -5.027  15.973  0.00  0.00     0.052 C 
BRANCH  43  44
ATOM     44  C   UNK d   0     -13.520  -4.514  16.481  0.00  0.00     0.115 C 
BRANCH  44  45
ATOM     45  C   UNK d   0     -14.374  -5.704  16.733  0.00  0.00     0.139 C 
ATOM     46  O   UNK d   0     -15.261  -5.985  15.889  0.00  0.00    -0.650 OA
BRANCH  45  47
ATOM     47  O   UNK d   0     -14.228  -6.507  17.844  0.00  0.00    -0.776 OA
ATOM     48  H   UNK d   0     -14.659  -7.442  17.919  0.00  0.00     0.167 HD
ENDBRANCH  45  47
ENDBRANCH  44  45
ENDBRANCH  43  44
ENDBRANCH  27  43
BRANCH  24  49
ATOM     49  C   UNK d   0     -11.816 -10.427  14.813  0.00  0.00     0.052 C 
BRANCH  49  50
ATOM     50  C   UNK d   0     -12.469 -11.612  15.477  0.00  0.00     0.115 C 
BRANCH  50  51
ATOM     51  C   UNK d   0     -13.572 -12.247  14.768  0.00  0.00     0.139 C 
ATOM     52  O   UNK d   0     -13.647 -12.272  13.517  0.00  0.00    -0.650 OA
BRANCH  51  53
ATOM     53  O   UNK d   0     -14.592 -12.851  15.486  0.00  0.00    -0.776 OA
ATOM     54  H   UNK d   0     -15.028 -12.328  16.225  0.00  0.00     0.167 HD
ENDBRANCH  51  53
ENDBRANCH  50  51
ENDBRANCH  49  50
ENDBRANCH  24  49
BRANCH  21  55
ATOM     55  C   UNK d   0      -9.141 -11.971  14.760  0.00  0.00     0.151 C 
BRANCH  55  56
ATOM     56  C   UNK d   0      -7.754 -12.410  14.983  0.00  0.00     0.143 C 
ATOM     57  O   UNK d   0      -6.781 -11.890  14.403  0.00  0.00    -0.650 OA
BRANCH  56  58
ATOM     58  O   UNK d   0      -7.540 -13.451  15.884  0.00  0.00    -0.776 OA
ATOM     59  H   UNK d   0      -8.393 -13.968  16.165  0.00  0.00     0.167 HD
ENDBRANCH  56  58
ENDBRANCH  55  56
ENDBRANCH  21  55
BRANCH  18  60
ATOM     60  C   UNK d   0      -5.365 -11.681  18.564  0.00  0.00     0.151 C 
BRANCH  60  61
ATOM     61  C   UNK d   0      -6.581 -12.257  19.158  0.00  0.00     0.143 C 
ATOM     62  O   UNK d   0      -7.383 -13.018  18.617  0.00  0.00    -0.650 OA
BRANCH  61  63
ATOM     63  O   UNK d   0      -6.832 -11.880  20.500  0.00  0.00    -0.776 OA
ATOM     64  H   UNK d   0      -6.702 -10.932  20.805  0.00  0.00     0.167 HD
ENDBRANCH  61  63
ENDBRANCH  60  61
ENDBRANCH  18  60
BRANCH  14  65
ATOM     65  C   UNK d   0      -3.966  -9.648  20.330  0.00  0.00     0.052 C 
BRANCH  65  66
ATOM     66  C   UNK d   0      -4.490  -9.700  21.721  0.00  0.00     0.115 C 
BRANCH  66  67
ATOM     67  C   UNK d   0      -4.190 -10.832  22.553  0.00  0.00     0.139 C 
ATOM     68  O   UNK d   0      -4.342 -12.011  22.063  0.00  0.00    -0.650 OA
BRANCH  67  69
ATOM     69  O   UNK d   0      -3.740 -10.825  23.873  0.00  0.00    -0.776 OA
ATOM     70  H   UNK d   0      -4.361 -10.368  24.556  0.00  0.00     0.167 HD
ENDBRANCH  67  69
ENDBRANCH  66  67
ENDBRANCH  65  66
ENDBRANCH  14  65
ENDBRANCH   6   7
ENDBRANCH   5   6
ENDBRANCH   2   5
TORSDOF 28
ENDMDL
MODEL 7
REMARK VINA RESULT:      -9.2      2.154      3.656
REMARK  28 active torsions:
REMARK  status: ('A' for Active; 'I' for Inactive)
REMARK    1  A    between atoms: C_2  and  O_3 
REMARK    2  A    between atoms: C_2  and  C_4 
REMARK    3  A    between atoms: C_4  and  C_5 
REMARK    4  A    between atoms: C_5  and  C_6 
REMARK    5  A    between atoms: C_7  and  C_8 
REMARK    6  A    between atoms: C_8  and  C_9 
REMARK    7  A    between atoms: C_9  and  O_11 
REMARK    8  A    between atoms: C_28  and  C_29 
REMARK    9  A    between atoms: C_29  and  C_30 
REMARK   10  A    between atoms: C_30  and  O_32 
REMARK   11  A    between atoms: C_33  and  C_34 
REMARK   12  A    between atoms: C_34  and  C_35 
REMARK   13  A    between atoms: C_35  and  C_36 
REMARK   14  A    between atoms: C_36  and  O_38 
REMARK   15  A    between atoms: C_39  and  C_40 
REMARK   16  A    between atoms: C_40  and  C_41 
REMARK   17  A    between atoms: C_41  and  C_42 
REMARK   18  A    between atoms: C_42  and  O_44 
REMARK   19  A    between atoms: C_45  and  C_46 
REMARK   20  A    between atoms: C_46  and  C_47 
REMARK   21  A    between atoms: C_47  and  O_49 
REMARK   22  A    between atoms: C_50  and  C_51 
REMARK   23  A    between atoms: C_51  and  C_52 
REMARK   24  A    between atoms: C_52  and  O_54 
REMARK   25  A    between atoms: C_55  and  C_56 
REMARK   26  A    between atoms: C_56  and  C_57 
REMARK   27  A    between atoms: C_57  and  C_58 
REMARK   28  A    between atoms: C_58  and  O_60 
ROOT
ATOM      1  O   UNK d   0     -13.032  -6.394  17.318  0.00  0.00    -0.650 OA
ATOM      2  C   UNK d   0     -12.256  -5.615  16.722  0.00  0.00     0.139 C 
ENDROOT
BRANCH   2   3
ATOM      3  O   UNK d   0     -12.707  -4.922  15.625  0.00  0.00    -0.776 OA
ATOM      4  H   UNK d   0     -13.666  -5.035  15.288  0.00  0.00     0.167 HD
ENDBRANCH   2   3
BRANCH   2   5
ATOM      5  C   UNK d   0     -10.855  -5.444  17.201  0.00  0.00     0.115 C 
BRANCH   5   6
ATOM      6  C   UNK d   0     -10.847  -5.085  18.662  0.00  0.00     0.052 C 
BRANCH   6   7
ATOM      7  C   UNK d   0      -9.451  -4.985  19.229  0.00  0.00    -0.020 A 
ATOM      8  C   UNK d   0      -8.766  -3.899  19.479  0.00  0.00    -0.011 A 
ATOM      9  C   UNK d   0      -7.473  -4.299  20.008  0.00  0.00     0.067 A 
ATOM     10  C   UNK d   0      -6.324  -3.644  20.476  0.00  0.00     0.062 C 
ATOM     11  N   UNK d   0      -7.454  -5.648  20.040  0.00  0.00    -0.248 NA
ATOM     12  C   UNK d   0      -5.272  -4.200  21.213  0.00  0.00     0.041 A 
ATOM     13  N   UNK d   0      -4.618  -5.370  21.079  0.00  0.00    -0.355 N 
ATOM     14  C   UNK d   0      -4.788  -3.508  22.338  0.00  0.00    -0.022 A 
ATOM     15  C   UNK d   0      -3.737  -5.441  22.095  0.00  0.00     0.042 A 
ATOM     16  H   UNK d   0      -4.763  -6.121  20.272  0.00  0.00     0.166 HD
ATOM     17  C   UNK d   0      -2.806  -6.445  22.428  0.00  0.00     0.062 C 
ATOM     18  C   UNK d   0      -3.815  -4.292  22.906  0.00  0.00    -0.013 A 
ATOM     19  C   UNK d   0      -2.979  -7.805  22.458  0.00  0.00     0.067 A 
ATOM     20  N   UNK d   0      -4.103  -8.284  21.920  0.00  0.00    -0.248 NA
ATOM     21  C   UNK d   0      -2.227  -8.943  22.963  0.00  0.00    -0.011 A 
ATOM     22  C   UNK d   0      -4.142  -9.652  22.037  0.00  0.00     0.066 A 
ATOM     23  C   UNK d   0      -5.244 -10.287  21.483  0.00  0.00     0.062 C 
ATOM     24  C   UNK d   0      -2.915 -10.020  22.717  0.00  0.00    -0.020 A 
ATOM     25  C   UNK d   0      -6.283  -9.711  20.736  0.00  0.00     0.041 A 
ATOM     26  N   UNK d   0      -6.943  -8.556  20.877  0.00  0.00    -0.355 N 
ATOM     27  C   UNK d   0      -6.765 -10.405  19.605  0.00  0.00    -0.022 A 
ATOM     28  C   UNK d   0      -7.829  -8.487  19.871  0.00  0.00     0.042 A 
ATOM     29  H   UNK d   0      -6.804  -7.807  21.695  0.00  0.00     0.166 HD
ATOM     30  C   UNK d   0      -8.767  -7.499  19.533  0.00  0.00     0.062 C 
ATOM     31  C   UNK d   0      -7.743  -9.637  19.051  0.00  0.00    -0.013 A 
ATOM     32  C   UNK d   0      -8.615  -6.122  19.586  0.00  0.00     0.066 A 
BRANCH   8  33
ATOM     33  C   UNK d   0      -9.205  -2.507  19.265  0.00  0.00     0.151 C 
BRANCH  33  34
ATOM     34  C   UNK d   0      -9.071  -2.076  17.862  0.00  0.00     0.143 C 
ATOM     35  O   UNK d   0      -8.780  -2.888  16.971  0.00  0.00    -0.650 OA
BRANCH  34  36
ATOM     36  O   UNK d   0      -9.269  -0.753  17.540  0.00  0.00    -0.776 OA
ATOM     37  H   UNK d   0      -8.560  -0.218  17.019  0.00  0.00     0.167 HD
ENDBRANCH  34  36
ENDBRANCH  33  34
ENDBRANCH   8  33
BRANCH  31  38
ATOM     38  C   UNK d   0      -8.540  -9.966  17.810  0.00  0.00     0.151 C 
BRANCH  38  39
ATOM     39  C   UNK d   0      -7.905  -9.501  16.595  0.00  0.00     0.143 C 
ATOM     40  O   UNK d   0      -7.198 -10.241  15.888  0.00  0.00    -0.650 OA
BRANCH  39  41
ATOM     41  O   UNK d   0      -8.086  -8.179  16.190  0.00  0.00    -0.776 OA
ATOM     42  H   UNK d   0      -8.685  -7.593  16.779  0.00  0.00     0.167 HD
ENDBRANCH  39  41
ENDBRANCH  38  39
ENDBRANCH  31  38
BRANCH  27  43
ATOM     43  C   UNK d   0      -6.341 -11.740  19.047  0.00  0.00     0.052 C 
BRANCH  43  44
ATOM     44  C   UNK d   0      -7.426 -12.767  19.082  0.00  0.00     0.115 C 
BRANCH  44  45
ATOM     45  C   UNK d   0      -7.751 -12.992  20.515  0.00  0.00     0.139 C 
ATOM     46  O   UNK d   0      -6.917 -13.610  21.221  0.00  0.00    -0.650 OA
BRANCH  45  47
ATOM     47  O   UNK d   0      -8.919 -12.546  21.095  0.00  0.00    -0.776 OA
ATOM     48  H   UNK d   0      -9.084 -12.573  22.115  0.00  0.00     0.167 HD
ENDBRANCH  45  47
ENDBRANCH  44  45
ENDBRANCH  43  44
ENDBRANCH  27  43
BRANCH  24  49
ATOM     49  C   UNK d   0      -2.506 -11.401  23.026  0.00  0.00     0.052 C 
BRANCH  49  50
ATOM     50  C   UNK d   0      -3.611 -12.125  23.753  0.00  0.00     0.115 C 
BRANCH  50  51
ATOM     51  C   UNK d   0      -3.701 -11.925  25.193  0.00  0.00     0.139 C 
ATOM     52  O   UNK d   0      -2.761 -11.447  25.869  0.00  0.00    -0.650 OA
BRANCH  51  53
ATOM     53  O   UNK d   0      -4.864 -12.275  25.862  0.00  0.00    -0.776 OA
ATOM     54  H   UNK d   0      -4.929 -12.065  26.843  0.00  0.00     0.167 HD
ENDBRANCH  51  53
ENDBRANCH  50  51
ENDBRANCH  49  50
ENDBRANCH  24  49
BRANCH  21  55
ATOM     55  C   UNK d   0      -0.898  -8.834  23.634  0.00  0.00     0.151 C 
BRANCH  55  56
ATOM     56  C   UNK d   0      -0.997  -8.191  24.953  0.00  0.00     0.143 C 
ATOM     57  O   UNK d   0      -1.091  -6.956  25.096  0.00  0.00    -0.650 OA
BRANCH  56  58
ATOM     58  O   UNK d   0      -0.983  -9.013  26.078  0.00  0.00    -0.776 OA
ATOM     59  H   UNK d   0      -1.913  -9.191  26.500  0.00  0.00     0.167 HD
ENDBRANCH  56  58
ENDBRANCH  55  56
ENDBRANCH  21  55
BRANCH  18  60
ATOM     60  C   UNK d   0      -3.032  -3.935  24.145  0.00  0.00     0.151 C 
BRANCH  60  61
ATOM     61  C   UNK d   0      -1.660  -3.663  23.691  0.00  0.00     0.143 C 
ATOM     62  O   UNK d   0      -1.320  -3.008  22.705  0.00  0.00    -0.650 OA
BRANCH  61  63
ATOM     63  O   UNK d   0      -0.637  -4.226  24.492  0.00  0.00    -0.776 OA
ATOM     64  H   UNK d   0       0.219  -4.556  24.084  0.00  0.00     0.167 HD
ENDBRANCH  61  63
ENDBRANCH  60  61
ENDBRANCH  18  60
BRANCH  14  65
ATOM     65  C   UNK d   0      -5.104  -2.133  22.854  0.00  0.00     0.052 C 
BRANCH  65  66
ATOM     66  C   UNK d   0      -5.858  -2.151  24.135  0.00  0.00     0.115 C 
BRANCH  66  67
ATOM     67  C   UNK d   0      -6.979  -3.036  24.289  0.00  0.00     0.139 C 
ATOM     68  O   UNK d   0      -6.953  -3.900  25.240  0.00  0.00    -0.650 OA
BRANCH  67  69
ATOM     69  O   UNK d   0      -8.137  -3.087  23.514  0.00  0.00    -0.776 OA
ATOM     70  H   UNK d   0      -8.472  -4.030  23.270  0.00  0.00     0.167 HD
ENDBRANCH  67  69
ENDBRANCH  66  67
ENDBRANCH  65  66
ENDBRANCH  14  65
ENDBRANCH   6   7
ENDBRANCH   5   6
ENDBRANCH   2   5
TORSDOF 28
ENDMDL
MODEL 8
REMARK VINA RESULT:      -9.2      1.803      8.458
REMARK  28 active torsions:
REMARK  status: ('A' for Active; 'I' for Inactive)
REMARK    1  A    between atoms: C_2  and  O_3 
REMARK    2  A    between atoms: C_2  and  C_4 
REMARK    3  A    between atoms: C_4  and  C_5 
REMARK    4  A    between atoms: C_5  and  C_6 
REMARK    5  A    between atoms: C_7  and  C_8 
REMARK    6  A    between atoms: C_8  and  C_9 
REMARK    7  A    between atoms: C_9  and  O_11 
REMARK    8  A    between atoms: C_28  and  C_29 
REMARK    9  A    between atoms: C_29  and  C_30 
REMARK   10  A    between atoms: C_30  and  O_32 
REMARK   11  A    between atoms: C_33  and  C_34 
REMARK   12  A    between atoms: C_34  and  C_35 
REMARK   13  A    between atoms: C_35  and  C_36 
REMARK   14  A    between atoms: C_36  and  O_38 
REMARK   15  A    between atoms: C_39  and  C_40 
REMARK   16  A    between atoms: C_40  and  C_41 
REMARK   17  A    between atoms: C_41  and  C_42 
REMARK   18  A    between atoms: C_42  and  O_44 
REMARK   19  A    between atoms: C_45  and  C_46 
REMARK   20  A    between atoms: C_46  and  C_47 
REMARK   21  A    between atoms: C_47  and  O_49 
REMARK   22  A    between atoms: C_50  and  C_51 
REMARK   23  A    between atoms: C_51  and  C_52 
REMARK   24  A    between atoms: C_52  and  O_54 
REMARK   25  A    between atoms: C_55  and  C_56 
REMARK   26  A    between atoms: C_56  and  C_57 
REMARK   27  A    between atoms: C_57  and  C_58 
REMARK   28  A    between atoms: C_58  and  O_60 
ROOT
ATOM      1  O   UNK d   0      -6.356 -12.140  14.845  0.00  0.00    -0.650 OA
ATOM      2  C   UNK d   0      -7.296 -12.199  15.668  0.00  0.00     0.139 C 
ENDROOT
BRANCH   2   3
ATOM      3  O   UNK d   0      -8.560 -12.506  15.226  0.00  0.00    -0.776 OA
ATOM      4  H   UNK d   0      -9.347 -12.561  15.875  0.00  0.00     0.167 HD
ENDBRANCH   2   3
BRANCH   2   5
ATOM      5  C   UNK d   0      -7.042 -11.938  17.113  0.00  0.00     0.115 C 
BRANCH   5   6
ATOM      6  C   UNK d   0      -8.246 -11.289  17.741  0.00  0.00     0.052 C 
BRANCH   6   7
ATOM      7  C   UNK d   0      -8.141  -9.784  17.780  0.00  0.00    -0.020 A 
ATOM      8  C   UNK d   0      -8.702  -8.923  16.970  0.00  0.00    -0.011 A 
ATOM      9  C   UNK d   0      -8.307  -7.590  17.394  0.00  0.00     0.067 A 
ATOM     10  C   UNK d   0      -8.571  -6.275  16.979  0.00  0.00     0.062 C 
ATOM     11  N   UNK d   0      -7.501  -7.733  18.467  0.00  0.00    -0.248 NA
ATOM     12  C   UNK d   0      -8.320  -5.096  17.688  0.00  0.00     0.041 A 
ATOM     13  N   UNK d   0      -7.256  -4.710  18.419  0.00  0.00    -0.355 N 
ATOM     14  C   UNK d   0      -9.321  -4.110  17.745  0.00  0.00    -0.022 A 
ATOM     15  C   UNK d   0      -7.560  -3.509  18.944  0.00  0.00     0.042 A 
ATOM     16  H   UNK d   0      -6.302  -5.268  18.545  0.00  0.00     0.166 HD
ATOM     17  C   UNK d   0      -6.807  -2.661  19.781  0.00  0.00     0.062 C 
ATOM     18  C   UNK d   0      -8.847  -3.099  18.544  0.00  0.00    -0.013 A 
ATOM     19  C   UNK d   0      -6.068  -2.979  20.891  0.00  0.00     0.067 A 
ATOM     20  N   UNK d   0      -5.854  -4.277  21.123  0.00  0.00    -0.248 NA
ATOM     21  C   UNK d   0      -5.424  -2.241  21.964  0.00  0.00    -0.011 A 
ATOM     22  C   UNK d   0      -5.117  -4.441  22.271  0.00  0.00     0.066 A 
ATOM     23  C   UNK d   0      -4.788  -5.744  22.611  0.00  0.00     0.062 C 
ATOM     24  C   UNK d   0      -4.873  -3.102  22.770  0.00  0.00    -0.020 A 
ATOM     25  C   UNK d   0      -5.039  -6.915  21.878  0.00  0.00     0.041 A 
ATOM     26  N   UNK d   0      -6.102  -7.304  21.164  0.00  0.00    -0.355 N 
ATOM     27  C   UNK d   0      -4.032  -7.902  21.818  0.00  0.00    -0.022 A 
ATOM     28  C   UNK d   0      -5.805  -8.507  20.646  0.00  0.00     0.042 A 
ATOM     29  H   UNK d   0      -7.064  -6.748  21.047  0.00  0.00     0.166 HD
ATOM     30  C   UNK d   0      -6.547  -9.365  19.821  0.00  0.00     0.062 C 
ATOM     31  C   UNK d   0      -4.508  -8.913  21.040  0.00  0.00    -0.013 A 
ATOM     32  C   UNK d   0      -7.361  -9.029  18.750  0.00  0.00     0.066 A 
BRANCH   8  33
ATOM     33  C   UNK d   0      -9.576  -9.228  15.822  0.00  0.00     0.151 C 
BRANCH  33  34
ATOM     34  C   UNK d   0     -10.977  -8.828  16.050  0.00  0.00     0.143 C 
ATOM     35  O   UNK d   0     -11.662  -8.358  15.131  0.00  0.00    -0.650 OA
BRANCH  34  36
ATOM     36  O   UNK d   0     -11.527  -8.980  17.302  0.00  0.00    -0.776 OA
ATOM     37  H   UNK d   0     -11.663  -8.174  17.927  0.00  0.00     0.167 HD
ENDBRANCH  34  36
ENDBRANCH  33  34
ENDBRANCH   8  33
BRANCH  31  38
ATOM     38  C   UNK d   0      -3.772 -10.182  20.680  0.00  0.00     0.151 C 
BRANCH  38  39
ATOM     39  C   UNK d   0      -3.998 -11.251  21.630  0.00  0.00     0.143 C 
ATOM     40  O   UNK d   0      -4.960 -12.033  21.536  0.00  0.00    -0.650 OA
BRANCH  39  41
ATOM     41  O   UNK d   0      -3.112 -11.422  22.693  0.00  0.00    -0.776 OA
ATOM     42  H   UNK d   0      -2.114 -11.463  22.461  0.00  0.00     0.167 HD
ENDBRANCH  39  41
ENDBRANCH  38  39
ENDBRANCH  31  38
BRANCH  27  43
ATOM     43  C   UNK d   0      -2.667  -7.919  22.460  0.00  0.00     0.052 C 
BRANCH  43  44
ATOM     44  C   UNK d   0      -1.893  -6.661  22.237  0.00  0.00     0.115 C 
BRANCH  44  45
ATOM     45  C   UNK d   0      -1.045  -6.465  23.441  0.00  0.00     0.139 C 
ATOM     46  O   UNK d   0       0.168  -6.188  23.272  0.00  0.00    -0.650 OA
BRANCH  45  47
ATOM     47  O   UNK d   0      -1.535  -6.568  24.725  0.00  0.00    -0.776 OA
ATOM     48  H   UNK d   0      -1.120  -7.194  25.434  0.00  0.00     0.167 HD
ENDBRANCH  45  47
ENDBRANCH  44  45
ENDBRANCH  43  44
ENDBRANCH  27  43
BRANCH  24  49
ATOM     49  C   UNK d   0      -4.081  -2.784  23.972  0.00  0.00     0.052 C 
BRANCH  49  50
ATOM     50  C   UNK d   0      -4.608  -3.544  25.162  0.00  0.00     0.115 C 
BRANCH  50  51
ATOM     51  C   UNK d   0      -6.054  -3.668  25.285  0.00  0.00     0.139 C 
ATOM     52  O   UNK d   0      -6.618  -4.752  25.567  0.00  0.00    -0.650 OA
BRANCH  51  53
ATOM     53  O   UNK d   0      -6.858  -2.557  25.084  0.00  0.00    -0.776 OA
ATOM     54  H   UNK d   0      -7.002  -2.239  24.141  0.00  0.00     0.167 HD
ENDBRANCH  51  53
ENDBRANCH  50  51
ENDBRANCH  49  50
ENDBRANCH  24  49
BRANCH  21  55
ATOM     55  C   UNK d   0      -5.422  -0.752  22.070  0.00  0.00     0.151 C 
BRANCH  55  56
ATOM     56  C   UNK d   0      -6.785  -0.201  22.119  0.00  0.00     0.143 C 
ATOM     57  O   UNK d   0      -7.229   0.579  21.254  0.00  0.00    -0.650 OA
BRANCH  56  58
ATOM     58  O   UNK d   0      -7.600  -0.579  23.185  0.00  0.00    -0.776 OA
ATOM     59  H   UNK d   0      -8.340   0.103  23.431  0.00  0.00     0.167 HD
ENDBRANCH  56  58
ENDBRANCH  55  56
ENDBRANCH  21  55
BRANCH  18  60
ATOM     60  C   UNK d   0      -9.603  -1.839  18.885  0.00  0.00     0.151 C 
BRANCH  60  61
ATOM     61  C   UNK d   0      -9.139  -0.819  17.932  0.00  0.00     0.143 C 
ATOM     62  O   UNK d   0      -9.337  -0.794  16.717  0.00  0.00    -0.650 OA
BRANCH  61  63
ATOM     63  O   UNK d   0      -8.386   0.237  18.499  0.00  0.00    -0.776 OA
ATOM     64  H   UNK d   0      -7.757   0.784  17.939  0.00  0.00     0.167 HD
ENDBRANCH  61  63
ENDBRANCH  60  61
ENDBRANCH  18  60
BRANCH  14  65
ATOM     65  C   UNK d   0     -10.638  -4.006  17.030  0.00  0.00     0.052 C 
BRANCH  65  66
ATOM     66  C   UNK d   0     -11.743  -4.702  17.742  0.00  0.00     0.115 C 
BRANCH  66  67
ATOM     67  C   UNK d   0     -12.784  -5.342  16.989  0.00  0.00     0.139 C 
ATOM     68  O   UNK d   0     -13.257  -6.457  17.421  0.00  0.00    -0.650 OA
BRANCH  67  69
ATOM     69  O   UNK d   0     -13.374  -4.902  15.804  0.00  0.00    -0.776 OA
ATOM     70  H   UNK d   0     -13.995  -4.085  15.890  0.00  0.00     0.167 HD
ENDBRANCH  67  69
ENDBRANCH  66  67
ENDBRANCH  65  66
ENDBRANCH  14  65
ENDBRANCH   6   7
ENDBRANCH   5   6
ENDBRANCH   2   5
TORSDOF 28
ENDMDL
MODEL 9
REMARK VINA RESULT:      -9.1      1.808      2.652
REMARK  28 active torsions:
REMARK  status: ('A' for Active; 'I' for Inactive)
REMARK    1  A    between atoms: C_2  and  O_3 
REMARK    2  A    between atoms: C_2  and  C_4 
REMARK    3  A    between atoms: C_4  and  C_5 
REMARK    4  A    between atoms: C_5  and  C_6 
REMARK    5  A    between atoms: C_7  and  C_8 
REMARK    6  A    between atoms: C_8  and  C_9 
REMARK    7  A    between atoms: C_9  and  O_11 
REMARK    8  A    between atoms: C_28  and  C_29 
REMARK    9  A    between atoms: C_29  and  C_30 
REMARK   10  A    between atoms: C_30  and  O_32 
REMARK   11  A    between atoms: C_33  and  C_34 
REMARK   12  A    between atoms: C_34  and  C_35 
REMARK   13  A    between atoms: C_35  and  C_36 
REMARK   14  A    between atoms: C_36  and  O_38 
REMARK   15  A    between atoms: C_39  and  C_40 
REMARK   16  A    between atoms: C_40  and  C_41 
REMARK   17  A    between atoms: C_41  and  C_42 
REMARK   18  A    between atoms: C_42  and  O_44 
REMARK   19  A    between atoms: C_45  and  C_46 
REMARK   20  A    between atoms: C_46  and  C_47 
REMARK   21  A    between atoms: C_47  and  O_49 
REMARK   22  A    between atoms: C_50  and  C_51 
REMARK   23  A    between atoms: C_51  and  C_52 
REMARK   24  A    between atoms: C_52  and  O_54 
REMARK   25  A    between atoms: C_55  and  C_56 
REMARK   26  A    between atoms: C_56  and  C_57 
REMARK   27  A    between atoms: C_57  and  C_58 
REMARK   28  A    between atoms: C_58  and  O_60 
ROOT
ATOM      1  O   UNK d   0     -13.072  -6.769  17.274  0.00  0.00    -0.650 OA
ATOM      2  C   UNK d   0     -12.147  -6.606  16.447  0.00  0.00     0.139 C 
ENDROOT
BRANCH   2   3
ATOM      3  O   UNK d   0     -11.893  -7.587  15.519  0.00  0.00    -0.776 OA
ATOM      4  H   UNK d   0     -12.450  -7.662  14.666  0.00  0.00     0.167 HD
ENDBRANCH   2   3
BRANCH   2   5
ATOM      5  C   UNK d   0     -11.330  -5.360  16.474  0.00  0.00     0.115 C 
BRANCH   5   6
ATOM      6  C   UNK d   0     -11.424  -4.708  17.827  0.00  0.00     0.052 C 
BRANCH   6   7
ATOM      7  C   UNK d   0     -10.095  -4.658  18.542  0.00  0.00    -0.020 A 
ATOM      8  C   UNK d   0      -9.476  -3.601  19.003  0.00  0.00    -0.011 A 
ATOM      9  C   UNK d   0      -8.228  -4.043  19.603  0.00  0.00     0.067 A 
ATOM     10  C   UNK d   0      -7.153  -3.434  20.270  0.00  0.00     0.062 C 
ATOM     11  N   UNK d   0      -8.166  -5.384  19.457  0.00  0.00    -0.248 NA
ATOM     12  C   UNK d   0      -6.161  -4.064  21.029  0.00  0.00     0.041 A 
ATOM     13  N   UNK d   0      -5.457  -5.190  20.808  0.00  0.00    -0.355 N 
ATOM     14  C   UNK d   0      -5.814  -3.521  22.279  0.00  0.00    -0.022 A 
ATOM     15  C   UNK d   0      -4.678  -5.381  21.889  0.00  0.00     0.042 A 
ATOM     16  H   UNK d   0      -5.495  -5.827  19.897  0.00  0.00     0.166 HD
ATOM     17  C   UNK d   0      -3.750  -6.401  22.178  0.00  0.00     0.062 C 
ATOM     18  C   UNK d   0      -4.875  -4.355  22.834  0.00  0.00    -0.013 A 
ATOM     19  C   UNK d   0      -3.878  -7.756  22.009  0.00  0.00     0.067 A 
ATOM     20  N   UNK d   0      -4.927  -8.181  21.300  0.00  0.00    -0.248 NA
ATOM     21  C   UNK d   0      -3.141  -8.936  22.431  0.00  0.00    -0.011 A 
ATOM     22  C   UNK d   0      -4.930  -9.552  21.228  0.00  0.00     0.066 A 
ATOM     23  C   UNK d   0      -5.949 -10.129  20.485  0.00  0.00     0.062 C 
ATOM     24  C   UNK d   0      -3.764  -9.984  21.974  0.00  0.00    -0.020 A 
ATOM     25  C   UNK d   0      -6.929  -9.478  19.719  0.00  0.00     0.041 A 
ATOM     26  N   UNK d   0      -7.640  -8.367  19.946  0.00  0.00    -0.355 N 
ATOM     27  C   UNK d   0      -7.274 -10.021  18.462  0.00  0.00    -0.022 A 
ATOM     28  C   UNK d   0      -8.423  -8.179  18.872  0.00  0.00     0.042 A 
ATOM     29  H   UNK d   0      -7.608  -7.734  20.866  0.00  0.00     0.166 HD
ATOM     30  C   UNK d   0      -9.357  -7.174  18.575  0.00  0.00     0.062 C 
ATOM     31  C   UNK d   0      -8.218  -9.205  17.919  0.00  0.00    -0.013 A 
ATOM     32  C   UNK d   0      -9.259  -5.815  18.827  0.00  0.00     0.066 A 
BRANCH   8  33
ATOM     33  C   UNK d   0      -9.939  -2.203  18.933  0.00  0.00     0.151 C 
BRANCH  33  34
ATOM     34  C   UNK d   0      -9.426  -1.490  17.750  0.00  0.00     0.143 C 
ATOM     35  O   UNK d   0      -9.045  -0.314  17.831  0.00  0.00    -0.650 OA
BRANCH  34  36
ATOM     36  O   UNK d   0      -9.370  -2.143  16.539  0.00  0.00    -0.776 OA
ATOM     37  H   UNK d   0      -9.163  -3.149  16.484  0.00  0.00     0.167 HD
ENDBRANCH  34  36
ENDBRANCH  33  34
ENDBRANCH   8  33
BRANCH  31  38
ATOM     38  C   UNK d   0      -8.877  -9.378  16.571  0.00  0.00     0.151 C 
BRANCH  38  39
ATOM     39  C   UNK d   0     -10.003 -10.287  16.609  0.00  0.00     0.143 C 
ATOM     40  O   UNK d   0     -11.019 -10.059  17.289  0.00  0.00    -0.650 OA
BRANCH  39  41
ATOM     41  O   UNK d   0      -9.962 -11.463  15.861  0.00  0.00    -0.776 OA
ATOM     42  H   UNK d   0     -10.820 -11.726  15.366  0.00  0.00     0.167 HD
ENDBRANCH  39  41
ENDBRANCH  38  39
ENDBRANCH  31  38
BRANCH  27  43
ATOM     43  C   UNK d   0      -6.751 -11.259  17.777  0.00  0.00     0.052 C 
BRANCH  43  44
ATOM     44  C   UNK d   0      -6.163 -10.985  16.431  0.00  0.00     0.115 C 
BRANCH  44  45
ATOM     45  C   UNK d   0      -6.880 -11.861  15.468  0.00  0.00     0.139 C 
ATOM     46  O   UNK d   0      -7.200 -13.016  15.844  0.00  0.00    -0.650 OA
BRANCH  45  47
ATOM     47  O   UNK d   0      -7.209 -11.458  14.192  0.00  0.00    -0.776 OA
ATOM     48  H   UNK d   0      -7.861 -10.680  14.001  0.00  0.00     0.167 HD
ENDBRANCH  45  47
ENDBRANCH  44  45
ENDBRANCH  43  44
ENDBRANCH  27  43
BRANCH  24  49
ATOM     49  C   UNK d   0      -3.340 -11.385  22.136  0.00  0.00     0.052 C 
BRANCH  49  50
ATOM     50  C   UNK d   0      -4.033 -12.009  23.320  0.00  0.00     0.115 C 
BRANCH  50  51
ATOM     51  C   UNK d   0      -5.252 -12.763  23.055  0.00  0.00     0.139 C 
ATOM     52  O   UNK d   0      -5.616 -13.075  21.897  0.00  0.00    -0.650 OA
BRANCH  51  53
ATOM     53  O   UNK d   0      -6.057 -13.158  24.113  0.00  0.00    -0.776 OA
ATOM     54  H   UNK d   0      -6.323 -12.467  24.792  0.00  0.00     0.167 HD
ENDBRANCH  51  53
ENDBRANCH  50  51
ENDBRANCH  49  50
ENDBRANCH  24  49
BRANCH  21  55
ATOM     55  C   UNK d   0      -1.889  -8.892  23.242  0.00  0.00     0.151 C 
BRANCH  55  56
ATOM     56  C   UNK d   0      -1.355  -7.526  23.360  0.00  0.00     0.143 C 
ATOM     57  O   UNK d   0      -0.727  -6.966  22.440  0.00  0.00    -0.650 OA
BRANCH  56  58
ATOM     58  O   UNK d   0      -1.570  -6.846  24.557  0.00  0.00    -0.776 OA
ATOM     59  H   UNK d   0      -0.732  -6.384  24.953  0.00  0.00     0.167 HD
ENDBRANCH  56  58
ENDBRANCH  55  56
ENDBRANCH  21  55
BRANCH  18  60
ATOM     60  C   UNK d   0      -4.230  -4.155  24.183  0.00  0.00     0.151 C 
BRANCH  60  61
ATOM     61  C   UNK d   0      -2.898  -3.592  23.915  0.00  0.00     0.143 C 
ATOM     62  O   UNK d   0      -2.595  -2.790  23.030  0.00  0.00    -0.650 OA
BRANCH  61  63
ATOM     63  O   UNK d   0      -1.871  -4.036  24.782  0.00  0.00    -0.776 OA
ATOM     64  H   UNK d   0      -0.953  -4.247  24.432  0.00  0.00     0.167 HD
ENDBRANCH  61  63
ENDBRANCH  60  61
ENDBRANCH  18  60
BRANCH  14  65
ATOM     65  C   UNK d   0      -6.226  -2.236  22.940  0.00  0.00     0.052 C 
BRANCH  65  66
ATOM     66  C   UNK d   0      -7.565  -2.316  23.583  0.00  0.00     0.115 C 
BRANCH  66  67
ATOM     67  C   UNK d   0      -7.669  -2.684  24.967  0.00  0.00     0.139 C 
ATOM     68  O   UNK d   0      -8.308  -1.903  25.763  0.00  0.00    -0.650 OA
BRANCH  67  69
ATOM     69  O   UNK d   0      -7.149  -3.819  25.589  0.00  0.00    -0.776 OA
ATOM     70  H   UNK d   0      -6.221  -3.707  26.021  0.00  0.00     0.167 HD
ENDBRANCH  67  69
ENDBRANCH  66  67
ENDBRANCH  65  66
ENDBRANCH  14  65
ENDBRANCH   6   7
ENDBRANCH   5   6
ENDBRANCH   2   5
TORSDOF 28
ENDMDL
MODEL 10
REMARK VINA RESULT:      -9.1      1.796      7.638
REMARK  28 active torsions:
REMARK  status: ('A' for Active; 'I' for Inactive)
REMARK    1  A    between atoms: C_2  and  O_3 
REMARK    2  A    between atoms: C_2  and  C_4 
REMARK    3  A    between atoms: C_4  and  C_5 
REMARK    4  A    between atoms: C_5  and  C_6 
REMARK    5  A    between atoms: C_7  and  C_8 
REMARK    6  A    between atoms: C_8  and  C_9 
REMARK    7  A    between atoms: C_9  and  O_11 
REMARK    8  A    between atoms: C_28  and  C_29 
REMARK    9  A    between atoms: C_29  and  C_30 
REMARK   10  A    between atoms: C_30  and  O_32 
REMARK   11  A    between atoms: C_33  and  C_34 
REMARK   12  A    between atoms: C_34  and  C_35 
REMARK   13  A    between atoms: C_35  and  C_36 
REMARK   14  A    between atoms: C_36  and  O_38 
REMARK   15  A    between atoms: C_39  and  C_40 
REMARK   16  A    between atoms: C_40  and  C_41 
REMARK   17  A    between atoms: C_41  and  C_42 
REMARK   18  A    between atoms: C_42  and  O_44 
REMARK   19  A    between atoms: C_45  and  C_46 
REMARK   20  A    between atoms: C_46  and  C_47 
REMARK   21  A    between atoms: C_47  and  O_49 
REMARK   22  A    between atoms: C_50  and  C_51 
REMARK   23  A    between atoms: C_51  and  C_52 
REMARK   24  A    between atoms: C_52  and  O_54 
REMARK   25  A    between atoms: C_55  and  C_56 
REMARK   26  A    between atoms: C_56  and  C_57 
REMARK   27  A    between atoms: C_57  and  C_58 
REMARK   28  A    between atoms: C_58  and  O_60 
ROOT
ATOM      1  O   UNK d   0     -10.870 -12.511  14.715  0.00  0.00    -0.650 OA
ATOM      2  C   UNK d   0      -9.744 -12.117  14.340  0.00  0.00     0.139 C 
ENDROOT
BRANCH   2   3
ATOM      3  O   UNK d   0      -9.425 -12.162  13.004  0.00  0.00    -0.776 OA
ATOM      4  H   UNK d   0     -10.135 -12.373  12.299  0.00  0.00     0.167 HD
ENDBRANCH   2   3
BRANCH   2   5
ATOM      5  C   UNK d   0      -8.759 -11.607  15.336  0.00  0.00     0.115 C 
BRANCH   5   6
ATOM      6  C   UNK d   0      -9.477 -11.056  16.538  0.00  0.00     0.052 C 
BRANCH   6   7
ATOM      7  C   UNK d   0      -9.188  -9.592  16.767  0.00  0.00    -0.020 A 
ATOM      8  C   UNK d   0      -9.654  -8.571  16.094  0.00  0.00    -0.011 A 
ATOM      9  C   UNK d   0      -9.092  -7.362  16.672  0.00  0.00     0.067 A 
ATOM     10  C   UNK d   0      -9.200  -5.983  16.438  0.00  0.00     0.062 C 
ATOM     11  N   UNK d   0      -8.289  -7.741  17.689  0.00  0.00    -0.248 NA
ATOM     12  C   UNK d   0      -8.794  -4.945  17.285  0.00  0.00     0.041 A 
ATOM     13  N   UNK d   0      -7.678  -4.789  18.022  0.00  0.00    -0.355 N 
ATOM     14  C   UNK d   0      -9.666  -3.863  17.502  0.00  0.00    -0.022 A 
ATOM     15  C   UNK d   0      -7.823  -3.639  18.707  0.00  0.00     0.042 A 
ATOM     16  H   UNK d   0      -6.797  -5.467  18.042  0.00  0.00     0.166 HD
ATOM     17  C   UNK d   0      -6.957  -3.004  19.620  0.00  0.00     0.062 C 
ATOM     18  C   UNK d   0      -9.057  -3.030  18.408  0.00  0.00    -0.013 A 
ATOM     19  C   UNK d   0      -6.242  -3.552  20.654  0.00  0.00     0.067 A 
ATOM     20  N   UNK d   0      -6.184  -4.885  20.710  0.00  0.00    -0.248 NA
ATOM     21  C   UNK d   0      -5.492  -3.043  21.791  0.00  0.00    -0.011 A 
ATOM     22  C   UNK d   0      -5.452  -5.285  21.801  0.00  0.00     0.066 A 
ATOM     23  C   UNK d   0      -5.278  -6.652  21.959  0.00  0.00     0.062 C 
ATOM     24  C   UNK d   0      -5.036  -4.062  22.460  0.00  0.00    -0.020 A 
ATOM     25  C   UNK d   0      -5.684  -7.677  21.091  0.00  0.00     0.041 A 
ATOM     26  N   UNK d   0      -6.799  -7.840  20.370  0.00  0.00    -0.355 N 
ATOM     27  C   UNK d   0      -4.806  -8.761  20.870  0.00  0.00    -0.022 A 
ATOM     28  C   UNK d   0      -6.661  -8.991  19.692  0.00  0.00     0.042 A 
ATOM     29  H   UNK d   0      -7.688  -7.163  20.358  0.00  0.00     0.166 HD
ATOM     30  C   UNK d   0      -7.518  -9.638  18.788  0.00  0.00     0.062 C 
ATOM     31  C   UNK d   0      -5.416  -9.596  19.985  0.00  0.00    -0.013 A 
ATOM     32  C   UNK d   0      -8.304  -9.070  17.798  0.00  0.00     0.066 A 
BRANCH   8  33
ATOM     33  C   UNK d   0     -10.580  -8.616  14.947  0.00  0.00     0.151 C 
BRANCH  33  34
ATOM     34  C   UNK d   0     -11.996  -8.637  15.358  0.00  0.00     0.143 C 
ATOM     35  O   UNK d   0     -12.667  -9.675  15.275  0.00  0.00    -0.650 OA
BRANCH  34  36
ATOM     36  O   UNK d   0     -12.577  -7.486  15.837  0.00  0.00    -0.776 OA
ATOM     37  H   UNK d   0     -12.026  -6.782  16.347  0.00  0.00     0.167 HD
ENDBRANCH  34  36
ENDBRANCH  33  34
ENDBRANCH   8  33
BRANCH  31  38
ATOM     38  C   UNK d   0      -4.848 -10.886  19.440  0.00  0.00     0.151 C 
BRANCH  38  39
ATOM     39  C   UNK d   0      -4.407 -10.768  18.066  0.00  0.00     0.143 C 
ATOM     40  O   UNK d   0      -4.870 -11.476  17.155  0.00  0.00    -0.650 OA
BRANCH  39  41
ATOM     41  O   UNK d   0      -3.428  -9.831  17.738  0.00  0.00    -0.776 OA
ATOM     42  H   UNK d   0      -3.747  -8.874  17.556  0.00  0.00     0.167 HD
ENDBRANCH  39  41
ENDBRANCH  38  39
ENDBRANCH  31  38
BRANCH  27  43
ATOM     43  C   UNK d   0      -3.442  -9.024  21.457  0.00  0.00     0.052 C 
BRANCH  43  44
ATOM     44  C   UNK d   0      -3.458 -10.036  22.556  0.00  0.00     0.115 C 
BRANCH  44  45
ATOM     45  C   UNK d   0      -2.314  -9.711  23.448  0.00  0.00     0.139 C 
ATOM     46  O   UNK d   0      -1.914 -10.597  24.244  0.00  0.00    -0.650 OA
BRANCH  45  47
ATOM     47  O   UNK d   0      -1.677  -8.489  23.431  0.00  0.00    -0.776 OA
ATOM     48  H   UNK d   0      -2.044  -7.659  23.924  0.00  0.00     0.167 HD
ENDBRANCH  45  47
ENDBRANCH  44  45
ENDBRANCH  43  44
ENDBRANCH  27  43
BRANCH  24  49
ATOM     49  C   UNK d   0      -4.190  -4.002  23.664  0.00  0.00     0.052 C 
BRANCH  49  50
ATOM     50  C   UNK d   0      -2.735  -3.918  23.279  0.00  0.00     0.115 C 
BRANCH  50  51
ATOM     51  C   UNK d   0      -1.942  -5.133  23.407  0.00  0.00     0.139 C 
ATOM     52  O   UNK d   0      -1.340  -5.653  22.438  0.00  0.00    -0.650 OA
BRANCH  51  53
ATOM     53  O   UNK d   0      -1.837  -5.758  24.640  0.00  0.00    -0.776 OA
ATOM     54  H   UNK d   0      -1.997  -5.208  25.467  0.00  0.00     0.167 HD
ENDBRANCH  51  53
ENDBRANCH  50  51
ENDBRANCH  49  50
ENDBRANCH  24  49
BRANCH  21  55
ATOM     55  C   UNK d   0      -5.307  -1.592  22.087  0.00  0.00     0.151 C 
BRANCH  55  56
ATOM     56  C   UNK d   0      -6.589  -0.905  22.305  0.00  0.00     0.143 C 
ATOM     57  O   UNK d   0      -7.028  -0.032  21.531  0.00  0.00    -0.650 OA
BRANCH  56  58
ATOM     58  O   UNK d   0      -7.332  -1.259  23.431  0.00  0.00    -0.776 OA
ATOM     59  H   UNK d   0      -8.315  -0.934  23.424  0.00  0.00     0.167 HD
ENDBRANCH  56  58
ENDBRANCH  55  56
ENDBRANCH  21  55
BRANCH  18  60
ATOM     60  C   UNK d   0      -9.648  -1.746  18.934  0.00  0.00     0.151 C 
BRANCH  60  61
ATOM     61  C   UNK d   0      -9.145  -0.680  18.053  0.00  0.00     0.143 C 
ATOM     62  O   UNK d   0      -9.304  -0.587  16.835  0.00  0.00    -0.650 OA
BRANCH  61  63
ATOM     63  O   UNK d   0      -8.402   0.336  18.700  0.00  0.00    -0.776 OA
ATOM     64  H   UNK d   0      -7.912   0.153  19.558  0.00  0.00     0.167 HD
ENDBRANCH  61  63
ENDBRANCH  60  61
ENDBRANCH  18  60
BRANCH  14  65
ATOM     65  C   UNK d   0     -10.973  -3.511  16.851  0.00  0.00     0.052 C 
BRANCH  65  66
ATOM     66  C   UNK d   0     -12.091  -4.396  17.275  0.00  0.00     0.115 C 
BRANCH  66  67
ATOM     67  C   UNK d   0     -13.120  -3.882  18.134  0.00  0.00     0.139 C 
ATOM     68  O   UNK d   0     -12.818  -3.598  19.352  0.00  0.00    -0.650 OA
BRANCH  67  69
ATOM     69  O   UNK d   0     -14.456  -3.639  17.816  0.00  0.00    -0.776 OA
ATOM     70  H   UNK d   0     -14.825  -2.722  18.104  0.00  0.00     0.167 HD
ENDBRANCH  67  69
ENDBRANCH  66  67
ENDBRANCH  65  66
ENDBRANCH  14  65
ENDBRANCH   6   7
ENDBRANCH   5   6
ENDBRANCH   2   5
TORSDOF 28
ENDMDL
MODEL 11
REMARK VINA RESULT:      -9.1      1.451     10.769
REMARK  28 active torsions:
REMARK  status: ('A' for Active; 'I' for Inactive)
REMARK    1  A    between atoms: C_2  and  O_3 
REMARK    2  A    between atoms: C_2  and  C_4 
REMARK    3  A    between atoms: C_4  and  C_5 
REMARK    4  A    between atoms: C_5  and  C_6 
REMARK    5  A    between atoms: C_7  and  C_8 
REMARK    6  A    between atoms: C_8  and  C_9 
REMARK    7  A    between atoms: C_9  and  O_11 
REMARK    8  A    between atoms: C_28  and  C_29 
REMARK    9  A    between atoms: C_29  and  C_30 
REMARK   10  A    between atoms: C_30  and  O_32 
REMARK   11  A    between atoms: C_33  and  C_34 
REMARK   12  A    between atoms: C_34  and  C_35 
REMARK   13  A    between atoms: C_35  and  C_36 
REMARK   14  A    between atoms: C_36  and  O_38 
REMARK   15  A    between atoms: C_39  and  C_40 
REMARK   16  A    between atoms: C_40  and  C_41 
REMARK   17  A    between atoms: C_41  and  C_42 
REMARK   18  A    between atoms: C_42  and  O_44 
REMARK   19  A    between atoms: C_45  and  C_46 
REMARK   20  A    between atoms: C_46  and  C_47 
REMARK   21  A    between atoms: C_47  and  O_49 
REMARK   22  A    between atoms: C_50  and  C_51 
REMARK   23  A    between atoms: C_51  and  C_52 
REMARK   24  A    between atoms: C_52  and  O_54 
REMARK   25  A    between atoms: C_55  and  C_56 
REMARK   26  A    between atoms: C_56  and  C_57 
REMARK   27  A    between atoms: C_57  and  C_58 
REMARK   28  A    between atoms: C_58  and  O_60 
ROOT
ATOM      1  O   UNK d   0      -3.739 -12.819  22.536  0.00  0.00    -0.650 OA
ATOM      2  C   UNK d   0      -4.537 -11.857  22.479  0.00  0.00     0.139 C 
ENDROOT
BRANCH   2   3
ATOM      3  O   UNK d   0      -5.889 -12.104  22.463  0.00  0.00    -0.776 OA
ATOM      4  H   UNK d   0      -6.564 -11.337  22.455  0.00  0.00     0.167 HD
ENDBRANCH   2   3
BRANCH   2   5
ATOM      5  C   UNK d   0      -4.022 -10.460  22.429  0.00  0.00     0.115 C 
BRANCH   5   6
ATOM      6  C   UNK d   0      -3.425 -10.176  21.077  0.00  0.00     0.052 C 
BRANCH   6   7
ATOM      7  C   UNK d   0      -4.466  -9.804  20.049  0.00  0.00    -0.020 A 
ATOM      8  C   UNK d   0      -4.791 -10.465  18.967  0.00  0.00    -0.011 A 
ATOM      9  C   UNK d   0      -5.835  -9.716  18.286  0.00  0.00     0.067 A 
ATOM     10  C   UNK d   0      -6.606  -9.882  17.125  0.00  0.00     0.062 C 
ATOM     11  N   UNK d   0      -6.079  -8.610  19.020  0.00  0.00    -0.248 NA
ATOM     12  C   UNK d   0      -7.768  -9.186  16.773  0.00  0.00     0.041 A 
ATOM     13  N   UNK d   0      -8.079  -7.879  16.860  0.00  0.00    -0.355 N 
ATOM     14  C   UNK d   0      -8.872  -9.909  16.285  0.00  0.00    -0.022 A 
ATOM     15  C   UNK d   0      -9.355  -7.755  16.447  0.00  0.00     0.042 A 
ATOM     16  H   UNK d   0      -7.404  -7.058  17.188  0.00  0.00     0.166 HD
ATOM     17  C   UNK d   0     -10.172  -6.612  16.338  0.00  0.00     0.062 C 
ATOM     18  C   UNK d   0      -9.885  -9.006  16.079  0.00  0.00    -0.013 A 
ATOM     19  C   UNK d   0     -10.341  -5.584  17.230  0.00  0.00     0.067 A 
ATOM     20  N   UNK d   0      -9.490  -5.529  18.257  0.00  0.00    -0.248 NA
ATOM     21  C   UNK d   0     -11.265  -4.472  17.380  0.00  0.00    -0.011 A 
ATOM     22  C   UNK d   0      -9.791  -4.462  19.069  0.00  0.00     0.066 A 
ATOM     23  C   UNK d   0      -8.958  -4.263  20.159  0.00  0.00     0.062 C 
ATOM     24  C   UNK d   0     -10.940  -3.822  18.460  0.00  0.00    -0.020 A 
ATOM     25  C   UNK d   0      -7.788  -4.965  20.488  0.00  0.00     0.041 A 
ATOM     26  N   UNK d   0      -7.483  -6.266  20.415  0.00  0.00    -0.355 N 
ATOM     27  C   UNK d   0      -6.679  -4.239  20.973  0.00  0.00    -0.022 A 
ATOM     28  C   UNK d   0      -6.214  -6.394  20.835  0.00  0.00     0.042 A 
ATOM     29  H   UNK d   0      -8.166  -7.092  20.096  0.00  0.00     0.166 HD
ATOM     30  C   UNK d   0      -5.392  -7.525  20.958  0.00  0.00     0.062 C 
ATOM     31  C   UNK d   0      -5.679  -5.135  21.195  0.00  0.00    -0.013 A 
ATOM     32  C   UNK d   0      -5.288  -8.604  20.094  0.00  0.00     0.066 A 
BRANCH   8  33
ATOM     33  C   UNK d   0      -4.213 -11.739  18.501  0.00  0.00     0.151 C 
BRANCH  33  34
ATOM     34  C   UNK d   0      -4.756 -12.907  19.217  0.00  0.00     0.143 C 
ATOM     35  O   UNK d   0      -5.970 -13.007  19.444  0.00  0.00    -0.650 OA
BRANCH  34  36
ATOM     36  O   UNK d   0      -3.899 -13.898  19.638  0.00  0.00    -0.776 OA
ATOM     37  H   UNK d   0      -3.186 -14.291  19.008  0.00  0.00     0.167 HD
ENDBRANCH  34  36
ENDBRANCH  33  34
ENDBRANCH   8  33
BRANCH  31  38
ATOM     38  C   UNK d   0      -4.292  -4.816  21.705  0.00  0.00     0.151 C 
BRANCH  38  39
ATOM     39  C   UNK d   0      -4.176  -4.956  23.141  0.00  0.00     0.143 C 
ATOM     40  O   UNK d   0      -3.077  -5.057  23.713  0.00  0.00    -0.650 OA
BRANCH  39  41
ATOM     41  O   UNK d   0      -5.330  -4.979  23.923  0.00  0.00    -0.776 OA
ATOM     42  H   UNK d   0      -5.210  -4.815  24.928  0.00  0.00     0.167 HD
ENDBRANCH  39  41
ENDBRANCH  38  39
ENDBRANCH  31  38
BRANCH  27  43
ATOM     43  C   UNK d   0      -6.540  -2.759  21.230  0.00  0.00     0.052 C 
BRANCH  43  44
ATOM     44  C   UNK d   0      -6.956  -2.357  22.608  0.00  0.00     0.115 C 
BRANCH  44  45
ATOM     45  C   UNK d   0      -5.853  -1.527  23.159  0.00  0.00     0.139 C 
ATOM     46  O   UNK d   0      -5.593  -0.437  22.593  0.00  0.00    -0.650 OA
BRANCH  45  47
ATOM     47  O   UNK d   0      -5.116  -1.902  24.261  0.00  0.00    -0.776 OA
ATOM     48  H   UNK d   0      -4.297  -2.529  24.201  0.00  0.00     0.167 HD
ENDBRANCH  45  47
ENDBRANCH  44  45
ENDBRANCH  43  44
ENDBRANCH  27  43
BRANCH  24  49
ATOM     49  C   UNK d   0     -11.591  -2.603  18.968  0.00  0.00     0.052 C 
BRANCH  49  50
ATOM     50  C   UNK d   0     -11.048  -1.386  18.264  0.00  0.00     0.115 C 
BRANCH  50  51
ATOM     51  C   UNK d   0      -9.648  -1.419  17.864  0.00  0.00     0.139 C 
ATOM     52  O   UNK d   0      -8.712  -1.153  18.655  0.00  0.00    -0.650 OA
BRANCH  51  53
ATOM     53  O   UNK d   0      -9.314  -1.753  16.561  0.00  0.00    -0.776 OA
ATOM     54  H   UNK d   0      -9.861  -2.455  16.095  0.00  0.00     0.167 HD
ENDBRANCH  51  53
ENDBRANCH  50  51
ENDBRANCH  49  50
ENDBRANCH  24  49
BRANCH  21  55
ATOM     55  C   UNK d   0     -12.374  -4.173  16.425  0.00  0.00     0.151 C 
BRANCH  55  56
ATOM     56  C   UNK d   0     -13.607  -4.898  16.767  0.00  0.00     0.143 C 
ATOM     57  O   UNK d   0     -14.488  -4.419  17.508  0.00  0.00    -0.650 OA
BRANCH  56  58
ATOM     58  O   UNK d   0     -13.780  -6.173  16.232  0.00  0.00    -0.776 OA
ATOM     59  H   UNK d   0     -12.919  -6.747  16.184  0.00  0.00     0.167 HD
ENDBRANCH  56  58
ENDBRANCH  55  56
ENDBRANCH  21  55
BRANCH  18  60
ATOM     60  C   UNK d   0     -11.261  -9.353  15.565  0.00  0.00     0.151 C 
BRANCH  60  61
ATOM     61  C   UNK d   0     -11.857 -10.241  16.575  0.00  0.00     0.143 C 
ATOM     62  O   UNK d   0     -12.399 -11.329  16.380  0.00  0.00    -0.650 OA
BRANCH  61  63
ATOM     63  O   UNK d   0     -11.787  -9.769  17.908  0.00  0.00    -0.776 OA
ATOM     64  H   UNK d   0     -11.405 -10.341  18.641  0.00  0.00     0.167 HD
ENDBRANCH  61  63
ENDBRANCH  60  61
ENDBRANCH  18  60
BRANCH  14  65
ATOM     65  C   UNK d   0      -9.008 -11.357  15.909  0.00  0.00     0.052 C 
BRANCH  65  66
ATOM     66  C   UNK d   0      -8.350 -11.687  14.617  0.00  0.00     0.115 C 
BRANCH  66  67
ATOM     67  C   UNK d   0      -7.991 -13.047  14.327  0.00  0.00     0.139 C 
ATOM     68  O   UNK d   0      -8.242 -13.512  13.155  0.00  0.00    -0.650 OA
BRANCH  67  69
ATOM     69  O   UNK d   0      -7.384 -13.969  15.179  0.00  0.00    -0.776 OA
ATOM     70  H   UNK d   0      -6.473 -13.687  15.568  0.00  0.00     0.167 HD
ENDBRANCH  67  69
ENDBRANCH  66  67
ENDBRANCH  65  66
ENDBRANCH  14  65
ENDBRANCH   6   7
ENDBRANCH   5   6
ENDBRANCH   2   5
TORSDOF 28
ENDMDL
MODEL 12
REMARK VINA RESULT:      -9.0      1.940      3.583
REMARK  28 active torsions:
REMARK  status: ('A' for Active; 'I' for Inactive)
REMARK    1  A    between atoms: C_2  and  O_3 
REMARK    2  A    between atoms: C_2  and  C_4 
REMARK    3  A    between atoms: C_4  and  C_5 
REMARK    4  A    between atoms: C_5  and  C_6 
REMARK    5  A    between atoms: C_7  and  C_8 
REMARK    6  A    between atoms: C_8  and  C_9 
REMARK    7  A    between atoms: C_9  and  O_11 
REMARK    8  A    between atoms: C_28  and  C_29 
REMARK    9  A    between atoms: C_29  and  C_30 
REMARK   10  A    between atoms: C_30  and  O_32 
REMARK   11  A    between atoms: C_33  and  C_34 
REMARK   12  A    between atoms: C_34  and  C_35 
REMARK   13  A    between atoms: C_35  and  C_36 
REMARK   14  A    between atoms: C_36  and  O_38 
REMARK   15  A    between atoms: C_39  and  C_40 
REMARK   16  A    between atoms: C_40  and  C_41 
REMARK   17  A    between atoms: C_41  and  C_42 
REMARK   18  A    between atoms: C_42  and  O_44 
REMARK   19  A    between atoms: C_45  and  C_46 
REMARK   20  A    between atoms: C_46  and  C_47 
REMARK   21  A    between atoms: C_47  and  O_49 
REMARK   22  A    between atoms: C_50  and  C_51 
REMARK   23  A    between atoms: C_51  and  C_52 
REMARK   24  A    between atoms: C_52  and  O_54 
REMARK   25  A    between atoms: C_55  and  C_56 
REMARK   26  A    between atoms: C_56  and  C_57 
REMARK   27  A    between atoms: C_57  and  C_58 
REMARK   28  A    between atoms: C_58  and  O_60 
ROOT
ATOM      1  O   UNK d   0     -10.750  -9.343  15.690  0.00  0.00    -0.650 OA
ATOM      2  C   UNK d   0     -11.474  -8.330  15.562  0.00  0.00     0.139 C 
ENDROOT
BRANCH   2   3
ATOM      3  O   UNK d   0     -12.772  -8.478  15.136  0.00  0.00    -0.776 OA
ATOM      4  H   UNK d   0     -13.515  -8.738  15.787  0.00  0.00     0.167 HD
ENDBRANCH   2   3
BRANCH   2   5
ATOM      5  C   UNK d   0     -10.929  -6.977  15.871  0.00  0.00     0.115 C 
BRANCH   5   6
ATOM      6  C   UNK d   0     -11.137  -6.655  17.326  0.00  0.00     0.052 C 
BRANCH   6   7
ATOM      7  C   UNK d   0      -9.845  -6.342  18.042  0.00  0.00    -0.020 A 
ATOM      8  C   UNK d   0      -9.342  -5.162  18.302  0.00  0.00    -0.011 A 
ATOM      9  C   UNK d   0      -8.082  -5.360  19.000  0.00  0.00     0.067 A 
ATOM     10  C   UNK d   0      -7.093  -4.534  19.556  0.00  0.00     0.062 C 
ATOM     11  N   UNK d   0      -7.893  -6.691  19.116  0.00  0.00    -0.248 NA
ATOM     12  C   UNK d   0      -6.076  -4.909  20.441  0.00  0.00     0.041 A 
ATOM     13  N   UNK d   0      -5.265  -5.984  20.455  0.00  0.00    -0.355 N 
ATOM     14  C   UNK d   0      -5.826  -4.108  21.570  0.00  0.00    -0.022 A 
ATOM     15  C   UNK d   0      -4.513  -5.889  21.568  0.00  0.00     0.042 A 
ATOM     16  H   UNK d   0      -5.212  -6.784  19.684  0.00  0.00     0.166 HD
ATOM     17  C   UNK d   0      -3.507  -6.742  22.066  0.00  0.00     0.062 C 
ATOM     18  C   UNK d   0      -4.837  -4.726  22.293  0.00  0.00    -0.013 A 
ATOM     19  C   UNK d   0      -3.505  -8.110  22.159  0.00  0.00     0.067 A 
ATOM     20  N   UNK d   0      -4.484  -8.761  21.526  0.00  0.00    -0.248 NA
ATOM     21  C   UNK d   0      -2.680  -9.111  22.815  0.00  0.00    -0.011 A 
ATOM     22  C   UNK d   0      -4.360 -10.115  21.721  0.00  0.00     0.066 A 
ATOM     23  C   UNK d   0      -5.294 -10.917  21.083  0.00  0.00     0.062 C 
ATOM     24  C   UNK d   0      -3.188 -10.282  22.558  0.00  0.00    -0.020 A 
ATOM     25  C   UNK d   0      -6.300 -10.522  20.188  0.00  0.00     0.041 A 
ATOM     26  N   UNK d   0      -7.117  -9.462  20.182  0.00  0.00    -0.355 N 
ATOM     27  C   UNK d   0      -6.547 -11.325  19.053  0.00  0.00    -0.022 A 
ATOM     28  C   UNK d   0      -7.874  -9.558  19.078  0.00  0.00     0.042 A 
ATOM     29  H   UNK d   0      -7.176  -8.664  20.963  0.00  0.00     0.166 HD
ATOM     30  C   UNK d   0      -8.884  -8.723  18.575  0.00  0.00     0.062 C 
ATOM     31  C   UNK d   0      -7.541 -10.722  18.345  0.00  0.00    -0.013 A 
ATOM     32  C   UNK d   0      -8.919  -7.338  18.561  0.00  0.00     0.066 A 
BRANCH   8  33
ATOM     33  C   UNK d   0      -9.928  -3.854  17.955  0.00  0.00     0.151 C 
BRANCH  33  34
ATOM     34  C   UNK d   0      -9.367  -3.290  16.714  0.00  0.00     0.143 C 
ATOM     35  O   UNK d   0      -9.317  -2.064  16.538  0.00  0.00    -0.650 OA
BRANCH  34  36
ATOM     36  O   UNK d   0      -8.896  -4.138  15.739  0.00  0.00    -0.776 OA
ATOM     37  H   UNK d   0      -9.512  -4.828  15.288  0.00  0.00     0.167 HD
ENDBRANCH  34  36
ENDBRANCH  33  34
ENDBRANCH   8  33
BRANCH  31  38
ATOM     38  C   UNK d   0      -8.131 -11.212  17.043  0.00  0.00     0.151 C 
BRANCH  38  39
ATOM     39  C   UNK d   0      -7.429 -10.708  15.883  0.00  0.00     0.143 C 
ATOM     40  O   UNK d   0      -6.666 -11.419  15.206  0.00  0.00    -0.650 OA
BRANCH  39  41
ATOM     41  O   UNK d   0      -7.604  -9.379  15.498  0.00  0.00    -0.776 OA
ATOM     42  H   UNK d   0      -8.314  -9.196  14.781  0.00  0.00     0.167 HD
ENDBRANCH  39  41
ENDBRANCH  38  39
ENDBRANCH  31  38
BRANCH  27  43
ATOM     43  C   UNK d   0      -5.889 -12.614  18.630  0.00  0.00     0.052 C 
BRANCH  43  44
ATOM     44  C   UNK d   0      -4.611 -12.409  17.884  0.00  0.00     0.115 C 
BRANCH  44  45
ATOM     45  C   UNK d   0      -3.551 -13.107  18.657  0.00  0.00     0.139 C 
ATOM     46  O   UNK d   0      -2.354 -12.900  18.340  0.00  0.00    -0.650 OA
BRANCH  45  47
ATOM     47  O   UNK d   0      -3.829 -13.960  19.703  0.00  0.00    -0.776 OA
ATOM     48  H   UNK d   0      -3.565 -14.959  19.696  0.00  0.00     0.167 HD
ENDBRANCH  45  47
ENDBRANCH  44  45
ENDBRANCH  43  44
ENDBRANCH  27  43
BRANCH  24  49
ATOM     49  C   UNK d   0      -2.645 -11.579  22.995  0.00  0.00     0.052 C 
BRANCH  49  50
ATOM     50  C   UNK d   0      -2.838 -11.755  24.480  0.00  0.00     0.115 C 
BRANCH  50  51
ATOM     51  C   UNK d   0      -4.170 -12.122  24.938  0.00  0.00     0.139 C 
ATOM     52  O   UNK d   0      -4.631 -11.752  26.044  0.00  0.00    -0.650 OA
BRANCH  51  53
ATOM     53  O   UNK d   0      -4.978 -12.915  24.137  0.00  0.00    -0.776 OA
ATOM     54  H   UNK d   0      -5.953 -12.989  24.369  0.00  0.00     0.167 HD
ENDBRANCH  51  53
ENDBRANCH  50  51
ENDBRANCH  49  50
ENDBRANCH  24  49
BRANCH  21  55
ATOM     55  C   UNK d   0      -1.468  -8.793  23.626  0.00  0.00     0.151 C 
BRANCH  55  56
ATOM     56  C   UNK d   0      -1.123  -7.365  23.566  0.00  0.00     0.143 C 
ATOM     57  O   UNK d   0      -0.437  -6.874  22.647  0.00  0.00    -0.650 OA
BRANCH  56  58
ATOM     58  O   UNK d   0      -1.591  -6.540  24.587  0.00  0.00    -0.776 OA
ATOM     59  H   UNK d   0      -1.546  -6.952  25.537  0.00  0.00     0.167 HD
ENDBRANCH  56  58
ENDBRANCH  55  56
ENDBRANCH  21  55
BRANCH  18  60
ATOM     60  C   UNK d   0      -4.263  -4.211  23.590  0.00  0.00     0.151 C 
BRANCH  60  61
ATOM     61  C   UNK d   0      -3.052  -3.461  23.226  0.00  0.00     0.143 C 
ATOM     62  O   UNK d   0      -1.895  -3.883  23.205  0.00  0.00    -0.650 OA
BRANCH  61  63
ATOM     63  O   UNK d   0      -3.266  -2.109  22.864  0.00  0.00    -0.776 OA
ATOM     64  H   UNK d   0      -4.195  -1.744  22.749  0.00  0.00     0.167 HD
ENDBRANCH  61  63
ENDBRANCH  60  61
ENDBRANCH  18  60
BRANCH  14  65
ATOM     65  C   UNK d   0      -6.377  -2.766  21.962  0.00  0.00     0.052 C 
BRANCH  65  66
ATOM     66  C   UNK d   0      -7.608  -2.862  22.792  0.00  0.00     0.115 C 
BRANCH  66  67
ATOM     67  C   UNK d   0      -7.546  -2.557  24.194  0.00  0.00     0.139 C 
ATOM     68  O   UNK d   0      -7.172  -3.481  25.007  0.00  0.00    -0.650 OA
BRANCH  67  69
ATOM     69  O   UNK d   0      -7.849  -1.348  24.818  0.00  0.00    -0.776 OA
ATOM     70  H   UNK d   0      -8.313  -1.421  25.735  0.00  0.00     0.167 HD
ENDBRANCH  67  69
ENDBRANCH  66  67
ENDBRANCH  65  66
ENDBRANCH  14  65
ENDBRANCH   6   7
ENDBRANCH   5   6
ENDBRANCH   2   5
TORSDOF 28
ENDMDL
MODEL 13
REMARK VINA RESULT:      -9.0      1.614      7.846
REMARK  28 active torsions:
REMARK  status: ('A' for Active; 'I' for Inactive)
REMARK    1  A    between atoms: C_2  and  O_3 
REMARK    2  A    between atoms: C_2  and  C_4 
REMARK    3  A    between atoms: C_4  and  C_5 
REMARK    4  A    between atoms: C_5  and  C_6 
REMARK    5  A    between atoms: C_7  and  C_8 
REMARK    6  A    between atoms: C_8  and  C_9 
REMARK    7  A    between atoms: C_9  and  O_11 
REMARK    8  A    between atoms: C_28  and  C_29 
REMARK    9  A    between atoms: C_29  and  C_30 
REMARK   10  A    between atoms: C_30  and  O_32 
REMARK   11  A    between atoms: C_33  and  C_34 
REMARK   12  A    between atoms: C_34  and  C_35 
REMARK   13  A    between atoms: C_35  and  C_36 
REMARK   14  A    between atoms: C_36  and  O_38 
REMARK   15  A    between atoms: C_39  and  C_40 
REMARK   16  A    between atoms: C_40  and  C_41 
REMARK   17  A    between atoms: C_41  and  C_42 
REMARK   18  A    between atoms: C_42  and  O_44 
REMARK   19  A    between atoms: C_45  and  C_46 
REMARK   20  A    between atoms: C_46  and  C_47 
REMARK   21  A    between atoms: C_47  and  O_49 
REMARK   22  A    between atoms: C_50  and  C_51 
REMARK   23  A    between atoms: C_51  and  C_52 
REMARK   24  A    between atoms: C_52  and  O_54 
REMARK   25  A    between atoms: C_55  and  C_56 
REMARK   26  A    between atoms: C_56  and  C_57 
REMARK   27  A    between atoms: C_57  and  C_58 
REMARK   28  A    between atoms: C_58  and  O_60 
ROOT
ATOM      1  O   UNK d   0      -6.835  -0.962  23.237  0.00  0.00    -0.650 OA
ATOM      2  C   UNK d   0      -6.337  -1.049  22.092  0.00  0.00     0.139 C 
ENDROOT
BRANCH   2   3
ATOM      3  O   UNK d   0      -6.714  -0.150  21.124  0.00  0.00    -0.776 OA
ATOM      4  H   UNK d   0      -7.262   0.680  21.359  0.00  0.00     0.167 HD
ENDBRANCH   2   3
BRANCH   2   5
ATOM      5  C   UNK d   0      -5.345  -2.119  21.787  0.00  0.00     0.115 C 
BRANCH   5   6
ATOM      6  C   UNK d   0      -5.548  -3.291  22.708  0.00  0.00     0.052 C 
BRANCH   6   7
ATOM      7  C   UNK d   0      -5.290  -4.615  22.029  0.00  0.00    -0.020 A 
ATOM      8  C   UNK d   0      -4.257  -5.404  22.185  0.00  0.00    -0.011 A 
ATOM      9  C   UNK d   0      -4.443  -6.557  21.320  0.00  0.00     0.067 A 
ATOM     10  C   UNK d   0      -3.737  -7.737  21.039  0.00  0.00     0.062 C 
ATOM     11  N   UNK d   0      -5.613  -6.385  20.669  0.00  0.00    -0.248 NA
ATOM     12  C   UNK d   0      -4.214  -8.872  20.376  0.00  0.00     0.041 A 
ATOM     13  N   UNK d   0      -4.974  -9.000  19.272  0.00  0.00    -0.355 N 
ATOM     14  C   UNK d   0      -3.943 -10.142  20.919  0.00  0.00    -0.022 A 
ATOM     15  C   UNK d   0      -5.199 -10.317  19.105  0.00  0.00     0.042 A 
ATOM     16  H   UNK d   0      -5.328  -8.177  18.613  0.00  0.00     0.166 HD
ATOM     17  C   UNK d   0      -5.929 -11.000  18.111  0.00  0.00     0.062 C 
ATOM     18  C   UNK d   0      -4.569 -11.064  20.118  0.00  0.00    -0.013 A 
ATOM     19  C   UNK d   0      -7.164 -10.704  17.592  0.00  0.00     0.067 A 
ATOM     20  N   UNK d   0      -7.682  -9.514  17.905  0.00  0.00    -0.248 NA
ATOM     21  C   UNK d   0      -8.133 -11.384  16.749  0.00  0.00    -0.011 A 
ATOM     22  C   UNK d   0      -8.920  -9.367  17.329  0.00  0.00     0.066 A 
ATOM     23  C   UNK d   0      -9.560  -8.155  17.543  0.00  0.00     0.062 C 
ATOM     24  C   UNK d   0      -9.160 -10.598  16.603  0.00  0.00    -0.020 A 
ATOM     25  C   UNK d   0      -9.058  -7.022  18.201  0.00  0.00     0.041 A 
ATOM     26  N   UNK d   0      -8.315  -6.894  19.307  0.00  0.00    -0.355 N 
ATOM     27  C   UNK d   0      -9.326  -5.748  17.653  0.00  0.00    -0.022 A 
ATOM     28  C   UNK d   0      -8.096  -5.581  19.481  0.00  0.00     0.042 A 
ATOM     29  H   UNK d   0      -7.969  -7.721  19.974  0.00  0.00     0.166 HD
ATOM     30  C   UNK d   0      -7.380  -4.888  20.469  0.00  0.00     0.062 C 
ATOM     31  C   UNK d   0      -8.721  -4.831  18.456  0.00  0.00    -0.013 A 
ATOM     32  C   UNK d   0      -6.172  -5.236  21.052  0.00  0.00     0.066 A 
BRANCH   8  33
ATOM     33  C   UNK d   0      -3.098  -5.180  23.069  0.00  0.00     0.151 C 
BRANCH  33  34
ATOM     34  C   UNK d   0      -2.022  -4.412  22.417  0.00  0.00     0.143 C 
ATOM     35  O   UNK d   0      -1.205  -4.970  21.671  0.00  0.00    -0.650 OA
BRANCH  34  36
ATOM     36  O   UNK d   0      -1.926  -3.059  22.642  0.00  0.00    -0.776 OA
ATOM     37  H   UNK d   0      -2.366  -2.621  23.463  0.00  0.00     0.167 HD
ENDBRANCH  34  36
ENDBRANCH  33  34
ENDBRANCH   8  33
BRANCH  31  38
ATOM     38  C   UNK d   0      -8.723  -3.333  18.258  0.00  0.00     0.151 C 
BRANCH  38  39
ATOM     39  C   UNK d   0      -9.956  -2.711  18.691  0.00  0.00     0.143 C 
ATOM     40  O   UNK d   0     -10.372  -1.646  18.201  0.00  0.00    -0.650 OA
BRANCH  39  41
ATOM     41  O   UNK d   0     -10.715  -3.316  19.692  0.00  0.00    -0.776 OA
ATOM     42  H   UNK d   0     -11.338  -2.706  20.231  0.00  0.00     0.167 HD
ENDBRANCH  39  41
ENDBRANCH  38  39
ENDBRANCH  31  38
BRANCH  27  43
ATOM     43  C   UNK d   0     -10.121  -5.382  16.425  0.00  0.00     0.052 C 
BRANCH  43  44
ATOM     44  C   UNK d   0     -11.513  -5.924  16.438  0.00  0.00     0.115 C 
BRANCH  44  45
ATOM     45  C   UNK d   0     -12.425  -4.751  16.402  0.00  0.00     0.139 C 
ATOM     46  O   UNK d   0     -12.702  -4.182  17.487  0.00  0.00    -0.650 OA
BRANCH  45  47
ATOM     47  O   UNK d   0     -12.970  -4.264  15.233  0.00  0.00    -0.776 OA
ATOM     48  H   UNK d   0     -13.978  -4.064  15.126  0.00  0.00     0.167 HD
ENDBRANCH  45  47
ENDBRANCH  44  45
ENDBRANCH  43  44
ENDBRANCH  27  43
BRANCH  24  49
ATOM     49  C   UNK d   0     -10.358 -10.877  15.792  0.00  0.00     0.052 C 
BRANCH  49  50
ATOM     50  C   UNK d   0     -10.103 -10.538  14.346  0.00  0.00     0.115 C 
BRANCH  50  51
ATOM     51  C   UNK d   0     -10.625 -11.458  13.345  0.00  0.00     0.139 C 
ATOM     52  O   UNK d   0     -11.852 -11.663  13.188  0.00  0.00    -0.650 OA
BRANCH  51  53
ATOM     53  O   UNK d   0      -9.746 -12.149  12.523  0.00  0.00    -0.776 OA
ATOM     54  H   UNK d   0     -10.127 -12.677  11.758  0.00  0.00     0.167 HD
ENDBRANCH  51  53
ENDBRANCH  50  51
ENDBRANCH  49  50
ENDBRANCH  24  49
BRANCH  21  55
ATOM     55  C   UNK d   0      -7.929 -12.747  16.175  0.00  0.00     0.151 C 
BRANCH  55  56
ATOM     56  C   UNK d   0      -7.217 -12.702  14.888  0.00  0.00     0.143 C 
ATOM     57  O   UNK d   0      -6.176 -12.039  14.715  0.00  0.00    -0.650 OA
BRANCH  56  58
ATOM     58  O   UNK d   0      -7.744 -13.440  13.829  0.00  0.00    -0.776 OA
ATOM     59  H   UNK d   0      -8.028 -14.407  14.070  0.00  0.00     0.167 HD
ENDBRANCH  56  58
ENDBRANCH  55  56
ENDBRANCH  21  55
BRANCH  18  60
ATOM     60  C   UNK d   0      -4.547 -12.557  20.339  0.00  0.00     0.151 C 
BRANCH  60  61
ATOM     61  C   UNK d   0      -5.861 -12.900  20.905  0.00  0.00     0.143 C 
ATOM     62  O   UNK d   0      -6.260 -12.670  22.047  0.00  0.00    -0.650 OA
BRANCH  61  63
ATOM     63  O   UNK d   0      -6.743 -13.566  20.020  0.00  0.00    -0.776 OA
ATOM     64  H   UNK d   0      -7.021 -14.517  20.184  0.00  0.00     0.167 HD
ENDBRANCH  61  63
ENDBRANCH  60  61
ENDBRANCH  18  60
BRANCH  14  65
ATOM     65  C   UNK d   0      -3.065 -10.550  22.067  0.00  0.00     0.052 C 
BRANCH  65  66
ATOM     66  C   UNK d   0      -3.762 -10.494  23.380  0.00  0.00     0.115 C 
BRANCH  66  67
ATOM     67  C   UNK d   0      -3.764 -11.648  24.235  0.00  0.00     0.139 C 
ATOM     68  O   UNK d   0      -3.253 -11.541  25.410  0.00  0.00    -0.650 OA
BRANCH  67  69
ATOM     69  O   UNK d   0      -4.264 -12.918  23.953  0.00  0.00    -0.776 OA
ATOM     70  H   UNK d   0      -5.038 -13.239  24.553  0.00  0.00     0.167 HD
ENDBRANCH  67  69
ENDBRANCH  66  67
ENDBRANCH  65  66
ENDBRANCH  14  65
ENDBRANCH   6   7
ENDBRANCH   5   6
ENDBRANCH   2   5
TORSDOF 28
ENDMDL
MODEL 14
REMARK VINA RESULT:      -9.0      1.432      7.721
REMARK  28 active torsions:
REMARK  status: ('A' for Active; 'I' for Inactive)
REMARK    1  A    between atoms: C_2  and  O_3 
REMARK    2  A    between atoms: C_2  and  C_4 
REMARK    3  A    between atoms: C_4  and  C_5 
REMARK    4  A    between atoms: C_5  and  C_6 
REMARK    5  A    between atoms: C_7  and  C_8 
REMARK    6  A    between atoms: C_8  and  C_9 
REMARK    7  A    between atoms: C_9  and  O_11 
REMARK    8  A    between atoms: C_28  and  C_29 
REMARK    9  A    between atoms: C_29  and  C_30 
REMARK   10  A    between atoms: C_30  and  O_32 
REMARK   11  A    between atoms: C_33  and  C_34 
REMARK   12  A    between atoms: C_34  and  C_35 
REMARK   13  A    between atoms: C_35  and  C_36 
REMARK   14  A    between atoms: C_36  and  O_38 
REMARK   15  A    between atoms: C_39  and  C_40 
REMARK   16  A    between atoms: C_40  and  C_41 
REMARK   17  A    between atoms: C_41  and  C_42 
REMARK   18  A    between atoms: C_42  and  O_44 
REMARK   19  A    between atoms: C_45  and  C_46 
REMARK   20  A    between atoms: C_46  and  C_47 
REMARK   21  A    between atoms: C_47  and  O_49 
REMARK   22  A    between atoms: C_50  and  C_51 
REMARK   23  A    between atoms: C_51  and  C_52 
REMARK   24  A    between atoms: C_52  and  O_54 
REMARK   25  A    between atoms: C_55  and  C_56 
REMARK   26  A    between atoms: C_56  and  C_57 
REMARK   27  A    between atoms: C_57  and  C_58 
REMARK   28  A    between atoms: C_58  and  O_60 
ROOT
ATOM      1  O   UNK d   0      -2.284  -7.739  22.632  0.00  0.00    -0.650 OA
ATOM      2  C   UNK d   0      -2.478  -6.515  22.458  0.00  0.00     0.139 C 
ENDROOT
BRANCH   2   3
ATOM      3  O   UNK d   0      -1.490  -5.750  21.887  0.00  0.00    -0.776 OA
ATOM      4  H   UNK d   0      -1.714  -5.015  21.214  0.00  0.00     0.167 HD
ENDBRANCH   2   3
BRANCH   2   5
ATOM      5  C   UNK d   0      -3.771  -5.897  22.869  0.00  0.00     0.115 C 
BRANCH   5   6
ATOM      6  C   UNK d   0      -4.162  -4.819  21.895  0.00  0.00     0.052 C 
BRANCH   6   7
ATOM      7  C   UNK d   0      -5.469  -5.113  21.197  0.00  0.00    -0.020 A 
ATOM      8  C   UNK d   0      -6.590  -4.445  21.289  0.00  0.00    -0.011 A 
ATOM      9  C   UNK d   0      -7.572  -5.106  20.445  0.00  0.00     0.067 A 
ATOM     10  C   UNK d   0      -8.914  -4.891  20.095  0.00  0.00     0.062 C 
ATOM     11  N   UNK d   0      -6.964  -6.170  19.882  0.00  0.00    -0.248 NA
ATOM     12  C   UNK d   0      -9.619  -5.482  19.041  0.00  0.00     0.041 A 
ATOM     13  N   UNK d   0      -9.649  -6.753  18.596  0.00  0.00    -0.355 N 
ATOM     14  C   UNK d   0     -10.420  -4.670  18.218  0.00  0.00    -0.022 A 
ATOM     15  C   UNK d   0     -10.441  -6.766  17.508  0.00  0.00     0.042 A 
ATOM     16  H   UNK d   0      -9.135  -7.627  19.054  0.00  0.00     0.166 HD
ATOM     17  C   UNK d   0     -10.813  -7.830  16.662  0.00  0.00     0.062 C 
ATOM     18  C   UNK d   0     -10.942  -5.478  17.239  0.00  0.00    -0.013 A 
ATOM     19  C   UNK d   0     -10.030  -8.821  16.126  0.00  0.00     0.067 A 
ATOM     20  N   UNK d   0      -8.789  -8.936  16.605  0.00  0.00    -0.248 NA
ATOM     21  C   UNK d   0     -10.190  -9.839  15.101  0.00  0.00    -0.011 A 
ATOM     22  C   UNK d   0      -8.125  -9.954  15.967  0.00  0.00     0.066 A 
ATOM     23  C   UNK d   0      -6.830 -10.209  16.395  0.00  0.00     0.062 C 
ATOM     24  C   UNK d   0      -9.070 -10.496  15.010  0.00  0.00    -0.020 A 
ATOM     25  C   UNK d   0      -6.144  -9.613  17.464  0.00  0.00     0.041 A 
ATOM     26  N   UNK d   0      -6.103  -8.347  17.897  0.00  0.00    -0.355 N 
ATOM     27  C   UNK d   0      -5.345 -10.430  18.293  0.00  0.00    -0.022 A 
ATOM     28  C   UNK d   0      -5.307  -8.330  18.978  0.00  0.00     0.042 A 
ATOM     29  H   UNK d   0      -6.611  -7.468  17.430  0.00  0.00     0.166 HD
ATOM     30  C   UNK d   0      -4.921  -7.278  19.823  0.00  0.00     0.062 C 
ATOM     31  C   UNK d   0      -4.812  -9.626  19.253  0.00  0.00    -0.013 A 
ATOM     32  C   UNK d   0      -5.696  -6.230  20.293  0.00  0.00     0.066 A 
BRANCH   8  33
ATOM     33  C   UNK d   0      -6.838  -3.239  22.101  0.00  0.00     0.151 C 
BRANCH  33  34
ATOM     34  C   UNK d   0      -6.539  -1.991  21.376  0.00  0.00     0.143 C 
ATOM     35  O   UNK d   0      -5.895  -1.081  21.916  0.00  0.00    -0.650 OA
BRANCH  34  36
ATOM     36  O   UNK d   0      -6.983  -1.838  20.083  0.00  0.00    -0.776 OA
ATOM     37  H   UNK d   0      -6.525  -1.184  19.435  0.00  0.00     0.167 HD
ENDBRANCH  34  36
ENDBRANCH  33  34
ENDBRANCH   8  33
BRANCH  31  38
ATOM     38  C   UNK d   0      -3.897 -10.063  20.374  0.00  0.00     0.151 C 
BRANCH  38  39
ATOM     39  C   UNK d   0      -4.591 -10.224  21.634  0.00  0.00     0.143 C 
ATOM     40  O   UNK d   0      -5.828 -10.341  21.703  0.00  0.00    -0.650 OA
BRANCH  39  41
ATOM     41  O   UNK d   0      -3.860 -10.252  22.822  0.00  0.00    -0.776 OA
ATOM     42  H   UNK d   0      -2.896  -9.907  22.778  0.00  0.00     0.167 HD
ENDBRANCH  39  41
ENDBRANCH  38  39
ENDBRANCH  31  38
BRANCH  27  43
ATOM     43  C   UNK d   0      -5.074 -11.911  18.204  0.00  0.00     0.052 C 
BRANCH  43  44
ATOM     44  C   UNK d   0      -6.146 -12.746  18.827  0.00  0.00     0.115 C 
BRANCH  44  45
ATOM     45  C   UNK d   0      -5.578 -13.295  20.086  0.00  0.00     0.139 C 
ATOM     46  O   UNK d   0      -4.387 -13.692  20.074  0.00  0.00    -0.650 OA
BRANCH  45  47
ATOM     47  O   UNK d   0      -6.301 -13.380  21.256  0.00  0.00    -0.776 OA
ATOM     48  H   UNK d   0      -5.861 -13.552  22.175  0.00  0.00     0.167 HD
ENDBRANCH  45  47
ENDBRANCH  44  45
ENDBRANCH  43  44
ENDBRANCH  27  43
BRANCH  24  49
ATOM     49  C   UNK d   0      -8.804 -11.640  14.121  0.00  0.00     0.052 C 
BRANCH  49  50
ATOM     50  C   UNK d   0      -9.030 -12.937  14.854  0.00  0.00     0.115 C 
BRANCH  50  51
ATOM     51  C   UNK d   0      -7.895 -13.843  14.970  0.00  0.00     0.139 C 
ATOM     52  O   UNK d   0      -8.027 -15.067  15.204  0.00  0.00    -0.650 OA
BRANCH  51  53
ATOM     53  O   UNK d   0      -6.607 -13.351  14.821  0.00  0.00    -0.776 OA
ATOM     54  H   UNK d   0      -6.493 -12.381  14.583  0.00  0.00     0.167 HD
ENDBRANCH  51  53
ENDBRANCH  50  51
ENDBRANCH  49  50
ENDBRANCH  24  49
BRANCH  21  55
ATOM     55  C   UNK d   0     -11.446 -10.052  14.324  0.00  0.00     0.151 C 
BRANCH  55  56
ATOM     56  C   UNK d   0     -12.305 -11.079  14.933  0.00  0.00     0.143 C 
ATOM     57  O   UNK d   0     -12.290 -11.334  16.153  0.00  0.00    -0.650 OA
BRANCH  56  58
ATOM     58  O   UNK d   0     -13.165 -11.787  14.095  0.00  0.00    -0.776 OA
ATOM     59  H   UNK d   0     -14.164 -11.523  14.172  0.00  0.00     0.167 HD
ENDBRANCH  56  58
ENDBRANCH  55  56
ENDBRANCH  21  55
BRANCH  18  60
ATOM     60  C   UNK d   0     -11.857  -5.014  16.132  0.00  0.00     0.151 C 
BRANCH  60  61
ATOM     61  C   UNK d   0     -13.226  -5.177  16.644  0.00  0.00     0.143 C 
ATOM     62  O   UNK d   0     -13.567  -5.739  17.685  0.00  0.00    -0.650 OA
BRANCH  61  63
ATOM     63  O   UNK d   0     -14.243  -4.616  15.834  0.00  0.00    -0.776 OA
ATOM     64  H   UNK d   0     -14.471  -5.013  14.940  0.00  0.00     0.167 HD
ENDBRANCH  61  63
ENDBRANCH  60  61
ENDBRANCH  18  60
BRANCH  14  65
ATOM     65  C   UNK d   0     -10.803  -3.222  18.343  0.00  0.00     0.052 C 
BRANCH  65  66
ATOM     66  C   UNK d   0      -9.802  -2.302  17.740  0.00  0.00     0.115 C 
BRANCH  66  67
ATOM     67  C   UNK d   0      -9.786  -0.918  18.123  0.00  0.00     0.139 C 
ATOM     68  O   UNK d   0      -8.658  -0.302  18.153  0.00  0.00    -0.650 OA
BRANCH  67  69
ATOM     69  O   UNK d   0     -10.871  -0.120  18.483  0.00  0.00    -0.776 OA
ATOM     70  H   UNK d   0     -11.622  -0.593  19.006  0.00  0.00     0.167 HD
ENDBRANCH  67  69
ENDBRANCH  66  67
ENDBRANCH  65  66
ENDBRANCH  14  65
ENDBRANCH   6   7
ENDBRANCH   5   6
ENDBRANCH   2   5
TORSDOF 28
ENDMDL
MODEL 15
REMARK VINA RESULT:      -8.9      1.792      4.799
REMARK  28 active torsions:
REMARK  status: ('A' for Active; 'I' for Inactive)
REMARK    1  A    between atoms: C_2  and  O_3 
REMARK    2  A    between atoms: C_2  and  C_4 
REMARK    3  A    between atoms: C_4  and  C_5 
REMARK    4  A    between atoms: C_5  and  C_6 
REMARK    5  A    between atoms: C_7  and  C_8 
REMARK    6  A    between atoms: C_8  and  C_9 
REMARK    7  A    between atoms: C_9  and  O_11 
REMARK    8  A    between atoms: C_28  and  C_29 
REMARK    9  A    between atoms: C_29  and  C_30 
REMARK   10  A    between atoms: C_30  and  O_32 
REMARK   11  A    between atoms: C_33  and  C_34 
REMARK   12  A    between atoms: C_34  and  C_35 
REMARK   13  A    between atoms: C_35  and  C_36 
REMARK   14  A    between atoms: C_36  and  O_38 
REMARK   15  A    between atoms: C_39  and  C_40 
REMARK   16  A    between atoms: C_40  and  C_41 
REMARK   17  A    between atoms: C_41  and  C_42 
REMARK   18  A    between atoms: C_42  and  O_44 
REMARK   19  A    between atoms: C_45  and  C_46 
REMARK   20  A    between atoms: C_46  and  C_47 
REMARK   21  A    between atoms: C_47  and  O_49 
REMARK   22  A    between atoms: C_50  and  C_51 
REMARK   23  A    between atoms: C_51  and  C_52 
REMARK   24  A    between atoms: C_52  and  O_54 
REMARK   25  A    between atoms: C_55  and  C_56 
REMARK   26  A    between atoms: C_56  and  C_57 
REMARK   27  A    between atoms: C_57  and  C_58 
REMARK   28  A    between atoms: C_58  and  O_60 
ROOT
ATOM      1  O   UNK d   0     -12.435 -12.044  14.335  0.00  0.00    -0.650 OA
ATOM      2  C   UNK d   0     -11.270 -11.670  14.600  0.00  0.00     0.139 C 
ENDROOT
BRANCH   2   3
ATOM      3  O   UNK d   0     -10.296 -12.612  14.828  0.00  0.00    -0.776 OA
ATOM      4  H   UNK d   0      -9.702 -12.951  14.069  0.00  0.00     0.167 HD
ENDBRANCH   2   3
BRANCH   2   5
ATOM      5  C   UNK d   0     -10.948 -10.217  14.667  0.00  0.00     0.115 C 
BRANCH   5   6
ATOM      6  C   UNK d   0     -11.519  -9.617  15.923  0.00  0.00     0.052 C 
BRANCH   6   7
ATOM      7  C   UNK d   0     -10.548  -8.694  16.620  0.00  0.00    -0.020 A 
ATOM      8  C   UNK d   0     -10.584  -7.387  16.670  0.00  0.00    -0.011 A 
ATOM      9  C   UNK d   0      -9.439  -6.940  17.445  0.00  0.00     0.067 A 
ATOM     10  C   UNK d   0      -8.927  -5.706  17.874  0.00  0.00     0.062 C 
ATOM     11  N   UNK d   0      -8.756  -8.041  17.823  0.00  0.00    -0.248 NA
ATOM     12  C   UNK d   0      -7.955  -5.487  18.857  0.00  0.00     0.041 A 
ATOM     13  N   UNK d   0      -6.794  -6.120  19.111  0.00  0.00    -0.355 N 
ATOM     14  C   UNK d   0      -8.174  -4.486  19.820  0.00  0.00    -0.022 A 
ATOM     15  C   UNK d   0      -6.275  -5.551  20.216  0.00  0.00     0.042 A 
ATOM     16  H   UNK d   0      -6.340  -6.939  18.510  0.00  0.00     0.166 HD
ATOM     17  C   UNK d   0      -5.080  -5.828  20.910  0.00  0.00     0.062 C 
ATOM     18  C   UNK d   0      -7.112  -4.523  20.690  0.00  0.00    -0.013 A 
ATOM     19  C   UNK d   0      -4.550  -7.043  21.264  0.00  0.00     0.067 A 
ATOM     20  N   UNK d   0      -5.112  -8.128  20.726  0.00  0.00    -0.248 NA
ATOM     21  C   UNK d   0      -3.480  -7.502  22.134  0.00  0.00    -0.011 A 
ATOM     22  C   UNK d   0      -4.489  -9.263  21.182  0.00  0.00     0.066 A 
ATOM     23  C   UNK d   0      -4.951 -10.468  20.672  0.00  0.00     0.062 C 
ATOM     24  C   UNK d   0      -3.452  -8.802  22.085  0.00  0.00    -0.020 A 
ATOM     25  C   UNK d   0      -5.919 -10.665  19.676  0.00  0.00     0.041 A 
ATOM     26  N   UNK d   0      -7.081 -10.046  19.432  0.00  0.00    -0.355 N 
ATOM     27  C   UNK d   0      -5.696 -11.667  18.706  0.00  0.00    -0.022 A 
ATOM     28  C   UNK d   0      -7.605 -10.617  18.336  0.00  0.00     0.042 A 
ATOM     29  H   UNK d   0      -7.540  -9.230  20.043  0.00  0.00     0.166 HD
ATOM     30  C   UNK d   0      -8.796 -10.358  17.640  0.00  0.00     0.062 C 
ATOM     31  C   UNK d   0      -6.757 -11.643  17.854  0.00  0.00    -0.013 A 
ATOM     32  C   UNK d   0      -9.372  -9.129  17.359  0.00  0.00     0.066 A 
BRANCH   8  33
ATOM     33  C   UNK d   0     -11.593  -6.506  16.053  0.00  0.00     0.151 C 
BRANCH  33  34
ATOM     34  C   UNK d   0     -12.567  -5.984  17.029  0.00  0.00     0.143 C 
ATOM     35  O   UNK d   0     -13.489  -6.696  17.450  0.00  0.00    -0.650 OA
BRANCH  34  36
ATOM     36  O   UNK d   0     -12.448  -4.688  17.474  0.00  0.00    -0.776 OA
ATOM     37  H   UNK d   0     -12.768  -4.414  18.414  0.00  0.00     0.167 HD
ENDBRANCH  34  36
ENDBRANCH  33  34
ENDBRANCH   8  33
BRANCH  31  38
ATOM     38  C   UNK d   0      -6.951 -12.531  16.647  0.00  0.00     0.151 C 
BRANCH  38  39
ATOM     39  C   UNK d   0      -6.748 -11.830  15.397  0.00  0.00     0.143 C 
ATOM     40  O   UNK d   0      -7.466 -12.025  14.400  0.00  0.00    -0.650 OA
BRANCH  39  41
ATOM     41  O   UNK d   0      -5.714 -10.900  15.291  0.00  0.00    -0.776 OA
ATOM     42  H   UNK d   0      -5.263 -10.813  14.375  0.00  0.00     0.167 HD
ENDBRANCH  39  41
ENDBRANCH  38  39
ENDBRANCH  31  38
BRANCH  27  43
ATOM     43  C   UNK d   0      -4.539 -12.624  18.567  0.00  0.00     0.052 C 
BRANCH  43  44
ATOM     44  C   UNK d   0      -4.450 -13.611  19.685  0.00  0.00     0.115 C 
BRANCH  44  45
ATOM     45  C   UNK d   0      -3.089 -14.204  19.621  0.00  0.00     0.139 C 
ATOM     46  O   UNK d   0      -2.312 -14.010  20.588  0.00  0.00    -0.650 OA
BRANCH  45  47
ATOM     47  O   UNK d   0      -2.652 -14.958  18.553  0.00  0.00    -0.776 OA
ATOM     48  H   UNK d   0      -3.170 -15.019  17.661  0.00  0.00     0.167 HD
ENDBRANCH  45  47
ENDBRANCH  44  45
ENDBRANCH  43  44
ENDBRANCH  27  43
BRANCH  24  49
ATOM     49  C   UNK d   0      -2.497  -9.678  22.786  0.00  0.00     0.052 C 
BRANCH  49  50
ATOM     50  C   UNK d   0      -3.004 -11.097  22.808  0.00  0.00     0.115 C 
BRANCH  50  51
ATOM     51  C   UNK d   0      -3.659 -11.550  24.028  0.00  0.00     0.139 C 
ATOM     52  O   UNK d   0      -3.152 -11.397  25.164  0.00  0.00    -0.650 OA
BRANCH  51  53
ATOM     53  O   UNK d   0      -4.891 -12.180  23.952  0.00  0.00    -0.776 OA
ATOM     54  H   UNK d   0      -5.002 -12.930  23.292  0.00  0.00     0.167 HD
ENDBRANCH  51  53
ENDBRANCH  50  51
ENDBRANCH  49  50
ENDBRANCH  24  49
BRANCH  21  55
ATOM     55  C   UNK d   0      -2.594  -6.593  22.920  0.00  0.00     0.151 C 
BRANCH  55  56
ATOM     56  C   UNK d   0      -1.332  -6.310  22.219  0.00  0.00     0.143 C 
ATOM     57  O   UNK d   0      -0.258  -6.873  22.509  0.00  0.00    -0.650 OA
BRANCH  56  58
ATOM     58  O   UNK d   0      -1.358  -5.371  21.189  0.00  0.00    -0.776 OA
ATOM     59  H   UNK d   0      -2.075  -4.630  21.292  0.00  0.00     0.167 HD
ENDBRANCH  56  58
ENDBRANCH  55  56
ENDBRANCH  21  55
BRANCH  18  60
ATOM     60  C   UNK d   0      -6.943  -3.621  21.887  0.00  0.00     0.151 C 
BRANCH  60  61
ATOM     61  C   UNK d   0      -5.933  -2.624  21.502  0.00  0.00     0.143 C 
ATOM     62  O   UNK d   0      -4.942  -2.283  22.149  0.00  0.00    -0.650 OA
BRANCH  61  63
ATOM     63  O   UNK d   0      -6.145  -2.004  20.247  0.00  0.00    -0.776 OA
ATOM     64  H   UNK d   0      -7.052  -1.656  19.988  0.00  0.00     0.167 HD
ENDBRANCH  61  63
ENDBRANCH  60  61
ENDBRANCH  18  60
BRANCH  14  65
ATOM     65  C   UNK d   0      -9.250  -3.443  19.924  0.00  0.00     0.052 C 
BRANCH  65  66
ATOM     66  C   UNK d   0      -9.654  -2.890  18.603  0.00  0.00     0.115 C 
BRANCH  66  67
ATOM     67  C   UNK d   0      -9.200  -1.586  18.209  0.00  0.00     0.139 C 
ATOM     68  O   UNK d   0      -8.432  -0.936  19.009  0.00  0.00    -0.650 OA
BRANCH  67  69
ATOM     69  O   UNK d   0      -9.492  -0.902  17.029  0.00  0.00    -0.776 OA
ATOM     70  H   UNK d   0      -9.655  -1.490  16.199  0.00  0.00     0.167 HD
ENDBRANCH  67  69
ENDBRANCH  66  67
ENDBRANCH  65  66
ENDBRANCH  14  65
ENDBRANCH   6   7
ENDBRANCH   5   6
ENDBRANCH   2   5
TORSDOF 28
ENDMDL
MODEL 16
REMARK VINA RESULT:      -8.8      1.789      7.947
REMARK  28 active torsions:
REMARK  status: ('A' for Active; 'I' for Inactive)
REMARK    1  A    between atoms: C_2  and  O_3 
REMARK    2  A    between atoms: C_2  and  C_4 
REMARK    3  A    between atoms: C_4  and  C_5 
REMARK    4  A    between atoms: C_5  and  C_6 
REMARK    5  A    between atoms: C_7  and  C_8 
REMARK    6  A    between atoms: C_8  and  C_9 
REMARK    7  A    between atoms: C_9  and  O_11 
REMARK    8  A    between atoms: C_28  and  C_29 
REMARK    9  A    between atoms: C_29  and  C_30 
REMARK   10  A    between atoms: C_30  and  O_32 
REMARK   11  A    between atoms: C_33  and  C_34 
REMARK   12  A    between atoms: C_34  and  C_35 
REMARK   13  A    between atoms: C_35  and  C_36 
REMARK   14  A    between atoms: C_36  and  O_38 
REMARK   15  A    between atoms: C_39  and  C_40 
REMARK   16  A    between atoms: C_40  and  C_41 
REMARK   17  A    between atoms: C_41  and  C_42 
REMARK   18  A    between atoms: C_42  and  O_44 
REMARK   19  A    between atoms: C_45  and  C_46 
REMARK   20  A    between atoms: C_46  and  C_47 
REMARK   21  A    between atoms: C_47  and  O_49 
REMARK   22  A    between atoms: C_50  and  C_51 
REMARK   23  A    between atoms: C_51  and  C_52 
REMARK   24  A    between atoms: C_52  and  O_54 
REMARK   25  A    between atoms: C_55  and  C_56 
REMARK   26  A    between atoms: C_56  and  C_57 
REMARK   27  A    between atoms: C_57  and  C_58 
REMARK   28  A    between atoms: C_58  and  O_60 
ROOT
ATOM      1  O   UNK d   0      -1.656  -3.071  25.558  0.00  0.00    -0.650 OA
ATOM      2  C   UNK d   0      -2.533  -3.704  24.929  0.00  0.00     0.139 C 
ENDROOT
BRANCH   2   3
ATOM      3  O   UNK d   0      -2.273  -4.992  24.526  0.00  0.00    -0.776 OA
ATOM      4  H   UNK d   0      -1.329  -5.283  24.264  0.00  0.00     0.167 HD
ENDBRANCH   2   3
BRANCH   2   5
ATOM      5  C   UNK d   0      -3.843  -3.064  24.622  0.00  0.00     0.115 C 
BRANCH   5   6
ATOM      6  C   UNK d   0      -3.899  -2.670  23.171  0.00  0.00     0.052 C 
BRANCH   6   7
ATOM      7  C   UNK d   0      -5.099  -3.247  22.458  0.00  0.00    -0.020 A 
ATOM      8  C   UNK d   0      -6.284  -2.709  22.327  0.00  0.00    -0.011 A 
ATOM      9  C   UNK d   0      -7.112  -3.636  21.572  0.00  0.00     0.067 A 
ATOM     10  C   UNK d   0      -8.430  -3.653  21.089  0.00  0.00     0.062 C 
ATOM     11  N   UNK d   0      -6.351  -4.714  21.290  0.00  0.00    -0.248 NA
ATOM     12  C   UNK d   0      -8.970  -4.521  20.134  0.00  0.00     0.041 A 
ATOM     13  N   UNK d   0      -8.832  -5.850  19.965  0.00  0.00    -0.355 N 
ATOM     14  C   UNK d   0      -9.766  -3.989  19.103  0.00  0.00    -0.022 A 
ATOM     15  C   UNK d   0      -9.513  -6.173  18.849  0.00  0.00     0.042 A 
ATOM     16  H   UNK d   0      -8.281  -6.549  20.632  0.00  0.00     0.166 HD
ATOM     17  C   UNK d   0      -9.697  -7.421  18.221  0.00  0.00     0.062 C 
ATOM     18  C   UNK d   0     -10.112  -5.032  18.281  0.00  0.00    -0.013 A 
ATOM     19  C   UNK d   0      -8.774  -8.402  17.964  0.00  0.00     0.067 A 
ATOM     20  N   UNK d   0      -7.578  -8.273  18.544  0.00  0.00    -0.248 NA
ATOM     21  C   UNK d   0      -8.734  -9.616  17.167  0.00  0.00    -0.011 A 
ATOM     22  C   UNK d   0      -6.759  -9.315  18.183  0.00  0.00     0.066 A 
ATOM     23  C   UNK d   0      -5.492  -9.327  18.747  0.00  0.00     0.062 C 
ATOM     24  C   UNK d   0      -7.551 -10.144  17.296  0.00  0.00    -0.020 A 
ATOM     25  C   UNK d   0      -4.972  -8.453  19.714  0.00  0.00     0.041 A 
ATOM     26  N   UNK d   0      -5.097  -7.130  19.874  0.00  0.00    -0.355 N 
ATOM     27  C   UNK d   0      -4.177  -8.989  20.751  0.00  0.00    -0.022 A 
ATOM     28  C   UNK d   0      -4.412  -6.804  20.981  0.00  0.00     0.042 A 
ATOM     29  H   UNK d   0      -5.643  -6.428  19.197  0.00  0.00     0.166 HD
ATOM     30  C   UNK d   0      -4.213  -5.566  21.612  0.00  0.00     0.062 C 
ATOM     31  C   UNK d   0      -3.819  -7.952  21.557  0.00  0.00    -0.013 A 
ATOM     32  C   UNK d   0      -5.129  -4.542  21.794  0.00  0.00     0.066 A 
BRANCH   8  33
ATOM     33  C   UNK d   0      -6.725  -1.402  22.848  0.00  0.00     0.151 C 
BRANCH  33  34
ATOM     34  C   UNK d   0      -6.360  -0.282  21.962  0.00  0.00     0.143 C 
ATOM     35  O   UNK d   0      -5.432   0.485  22.255  0.00  0.00    -0.650 OA
BRANCH  34  36
ATOM     36  O   UNK d   0      -7.062  -0.088  20.795  0.00  0.00    -0.776 OA
ATOM     37  H   UNK d   0      -6.696  -0.415  19.890  0.00  0.00     0.167 HD
ENDBRANCH  34  36
ENDBRANCH  33  34
ENDBRANCH   8  33
BRANCH  31  38
ATOM     38  C   UNK d   0      -2.977  -8.046  22.808  0.00  0.00     0.151 C 
BRANCH  38  39
ATOM     39  C   UNK d   0      -1.585  -7.723  22.573  0.00  0.00     0.143 C 
ATOM     40  O   UNK d   0      -1.230  -6.653  22.047  0.00  0.00    -0.650 OA
BRANCH  39  41
ATOM     41  O   UNK d   0      -0.597  -8.633  22.946  0.00  0.00    -0.776 OA
ATOM     42  H   UNK d   0      -0.496  -8.821  23.948  0.00  0.00     0.167 HD
ENDBRANCH  39  41
ENDBRANCH  38  39
ENDBRANCH  31  38
BRANCH  27  43
ATOM     43  C   UNK d   0      -3.755 -10.416  20.995  0.00  0.00     0.052 C 
BRANCH  43  44
ATOM     44  C   UNK d   0      -4.727 -11.185  21.830  0.00  0.00     0.115 C 
BRANCH  44  45
ATOM     45  C   UNK d   0      -5.277 -12.258  20.961  0.00  0.00     0.139 C 
ATOM     46  O   UNK d   0      -6.521 -12.303  20.792  0.00  0.00    -0.650 OA
BRANCH  45  47
ATOM     47  O   UNK d   0      -4.483 -13.193  20.334  0.00  0.00    -0.776 OA
ATOM     48  H   UNK d   0      -3.455 -13.105  20.273  0.00  0.00     0.167 HD
ENDBRANCH  45  47
ENDBRANCH  44  45
ENDBRANCH  43  44
ENDBRANCH  27  43
BRANCH  24  49
ATOM     49  C   UNK d   0      -7.092 -11.405  16.689  0.00  0.00     0.052 C 
BRANCH  49  50
ATOM     50  C   UNK d   0      -6.997 -11.262  15.191  0.00  0.00     0.115 C 
BRANCH  50  51
ATOM     51  C   UNK d   0      -7.718 -12.237  14.383  0.00  0.00     0.139 C 
ATOM     52  O   UNK d   0      -7.433 -13.457  14.383  0.00  0.00    -0.650 OA
BRANCH  51  53
ATOM     53  O   UNK d   0      -8.763 -11.819  13.574  0.00  0.00    -0.776 OA
ATOM     54  H   UNK d   0      -9.643 -11.603  14.007  0.00  0.00     0.167 HD
ENDBRANCH  51  53
ENDBRANCH  50  51
ENDBRANCH  49  50
ENDBRANCH  24  49
BRANCH  21  55
ATOM     55  C   UNK d   0      -9.885 -10.125  16.363  0.00  0.00     0.151 C 
BRANCH  55  56
ATOM     56  C   UNK d   0     -11.178  -9.785  16.975  0.00  0.00     0.143 C 
ATOM     57  O   UNK d   0     -11.537 -10.227  18.084  0.00  0.00    -0.650 OA
BRANCH  56  58
ATOM     58  O   UNK d   0     -12.026  -8.932  16.270  0.00  0.00    -0.776 OA
ATOM     59  H   UNK d   0     -12.995  -9.279  16.153  0.00  0.00     0.167 HD
ENDBRANCH  56  58
ENDBRANCH  55  56
ENDBRANCH  21  55
BRANCH  18  60
ATOM     60  C   UNK d   0     -10.959  -4.910  17.039  0.00  0.00     0.151 C 
BRANCH  60  61
ATOM     61  C   UNK d   0     -12.298  -5.388  17.414  0.00  0.00     0.143 C 
ATOM     62  O   UNK d   0     -12.849  -6.423  17.036  0.00  0.00    -0.650 OA
BRANCH  61  63
ATOM     63  O   UNK d   0     -13.008  -4.551  18.308  0.00  0.00    -0.776 OA
ATOM     64  H   UNK d   0     -13.932  -4.224  18.088  0.00  0.00     0.167 HD
ENDBRANCH  61  63
ENDBRANCH  60  61
ENDBRANCH  18  60
BRANCH  14  65
ATOM     65  C   UNK d   0     -10.300  -2.600  18.894  0.00  0.00     0.052 C 
BRANCH  65  66
ATOM     66  C   UNK d   0      -9.405  -1.753  18.061  0.00  0.00     0.115 C 
BRANCH  66  67
ATOM     67  C   UNK d   0      -9.376  -0.332  18.267  0.00  0.00     0.139 C 
ATOM     68  O   UNK d   0     -10.476   0.269  18.556  0.00  0.00    -0.650 OA
BRANCH  67  69
ATOM     69  O   UNK d   0      -8.274   0.519  18.193  0.00  0.00    -0.776 OA
ATOM     70  H   UNK d   0      -7.958   0.922  19.088  0.00  0.00     0.167 HD
ENDBRANCH  67  69
ENDBRANCH  66  67
ENDBRANCH  65  66
ENDBRANCH  14  65
ENDBRANCH   6   7
ENDBRANCH   5   6
ENDBRANCH   2   5
TORSDOF 28
ENDMDL
MODEL 17
REMARK VINA RESULT:      -8.7      2.507     11.058
REMARK  28 active torsions:
REMARK  status: ('A' for Active; 'I' for Inactive)
REMARK    1  A    between atoms: C_2  and  O_3 
REMARK    2  A    between atoms: C_2  and  C_4 
REMARK    3  A    between atoms: C_4  and  C_5 
REMARK    4  A    between atoms: C_5  and  C_6 
REMARK    5  A    between atoms: C_7  and  C_8 
REMARK    6  A    between atoms: C_8  and  C_9 
REMARK    7  A    between atoms: C_9  and  O_11 
REMARK    8  A    between atoms: C_28  and  C_29 
REMARK    9  A    between atoms: C_29  and  C_30 
REMARK   10  A    between atoms: C_30  and  O_32 
REMARK   11  A    between atoms: C_33  and  C_34 
REMARK   12  A    between atoms: C_34  and  C_35 
REMARK   13  A    between atoms: C_35  and  C_36 
REMARK   14  A    between atoms: C_36  and  O_38 
REMARK   15  A    between atoms: C_39  and  C_40 
REMARK   16  A    between atoms: C_40  and  C_41 
REMARK   17  A    between atoms: C_41  and  C_42 
REMARK   18  A    between atoms: C_42  and  O_44 
REMARK   19  A    between atoms: C_45  and  C_46 
REMARK   20  A    between atoms: C_46  and  C_47 
REMARK   21  A    between atoms: C_47  and  O_49 
REMARK   22  A    between atoms: C_50  and  C_51 
REMARK   23  A    between atoms: C_51  and  C_52 
REMARK   24  A    between atoms: C_52  and  O_54 
REMARK   25  A    between atoms: C_55  and  C_56 
REMARK   26  A    between atoms: C_56  and  C_57 
REMARK   27  A    between atoms: C_57  and  C_58 
REMARK   28  A    between atoms: C_58  and  O_60 
ROOT
ATOM      1  O   UNK d   0       0.391 -12.099  22.272  0.00  0.00    -0.650 OA
ATOM      2  C   UNK d   0       0.132 -11.040  22.886  0.00  0.00     0.139 C 
ENDROOT
BRANCH   2   3
ATOM      3  O   UNK d   0       1.162 -10.220  23.280  0.00  0.00    -0.776 OA
ATOM      4  H   UNK d   0       1.689  -9.671  22.597  0.00  0.00     0.167 HD
ENDBRANCH   2   3
BRANCH   2   5
ATOM      5  C   UNK d   0      -1.282 -10.676  23.187  0.00  0.00     0.115 C 
BRANCH   5   6
ATOM      6  C   UNK d   0      -2.206 -11.777  22.739  0.00  0.00     0.052 C 
BRANCH   6   7
ATOM      7  C   UNK d   0      -3.055 -11.377  21.557  0.00  0.00    -0.020 A 
ATOM      8  C   UNK d   0      -3.294 -12.073  20.474  0.00  0.00    -0.011 A 
ATOM      9  C   UNK d   0      -4.156 -11.278  19.616  0.00  0.00     0.067 A 
ATOM     10  C   UNK d   0      -4.774 -11.446  18.367  0.00  0.00     0.062 C 
ATOM     11  N   UNK d   0      -4.388 -10.110  20.252  0.00  0.00    -0.248 NA
ATOM     12  C   UNK d   0      -5.804 -10.672  17.820  0.00  0.00     0.041 A 
ATOM     13  N   UNK d   0      -5.994  -9.339  17.797  0.00  0.00    -0.355 N 
ATOM     14  C   UNK d   0      -6.897 -11.321  17.218  0.00  0.00    -0.022 A 
ATOM     15  C   UNK d   0      -7.183  -9.126  17.203  0.00  0.00     0.042 A 
ATOM     16  H   UNK d   0      -5.293  -8.563  18.176  0.00  0.00     0.166 HD
ATOM     17  C   UNK d   0      -7.862  -7.923  16.922  0.00  0.00     0.062 C 
ATOM     18  C   UNK d   0      -7.779 -10.345  16.826  0.00  0.00    -0.013 A 
ATOM     19  C   UNK d   0      -8.049  -6.830  17.728  0.00  0.00     0.067 A 
ATOM     20  N   UNK d   0      -7.344  -6.787  18.862  0.00  0.00    -0.248 NA
ATOM     21  C   UNK d   0      -8.871  -5.632  17.690  0.00  0.00    -0.011 A 
ATOM     22  C   UNK d   0      -7.646  -5.648  19.568  0.00  0.00     0.066 A 
ATOM     23  C   UNK d   0      -6.954  -5.457  20.755  0.00  0.00     0.062 C 
ATOM     24  C   UNK d   0      -8.634  -4.947  18.772  0.00  0.00    -0.020 A 
ATOM     25  C   UNK d   0      -5.914  -6.240  21.280  0.00  0.00     0.041 A 
ATOM     26  N   UNK d   0      -5.732  -7.565  21.316  0.00  0.00    -0.355 N 
ATOM     27  C   UNK d   0      -4.815  -5.587  21.880  0.00  0.00    -0.022 A 
ATOM     28  C   UNK d   0      -4.551  -7.781  21.916  0.00  0.00     0.042 A 
ATOM     29  H   UNK d   0      -6.442  -8.344  20.945  0.00  0.00     0.166 HD
ATOM     30  C   UNK d   0      -3.868  -8.972  22.211  0.00  0.00     0.062 C 
ATOM     31  C   UNK d   0      -3.948  -6.555  22.285  0.00  0.00    -0.013 A 
ATOM     32  C   UNK d   0      -3.754 -10.107  21.425  0.00  0.00     0.066 A 
BRANCH   8  33
ATOM     33  C   UNK d   0      -2.786 -13.421  20.158  0.00  0.00     0.151 C 
BRANCH  33  34
ATOM     34  C   UNK d   0      -1.535 -13.391  19.379  0.00  0.00     0.143 C 
ATOM     35  O   UNK d   0      -1.550 -13.170  18.160  0.00  0.00    -0.650 OA
BRANCH  34  36
ATOM     36  O   UNK d   0      -0.337 -13.612  20.017  0.00  0.00    -0.776 OA
ATOM     37  H   UNK d   0      -0.113 -14.527  20.431  0.00  0.00     0.167 HD
ENDBRANCH  34  36
ENDBRANCH  33  34
ENDBRANCH   8  33
BRANCH  31  38
ATOM     38  C   UNK d   0      -2.619  -6.331  22.970  0.00  0.00     0.151 C 
BRANCH  38  39
ATOM     39  C   UNK d   0      -1.662  -5.646  22.127  0.00  0.00     0.143 C 
ATOM     40  O   UNK d   0      -0.787  -4.893  22.591  0.00  0.00    -0.650 OA
BRANCH  39  41
ATOM     41  O   UNK d   0      -1.711  -5.827  20.746  0.00  0.00    -0.776 OA
ATOM     42  H   UNK d   0      -1.053  -5.276  20.184  0.00  0.00     0.167 HD
ENDBRANCH  39  41
ENDBRANCH  38  39
ENDBRANCH  31  38
BRANCH  27  43
ATOM     43  C   UNK d   0      -4.568  -4.113  22.080  0.00  0.00     0.052 C 
BRANCH  43  44
ATOM     44  C   UNK d   0      -4.958  -3.627  23.438  0.00  0.00     0.115 C 
BRANCH  44  45
ATOM     45  C   UNK d   0      -6.132  -2.736  23.250  0.00  0.00     0.139 C 
ATOM     46  O   UNK d   0      -7.275  -3.210  23.460  0.00  0.00    -0.650 OA
BRANCH  45  47
ATOM     47  O   UNK d   0      -6.015  -1.418  22.862  0.00  0.00    -0.776 OA
ATOM     48  H   UNK d   0      -5.252  -1.079  22.254  0.00  0.00     0.167 HD
ENDBRANCH  45  47
ENDBRANCH  44  45
ENDBRANCH  43  44
ENDBRANCH  27  43
BRANCH  24  49
ATOM     49  C   UNK d   0      -9.224  -3.644  19.121  0.00  0.00     0.052 C 
BRANCH  49  50
ATOM     50  C   UNK d   0     -10.171  -3.792  20.284  0.00  0.00     0.115 C 
BRANCH  50  51
ATOM     51  C   UNK d   0     -11.572  -3.474  20.046  0.00  0.00     0.139 C 
ATOM     52  O   UNK d   0     -12.075  -3.449  18.898  0.00  0.00    -0.650 OA
BRANCH  51  53
ATOM     53  O   UNK d   0     -12.401  -3.180  21.118  0.00  0.00    -0.776 OA
ATOM     54  H   UNK d   0     -12.366  -3.778  21.924  0.00  0.00     0.167 HD
ENDBRANCH  51  53
ENDBRANCH  50  51
ENDBRANCH  49  50
ENDBRANCH  24  49
BRANCH  21  55
ATOM     55  C   UNK d   0      -9.804  -5.294  16.575  0.00  0.00     0.151 C 
BRANCH  55  56
ATOM     56  C   UNK d   0     -10.992  -6.161  16.569  0.00  0.00     0.143 C 
ATOM     57  O   UNK d   0     -11.103  -7.149  15.817  0.00  0.00    -0.650 OA
BRANCH  56  58
ATOM     58  O   UNK d   0     -12.028  -5.849  17.449  0.00  0.00    -0.776 OA
ATOM     59  H   UNK d   0     -11.982  -4.898  17.856  0.00  0.00     0.167 HD
ENDBRANCH  56  58
ENDBRANCH  55  56
ENDBRANCH  21  55
BRANCH  18  60
ATOM     60  C   UNK d   0      -9.099 -10.598  16.141  0.00  0.00     0.151 C 
BRANCH  60  61
ATOM     61  C   UNK d   0     -10.137 -10.296  17.139  0.00  0.00     0.143 C 
ATOM     62  O   UNK d   0     -10.009 -10.292  18.363  0.00  0.00    -0.650 OA
BRANCH  61  63
ATOM     63  O   UNK d   0     -11.410  -9.980  16.607  0.00  0.00    -0.776 OA
ATOM     64  H   UNK d   0     -11.507  -9.607  15.680  0.00  0.00     0.167 HD
ENDBRANCH  61  63
ENDBRANCH  60  61
ENDBRANCH  18  60
BRANCH  14  65
ATOM     65  C   UNK d   0      -7.122 -12.771  16.899  0.00  0.00     0.052 C 
BRANCH  65  66
ATOM     66  C   UNK d   0      -6.750 -13.125  15.503  0.00  0.00     0.115 C 
BRANCH  66  67
ATOM     67  C   UNK d   0      -7.727 -13.719  14.635  0.00  0.00     0.139 C 
ATOM     68  O   UNK d   0      -8.256 -14.838  14.981  0.00  0.00    -0.650 OA
BRANCH  67  69
ATOM     69  O   UNK d   0      -8.198 -13.227  13.418  0.00  0.00    -0.776 OA
ATOM     70  H   UNK d   0      -7.509 -12.721  12.842  0.00  0.00     0.167 HD
ENDBRANCH  67  69
ENDBRANCH  66  67
ENDBRANCH  65  66
ENDBRANCH  14  65
ENDBRANCH   6   7
ENDBRANCH   5   6
ENDBRANCH   2   5
TORSDOF 28
ENDMDL
MODEL 18
REMARK VINA RESULT:      -8.6     27.742     32.091
REMARK  28 active torsions:
REMARK  status: ('A' for Active; 'I' for Inactive)
REMARK    1  A    between atoms: C_2  and  O_3 
REMARK    2  A    between atoms: C_2  and  C_4 
REMARK    3  A    between atoms: C_4  and  C_5 
REMARK    4  A    between atoms: C_5  and  C_6 
REMARK    5  A    between atoms: C_7  and  C_8 
REMARK    6  A    between atoms: C_8  and  C_9 
REMARK    7  A    between atoms: C_9  and  O_11 
REMARK    8  A    between atoms: C_28  and  C_29 
REMARK    9  A    between atoms: C_29  and  C_30 
REMARK   10  A    between atoms: C_30  and  O_32 
REMARK   11  A    between atoms: C_33  and  C_34 
REMARK   12  A    between atoms: C_34  and  C_35 
REMARK   13  A    between atoms: C_35  and  C_36 
REMARK   14  A    between atoms: C_36  and  O_38 
REMARK   15  A    between atoms: C_39  and  C_40 
REMARK   16  A    between atoms: C_40  and  C_41 
REMARK   17  A    between atoms: C_41  and  C_42 
REMARK   18  A    between atoms: C_42  and  O_44 
REMARK   19  A    between atoms: C_45  and  C_46 
REMARK   20  A    between atoms: C_46  and  C_47 
REMARK   21  A    between atoms: C_47  and  O_49 
REMARK   22  A    between atoms: C_50  and  C_51 
REMARK   23  A    between atoms: C_51  and  C_52 
REMARK   24  A    between atoms: C_52  and  O_54 
REMARK   25  A    between atoms: C_55  and  C_56 
REMARK   26  A    between atoms: C_56  and  C_57 
REMARK   27  A    between atoms: C_57  and  C_58 
REMARK   28  A    between atoms: C_58  and  O_60 
ROOT
ATOM      1  O   UNK d   0      14.117  12.666  13.114  0.00  0.00    -0.650 OA
ATOM      2  C   UNK d   0      12.914  12.322  13.090  0.00  0.00     0.139 C 
ENDROOT
BRANCH   2   3
ATOM      3  O   UNK d   0      11.947  13.269  12.853  0.00  0.00    -0.776 OA
ATOM      4  H   UNK d   0      11.994  13.876  12.032  0.00  0.00     0.167 HD
ENDBRANCH   2   3
BRANCH   2   5
ATOM      5  C   UNK d   0      12.538  10.898  13.318  0.00  0.00     0.115 C 
BRANCH   5   6
ATOM      6  C   UNK d   0      11.564  10.445  12.265  0.00  0.00     0.052 C 
BRANCH   6   7
ATOM      7  C   UNK d   0      12.243  10.056  10.974  0.00  0.00    -0.020 A 
ATOM      8  C   UNK d   0      12.811   8.913  10.684  0.00  0.00    -0.011 A 
ATOM      9  C   UNK d   0      13.335   9.008   9.332  0.00  0.00     0.067 A 
ATOM     10  C   UNK d   0      14.013   8.155   8.446  0.00  0.00     0.062 C 
ATOM     11  N   UNK d   0      13.046  10.245   8.875  0.00  0.00    -0.248 NA
ATOM     12  C   UNK d   0      14.193   8.332   7.070  0.00  0.00     0.041 A 
ATOM     13  N   UNK d   0      14.514   9.425   6.352  0.00  0.00    -0.355 N 
ATOM     14  C   UNK d   0      13.966   7.243   6.209  0.00  0.00    -0.022 A 
ATOM     15  C   UNK d   0      14.490   9.059   5.056  0.00  0.00     0.042 A 
ATOM     16  H   UNK d   0      14.773  10.429   6.753  0.00  0.00     0.166 HD
ATOM     17  C   UNK d   0      14.748   9.808   3.891  0.00  0.00     0.062 C 
ATOM     18  C   UNK d   0      14.149   7.699   4.927  0.00  0.00    -0.013 A 
ATOM     19  C   UNK d   0      14.318  11.068   3.562  0.00  0.00     0.067 A 
ATOM     20  N   UNK d   0      13.740  11.782   4.532  0.00  0.00    -0.248 NA
ATOM     21  C   UNK d   0      14.305  11.888   2.362  0.00  0.00    -0.011 A 
ATOM     22  C   UNK d   0      13.350  13.008   4.053  0.00  0.00     0.066 A 
ATOM     23  C   UNK d   0      12.766  13.871   4.969  0.00  0.00     0.062 C 
ATOM     24  C   UNK d   0      13.734  13.020   2.655  0.00  0.00    -0.020 A 
ATOM     25  C   UNK d   0      12.606  13.679   6.350  0.00  0.00     0.041 A 
ATOM     26  N   UNK d   0      12.272  12.597   7.063  0.00  0.00    -0.355 N 
ATOM     27  C   UNK d   0      12.839  14.771   7.214  0.00  0.00    -0.022 A 
ATOM     28  C   UNK d   0      12.287  12.961   8.355  0.00  0.00     0.042 A 
ATOM     29  H   UNK d   0      12.002  11.591   6.658  0.00  0.00     0.166 HD
ATOM     30  C   UNK d   0      12.023  12.229   9.524  0.00  0.00     0.062 C 
ATOM     31  C   UNK d   0      12.640  14.325   8.485  0.00  0.00    -0.013 A 
ATOM     32  C   UNK d   0      12.388  10.925   9.816  0.00  0.00     0.066 A 
BRANCH   8  33
ATOM     33  C   UNK d   0      12.918   7.731  11.558  0.00  0.00     0.151 C 
BRANCH  33  34
ATOM     34  C   UNK d   0      14.256   7.584  12.159  0.00  0.00     0.143 C 
ATOM     35  O   UNK d   0      14.522   8.097  13.255  0.00  0.00    -0.650 OA
BRANCH  34  36
ATOM     36  O   UNK d   0      15.222   6.869  11.489  0.00  0.00    -0.776 OA
ATOM     37  H   UNK d   0      14.975   6.076  10.882  0.00  0.00     0.167 HD
ENDBRANCH  34  36
ENDBRANCH  33  34
ENDBRANCH   8  33
BRANCH  31  38
ATOM     38  C   UNK d   0      12.787  15.140   9.749  0.00  0.00     0.151 C 
BRANCH  38  39
ATOM     39  C   UNK d   0      14.014  14.854  10.461  0.00  0.00     0.143 C 
ATOM     40  O   UNK d   0      14.959  14.236   9.939  0.00  0.00    -0.650 OA
BRANCH  39  41
ATOM     41  O   UNK d   0      14.157  15.281  11.781  0.00  0.00    -0.776 OA
ATOM     42  H   UNK d   0      13.707  14.709  12.502  0.00  0.00     0.167 HD
ENDBRANCH  39  41
ENDBRANCH  38  39
ENDBRANCH  31  38
BRANCH  27  43
ATOM     43  C   UNK d   0      13.231  16.189   6.883  0.00  0.00     0.052 C 
BRANCH  43  44
ATOM     44  C   UNK d   0      12.111  17.165   7.043  0.00  0.00     0.115 C 
BRANCH  44  45
ATOM     45  C   UNK d   0      11.342  17.141   5.772  0.00  0.00     0.139 C 
ATOM     46  O   UNK d   0      10.210  16.596   5.776  0.00  0.00    -0.650 OA
BRANCH  45  47
ATOM     47  O   UNK d   0      11.815  17.693   4.601  0.00  0.00    -0.776 OA
ATOM     48  H   UNK d   0      11.215  17.856   3.777  0.00  0.00     0.167 HD
ENDBRANCH  45  47
ENDBRANCH  44  45
ENDBRANCH  43  44
ENDBRANCH  27  43
BRANCH  24  49
ATOM     49  C   UNK d   0      13.546  14.160   1.741  0.00  0.00     0.052 C 
BRANCH  49  50
ATOM     50  C   UNK d   0      12.080  14.375   1.466  0.00  0.00     0.115 C 
BRANCH  50  51
ATOM     51  C   UNK d   0      11.471  15.580   2.012  0.00  0.00     0.139 C 
ATOM     52  O   UNK d   0      11.857  16.733   1.705  0.00  0.00    -0.650 OA
BRANCH  51  53
ATOM     53  O   UNK d   0      10.421  15.472   2.912  0.00  0.00    -0.776 OA
ATOM     54  H   UNK d   0      10.036  14.560   3.084  0.00  0.00     0.167 HD
ENDBRANCH  51  53
ENDBRANCH  50  51
ENDBRANCH  49  50
ENDBRANCH  24  49
BRANCH  21  55
ATOM     55  C   UNK d   0      14.870  11.456   1.049  0.00  0.00     0.151 C 
BRANCH  55  56
ATOM     56  C   UNK d   0      14.257  10.208   0.569  0.00  0.00     0.143 C 
ATOM     57  O   UNK d   0      14.924   9.267   0.096  0.00  0.00    -0.650 OA
BRANCH  56  58
ATOM     58  O   UNK d   0      12.870  10.092   0.654  0.00  0.00    -0.776 OA
ATOM     59  H   UNK d   0      12.479  10.225   1.604  0.00  0.00     0.167 HD
ENDBRANCH  56  58
ENDBRANCH  55  56
ENDBRANCH  21  55
BRANCH  18  60
ATOM     60  C   UNK d   0      13.998   6.860   3.682  0.00  0.00     0.151 C 
BRANCH  60  61
ATOM     61  C   UNK d   0      15.364   6.544   3.239  0.00  0.00     0.143 C 
ATOM     62  O   UNK d   0      16.188   5.837   3.820  0.00  0.00    -0.650 OA
BRANCH  61  63
ATOM     63  O   UNK d   0      15.749   7.129   2.008  0.00  0.00    -0.776 OA
ATOM     64  H   UNK d   0      16.113   6.567   1.259  0.00  0.00     0.167 HD
ENDBRANCH  61  63
ENDBRANCH  60  61
ENDBRANCH  18  60
BRANCH  14  65
ATOM     65  C   UNK d   0      13.688   5.797   6.507  0.00  0.00     0.052 C 
BRANCH  65  66
ATOM     66  C   UNK d   0      14.910   5.036   6.882  0.00  0.00     0.115 C 
BRANCH  66  67
ATOM     67  C   UNK d   0      14.969   4.365   8.150  0.00  0.00     0.139 C 
ATOM     68  O   UNK d   0      14.926   3.080   8.167  0.00  0.00    -0.650 OA
BRANCH  67  69
ATOM     69  O   UNK d   0      15.071   4.940   9.416  0.00  0.00    -0.776 OA
ATOM     70  H   UNK d   0      14.444   5.737   9.597  0.00  0.00     0.167 HD
ENDBRANCH  67  69
ENDBRANCH  66  67
ENDBRANCH  65  66
ENDBRANCH  14  65
ENDBRANCH   6   7
ENDBRANCH   5   6
ENDBRANCH   2   5
TORSDOF 28
ENDMDL
MODEL 19
REMARK VINA RESULT:      -8.6      1.690      7.534
REMARK  28 active torsions:
REMARK  status: ('A' for Active; 'I' for Inactive)
REMARK    1  A    between atoms: C_2  and  O_3 
REMARK    2  A    between atoms: C_2  and  C_4 
REMARK    3  A    between atoms: C_4  and  C_5 
REMARK    4  A    between atoms: C_5  and  C_6 
REMARK    5  A    between atoms: C_7  and  C_8 
REMARK    6  A    between atoms: C_8  and  C_9 
REMARK    7  A    between atoms: C_9  and  O_11 
REMARK    8  A    between atoms: C_28  and  C_29 
REMARK    9  A    between atoms: C_29  and  C_30 
REMARK   10  A    between atoms: C_30  and  O_32 
REMARK   11  A    between atoms: C_33  and  C_34 
REMARK   12  A    between atoms: C_34  and  C_35 
REMARK   13  A    between atoms: C_35  and  C_36 
REMARK   14  A    between atoms: C_36  and  O_38 
REMARK   15  A    between atoms: C_39  and  C_40 
REMARK   16  A    between atoms: C_40  and  C_41 
REMARK   17  A    between atoms: C_41  and  C_42 
REMARK   18  A    between atoms: C_42  and  O_44 
REMARK   19  A    between atoms: C_45  and  C_46 
REMARK   20  A    between atoms: C_46  and  C_47 
REMARK   21  A    between atoms: C_47  and  O_49 
REMARK   22  A    between atoms: C_50  and  C_51 
REMARK   23  A    between atoms: C_51  and  C_52 
REMARK   24  A    between atoms: C_52  and  O_54 
REMARK   25  A    between atoms: C_55  and  C_56 
REMARK   26  A    between atoms: C_56  and  C_57 
REMARK   27  A    between atoms: C_57  and  C_58 
REMARK   28  A    between atoms: C_58  and  O_60 
ROOT
ATOM      1  O   UNK d   0      -7.563  -3.957  26.030  0.00  0.00    -0.650 OA
ATOM      2  C   UNK d   0      -7.719  -2.864  25.442  0.00  0.00     0.139 C 
ENDROOT
BRANCH   2   3
ATOM      3  O   UNK d   0      -8.901  -2.179  25.596  0.00  0.00    -0.776 OA
ATOM      4  H   UNK d   0      -9.801  -2.650  25.490  0.00  0.00     0.167 HD
ENDBRANCH   2   3
BRANCH   2   5
ATOM      5  C   UNK d   0      -6.632  -2.314  24.584  0.00  0.00     0.115 C 
BRANCH   5   6
ATOM      6  C   UNK d   0      -7.096  -2.221  23.156  0.00  0.00     0.052 C 
BRANCH   6   7
ATOM      7  C   UNK d   0      -6.595  -3.366  22.307  0.00  0.00    -0.020 A 
ATOM      8  C   UNK d   0      -5.431  -3.958  22.372  0.00  0.00    -0.011 A 
ATOM      9  C   UNK d   0      -5.401  -4.995  21.354  0.00  0.00     0.067 A 
ATOM     10  C   UNK d   0      -4.486  -5.970  20.928  0.00  0.00     0.062 C 
ATOM     11  N   UNK d   0      -6.587  -4.959  20.711  0.00  0.00    -0.248 NA
ATOM     12  C   UNK d   0      -4.744  -7.072  20.106  0.00  0.00     0.041 A 
ATOM     13  N   UNK d   0      -5.475  -7.187  18.981  0.00  0.00    -0.355 N 
ATOM     14  C   UNK d   0      -4.233  -8.330  20.474  0.00  0.00    -0.022 A 
ATOM     15  C   UNK d   0      -5.447  -8.487  18.630  0.00  0.00     0.042 A 
ATOM     16  H   UNK d   0      -5.984  -6.363  18.434  0.00  0.00     0.166 HD
ATOM     17  C   UNK d   0      -6.042  -9.152  17.540  0.00  0.00     0.062 C 
ATOM     18  C   UNK d   0      -4.678  -9.235  19.543  0.00  0.00    -0.013 A 
ATOM     19  C   UNK d   0      -7.314  -9.026  17.043  0.00  0.00     0.067 A 
ATOM     20  N   UNK d   0      -8.047  -8.010  17.506  0.00  0.00    -0.248 NA
ATOM     21  C   UNK d   0      -8.143  -9.754  16.097  0.00  0.00    -0.011 A 
ATOM     22  C   UNK d   0      -9.295  -8.022  16.933  0.00  0.00     0.066 A 
ATOM     23  C   UNK d   0     -10.151  -6.994  17.299  0.00  0.00     0.062 C 
ATOM     24  C   UNK d   0      -9.302  -9.164  16.040  0.00  0.00    -0.020 A 
ATOM     25  C   UNK d   0      -9.868  -5.889  18.116  0.00  0.00     0.041 A 
ATOM     26  N   UNK d   0      -9.154  -5.777  19.242  0.00  0.00    -0.355 N 
ATOM     27  C   UNK d   0     -10.378  -4.626  17.743  0.00  0.00    -0.022 A 
ATOM     28  C   UNK d   0      -9.187  -4.483  19.599  0.00  0.00     0.042 A 
ATOM     29  H   UNK d   0      -8.652  -6.608  19.796  0.00  0.00     0.166 HD
ATOM     30  C   UNK d   0      -8.608  -3.810  20.686  0.00  0.00     0.062 C 
ATOM     31  C   UNK d   0      -9.951  -3.731  18.675  0.00  0.00    -0.013 A 
ATOM     32  C   UNK d   0      -7.351  -4.001  21.238  0.00  0.00     0.066 A 
BRANCH   8  33
ATOM     33  C   UNK d   0      -4.329  -3.644  23.300  0.00  0.00     0.151 C 
BRANCH  33  34
ATOM     34  C   UNK d   0      -3.326  -2.739  22.710  0.00  0.00     0.143 C 
ATOM     35  O   UNK d   0      -2.151  -3.102  22.559  0.00  0.00    -0.650 OA
BRANCH  34  36
ATOM     36  O   UNK d   0      -3.703  -1.473  22.324  0.00  0.00    -0.776 OA
ATOM     37  H   UNK d   0      -3.394  -1.074  21.427  0.00  0.00     0.167 HD
ENDBRANCH  34  36
ENDBRANCH  33  34
ENDBRANCH   8  33
BRANCH  31  38
ATOM     38  C   UNK d   0     -10.239  -2.247  18.684  0.00  0.00     0.151 C 
BRANCH  38  39
ATOM     39  C   UNK d   0      -9.256  -1.480  17.950  0.00  0.00     0.143 C 
ATOM     40  O   UNK d   0      -9.368  -1.244  16.734  0.00  0.00    -0.650 OA
BRANCH  39  41
ATOM     41  O   UNK d   0      -8.137  -0.981  18.617  0.00  0.00    -0.776 OA
ATOM     42  H   UNK d   0      -8.314  -0.380  19.428  0.00  0.00     0.167 HD
ENDBRANCH  39  41
ENDBRANCH  38  39
ENDBRANCH  31  38
BRANCH  27  43
ATOM     43  C   UNK d   0     -11.237  -4.250  16.562  0.00  0.00     0.052 C 
BRANCH  43  44
ATOM     44  C   UNK d   0     -12.379  -5.188  16.339  0.00  0.00     0.115 C 
BRANCH  44  45
ATOM     45  C   UNK d   0     -13.399  -4.866  17.370  0.00  0.00     0.139 C 
ATOM     46  O   UNK d   0     -13.713  -3.662  17.537  0.00  0.00    -0.650 OA
BRANCH  45  47
ATOM     47  O   UNK d   0     -14.013  -5.831  18.140  0.00  0.00    -0.776 OA
ATOM     48  H   UNK d   0     -14.480  -6.658  17.734  0.00  0.00     0.167 HD
ENDBRANCH  45  47
ENDBRANCH  44  45
ENDBRANCH  43  44
ENDBRANCH  27  43
BRANCH  24  49
ATOM     49  C   UNK d   0     -10.431  -9.550  15.177  0.00  0.00     0.052 C 
BRANCH  49  50
ATOM     50  C   UNK d   0     -11.265 -10.612  15.846  0.00  0.00     0.115 C 
BRANCH  50  51
ATOM     51  C   UNK d   0     -11.794 -11.673  15.000  0.00  0.00     0.139 C 
ATOM     52  O   UNK d   0     -12.605 -12.532  15.420  0.00  0.00    -0.650 OA
BRANCH  51  53
ATOM     53  O   UNK d   0     -11.396 -11.757  13.674  0.00  0.00    -0.776 OA
ATOM     54  H   UNK d   0     -10.982 -10.945  13.250  0.00  0.00     0.167 HD
ENDBRANCH  51  53
ENDBRANCH  50  51
ENDBRANCH  49  50
ENDBRANCH  24  49
BRANCH  21  55
ATOM     55  C   UNK d   0      -7.688 -10.961  15.345  0.00  0.00     0.151 C 
BRANCH  55  56
ATOM     56  C   UNK d   0      -7.656 -12.161  16.195  0.00  0.00     0.143 C 
ATOM     57  O   UNK d   0      -7.847 -12.121  17.426  0.00  0.00    -0.650 OA
BRANCH  56  58
ATOM     58  O   UNK d   0      -7.399 -13.386  15.580  0.00  0.00    -0.776 OA
ATOM     59  H   UNK d   0      -6.481 -13.451  15.105  0.00  0.00     0.167 HD
ENDBRANCH  56  58
ENDBRANCH  55  56
ENDBRANCH  21  55
BRANCH  18  60
ATOM     60  C   UNK d   0      -4.372 -10.712  19.558  0.00  0.00     0.151 C 
BRANCH  60  61
ATOM     61  C   UNK d   0      -5.552 -11.363  20.147  0.00  0.00     0.143 C 
ATOM     62  O   UNK d   0      -6.535 -10.811  20.641  0.00  0.00    -0.650 OA
BRANCH  61  63
ATOM     63  O   UNK d   0      -5.529 -12.779  20.133  0.00  0.00    -0.776 OA
ATOM     64  H   UNK d   0      -5.725 -13.309  20.963  0.00  0.00     0.167 HD
ENDBRANCH  61  63
ENDBRANCH  60  61
ENDBRANCH  18  60
BRANCH  14  65
ATOM     65  C   UNK d   0      -3.284  -8.720  21.572  0.00  0.00     0.052 C 
BRANCH  65  66
ATOM     66  C   UNK d   0      -3.925  -9.552  22.626  0.00  0.00     0.115 C 
BRANCH  66  67
ATOM     67  C   UNK d   0      -3.247 -10.714  23.126  0.00  0.00     0.139 C 
ATOM     68  O   UNK d   0      -3.906 -11.814  23.226  0.00  0.00    -0.650 OA
BRANCH  67  69
ATOM     69  O   UNK d   0      -1.918 -10.817  23.535  0.00  0.00    -0.776 OA
ATOM     70  H   UNK d   0      -1.301 -11.365  22.918  0.00  0.00     0.167 HD
ENDBRANCH  67  69
ENDBRANCH  66  67
ENDBRANCH  65  66
ENDBRANCH  14  65
ENDBRANCH   6   7
ENDBRANCH   5   6
ENDBRANCH   2   5
TORSDOF 28
ENDMDL
MODEL 20
REMARK VINA RESULT:      -8.6      2.021      8.292
REMARK  28 active torsions:
REMARK  status: ('A' for Active; 'I' for Inactive)
REMARK    1  A    between atoms: C_2  and  O_3 
REMARK    2  A    between atoms: C_2  and  C_4 
REMARK    3  A    between atoms: C_4  and  C_5 
REMARK    4  A    between atoms: C_5  and  C_6 
REMARK    5  A    between atoms: C_7  and  C_8 
REMARK    6  A    between atoms: C_8  and  C_9 
REMARK    7  A    between atoms: C_9  and  O_11 
REMARK    8  A    between atoms: C_28  and  C_29 
REMARK    9  A    between atoms: C_29  and  C_30 
REMARK   10  A    between atoms: C_30  and  O_32 
REMARK   11  A    between atoms: C_33  and  C_34 
REMARK   12  A    between atoms: C_34  and  C_35 
REMARK   13  A    between atoms: C_35  and  C_36 
REMARK   14  A    between atoms: C_36  and  O_38 
REMARK   15  A    between atoms: C_39  and  C_40 
REMARK   16  A    between atoms: C_40  and  C_41 
REMARK   17  A    between atoms: C_41  and  C_42 
REMARK   18  A    between atoms: C_42  and  O_44 
REMARK   19  A    between atoms: C_45  and  C_46 
REMARK   20  A    between atoms: C_46  and  C_47 
REMARK   21  A    between atoms: C_47  and  O_49 
REMARK   22  A    between atoms: C_50  and  C_51 
REMARK   23  A    between atoms: C_51  and  C_52 
REMARK   24  A    between atoms: C_52  and  O_54 
REMARK   25  A    between atoms: C_55  and  C_56 
REMARK   26  A    between atoms: C_56  and  C_57 
REMARK   27  A    between atoms: C_57  and  C_58 
REMARK   28  A    between atoms: C_58  and  O_60 
ROOT
ATOM      1  O   UNK d   0       0.041  -5.218  24.645  0.00  0.00    -0.650 OA
ATOM      2  C   UNK d   0       0.159  -5.190  23.400  0.00  0.00     0.139 C 
ENDROOT
BRANCH   2   3
ATOM      3  O   UNK d   0       1.398  -4.975  22.846  0.00  0.00    -0.776 OA
ATOM      4  H   UNK d   0       1.495  -4.595  21.902  0.00  0.00     0.167 HD
ENDBRANCH   2   3
BRANCH   2   5
ATOM      5  C   UNK d   0      -1.035  -5.386  22.531  0.00  0.00     0.115 C 
BRANCH   5   6
ATOM      6  C   UNK d   0      -2.278  -5.486  23.373  0.00  0.00     0.052 C 
BRANCH   6   7
ATOM      7  C   UNK d   0      -3.543  -5.463  22.548  0.00  0.00    -0.020 A 
ATOM      8  C   UNK d   0      -4.368  -4.462  22.379  0.00  0.00    -0.011 A 
ATOM      9  C   UNK d   0      -5.444  -4.914  21.513  0.00  0.00     0.067 A 
ATOM     10  C   UNK d   0      -6.595  -4.344  20.947  0.00  0.00     0.062 C 
ATOM     11  N   UNK d   0      -5.197  -6.205  21.207  0.00  0.00    -0.248 NA
ATOM     12  C   UNK d   0      -7.371  -4.861  19.904  0.00  0.00     0.041 A 
ATOM     13  N   UNK d   0      -7.801  -6.112  19.655  0.00  0.00    -0.355 N 
ATOM     14  C   UNK d   0      -7.770  -4.003  18.862  0.00  0.00    -0.022 A 
ATOM     15  C   UNK d   0      -8.455  -6.072  18.479  0.00  0.00     0.042 A 
ATOM     16  H   UNK d   0      -7.661  -7.002  20.307  0.00  0.00     0.166 HD
ATOM     17  C   UNK d   0      -9.101  -7.096  17.757  0.00  0.00     0.062 C 
ATOM     18  C   UNK d   0      -8.457  -4.766  17.951  0.00  0.00    -0.013 A 
ATOM     19  C   UNK d   0      -8.668  -8.370  17.493  0.00  0.00     0.067 A 
ATOM     20  N   UNK d   0      -7.587  -8.791  18.156  0.00  0.00    -0.248 NA
ATOM     21  C   UNK d   0      -9.084  -9.455  16.621  0.00  0.00    -0.011 A 
ATOM     22  C   UNK d   0      -7.266 -10.072  17.778  0.00  0.00     0.066 A 
ATOM     23  C   UNK d   0      -6.180 -10.649  18.419  0.00  0.00     0.062 C 
ATOM     24  C   UNK d   0      -8.257 -10.446  16.789  0.00  0.00    -0.020 A 
ATOM     25  C   UNK d   0      -5.421 -10.118  19.474  0.00  0.00     0.041 A 
ATOM     26  N   UNK d   0      -4.981  -8.877  19.714  0.00  0.00    -0.355 N 
ATOM     27  C   UNK d   0      -5.025 -10.979  20.521  0.00  0.00    -0.022 A 
ATOM     28  C   UNK d   0      -4.320  -8.916  20.882  0.00  0.00     0.042 A 
ATOM     29  H   UNK d   0      -5.113  -7.985  19.052  0.00  0.00     0.166 HD
ATOM     30  C   UNK d   0      -3.665  -7.907  21.606  0.00  0.00     0.062 C 
ATOM     31  C   UNK d   0      -4.329 -10.226  21.416  0.00  0.00    -0.013 A 
ATOM     32  C   UNK d   0      -4.067  -6.595  21.799  0.00  0.00     0.066 A 
BRANCH   8  33
ATOM     33  C   UNK d   0      -4.250  -3.111  22.958  0.00  0.00     0.151 C 
BRANCH  33  34
ATOM     34  C   UNK d   0      -5.104  -2.922  24.144  0.00  0.00     0.143 C 
ATOM     35  O   UNK d   0      -5.968  -2.034  24.172  0.00  0.00    -0.650 OA
BRANCH  34  36
ATOM     36  O   UNK d   0      -4.936  -3.743  25.235  0.00  0.00    -0.776 OA
ATOM     37  H   UNK d   0      -4.204  -3.559  25.934  0.00  0.00     0.167 HD
ENDBRANCH  34  36
ENDBRANCH  33  34
ENDBRANCH   8  33
BRANCH  31  38
ATOM     38  C   UNK d   0      -3.718 -10.717  22.708  0.00  0.00     0.151 C 
BRANCH  38  39
ATOM     39  C   UNK d   0      -2.344 -11.143  22.554  0.00  0.00     0.143 C 
ATOM     40  O   UNK d   0      -2.003 -12.000  21.720  0.00  0.00    -0.650 OA
BRANCH  39  41
ATOM     41  O   UNK d   0      -1.356 -10.581  23.362  0.00  0.00    -0.776 OA
ATOM     42  H   UNK d   0      -1.079 -11.115  24.191  0.00  0.00     0.167 HD
ENDBRANCH  39  41
ENDBRANCH  38  39
ENDBRANCH  31  38
BRANCH  27  43
ATOM     43  C   UNK d   0      -5.277 -12.455  20.694  0.00  0.00     0.052 C 
BRANCH  43  44
ATOM     44  C   UNK d   0      -6.380 -12.757  21.657  0.00  0.00     0.115 C 
BRANCH  44  45
ATOM     45  C   UNK d   0      -7.531 -13.236  20.848  0.00  0.00     0.139 C 
ATOM     46  O   UNK d   0      -8.375 -12.390  20.462  0.00  0.00    -0.650 OA
BRANCH  45  47
ATOM     47  O   UNK d   0      -7.703 -14.559  20.503  0.00  0.00    -0.776 OA
ATOM     48  H   UNK d   0      -8.193 -15.237  21.109  0.00  0.00     0.167 HD
ENDBRANCH  45  47
ENDBRANCH  44  45
ENDBRANCH  43  44
ENDBRANCH  27  43
BRANCH  24  49
ATOM     49  C   UNK d   0      -8.331 -11.761  16.128  0.00  0.00     0.052 C 
BRANCH  49  50
ATOM     50  C   UNK d   0      -8.299 -11.598  14.630  0.00  0.00     0.115 C 
BRANCH  50  51
ATOM     51  C   UNK d   0      -9.376 -12.220  13.871  0.00  0.00     0.139 C 
ATOM     52  O   UNK d   0      -9.330 -12.363  12.626  0.00  0.00    -0.650 OA
BRANCH  51  53
ATOM     53  O   UNK d   0     -10.506 -12.677  14.531  0.00  0.00    -0.776 OA
ATOM     54  H   UNK d   0     -10.958 -12.061  15.183  0.00  0.00     0.167 HD
ENDBRANCH  51  53
ENDBRANCH  50  51
ENDBRANCH  49  50
ENDBRANCH  24  49
BRANCH  21  55
ATOM     55  C   UNK d   0     -10.267  -9.390  15.713  0.00  0.00     0.151 C 
BRANCH  55  56
ATOM     56  C   UNK d   0     -11.481  -8.954  16.420  0.00  0.00     0.143 C 
ATOM     57  O   UNK d   0     -11.886  -9.498  17.466  0.00  0.00    -0.650 OA
BRANCH  56  58
ATOM     58  O   UNK d   0     -12.197  -7.884  15.883  0.00  0.00    -0.776 OA
ATOM     59  H   UNK d   0     -13.000  -7.567  16.454  0.00  0.00     0.167 HD
ENDBRANCH  56  58
ENDBRANCH  55  56
ENDBRANCH  21  55
BRANCH  18  60
ATOM     60  C   UNK d   0      -9.059  -4.248  16.669  0.00  0.00     0.151 C 
BRANCH  60  61
ATOM     61  C   UNK d   0     -10.516  -4.270  16.869  0.00  0.00     0.143 C 
ATOM     62  O   UNK d   0     -11.150  -3.714  17.767  0.00  0.00    -0.650 OA
BRANCH  61  63
ATOM     63  O   UNK d   0     -11.244  -5.017  15.913  0.00  0.00    -0.776 OA
ATOM     64  H   UNK d   0     -11.620  -5.921  16.138  0.00  0.00     0.167 HD
ENDBRANCH  61  63
ENDBRANCH  60  61
ENDBRANCH  18  60
BRANCH  14  65
ATOM     65  C   UNK d   0      -7.637  -2.514  18.713  0.00  0.00     0.052 C 
BRANCH  65  66
ATOM     66  C   UNK d   0      -8.853  -1.775  19.150  0.00  0.00     0.115 C 
BRANCH  66  67
ATOM     67  C   UNK d   0      -9.369  -0.710  18.336  0.00  0.00     0.139 C 
ATOM     68  O   UNK d   0      -9.425  -0.882  17.063  0.00  0.00    -0.650 OA
BRANCH  67  69
ATOM     69  O   UNK d   0      -9.835   0.535  18.756  0.00  0.00    -0.776 OA
ATOM     70  H   UNK d   0      -9.928   1.250  18.020  0.00  0.00     0.167 HD
ENDBRANCH  67  69
ENDBRANCH  66  67
ENDBRANCH  65  66
ENDBRANCH  14  65
ENDBRANCH   6   7
ENDBRANCH   5   6
ENDBRANCH   2   5
TORSDOF 28
ENDMDL
