MODEL 1
REMARK VINA RESULT:     -10.5      0.000      0.000
REMARK  28 active torsions:
REMARK  status: ('A' for Active; 'I' for Inactive)
REMARK    1  A    between atoms: C_2  and  O_3 
REMARK    2  A    between atoms: C_2  and  C_4 
REMARK    3  A    between atoms: C_4  and  C_5 
REMARK    4  A    between atoms: C_5  and  C_6 
REMARK    5  A    between atoms: C_7  and  C_8 
REMARK    6  A    between atoms: C_8  and  C_9 
REMARK    7  A    between atoms: C_9  and  O_11 
REMARK    8  A    between atoms: C_28  and  C_29 
REMARK    9  A    between atoms: C_29  and  C_30 
REMARK   10  A    between atoms: C_30  and  O_32 
REMARK   11  A    between atoms: C_33  and  C_34 
REMARK   12  A    between atoms: C_34  and  C_35 
REMARK   13  A    between atoms: C_35  and  C_36 
REMARK   14  A    between atoms: C_36  and  O_38 
REMARK   15  A    between atoms: C_39  and  C_40 
REMARK   16  A    between atoms: C_40  and  C_41 
REMARK   17  A    between atoms: C_41  and  C_42 
REMARK   18  A    between atoms: C_42  and  O_44 
REMARK   19  A    between atoms: C_45  and  C_46 
REMARK   20  A    between atoms: C_46  and  C_47 
REMARK   21  A    between atoms: C_47  and  O_49 
REMARK   22  A    between atoms: C_50  and  C_51 
REMARK   23  A    between atoms: C_51  and  C_52 
REMARK   24  A    between atoms: C_52  and  O_54 
REMARK   25  A    between atoms: C_55  and  C_56 
REMARK   26  A    between atoms: C_56  and  C_57 
REMARK   27  A    between atoms: C_57  and  C_58 
REMARK   28  A    between atoms: C_58  and  O_60 
ROOT
ATOM      1  O   UNK d   0       0.563   9.402  25.597  0.00  0.00    -0.650 OA
ATOM      2  C   UNK d   0      -0.531   8.952  25.189  0.00  0.00     0.139 C 
ENDROOT
BRANCH   2   3
ATOM      3  O   UNK d   0      -1.598   9.804  25.042  0.00  0.00    -0.776 OA
ATOM      4  H   UNK d   0      -1.639  10.690  25.550  0.00  0.00     0.167 HD
ENDBRANCH   2   3
BRANCH   2   5
ATOM      5  C   UNK d   0      -0.670   7.503  24.867  0.00  0.00     0.115 C 
BRANCH   5   6
ATOM      6  C   UNK d   0      -0.802   7.313  23.381  0.00  0.00     0.052 C 
BRANCH   6   7
ATOM      7  C   UNK d   0       0.420   7.774  22.625  0.00  0.00    -0.020 A 
ATOM      8  C   UNK d   0       0.483   8.686  21.688  0.00  0.00    -0.011 A 
ATOM      9  C   UNK d   0       1.866   8.781  21.251  0.00  0.00     0.067 A 
ATOM     10  C   UNK d   0       2.584   9.553  20.325  0.00  0.00     0.062 C 
ATOM     11  N   UNK d   0       2.576   7.887  21.971  0.00  0.00    -0.248 NA
ATOM     12  C   UNK d   0       3.973   9.697  20.239  0.00  0.00     0.041 A 
ATOM     13  N   UNK d   0       4.967   8.794  20.340  0.00  0.00    -0.355 N 
ATOM     14  C   UNK d   0       4.514  10.985  20.071  0.00  0.00    -0.022 A 
ATOM     15  C   UNK d   0       6.124   9.476  20.250  0.00  0.00     0.042 A 
ATOM     16  H   UNK d   0       4.852   7.694  20.454  0.00  0.00     0.166 HD
ATOM     17  C   UNK d   0       7.458   9.023  20.293  0.00  0.00     0.062 C 
ATOM     18  C   UNK d   0       5.881  10.853  20.081  0.00  0.00    -0.013 A 
ATOM     19  C   UNK d   0       8.035   8.123  21.151  0.00  0.00     0.067 A 
ATOM     20  N   UNK d   0       7.212   7.420  21.933  0.00  0.00    -0.248 NA
ATOM     21  C   UNK d   0       9.390   7.707  21.473  0.00  0.00    -0.011 A 
ATOM     22  C   UNK d   0       7.930   6.576  22.744  0.00  0.00     0.066 A 
ATOM     23  C   UNK d   0       7.194   5.755  23.586  0.00  0.00     0.062 C 
ATOM     24  C   UNK d   0       9.322   6.805  22.409  0.00  0.00    -0.020 A 
ATOM     25  C   UNK d   0       5.799   5.615  23.648  0.00  0.00     0.041 A 
ATOM     26  N   UNK d   0       4.812   6.515  23.562  0.00  0.00    -0.355 N 
ATOM     27  C   UNK d   0       5.257   4.321  23.811  0.00  0.00    -0.022 A 
ATOM     28  C   UNK d   0       3.657   5.838  23.661  0.00  0.00     0.042 A 
ATOM     29  H   UNK d   0       4.929   7.622  23.458  0.00  0.00     0.166 HD
ATOM     30  C   UNK d   0       2.325   6.277  23.629  0.00  0.00     0.062 C 
ATOM     31  C   UNK d   0       3.903   4.453  23.820  0.00  0.00    -0.013 A 
ATOM     32  C   UNK d   0       1.764   7.249  22.816  0.00  0.00     0.066 A 
BRANCH   8  33
ATOM     33  C   UNK d   0      -0.636   9.482  21.152  0.00  0.00     0.151 C 
BRANCH  33  34
ATOM     34  C   UNK d   0      -0.916  10.687  21.955  0.00  0.00     0.143 C 
ATOM     35  O   UNK d   0      -2.073  10.972  22.293  0.00  0.00    -0.650 OA
BRANCH  34  36
ATOM     36  O   UNK d   0       0.125  11.504  22.330  0.00  0.00    -0.776 OA
ATOM     37  H   UNK d   0       0.106  12.515  22.140  0.00  0.00     0.167 HD
ENDBRANCH  34  36
ENDBRANCH  33  34
ENDBRANCH   8  33
BRANCH  31  38
ATOM     38  C   UNK d   0       2.899   3.332  23.958  0.00  0.00     0.151 C 
BRANCH  38  39
ATOM     39  C   UNK d   0       2.555   3.052  25.336  0.00  0.00     0.143 C 
ATOM     40  O   UNK d   0       1.637   3.647  25.926  0.00  0.00    -0.650 OA
BRANCH  39  41
ATOM     41  O   UNK d   0       3.271   2.083  26.038  0.00  0.00    -0.776 OA
ATOM     42  H   UNK d   0       4.087   2.404  26.566  0.00  0.00     0.167 HD
ENDBRANCH  39  41
ENDBRANCH  38  39
ENDBRANCH  31  38
BRANCH  27  43
ATOM     43  C   UNK d   0       5.965   2.997  23.958  0.00  0.00     0.052 C 
BRANCH  43  44
ATOM     44  C   UNK d   0       5.591   2.008  22.903  0.00  0.00     0.115 C 
BRANCH  44  45
ATOM     45  C   UNK d   0       5.520   0.682  23.571  0.00  0.00     0.139 C 
ATOM     46  O   UNK d   0       6.578   0.014  23.674  0.00  0.00    -0.650 OA
BRANCH  45  47
ATOM     47  O   UNK d   0       4.349   0.164  24.082  0.00  0.00    -0.776 OA
ATOM     48  H   UNK d   0       4.148   0.127  25.094  0.00  0.00     0.167 HD
ENDBRANCH  45  47
ENDBRANCH  44  45
ENDBRANCH  43  44
ENDBRANCH  27  43
BRANCH  24  49
ATOM     49  C   UNK d   0      10.461   6.085  23.006  0.00  0.00     0.052 C 
BRANCH  49  50
ATOM     50  C   UNK d   0      10.646   6.498  24.443  0.00  0.00     0.115 C 
BRANCH  50  51
ATOM     51  C   UNK d   0      11.721   7.439  24.731  0.00  0.00     0.139 C 
ATOM     52  O   UNK d   0      11.924   8.465  24.041  0.00  0.00    -0.650 OA
BRANCH  51  53
ATOM     53  O   UNK d   0      12.566   7.207  25.806  0.00  0.00    -0.776 OA
ATOM     54  H   UNK d   0      12.889   6.269  25.963  0.00  0.00     0.167 HD
ENDBRANCH  51  53
ENDBRANCH  50  51
ENDBRANCH  49  50
ENDBRANCH  24  49
BRANCH  21  55
ATOM     55  C   UNK d   0      10.611   8.252  20.808  0.00  0.00     0.151 C 
BRANCH  55  56
ATOM     56  C   UNK d   0      10.649   7.928  19.374  0.00  0.00     0.143 C 
ATOM     57  O   UNK d   0      10.807   6.767  18.949  0.00  0.00    -0.650 OA
BRANCH  56  58
ATOM     58  O   UNK d   0      10.501   8.976  18.468  0.00  0.00    -0.776 OA
ATOM     59  H   UNK d   0      10.537   9.923  18.886  0.00  0.00     0.167 HD
ENDBRANCH  56  58
ENDBRANCH  55  56
ENDBRANCH  21  55
BRANCH  18  60
ATOM     60  C   UNK d   0       6.860  11.992  19.938  0.00  0.00     0.151 C 
BRANCH  60  61
ATOM     61  C   UNK d   0       7.637  11.706  18.722  0.00  0.00     0.143 C 
ATOM     62  O   UNK d   0       8.853  11.528  18.643  0.00  0.00    -0.650 OA
BRANCH  61  63
ATOM     63  O   UNK d   0       6.881  11.633  17.527  0.00  0.00    -0.776 OA
ATOM     64  H   UNK d   0       6.642  10.747  17.119  0.00  0.00     0.167 HD
ENDBRANCH  61  63
ENDBRANCH  60  61
ENDBRANCH  18  60
BRANCH  14  65
ATOM     65  C   UNK d   0       3.844  12.304  19.807  0.00  0.00     0.052 C 
BRANCH  65  66
ATOM     66  C   UNK d   0       3.069  12.806  20.973  0.00  0.00     0.115 C 
BRANCH  66  67
ATOM     67  C   UNK d   0       2.888  14.219  21.152  0.00  0.00     0.139 C 
ATOM     68  O   UNK d   0       2.546  14.651  22.314  0.00  0.00    -0.650 OA
BRANCH  67  69
ATOM     69  O   UNK d   0       3.037  15.226  20.199  0.00  0.00    -0.776 OA
ATOM     70  H   UNK d   0       2.218  15.835  20.059  0.00  0.00     0.167 HD
ENDBRANCH  67  69
ENDBRANCH  66  67
ENDBRANCH  65  66
ENDBRANCH  14  65
ENDBRANCH   6   7
ENDBRANCH   5   6
ENDBRANCH   2   5
TORSDOF 28
ENDMDL
MODEL 2
REMARK VINA RESULT:     -10.3      1.215      1.565
REMARK  28 active torsions:
REMARK  status: ('A' for Active; 'I' for Inactive)
REMARK    1  A    between atoms: C_2  and  O_3 
REMARK    2  A    between atoms: C_2  and  C_4 
REMARK    3  A    between atoms: C_4  and  C_5 
REMARK    4  A    between atoms: C_5  and  C_6 
REMARK    5  A    between atoms: C_7  and  C_8 
REMARK    6  A    between atoms: C_8  and  C_9 
REMARK    7  A    between atoms: C_9  and  O_11 
REMARK    8  A    between atoms: C_28  and  C_29 
REMARK    9  A    between atoms: C_29  and  C_30 
REMARK   10  A    between atoms: C_30  and  O_32 
REMARK   11  A    between atoms: C_33  and  C_34 
REMARK   12  A    between atoms: C_34  and  C_35 
REMARK   13  A    between atoms: C_35  and  C_36 
REMARK   14  A    between atoms: C_36  and  O_38 
REMARK   15  A    between atoms: C_39  and  C_40 
REMARK   16  A    between atoms: C_40  and  C_41 
REMARK   17  A    between atoms: C_41  and  C_42 
REMARK   18  A    between atoms: C_42  and  O_44 
REMARK   19  A    between atoms: C_45  and  C_46 
REMARK   20  A    between atoms: C_46  and  C_47 
REMARK   21  A    between atoms: C_47  and  O_49 
REMARK   22  A    between atoms: C_50  and  C_51 
REMARK   23  A    between atoms: C_51  and  C_52 
REMARK   24  A    between atoms: C_52  and  O_54 
REMARK   25  A    between atoms: C_55  and  C_56 
REMARK   26  A    between atoms: C_56  and  C_57 
REMARK   27  A    between atoms: C_57  and  C_58 
REMARK   28  A    between atoms: C_58  and  O_60 
ROOT
ATOM      1  O   UNK d   0      -3.206   4.530  22.735  0.00  0.00    -0.650 OA
ATOM      2  C   UNK d   0      -2.278   5.304  22.414  0.00  0.00     0.139 C 
ENDROOT
BRANCH   2   3
ATOM      3  O   UNK d   0      -2.372   6.021  21.246  0.00  0.00    -0.776 OA
ATOM      4  H   UNK d   0      -2.719   6.983  21.244  0.00  0.00     0.167 HD
ENDBRANCH   2   3
BRANCH   2   5
ATOM      5  C   UNK d   0      -1.082   5.443  23.293  0.00  0.00     0.115 C 
BRANCH   5   6
ATOM      6  C   UNK d   0      -0.837   6.894  23.608  0.00  0.00     0.052 C 
BRANCH   6   7
ATOM      7  C   UNK d   0       0.337   7.464  22.849  0.00  0.00    -0.020 A 
ATOM      8  C   UNK d   0       0.324   8.431  21.968  0.00  0.00    -0.011 A 
ATOM      9  C   UNK d   0       1.686   8.626  21.500  0.00  0.00     0.067 A 
ATOM     10  C   UNK d   0       2.335   9.488  20.603  0.00  0.00     0.062 C 
ATOM     11  N   UNK d   0       2.463   7.730  22.145  0.00  0.00    -0.248 NA
ATOM     12  C   UNK d   0       3.712   9.712  20.489  0.00  0.00     0.041 A 
ATOM     13  N   UNK d   0       4.753   8.859  20.508  0.00  0.00    -0.355 N 
ATOM     14  C   UNK d   0       4.180  11.034  20.385  0.00  0.00    -0.022 A 
ATOM     15  C   UNK d   0       5.870   9.606  20.428  0.00  0.00     0.042 A 
ATOM     16  H   UNK d   0       4.699   7.749  20.558  0.00  0.00     0.166 HD
ATOM     17  C   UNK d   0       7.226   9.223  20.407  0.00  0.00     0.062 C 
ATOM     18  C   UNK d   0       5.551  10.975  20.349  0.00  0.00    -0.013 A 
ATOM     19  C   UNK d   0       7.875   8.305  21.194  0.00  0.00     0.067 A 
ATOM     20  N   UNK d   0       7.113   7.514  21.954  0.00  0.00    -0.248 NA
ATOM     21  C   UNK d   0       9.259   7.945  21.453  0.00  0.00    -0.011 A 
ATOM     22  C   UNK d   0       7.899   6.664  22.692  0.00  0.00     0.066 A 
ATOM     23  C   UNK d   0       7.232   5.756  23.502  0.00  0.00     0.062 C 
ATOM     24  C   UNK d   0       9.266   6.986  22.334  0.00  0.00    -0.020 A 
ATOM     25  C   UNK d   0       5.849   5.539  23.593  0.00  0.00     0.041 A 
ATOM     26  N   UNK d   0       4.814   6.388  23.589  0.00  0.00    -0.355 N 
ATOM     27  C   UNK d   0       5.379   4.211  23.693  0.00  0.00    -0.022 A 
ATOM     28  C   UNK d   0       3.699   5.645  23.678  0.00  0.00     0.042 A 
ATOM     29  H   UNK d   0       4.870   7.503  23.549  0.00  0.00     0.166 HD
ATOM     30  C   UNK d   0       2.345   6.014  23.709  0.00  0.00     0.062 C 
ATOM     31  C   UNK d   0       4.021   4.269  23.746  0.00  0.00    -0.013 A 
ATOM     32  C   UNK d   0       1.711   7.001  22.971  0.00  0.00     0.066 A 
BRANCH   8  33
ATOM     33  C   UNK d   0      -0.851   9.197  21.511  0.00  0.00     0.151 C 
BRANCH  33  34
ATOM     34  C   UNK d   0      -1.013  10.475  22.228  0.00  0.00     0.143 C 
ATOM     35  O   UNK d   0      -0.912  11.556  21.630  0.00  0.00    -0.650 OA
BRANCH  34  36
ATOM     36  O   UNK d   0      -1.277  10.464  23.578  0.00  0.00    -0.776 OA
ATOM     37  H   UNK d   0      -0.600  10.836  24.258  0.00  0.00     0.167 HD
ENDBRANCH  34  36
ENDBRANCH  33  34
ENDBRANCH   8  33
BRANCH  31  38
ATOM     38  C   UNK d   0       3.081   3.090  23.842  0.00  0.00     0.151 C 
BRANCH  38  39
ATOM     39  C   UNK d   0       2.764   2.735  25.209  0.00  0.00     0.143 C 
ATOM     40  O   UNK d   0       1.770   3.190  25.802  0.00  0.00    -0.650 OA
BRANCH  39  41
ATOM     41  O   UNK d   0       3.593   1.850  25.898  0.00  0.00    -0.776 OA
ATOM     42  H   UNK d   0       3.767   0.941  25.458  0.00  0.00     0.167 HD
ENDBRANCH  39  41
ENDBRANCH  38  39
ENDBRANCH  31  38
BRANCH  27  43
ATOM     43  C   UNK d   0       6.158   2.920  23.740  0.00  0.00     0.052 C 
BRANCH  43  44
ATOM     44  C   UNK d   0       5.719   1.926  22.714  0.00  0.00     0.115 C 
BRANCH  44  45
ATOM     45  C   UNK d   0       5.764   0.593  23.368  0.00  0.00     0.139 C 
ATOM     46  O   UNK d   0       5.807  -0.425  22.633  0.00  0.00    -0.650 OA
BRANCH  45  47
ATOM     47  O   UNK d   0       5.767   0.431  24.736  0.00  0.00    -0.776 OA
ATOM     48  H   UNK d   0       6.604   0.136  25.264  0.00  0.00     0.167 HD
ENDBRANCH  45  47
ENDBRANCH  44  45
ENDBRANCH  43  44
ENDBRANCH  27  43
BRANCH  24  49
ATOM     49  C   UNK d   0      10.458   6.295  22.855  0.00  0.00     0.052 C 
BRANCH  49  50
ATOM     50  C   UNK d   0      10.667   6.634  24.309  0.00  0.00     0.115 C 
BRANCH  50  51
ATOM     51  C   UNK d   0      11.681   7.632  24.619  0.00  0.00     0.139 C 
ATOM     52  O   UNK d   0      11.850   8.663  23.927  0.00  0.00    -0.650 OA
BRANCH  51  53
ATOM     53  O   UNK d   0      12.506   7.452  25.719  0.00  0.00    -0.776 OA
ATOM     54  H   UNK d   0      12.749   6.514  25.984  0.00  0.00     0.167 HD
ENDBRANCH  51  53
ENDBRANCH  50  51
ENDBRANCH  49  50
ENDBRANCH  24  49
BRANCH  21  55
ATOM     55  C   UNK d   0      10.429   8.592  20.790  0.00  0.00     0.151 C 
BRANCH  55  56
ATOM     56  C   UNK d   0      10.414   8.398  19.332  0.00  0.00     0.143 C 
ATOM     57  O   UNK d   0      10.181   9.324  18.530  0.00  0.00    -0.650 OA
BRANCH  56  58
ATOM     58  O   UNK d   0      10.674   7.118  18.845  0.00  0.00    -0.776 OA
ATOM     59  H   UNK d   0      11.633   6.770  19.024  0.00  0.00     0.167 HD
ENDBRANCH  56  58
ENDBRANCH  55  56
ENDBRANCH  21  55
BRANCH  18  60
ATOM     60  C   UNK d   0       6.465  12.171  20.250  0.00  0.00     0.151 C 
BRANCH  60  61
ATOM     61  C   UNK d   0       7.304  11.940  19.064  0.00  0.00     0.143 C 
ATOM     62  O   UNK d   0       8.530  12.027  18.994  0.00  0.00    -0.650 OA
BRANCH  61  63
ATOM     63  O   UNK d   0       6.601  11.580  17.889  0.00  0.00    -0.776 OA
ATOM     64  H   UNK d   0       6.553  12.203  17.102  0.00  0.00     0.167 HD
ENDBRANCH  61  63
ENDBRANCH  60  61
ENDBRANCH  18  60
BRANCH  14  65
ATOM     65  C   UNK d   0       3.435  12.329  20.220  0.00  0.00     0.052 C 
BRANCH  65  66
ATOM     66  C   UNK d   0       2.517  12.620  21.354  0.00  0.00     0.115 C 
BRANCH  66  67
ATOM     67  C   UNK d   0       2.348  13.974  21.802  0.00  0.00     0.139 C 
ATOM     68  O   UNK d   0       2.067  14.878  20.932  0.00  0.00    -0.650 OA
BRANCH  67  69
ATOM     69  O   UNK d   0       2.452  14.460  23.105  0.00  0.00    -0.776 OA
ATOM     70  H   UNK d   0       3.217  15.130  23.273  0.00  0.00     0.167 HD
ENDBRANCH  67  69
ENDBRANCH  66  67
ENDBRANCH  65  66
ENDBRANCH  14  65
ENDBRANCH   6   7
ENDBRANCH   5   6
ENDBRANCH   2   5
TORSDOF 28
ENDMDL
MODEL 3
REMARK VINA RESULT:     -10.2      1.857      5.983
REMARK  28 active torsions:
REMARK  status: ('A' for Active; 'I' for Inactive)
REMARK    1  A    between atoms: C_2  and  O_3 
REMARK    2  A    between atoms: C_2  and  C_4 
REMARK    3  A    between atoms: C_4  and  C_5 
REMARK    4  A    between atoms: C_5  and  C_6 
REMARK    5  A    between atoms: C_7  and  C_8 
REMARK    6  A    between atoms: C_8  and  C_9 
REMARK    7  A    between atoms: C_9  and  O_11 
REMARK    8  A    between atoms: C_28  and  C_29 
REMARK    9  A    between atoms: C_29  and  C_30 
REMARK   10  A    between atoms: C_30  and  O_32 
REMARK   11  A    between atoms: C_33  and  C_34 
REMARK   12  A    between atoms: C_34  and  C_35 
REMARK   13  A    between atoms: C_35  and  C_36 
REMARK   14  A    between atoms: C_36  and  O_38 
REMARK   15  A    between atoms: C_39  and  C_40 
REMARK   16  A    between atoms: C_40  and  C_41 
REMARK   17  A    between atoms: C_41  and  C_42 
REMARK   18  A    between atoms: C_42  and  O_44 
REMARK   19  A    between atoms: C_45  and  C_46 
REMARK   20  A    between atoms: C_46  and  C_47 
REMARK   21  A    between atoms: C_47  and  O_49 
REMARK   22  A    between atoms: C_50  and  C_51 
REMARK   23  A    between atoms: C_51  and  C_52 
REMARK   24  A    between atoms: C_52  and  O_54 
REMARK   25  A    between atoms: C_55  and  C_56 
REMARK   26  A    between atoms: C_56  and  C_57 
REMARK   27  A    between atoms: C_57  and  C_58 
REMARK   28  A    between atoms: C_58  and  O_60 
ROOT
ATOM      1  O   UNK d   0       3.923   1.947  22.558  0.00  0.00    -0.650 OA
ATOM      2  C   UNK d   0       3.341   1.584  23.604  0.00  0.00     0.139 C 
ENDROOT
BRANCH   2   3
ATOM      3  O   UNK d   0       3.971   0.713  24.460  0.00  0.00    -0.776 OA
ATOM      4  H   UNK d   0       4.353  -0.173  24.123  0.00  0.00     0.167 HD
ENDBRANCH   2   3
BRANCH   2   5
ATOM      5  C   UNK d   0       1.975   2.094  23.915  0.00  0.00     0.115 C 
BRANCH   5   6
ATOM      6  C   UNK d   0       2.066   3.328  24.771  0.00  0.00     0.052 C 
BRANCH   6   7
ATOM      7  C   UNK d   0       2.050   4.601  23.959  0.00  0.00    -0.020 A 
ATOM      8  C   UNK d   0       1.008   5.230  23.479  0.00  0.00    -0.011 A 
ATOM      9  C   UNK d   0       1.485   6.399  22.760  0.00  0.00     0.067 A 
ATOM     10  C   UNK d   0       0.900   7.464  22.056  0.00  0.00     0.062 C 
ATOM     11  N   UNK d   0       2.832   6.401  22.848  0.00  0.00    -0.248 NA
ATOM     12  C   UNK d   0       1.514   8.658  21.663  0.00  0.00     0.041 A 
ATOM     13  N   UNK d   0       2.726   8.897  21.128  0.00  0.00    -0.355 N 
ATOM     14  C   UNK d   0       0.838   9.873  21.878  0.00  0.00    -0.022 A 
ATOM     15  C   UNK d   0       2.840  10.233  21.005  0.00  0.00     0.042 A 
ATOM     16  H   UNK d   0       3.478   8.136  20.824  0.00  0.00     0.166 HD
ATOM     17  C   UNK d   0       3.898  11.018  20.504  0.00  0.00     0.062 C 
ATOM     18  C   UNK d   0       1.676  10.879  21.466  0.00  0.00    -0.013 A 
ATOM     19  C   UNK d   0       5.243  10.907  20.747  0.00  0.00     0.067 A 
ATOM     20  N   UNK d   0       5.655   9.805  21.379  0.00  0.00    -0.248 NA
ATOM     21  C   UNK d   0       6.420  11.723  20.500  0.00  0.00    -0.011 A 
ATOM     22  C   UNK d   0       7.015   9.842  21.564  0.00  0.00     0.066 A 
ATOM     23  C   UNK d   0       7.584   8.736  22.178  0.00  0.00     0.062 C 
ATOM     24  C   UNK d   0       7.453  11.097  20.984  0.00  0.00    -0.020 A 
ATOM     25  C   UNK d   0       6.952   7.540  22.553  0.00  0.00     0.041 A 
ATOM     26  N   UNK d   0       5.754   7.303  23.100  0.00  0.00    -0.355 N 
ATOM     27  C   UNK d   0       7.629   6.321  22.333  0.00  0.00    -0.022 A 
ATOM     28  C   UNK d   0       5.641   5.972  23.231  0.00  0.00     0.042 A 
ATOM     29  H   UNK d   0       5.003   8.070  23.414  0.00  0.00     0.166 HD
ATOM     30  C   UNK d   0       4.598   5.180  23.736  0.00  0.00     0.062 C 
ATOM     31  C   UNK d   0       6.807   5.324  22.758  0.00  0.00    -0.013 A 
ATOM     32  C   UNK d   0       3.234   5.346  23.557  0.00  0.00     0.066 A 
BRANCH   8  33
ATOM     33  C   UNK d   0      -0.406   4.837  23.625  0.00  0.00     0.151 C 
BRANCH  33  34
ATOM     34  C   UNK d   0      -1.051   5.453  24.799  0.00  0.00     0.143 C 
ATOM     35  O   UNK d   0      -2.018   4.909  25.351  0.00  0.00    -0.650 OA
BRANCH  34  36
ATOM     36  O   UNK d   0      -0.572   6.647  25.284  0.00  0.00    -0.776 OA
ATOM     37  H   UNK d   0       0.297   7.062  24.920  0.00  0.00     0.167 HD
ENDBRANCH  34  36
ENDBRANCH  33  34
ENDBRANCH   8  33
BRANCH  31  38
ATOM     38  C   UNK d   0       7.101   3.843  22.708  0.00  0.00     0.151 C 
BRANCH  38  39
ATOM     39  C   UNK d   0       7.116   3.228  24.018  0.00  0.00     0.143 C 
ATOM     40  O   UNK d   0       7.601   3.794  25.013  0.00  0.00    -0.650 OA
BRANCH  39  41
ATOM     41  O   UNK d   0       6.569   1.956  24.185  0.00  0.00    -0.776 OA
ATOM     42  H   UNK d   0       6.812   1.459  25.048  0.00  0.00     0.167 HD
ENDBRANCH  39  41
ENDBRANCH  38  39
ENDBRANCH  31  38
BRANCH  27  43
ATOM     43  C   UNK d   0       8.998   6.077  21.749  0.00  0.00     0.052 C 
BRANCH  43  44
ATOM     44  C   UNK d   0      10.066   5.935  22.784  0.00  0.00     0.115 C 
BRANCH  44  45
ATOM     45  C   UNK d   0      10.887   7.172  22.720  0.00  0.00     0.139 C 
ATOM     46  O   UNK d   0      11.560   7.382  21.681  0.00  0.00    -0.650 OA
BRANCH  45  47
ATOM     47  O   UNK d   0      10.934   8.092  23.745  0.00  0.00    -0.776 OA
ATOM     48  H   UNK d   0      10.610   9.067  23.638  0.00  0.00     0.167 HD
ENDBRANCH  45  47
ENDBRANCH  44  45
ENDBRANCH  43  44
ENDBRANCH  27  43
BRANCH  24  49
ATOM     49  C   UNK d   0       8.853  11.549  20.917  0.00  0.00     0.052 C 
BRANCH  49  50
ATOM     50  C   UNK d   0       9.682  10.574  20.121  0.00  0.00     0.115 C 
BRANCH  50  51
ATOM     51  C   UNK d   0       9.239  10.276  18.766  0.00  0.00     0.139 C 
ATOM     52  O   UNK d   0       9.220  11.137  17.855  0.00  0.00    -0.650 OA
BRANCH  51  53
ATOM     53  O   UNK d   0       8.813   8.995  18.449  0.00  0.00    -0.776 OA
ATOM     54  H   UNK d   0       9.510   8.284  18.307  0.00  0.00     0.167 HD
ENDBRANCH  51  53
ENDBRANCH  50  51
ENDBRANCH  49  50
ENDBRANCH  24  49
BRANCH  21  55
ATOM     55  C   UNK d   0       6.390  13.042  19.802  0.00  0.00     0.151 C 
BRANCH  55  56
ATOM     56  C   UNK d   0       5.952  14.128  20.693  0.00  0.00     0.143 C 
ATOM     57  O   UNK d   0       4.756  14.458  20.818  0.00  0.00    -0.650 OA
BRANCH  56  58
ATOM     58  O   UNK d   0       6.930  14.805  21.420  0.00  0.00    -0.776 OA
ATOM     59  H   UNK d   0       7.352  14.261  22.194  0.00  0.00     0.167 HD
ENDBRANCH  56  58
ENDBRANCH  55  56
ENDBRANCH  21  55
BRANCH  18  60
ATOM     60  C   UNK d   0       1.354  12.352  21.525  0.00  0.00     0.151 C 
BRANCH  60  61
ATOM     61  C   UNK d   0       2.169  12.900  22.620  0.00  0.00     0.143 C 
ATOM     62  O   UNK d   0       2.570  12.301  23.618  0.00  0.00    -0.650 OA
BRANCH  61  63
ATOM     63  O   UNK d   0       2.517  14.265  22.486  0.00  0.00    -0.776 OA
ATOM     64  H   UNK d   0       3.475  14.564  22.538  0.00  0.00     0.167 HD
ENDBRANCH  61  63
ENDBRANCH  60  61
ENDBRANCH  18  60
BRANCH  14  65
ATOM     65  C   UNK d   0      -0.563  10.147  22.348  0.00  0.00     0.052 C 
BRANCH  65  66
ATOM     66  C   UNK d   0      -1.595   9.450  21.534  0.00  0.00     0.115 C 
BRANCH  66  67
ATOM     67  C   UNK d   0      -2.612   8.675  22.188  0.00  0.00     0.139 C 
ATOM     68  O   UNK d   0      -2.410   8.295  23.400  0.00  0.00    -0.650 OA
BRANCH  67  69
ATOM     69  O   UNK d   0      -3.836   8.260  21.665  0.00  0.00    -0.776 OA
ATOM     70  H   UNK d   0      -4.387   8.986  21.185  0.00  0.00     0.167 HD
ENDBRANCH  67  69
ENDBRANCH  66  67
ENDBRANCH  65  66
ENDBRANCH  14  65
ENDBRANCH   6   7
ENDBRANCH   5   6
ENDBRANCH   2   5
TORSDOF 28
ENDMDL
MODEL 4
REMARK VINA RESULT:     -10.2      1.932      7.967
REMARK  28 active torsions:
REMARK  status: ('A' for Active; 'I' for Inactive)
REMARK    1  A    between atoms: C_2  and  O_3 
REMARK    2  A    between atoms: C_2  and  C_4 
REMARK    3  A    between atoms: C_4  and  C_5 
REMARK    4  A    between atoms: C_5  and  C_6 
REMARK    5  A    between atoms: C_7  and  C_8 
REMARK    6  A    between atoms: C_8  and  C_9 
REMARK    7  A    between atoms: C_9  and  O_11 
REMARK    8  A    between atoms: C_28  and  C_29 
REMARK    9  A    between atoms: C_29  and  C_30 
REMARK   10  A    between atoms: C_30  and  O_32 
REMARK   11  A    between atoms: C_33  and  C_34 
REMARK   12  A    between atoms: C_34  and  C_35 
REMARK   13  A    between atoms: C_35  and  C_36 
REMARK   14  A    between atoms: C_36  and  O_38 
REMARK   15  A    between atoms: C_39  and  C_40 
REMARK   16  A    between atoms: C_40  and  C_41 
REMARK   17  A    between atoms: C_41  and  C_42 
REMARK   18  A    between atoms: C_42  and  O_44 
REMARK   19  A    between atoms: C_45  and  C_46 
REMARK   20  A    between atoms: C_46  and  C_47 
REMARK   21  A    between atoms: C_47  and  O_49 
REMARK   22  A    between atoms: C_50  and  C_51 
REMARK   23  A    between atoms: C_51  and  C_52 
REMARK   24  A    between atoms: C_52  and  O_54 
REMARK   25  A    between atoms: C_55  and  C_56 
REMARK   26  A    between atoms: C_56  and  C_57 
REMARK   27  A    between atoms: C_57  and  C_58 
REMARK   28  A    between atoms: C_58  and  O_60 
ROOT
ATOM      1  O   UNK d   0      -2.302   5.247  21.991  0.00  0.00    -0.650 OA
ATOM      2  C   UNK d   0      -2.189   5.471  23.217  0.00  0.00     0.139 C 
ENDROOT
BRANCH   2   3
ATOM      3  O   UNK d   0      -3.015   6.395  23.812  0.00  0.00    -0.776 OA
ATOM      4  H   UNK d   0      -2.794   7.392  23.787  0.00  0.00     0.167 HD
ENDBRANCH   2   3
BRANCH   2   5
ATOM      5  C   UNK d   0      -1.167   4.742  24.019  0.00  0.00     0.115 C 
BRANCH   5   6
ATOM      6  C   UNK d   0      -0.230   3.995  23.109  0.00  0.00     0.052 C 
BRANCH   6   7
ATOM      7  C   UNK d   0       1.181   4.530  23.163  0.00  0.00    -0.020 A 
ATOM      8  C   UNK d   0       2.236   3.948  23.675  0.00  0.00    -0.011 A 
ATOM      9  C   UNK d   0       3.366   4.845  23.503  0.00  0.00     0.067 A 
ATOM     10  C   UNK d   0       4.737   4.815  23.802  0.00  0.00     0.062 C 
ATOM     11  N   UNK d   0       2.908   5.952  22.882  0.00  0.00    -0.248 NA
ATOM     12  C   UNK d   0       5.731   5.666  23.305  0.00  0.00     0.041 A 
ATOM     13  N   UNK d   0       5.745   7.000  23.119  0.00  0.00    -0.355 N 
ATOM     14  C   UNK d   0       6.939   5.108  22.849  0.00  0.00    -0.022 A 
ATOM     15  C   UNK d   0       6.927   7.301  22.549  0.00  0.00     0.042 A 
ATOM     16  H   UNK d   0       4.943   7.716  23.403  0.00  0.00     0.166 HD
ATOM     17  C   UNK d   0       7.456   8.543  22.146  0.00  0.00     0.062 C 
ATOM     18  C   UNK d   0       7.703   6.140  22.364  0.00  0.00    -0.013 A 
ATOM     19  C   UNK d   0       6.845   9.558  21.456  0.00  0.00     0.067 A 
ATOM     20  N   UNK d   0       5.521   9.473  21.302  0.00  0.00    -0.248 NA
ATOM     21  C   UNK d   0       7.275  10.776  20.790  0.00  0.00    -0.011 A 
ATOM     22  C   UNK d   0       5.054  10.546  20.583  0.00  0.00     0.066 A 
ATOM     23  C   UNK d   0       3.683  10.603  20.381  0.00  0.00     0.062 C 
ATOM     24  C   UNK d   0       6.223  11.347  20.278  0.00  0.00    -0.020 A 
ATOM     25  C   UNK d   0       2.701   9.745  20.898  0.00  0.00     0.041 A 
ATOM     26  N   UNK d   0       2.681   8.418  21.070  0.00  0.00    -0.355 N 
ATOM     27  C   UNK d   0       1.490  10.307  21.360  0.00  0.00    -0.022 A 
ATOM     28  C   UNK d   0       1.500   8.114  21.630  0.00  0.00     0.042 A 
ATOM     29  H   UNK d   0       3.484   7.698  20.775  0.00  0.00     0.166 HD
ATOM     30  C   UNK d   0       0.957   6.882  22.027  0.00  0.00     0.062 C 
ATOM     31  C   UNK d   0       0.725   9.282  21.825  0.00  0.00    -0.013 A 
ATOM     32  C   UNK d   0       1.601   5.825  22.649  0.00  0.00     0.066 A 
BRANCH   8  33
ATOM     33  C   UNK d   0       2.290   2.624  24.322  0.00  0.00     0.151 C 
BRANCH  33  34
ATOM     34  C   UNK d   0       1.972   2.677  25.760  0.00  0.00     0.143 C 
ATOM     35  O   UNK d   0       1.510   3.707  26.272  0.00  0.00    -0.650 OA
BRANCH  34  36
ATOM     36  O   UNK d   0       2.193   1.568  26.542  0.00  0.00    -0.776 OA
ATOM     37  H   UNK d   0       1.476   1.224  27.196  0.00  0.00     0.167 HD
ENDBRANCH  34  36
ENDBRANCH  33  34
ENDBRANCH   8  33
BRANCH  31  38
ATOM     38  C   UNK d   0      -0.654   9.403  22.431  0.00  0.00     0.151 C 
BRANCH  38  39
ATOM     39  C   UNK d   0      -0.639   9.338  23.877  0.00  0.00     0.143 C 
ATOM     40  O   UNK d   0       0.356   9.663  24.548  0.00  0.00    -0.650 OA
BRANCH  39  41
ATOM     41  O   UNK d   0      -1.776   8.900  24.556  0.00  0.00    -0.776 OA
ATOM     42  H   UNK d   0      -2.620   9.473  24.461  0.00  0.00     0.167 HD
ENDBRANCH  39  41
ENDBRANCH  38  39
ENDBRANCH  31  38
BRANCH  27  43
ATOM     43  C   UNK d   0       1.045  11.748  21.372  0.00  0.00     0.052 C 
BRANCH  43  44
ATOM     44  C   UNK d   0       1.592  12.526  22.525  0.00  0.00     0.115 C 
BRANCH  44  45
ATOM     45  C   UNK d   0       2.074  13.819  21.975  0.00  0.00     0.139 C 
ATOM     46  O   UNK d   0       2.708  14.588  22.739  0.00  0.00    -0.650 OA
BRANCH  45  47
ATOM     47  O   UNK d   0       1.859  14.202  20.669  0.00  0.00    -0.776 OA
ATOM     48  H   UNK d   0       2.338  13.757  19.869  0.00  0.00     0.167 HD
ENDBRANCH  45  47
ENDBRANCH  44  45
ENDBRANCH  43  44
ENDBRANCH  27  43
BRANCH  24  49
ATOM     49  C   UNK d   0       6.199  12.626  19.547  0.00  0.00     0.052 C 
BRANCH  49  50
ATOM     50  C   UNK d   0       5.523  13.690  20.375  0.00  0.00     0.115 C 
BRANCH  50  51
ATOM     51  C   UNK d   0       5.235  14.959  19.720  0.00  0.00     0.139 C 
ATOM     52  O   UNK d   0       4.392  15.773  20.164  0.00  0.00    -0.650 OA
BRANCH  51  53
ATOM     53  O   UNK d   0       5.908  15.298  18.556  0.00  0.00    -0.776 OA
ATOM     54  H   UNK d   0       5.645  16.147  18.086  0.00  0.00     0.167 HD
ENDBRANCH  51  53
ENDBRANCH  50  51
ENDBRANCH  49  50
ENDBRANCH  24  49
BRANCH  21  55
ATOM     55  C   UNK d   0       8.691  11.244  20.740  0.00  0.00     0.151 C 
BRANCH  55  56
ATOM     56  C   UNK d   0       8.986  12.227  21.794  0.00  0.00     0.143 C 
ATOM     57  O   UNK d   0       8.850  13.455  21.628  0.00  0.00    -0.650 OA
BRANCH  56  58
ATOM     58  O   UNK d   0       9.434  11.746  23.023  0.00  0.00    -0.776 OA
ATOM     59  H   UNK d   0       9.402  10.716  23.126  0.00  0.00     0.167 HD
ENDBRANCH  56  58
ENDBRANCH  55  56
ENDBRANCH  21  55
BRANCH  18  60
ATOM     60  C   UNK d   0       9.080   5.990  21.767  0.00  0.00     0.151 C 
BRANCH  60  61
ATOM     61  C   UNK d   0      10.023   6.406  22.816  0.00  0.00     0.143 C 
ATOM     62  O   UNK d   0      10.128   5.935  23.949  0.00  0.00    -0.650 OA
BRANCH  61  63
ATOM     63  O   UNK d   0      10.893   7.464  22.459  0.00  0.00    -0.776 OA
ATOM     64  H   UNK d   0      10.937   7.803  21.514  0.00  0.00     0.167 HD
ENDBRANCH  61  63
ENDBRANCH  60  61
ENDBRANCH  18  60
BRANCH  14  65
ATOM     65  C   UNK d   0       7.461   3.701  22.927  0.00  0.00     0.052 C 
BRANCH  65  66
ATOM     66  C   UNK d   0       7.041   2.992  24.166  0.00  0.00     0.115 C 
BRANCH  66  67
ATOM     67  C   UNK d   0       6.331   1.748  24.068  0.00  0.00     0.139 C 
ATOM     68  O   UNK d   0       6.333   1.128  22.942  0.00  0.00    -0.650 OA
BRANCH  67  69
ATOM     69  O   UNK d   0       5.612   1.096  25.068  0.00  0.00    -0.776 OA
ATOM     70  H   UNK d   0       6.121   0.922  25.947  0.00  0.00     0.167 HD
ENDBRANCH  67  69
ENDBRANCH  66  67
ENDBRANCH  65  66
ENDBRANCH  14  65
ENDBRANCH   6   7
ENDBRANCH   5   6
ENDBRANCH   2   5
TORSDOF 28
ENDMDL
MODEL 5
REMARK VINA RESULT:     -10.1      1.646      7.501
REMARK  28 active torsions:
REMARK  status: ('A' for Active; 'I' for Inactive)
REMARK    1  A    between atoms: C_2  and  O_3 
REMARK    2  A    between atoms: C_2  and  C_4 
REMARK    3  A    between atoms: C_4  and  C_5 
REMARK    4  A    between atoms: C_5  and  C_6 
REMARK    5  A    between atoms: C_7  and  C_8 
REMARK    6  A    between atoms: C_8  and  C_9 
REMARK    7  A    between atoms: C_9  and  O_11 
REMARK    8  A    between atoms: C_28  and  C_29 
REMARK    9  A    between atoms: C_29  and  C_30 
REMARK   10  A    between atoms: C_30  and  O_32 
REMARK   11  A    between atoms: C_33  and  C_34 
REMARK   12  A    between atoms: C_34  and  C_35 
REMARK   13  A    between atoms: C_35  and  C_36 
REMARK   14  A    between atoms: C_36  and  O_38 
REMARK   15  A    between atoms: C_39  and  C_40 
REMARK   16  A    between atoms: C_40  and  C_41 
REMARK   17  A    between atoms: C_41  and  C_42 
REMARK   18  A    between atoms: C_42  and  O_44 
REMARK   19  A    between atoms: C_45  and  C_46 
REMARK   20  A    between atoms: C_46  and  C_47 
REMARK   21  A    between atoms: C_47  and  O_49 
REMARK   22  A    between atoms: C_50  and  C_51 
REMARK   23  A    between atoms: C_51  and  C_52 
REMARK   24  A    between atoms: C_52  and  O_54 
REMARK   25  A    between atoms: C_55  and  C_56 
REMARK   26  A    between atoms: C_56  and  C_57 
REMARK   27  A    between atoms: C_57  and  C_58 
REMARK   28  A    between atoms: C_58  and  O_60 
ROOT
ATOM      1  O   UNK d   0      -0.566  10.467  23.644  0.00  0.00    -0.650 OA
ATOM      2  C   UNK d   0      -0.953  10.575  22.459  0.00  0.00     0.139 C 
ENDROOT
BRANCH   2   3
ATOM      3  O   UNK d   0      -0.601  11.688  21.735  0.00  0.00    -0.776 OA
ATOM      4  H   UNK d   0       0.331  12.099  21.817  0.00  0.00     0.167 HD
ENDBRANCH   2   3
BRANCH   2   5
ATOM      5  C   UNK d   0      -1.787   9.504  21.844  0.00  0.00     0.115 C 
BRANCH   5   6
ATOM      6  C   UNK d   0      -0.950   8.663  20.919  0.00  0.00     0.052 C 
BRANCH   6   7
ATOM      7  C   UNK d   0       0.270   8.089  21.599  0.00  0.00    -0.020 A 
ATOM      8  C   UNK d   0       0.305   7.207  22.565  0.00  0.00    -0.011 A 
ATOM      9  C   UNK d   0       1.699   6.969  22.900  0.00  0.00     0.067 A 
ATOM     10  C   UNK d   0       2.398   6.150  23.801  0.00  0.00     0.062 C 
ATOM     11  N   UNK d   0       2.445   7.752  22.093  0.00  0.00    -0.248 NA
ATOM     12  C   UNK d   0       3.765   5.850  23.788  0.00  0.00     0.041 A 
ATOM     13  N   UNK d   0       4.841   6.630  23.575  0.00  0.00    -0.355 N 
ATOM     14  C   UNK d   0       4.170   4.515  23.966  0.00  0.00    -0.022 A 
ATOM     15  C   UNK d   0       5.919   5.823  23.606  0.00  0.00     0.042 A 
ATOM     16  H   UNK d   0       4.842   7.732  23.425  0.00  0.00     0.166 HD
ATOM     17  C   UNK d   0       7.287   6.120  23.444  0.00  0.00     0.062 C 
ATOM     18  C   UNK d   0       5.537   4.489  23.849  0.00  0.00    -0.013 A 
ATOM     19  C   UNK d   0       7.891   6.920  22.509  0.00  0.00     0.067 A 
ATOM     20  N   UNK d   0       7.092   7.687  21.763  0.00  0.00    -0.248 NA
ATOM     21  C   UNK d   0       9.254   7.167  22.070  0.00  0.00    -0.011 A 
ATOM     22  C   UNK d   0       7.834   8.417  20.866  0.00  0.00     0.066 A 
ATOM     23  C   UNK d   0       7.130   9.289  20.049  0.00  0.00     0.062 C 
ATOM     24  C   UNK d   0       9.214   8.041  21.105  0.00  0.00    -0.020 A 
ATOM     25  C   UNK d   0       5.758   9.585  20.087  0.00  0.00     0.041 A 
ATOM     26  N   UNK d   0       4.687   8.808  20.284  0.00  0.00    -0.355 N 
ATOM     27  C   UNK d   0       5.353  10.927  19.912  0.00  0.00    -0.022 A 
ATOM     28  C   UNK d   0       3.611   9.609  20.244  0.00  0.00     0.042 A 
ATOM     29  H   UNK d   0       4.688   7.699  20.423  0.00  0.00     0.166 HD
ATOM     30  C   UNK d   0       2.244   9.326  20.394  0.00  0.00     0.062 C 
ATOM     31  C   UNK d   0       3.995  10.950  20.011  0.00  0.00    -0.013 A 
ATOM     32  C   UNK d   0       1.645   8.451  21.286  0.00  0.00     0.066 A 
BRANCH   8  33
ATOM     33  C   UNK d   0      -0.850   6.562  23.215  0.00  0.00     0.151 C 
BRANCH  33  34
ATOM     34  C   UNK d   0      -0.900   6.810  24.668  0.00  0.00     0.143 C 
ATOM     35  O   UNK d   0      -1.054   5.877  25.468  0.00  0.00    -0.650 OA
BRANCH  34  36
ATOM     36  O   UNK d   0      -0.773   8.097  25.137  0.00  0.00    -0.776 OA
ATOM     37  H   UNK d   0      -0.618   8.289  26.136  0.00  0.00     0.167 HD
ENDBRANCH  34  36
ENDBRANCH  33  34
ENDBRANCH   8  33
BRANCH  31  38
ATOM     38  C   UNK d   0       3.115  12.174  19.903  0.00  0.00     0.151 C 
BRANCH  38  39
ATOM     39  C   UNK d   0       2.873  12.805  21.183  0.00  0.00     0.143 C 
ATOM     40  O   UNK d   0       2.305  12.215  22.119  0.00  0.00    -0.650 OA
BRANCH  39  41
ATOM     41  O   UNK d   0       3.285  14.121  21.388  0.00  0.00    -0.776 OA
ATOM     42  H   UNK d   0       2.599  14.856  21.190  0.00  0.00     0.167 HD
ENDBRANCH  39  41
ENDBRANCH  38  39
ENDBRANCH  31  38
BRANCH  27  43
ATOM     43  C   UNK d   0       6.189  12.156  19.658  0.00  0.00     0.052 C 
BRANCH  43  44
ATOM     44  C   UNK d   0       6.668  12.814  20.912  0.00  0.00     0.115 C 
BRANCH  44  45
ATOM     45  C   UNK d   0       6.427  14.271  20.744  0.00  0.00     0.139 C 
ATOM     46  O   UNK d   0       5.743  14.648  19.761  0.00  0.00    -0.650 OA
BRANCH  45  47
ATOM     47  O   UNK d   0       6.916  15.215  21.621  0.00  0.00    -0.776 OA
ATOM     48  H   UNK d   0       7.227  14.982  22.578  0.00  0.00     0.167 HD
ENDBRANCH  45  47
ENDBRANCH  44  45
ENDBRANCH  43  44
ENDBRANCH  27  43
BRANCH  24  49
ATOM     49  C   UNK d   0      10.374   8.606  20.396  0.00  0.00     0.052 C 
BRANCH  49  50
ATOM     50  C   UNK d   0      10.474  10.088  20.650  0.00  0.00     0.115 C 
BRANCH  50  51
ATOM     51  C   UNK d   0      10.434  10.529  22.038  0.00  0.00     0.139 C 
ATOM     52  O   UNK d   0      11.368  10.309  22.845  0.00  0.00    -0.650 OA
BRANCH  51  53
ATOM     53  O   UNK d   0       9.327  11.219  22.507  0.00  0.00    -0.776 OA
ATOM     54  H   UNK d   0       8.511  10.691  22.763  0.00  0.00     0.167 HD
ENDBRANCH  51  53
ENDBRANCH  50  51
ENDBRANCH  49  50
ENDBRANCH  24  49
BRANCH  21  55
ATOM     55  C   UNK d   0      10.455   6.508  22.662  0.00  0.00     0.151 C 
BRANCH  55  56
ATOM     56  C   UNK d   0      11.018   7.286  23.776  0.00  0.00     0.143 C 
ATOM     57  O   UNK d   0      10.356   7.597  24.786  0.00  0.00    -0.650 OA
BRANCH  56  58
ATOM     58  O   UNK d   0      12.351   7.685  23.681  0.00  0.00    -0.776 OA
ATOM     59  H   UNK d   0      12.893   7.608  24.561  0.00  0.00     0.167 HD
ENDBRANCH  56  58
ENDBRANCH  55  56
ENDBRANCH  21  55
BRANCH  18  60
ATOM     60  C   UNK d   0       6.392   3.252  23.964  0.00  0.00     0.151 C 
BRANCH  60  61
ATOM     61  C   UNK d   0       6.508   2.713  22.600  0.00  0.00     0.143 C 
ATOM     62  O   UNK d   0       6.002   1.678  22.166  0.00  0.00    -0.650 OA
BRANCH  61  63
ATOM     63  O   UNK d   0       7.291   3.488  21.711  0.00  0.00    -0.776 OA
ATOM     64  H   UNK d   0       7.268   4.492  21.740  0.00  0.00     0.167 HD
ENDBRANCH  61  63
ENDBRANCH  60  61
ENDBRANCH  18  60
BRANCH  14  65
ATOM     65  C   UNK d   0       3.380   3.291  24.334  0.00  0.00     0.052 C 
BRANCH  65  66
ATOM     66  C   UNK d   0       2.769   2.618  23.156  0.00  0.00     0.115 C 
BRANCH  66  67
ATOM     67  C   UNK d   0       2.641   1.188  23.141  0.00  0.00     0.139 C 
ATOM     68  O   UNK d   0       1.580   0.662  23.643  0.00  0.00    -0.650 OA
BRANCH  67  69
ATOM     69  O   UNK d   0       3.546   0.255  22.636  0.00  0.00    -0.776 OA
ATOM     70  H   UNK d   0       4.400   0.644  22.212  0.00  0.00     0.167 HD
ENDBRANCH  67  69
ENDBRANCH  66  67
ENDBRANCH  65  66
ENDBRANCH  14  65
ENDBRANCH   6   7
ENDBRANCH   5   6
ENDBRANCH   2   5
TORSDOF 28
ENDMDL
MODEL 6
REMARK VINA RESULT:     -10.1      1.705      7.466
REMARK  28 active torsions:
REMARK  status: ('A' for Active; 'I' for Inactive)
REMARK    1  A    between atoms: C_2  and  O_3 
REMARK    2  A    between atoms: C_2  and  C_4 
REMARK    3  A    between atoms: C_4  and  C_5 
REMARK    4  A    between atoms: C_5  and  C_6 
REMARK    5  A    between atoms: C_7  and  C_8 
REMARK    6  A    between atoms: C_8  and  C_9 
REMARK    7  A    between atoms: C_9  and  O_11 
REMARK    8  A    between atoms: C_28  and  C_29 
REMARK    9  A    between atoms: C_29  and  C_30 
REMARK   10  A    between atoms: C_30  and  O_32 
REMARK   11  A    between atoms: C_33  and  C_34 
REMARK   12  A    between atoms: C_34  and  C_35 
REMARK   13  A    between atoms: C_35  and  C_36 
REMARK   14  A    between atoms: C_36  and  O_38 
REMARK   15  A    between atoms: C_39  and  C_40 
REMARK   16  A    between atoms: C_40  and  C_41 
REMARK   17  A    between atoms: C_41  and  C_42 
REMARK   18  A    between atoms: C_42  and  O_44 
REMARK   19  A    between atoms: C_45  and  C_46 
REMARK   20  A    between atoms: C_46  and  C_47 
REMARK   21  A    between atoms: C_47  and  O_49 
REMARK   22  A    between atoms: C_50  and  C_51 
REMARK   23  A    between atoms: C_51  and  C_52 
REMARK   24  A    between atoms: C_52  and  O_54 
REMARK   25  A    between atoms: C_55  and  C_56 
REMARK   26  A    between atoms: C_56  and  C_57 
REMARK   27  A    between atoms: C_57  and  C_58 
REMARK   28  A    between atoms: C_58  and  O_60 
ROOT
ATOM      1  O   UNK d   0       1.777  16.092  20.295  0.00  0.00    -0.650 OA
ATOM      2  C   UNK d   0       2.315  14.971  20.437  0.00  0.00     0.139 C 
ENDROOT
BRANCH   2   3
ATOM      3  O   UNK d   0       3.412  14.648  19.675  0.00  0.00    -0.776 OA
ATOM      4  H   UNK d   0       3.497  14.972  18.709  0.00  0.00     0.167 HD
ENDBRANCH   2   3
BRANCH   2   5
ATOM      5  C   UNK d   0       1.766  13.998  21.423  0.00  0.00     0.115 C 
BRANCH   5   6
ATOM      6  C   UNK d   0       1.267  12.768  20.715  0.00  0.00     0.052 C 
BRANCH   6   7
ATOM      7  C   UNK d   0       1.566  11.497  21.475  0.00  0.00    -0.020 A 
ATOM      8  C   UNK d   0       0.770  10.843  22.280  0.00  0.00    -0.011 A 
ATOM      9  C   UNK d   0       1.496   9.689  22.784  0.00  0.00     0.067 A 
ATOM     10  C   UNK d   0       1.218   8.611  23.639  0.00  0.00     0.062 C 
ATOM     11  N   UNK d   0       2.730   9.723  22.238  0.00  0.00    -0.248 NA
ATOM     12  C   UNK d   0       1.961   7.436  23.790  0.00  0.00     0.041 A 
ATOM     13  N   UNK d   0       3.289   7.231  23.874  0.00  0.00    -0.355 N 
ATOM     14  C   UNK d   0       1.286   6.202  23.812  0.00  0.00    -0.022 A 
ATOM     15  C   UNK d   0       3.475   5.899  23.942  0.00  0.00     0.042 A 
ATOM     16  H   UNK d   0       4.079   8.014  23.905  0.00  0.00     0.166 HD
ATOM     17  C   UNK d   0       4.661   5.146  24.044  0.00  0.00     0.062 C 
ATOM     18  C   UNK d   0       2.241   5.221  23.906  0.00  0.00    -0.013 A 
ATOM     19  C   UNK d   0       5.837   5.293  23.354  0.00  0.00     0.067 A 
ATOM     20  N   UNK d   0       5.977   6.404  22.626  0.00  0.00    -0.248 NA
ATOM     21  C   UNK d   0       7.049   4.510  23.176  0.00  0.00    -0.011 A 
ATOM     22  C   UNK d   0       7.191   6.403  21.984  0.00  0.00     0.066 A 
ATOM     23  C   UNK d   0       7.484   7.522  21.219  0.00  0.00     0.062 C 
ATOM     24  C   UNK d   0       7.835   5.163  22.370  0.00  0.00    -0.020 A 
ATOM     25  C   UNK d   0       6.730   8.699  21.091  0.00  0.00     0.041 A 
ATOM     26  N   UNK d   0       5.411   8.901  20.991  0.00  0.00    -0.355 N 
ATOM     27  C   UNK d   0       7.408   9.937  21.072  0.00  0.00    -0.022 A 
ATOM     28  C   UNK d   0       5.224  10.228  20.915  0.00  0.00     0.042 A 
ATOM     29  H   UNK d   0       4.619   8.113  20.950  0.00  0.00     0.166 HD
ATOM     30  C   UNK d   0       4.050  10.990  20.804  0.00  0.00     0.062 C 
ATOM     31  C   UNK d   0       6.463  10.910  20.962  0.00  0.00    -0.013 A 
ATOM     32  C   UNK d   0       2.836  10.787  21.440  0.00  0.00     0.066 A 
BRANCH   8  33
ATOM     33  C   UNK d   0      -0.618  11.196  22.632  0.00  0.00     0.151 C 
BRANCH  33  34
ATOM     34  C   UNK d   0      -1.564  10.089  22.401  0.00  0.00     0.143 C 
ATOM     35  O   UNK d   0      -2.021   9.434  23.349  0.00  0.00    -0.650 OA
BRANCH  34  36
ATOM     36  O   UNK d   0      -1.943   9.782  21.115  0.00  0.00    -0.776 OA
ATOM     37  H   UNK d   0      -1.627   8.915  20.658  0.00  0.00     0.167 HD
ENDBRANCH  34  36
ENDBRANCH  33  34
ENDBRANCH   8  33
BRANCH  31  38
ATOM     38  C   UNK d   0       6.717  12.398  20.918  0.00  0.00     0.151 C 
BRANCH  38  39
ATOM     39  C   UNK d   0       6.492  12.968  19.606  0.00  0.00     0.143 C 
ATOM     40  O   UNK d   0       6.095  14.135  19.446  0.00  0.00    -0.650 OA
BRANCH  39  41
ATOM     41  O   UNK d   0       6.725  12.190  18.471  0.00  0.00    -0.776 OA
ATOM     42  H   UNK d   0       6.142  12.384  17.652  0.00  0.00     0.167 HD
ENDBRANCH  39  41
ENDBRANCH  38  39
ENDBRANCH  31  38
BRANCH  27  43
ATOM     43  C   UNK d   0       8.888  10.220  21.152  0.00  0.00     0.052 C 
BRANCH  43  44
ATOM     44  C   UNK d   0       9.436  10.849  19.912  0.00  0.00     0.115 C 
BRANCH  44  45
ATOM     45  C   UNK d   0       9.513   9.773  18.890  0.00  0.00     0.139 C 
ATOM     46  O   UNK d   0       8.620   9.729  18.008  0.00  0.00    -0.650 OA
BRANCH  45  47
ATOM     47  O   UNK d   0      10.521   8.833  18.868  0.00  0.00    -0.776 OA
ATOM     48  H   UNK d   0      11.332   8.867  19.507  0.00  0.00     0.167 HD
ENDBRANCH  45  47
ENDBRANCH  44  45
ENDBRANCH  43  44
ENDBRANCH  27  43
BRANCH  24  49
ATOM     49  C   UNK d   0       9.185   4.749  21.949  0.00  0.00     0.052 C 
BRANCH  49  50
ATOM     50  C   UNK d   0      10.207   5.763  22.395  0.00  0.00     0.115 C 
BRANCH  50  51
ATOM     51  C   UNK d   0      10.834   6.575  21.361  0.00  0.00     0.139 C 
ATOM     52  O   UNK d   0      11.529   7.584  21.622  0.00  0.00    -0.650 OA
BRANCH  51  53
ATOM     53  O   UNK d   0      10.665   6.237  20.027  0.00  0.00    -0.776 OA
ATOM     54  H   UNK d   0       9.729   6.137  19.676  0.00  0.00     0.167 HD
ENDBRANCH  51  53
ENDBRANCH  50  51
ENDBRANCH  49  50
ENDBRANCH  24  49
BRANCH  21  55
ATOM     55  C   UNK d   0       7.296   3.193  23.834  0.00  0.00     0.151 C 
BRANCH  55  56
ATOM     56  C   UNK d   0       6.247   2.212  23.515  0.00  0.00     0.143 C 
ATOM     57  O   UNK d   0       5.971   1.874  22.348  0.00  0.00    -0.650 OA
BRANCH  56  58
ATOM     58  O   UNK d   0       5.542   1.647  24.577  0.00  0.00    -0.776 OA
ATOM     59  H   UNK d   0       6.029   1.682  25.491  0.00  0.00     0.167 HD
ENDBRANCH  56  58
ENDBRANCH  55  56
ENDBRANCH  21  55
BRANCH  18  60
ATOM     60  C   UNK d   0       1.958   3.740  23.951  0.00  0.00     0.151 C 
BRANCH  60  61
ATOM     61  C   UNK d   0       2.207   3.323  25.340  0.00  0.00     0.143 C 
ATOM     62  O   UNK d   0       3.099   2.576  25.742  0.00  0.00    -0.650 OA
BRANCH  61  63
ATOM     63  O   UNK d   0       1.310   3.854  26.298  0.00  0.00    -0.776 OA
ATOM     64  H   UNK d   0       1.484   3.754  27.283  0.00  0.00     0.167 HD
ENDBRANCH  61  63
ENDBRANCH  60  61
ENDBRANCH  18  60
BRANCH  14  65
ATOM     65  C   UNK d   0      -0.183   5.888  23.852  0.00  0.00     0.052 C 
BRANCH  65  66
ATOM     66  C   UNK d   0      -0.727   5.485  22.527  0.00  0.00     0.115 C 
BRANCH  66  67
ATOM     67  C   UNK d   0      -1.166   6.491  21.602  0.00  0.00     0.139 C 
ATOM     68  O   UNK d   0      -0.282   7.248  21.054  0.00  0.00    -0.650 OA
BRANCH  67  69
ATOM     69  O   UNK d   0      -2.472   6.771  21.201  0.00  0.00    -0.776 OA
ATOM     70  H   UNK d   0      -3.020   7.363  21.842  0.00  0.00     0.167 HD
ENDBRANCH  67  69
ENDBRANCH  66  67
ENDBRANCH  65  66
ENDBRANCH  14  65
ENDBRANCH   6   7
ENDBRANCH   5   6
ENDBRANCH   2   5
TORSDOF 28
ENDMDL
MODEL 7
REMARK VINA RESULT:     -10.0      1.616      1.985
REMARK  28 active torsions:
REMARK  status: ('A' for Active; 'I' for Inactive)
REMARK    1  A    between atoms: C_2  and  O_3 
REMARK    2  A    between atoms: C_2  and  C_4 
REMARK    3  A    between atoms: C_4  and  C_5 
REMARK    4  A    between atoms: C_5  and  C_6 
REMARK    5  A    between atoms: C_7  and  C_8 
REMARK    6  A    between atoms: C_8  and  C_9 
REMARK    7  A    between atoms: C_9  and  O_11 
REMARK    8  A    between atoms: C_28  and  C_29 
REMARK    9  A    between atoms: C_29  and  C_30 
REMARK   10  A    between atoms: C_30  and  O_32 
REMARK   11  A    between atoms: C_33  and  C_34 
REMARK   12  A    between atoms: C_34  and  C_35 
REMARK   13  A    between atoms: C_35  and  C_36 
REMARK   14  A    between atoms: C_36  and  O_38 
REMARK   15  A    between atoms: C_39  and  C_40 
REMARK   16  A    between atoms: C_40  and  C_41 
REMARK   17  A    between atoms: C_41  and  C_42 
REMARK   18  A    between atoms: C_42  and  O_44 
REMARK   19  A    between atoms: C_45  and  C_46 
REMARK   20  A    between atoms: C_46  and  C_47 
REMARK   21  A    between atoms: C_47  and  O_49 
REMARK   22  A    between atoms: C_50  and  C_51 
REMARK   23  A    between atoms: C_51  and  C_52 
REMARK   24  A    between atoms: C_52  and  O_54 
REMARK   25  A    between atoms: C_55  and  C_56 
REMARK   26  A    between atoms: C_56  and  C_57 
REMARK   27  A    between atoms: C_57  and  C_58 
REMARK   28  A    between atoms: C_58  and  O_60 
ROOT
ATOM      1  O   UNK d   0       0.077   7.938  27.506  0.00  0.00    -0.650 OA
ATOM      2  C   UNK d   0       0.168   8.687  26.508  0.00  0.00     0.139 C 
ENDROOT
BRANCH   2   3
ATOM      3  O   UNK d   0       1.060   9.733  26.530  0.00  0.00    -0.776 OA
ATOM      4  H   UNK d   0       1.896   9.701  27.117  0.00  0.00     0.167 HD
ENDBRANCH   2   3
BRANCH   2   5
ATOM      5  C   UNK d   0      -0.685   8.445  25.309  0.00  0.00     0.115 C 
BRANCH   5   6
ATOM      6  C   UNK d   0      -0.105   7.333  24.478  0.00  0.00     0.052 C 
BRANCH   6   7
ATOM      7  C   UNK d   0       0.874   7.831  23.443  0.00  0.00    -0.020 A 
ATOM      8  C   UNK d   0       0.668   8.733  22.518  0.00  0.00    -0.011 A 
ATOM      9  C   UNK d   0       1.896   8.874  21.753  0.00  0.00     0.067 A 
ATOM     10  C   UNK d   0       2.333   9.661  20.676  0.00  0.00     0.062 C 
ATOM     11  N   UNK d   0       2.796   8.016  22.277  0.00  0.00    -0.248 NA
ATOM     12  C   UNK d   0       3.651   9.857  20.249  0.00  0.00     0.041 A 
ATOM     13  N   UNK d   0       4.673   8.992  20.104  0.00  0.00    -0.355 N 
ATOM     14  C   UNK d   0       4.083  11.162  19.950  0.00  0.00    -0.022 A 
ATOM     15  C   UNK d   0       5.745   9.717  19.729  0.00  0.00     0.042 A 
ATOM     16  H   UNK d   0       4.633   7.890  20.245  0.00  0.00     0.166 HD
ATOM     17  C   UNK d   0       7.064   9.314  19.442  0.00  0.00     0.062 C 
ATOM     18  C   UNK d   0       5.413  11.081  19.622  0.00  0.00    -0.013 A 
ATOM     19  C   UNK d   0       7.870   8.446  20.134  0.00  0.00     0.067 A 
ATOM     20  N   UNK d   0       7.294   7.722  21.097  0.00  0.00    -0.248 NA
ATOM     21  C   UNK d   0       9.278   8.085  20.112  0.00  0.00    -0.011 A 
ATOM     22  C   UNK d   0       8.223   6.915  21.707  0.00  0.00     0.066 A 
ATOM     23  C   UNK d   0       7.750   6.077  22.706  0.00  0.00     0.062 C 
ATOM     24  C   UNK d   0       9.479   7.192  21.038  0.00  0.00    -0.020 A 
ATOM     25  C   UNK d   0       6.420   5.886  23.111  0.00  0.00     0.041 A 
ATOM     26  N   UNK d   0       5.408   6.747  23.269  0.00  0.00    -0.355 N 
ATOM     27  C   UNK d   0       5.986   4.575  23.406  0.00  0.00    -0.022 A 
ATOM     28  C   UNK d   0       4.340   6.029  23.652  0.00  0.00     0.042 A 
ATOM     29  H   UNK d   0       5.452   7.856  23.137  0.00  0.00     0.166 HD
ATOM     30  C   UNK d   0       3.024   6.417  23.949  0.00  0.00     0.062 C 
ATOM     31  C   UNK d   0       4.671   4.656  23.749  0.00  0.00    -0.013 A 
ATOM     32  C   UNK d   0       2.243   7.359  23.298  0.00  0.00     0.066 A 
BRANCH   8  33
ATOM     33  C   UNK d   0      -0.579   9.480  22.273  0.00  0.00     0.151 C 
BRANCH  33  34
ATOM     34  C   UNK d   0      -1.538   8.732  21.440  0.00  0.00     0.143 C 
ATOM     35  O   UNK d   0      -2.612   9.243  21.091  0.00  0.00    -0.650 OA
BRANCH  34  36
ATOM     36  O   UNK d   0      -1.235   7.449  21.047  0.00  0.00    -0.776 OA
ATOM     37  H   UNK d   0      -0.654   6.834  21.633  0.00  0.00     0.167 HD
ENDBRANCH  34  36
ENDBRANCH  33  34
ENDBRANCH   8  33
BRANCH  31  38
ATOM     38  C   UNK d   0       3.777   3.500  24.132  0.00  0.00     0.151 C 
BRANCH  38  39
ATOM     39  C   UNK d   0       3.064   2.943  23.003  0.00  0.00     0.143 C 
ATOM     40  O   UNK d   0       1.927   3.329  22.678  0.00  0.00    -0.650 OA
BRANCH  39  41
ATOM     41  O   UNK d   0       3.661   1.938  22.242  0.00  0.00    -0.776 OA
ATOM     42  H   UNK d   0       4.595   2.134  21.869  0.00  0.00     0.167 HD
ENDBRANCH  39  41
ENDBRANCH  38  39
ENDBRANCH  31  38
BRANCH  27  43
ATOM     43  C   UNK d   0       6.759   3.281  23.377  0.00  0.00     0.052 C 
BRANCH  43  44
ATOM     44  C   UNK d   0       6.593   2.466  24.618  0.00  0.00     0.115 C 
BRANCH  44  45
ATOM     45  C   UNK d   0       6.469   1.050  24.183  0.00  0.00     0.139 C 
ATOM     46  O   UNK d   0       6.261   0.821  22.966  0.00  0.00    -0.650 OA
BRANCH  45  47
ATOM     47  O   UNK d   0       6.578  -0.012  25.054  0.00  0.00    -0.776 OA
ATOM     48  H   UNK d   0       7.098  -0.874  24.825  0.00  0.00     0.167 HD
ENDBRANCH  45  47
ENDBRANCH  44  45
ENDBRANCH  43  44
ENDBRANCH  27  43
BRANCH  24  49
ATOM     49  C   UNK d   0      10.756   6.523  21.336  0.00  0.00     0.052 C 
BRANCH  49  50
ATOM     50  C   UNK d   0      11.533   7.310  22.361  0.00  0.00     0.115 C 
BRANCH  50  51
ATOM     51  C   UNK d   0      11.086   7.223  23.745  0.00  0.00     0.139 C 
ATOM     52  O   UNK d   0      10.914   6.129  24.333  0.00  0.00    -0.650 OA
BRANCH  51  53
ATOM     53  O   UNK d   0      10.832   8.385  24.458  0.00  0.00    -0.776 OA
ATOM     54  H   UNK d   0      10.097   8.371  25.143  0.00  0.00     0.167 HD
ENDBRANCH  51  53
ENDBRANCH  50  51
ENDBRANCH  49  50
ENDBRANCH  24  49
BRANCH  21  55
ATOM     55  C   UNK d   0      10.275   8.668  19.165  0.00  0.00     0.151 C 
BRANCH  55  56
ATOM     56  C   UNK d   0      10.468  10.109  19.386  0.00  0.00     0.143 C 
ATOM     57  O   UNK d   0      10.683  10.911  18.456  0.00  0.00    -0.650 OA
BRANCH  56  58
ATOM     58  O   UNK d   0      10.405  10.579  20.697  0.00  0.00    -0.776 OA
ATOM     59  H   UNK d   0      11.324  10.730  21.151  0.00  0.00     0.167 HD
ENDBRANCH  56  58
ENDBRANCH  55  56
ENDBRANCH  21  55
BRANCH  18  60
ATOM     60  C   UNK d   0       6.282  12.254  19.240  0.00  0.00     0.151 C 
BRANCH  60  61
ATOM     61  C   UNK d   0       6.820  12.786  20.501  0.00  0.00     0.143 C 
ATOM     62  O   UNK d   0       6.533  13.857  21.037  0.00  0.00    -0.650 OA
BRANCH  61  63
ATOM     63  O   UNK d   0       7.769  11.958  21.147  0.00  0.00    -0.776 OA
ATOM     64  H   UNK d   0       7.828  10.977  20.940  0.00  0.00     0.167 HD
ENDBRANCH  61  63
ENDBRANCH  60  61
ENDBRANCH  18  60
BRANCH  14  65
ATOM     65  C   UNK d   0       3.317  12.451  19.857  0.00  0.00     0.052 C 
BRANCH  65  66
ATOM     66  C   UNK d   0       3.187  13.146  21.166  0.00  0.00     0.115 C 
BRANCH  66  67
ATOM     67  C   UNK d   0       2.209  12.697  22.116  0.00  0.00     0.139 C 
ATOM     68  O   UNK d   0       0.966  12.765  21.796  0.00  0.00    -0.650 OA
BRANCH  67  69
ATOM     69  O   UNK d   0       2.434  12.176  23.390  0.00  0.00    -0.776 OA
ATOM     70  H   UNK d   0       2.402  11.149  23.466  0.00  0.00     0.167 HD
ENDBRANCH  67  69
ENDBRANCH  66  67
ENDBRANCH  65  66
ENDBRANCH  14  65
ENDBRANCH   6   7
ENDBRANCH   5   6
ENDBRANCH   2   5
TORSDOF 28
ENDMDL
MODEL 8
REMARK VINA RESULT:      -9.8      2.893      5.371
REMARK  28 active torsions:
REMARK  status: ('A' for Active; 'I' for Inactive)
REMARK    1  A    between atoms: C_2  and  O_3 
REMARK    2  A    between atoms: C_2  and  C_4 
REMARK    3  A    between atoms: C_4  and  C_5 
REMARK    4  A    between atoms: C_5  and  C_6 
REMARK    5  A    between atoms: C_7  and  C_8 
REMARK    6  A    between atoms: C_8  and  C_9 
REMARK    7  A    between atoms: C_9  and  O_11 
REMARK    8  A    between atoms: C_28  and  C_29 
REMARK    9  A    between atoms: C_29  and  C_30 
REMARK   10  A    between atoms: C_30  and  O_32 
REMARK   11  A    between atoms: C_33  and  C_34 
REMARK   12  A    between atoms: C_34  and  C_35 
REMARK   13  A    between atoms: C_35  and  C_36 
REMARK   14  A    between atoms: C_36  and  O_38 
REMARK   15  A    between atoms: C_39  and  C_40 
REMARK   16  A    between atoms: C_40  and  C_41 
REMARK   17  A    between atoms: C_41  and  C_42 
REMARK   18  A    between atoms: C_42  and  O_44 
REMARK   19  A    between atoms: C_45  and  C_46 
REMARK   20  A    between atoms: C_46  and  C_47 
REMARK   21  A    between atoms: C_47  and  O_49 
REMARK   22  A    between atoms: C_50  and  C_51 
REMARK   23  A    between atoms: C_51  and  C_52 
REMARK   24  A    between atoms: C_52  and  O_54 
REMARK   25  A    between atoms: C_55  and  C_56 
REMARK   26  A    between atoms: C_56  and  C_57 
REMARK   27  A    between atoms: C_57  and  C_58 
REMARK   28  A    between atoms: C_58  and  O_60 
ROOT
ATOM      1  O   UNK d   0      -1.576   0.495  27.413  0.00  0.00    -0.650 OA
ATOM      2  C   UNK d   0      -1.614   0.627  26.170  0.00  0.00     0.139 C 
ENDROOT
BRANCH   2   3
ATOM      3  O   UNK d   0      -0.922  -0.258  25.378  0.00  0.00    -0.776 OA
ATOM      4  H   UNK d   0      -0.020  -0.636  25.673  0.00  0.00     0.167 HD
ENDBRANCH   2   3
BRANCH   2   5
ATOM      5  C   UNK d   0      -2.402   1.734  25.558  0.00  0.00     0.115 C 
BRANCH   5   6
ATOM      6  C   UNK d   0      -2.163   1.781  24.073  0.00  0.00     0.052 C 
BRANCH   6   7
ATOM      7  C   UNK d   0      -1.347   2.981  23.654  0.00  0.00    -0.020 A 
ATOM      8  C   UNK d   0      -1.789   4.136  23.227  0.00  0.00    -0.011 A 
ATOM      9  C   UNK d   0      -0.637   4.973  22.936  0.00  0.00     0.067 A 
ATOM     10  C   UNK d   0      -0.426   6.284  22.482  0.00  0.00     0.062 C 
ATOM     11  N   UNK d   0       0.466   4.245  23.209  0.00  0.00    -0.248 NA
ATOM     12  C   UNK d   0       0.765   7.015  22.527  0.00  0.00     0.041 A 
ATOM     13  N   UNK d   0       2.035   6.659  22.255  0.00  0.00    -0.355 N 
ATOM     14  C   UNK d   0       0.729   8.349  22.975  0.00  0.00    -0.022 A 
ATOM     15  C   UNK d   0       2.806   7.729  22.527  0.00  0.00     0.042 A 
ATOM     16  H   UNK d   0       2.377   5.677  21.861  0.00  0.00     0.166 HD
ATOM     17  C   UNK d   0       4.201   7.901  22.418  0.00  0.00     0.062 C 
ATOM     18  C   UNK d   0       2.023   8.807  22.981  0.00  0.00    -0.013 A 
ATOM     19  C   UNK d   0       5.207   7.054  22.807  0.00  0.00     0.067 A 
ATOM     20  N   UNK d   0       4.853   5.815  23.158  0.00  0.00    -0.248 NA
ATOM     21  C   UNK d   0       6.649   7.148  22.965  0.00  0.00    -0.011 A 
ATOM     22  C   UNK d   0       5.958   5.093  23.536  0.00  0.00     0.066 A 
ATOM     23  C   UNK d   0       5.739   3.770  23.891  0.00  0.00     0.062 C 
ATOM     24  C   UNK d   0       7.082   5.999  23.396  0.00  0.00    -0.020 A 
ATOM     25  C   UNK d   0       4.535   3.051  23.826  0.00  0.00     0.041 A 
ATOM     26  N   UNK d   0       3.275   3.400  24.111  0.00  0.00    -0.355 N 
ATOM     27  C   UNK d   0       4.572   1.714  23.373  0.00  0.00    -0.022 A 
ATOM     28  C   UNK d   0       2.505   2.332  23.849  0.00  0.00     0.042 A 
ATOM     29  H   UNK d   0       2.934   4.384  24.517  0.00  0.00     0.166 HD
ATOM     30  C   UNK d   0       1.119   2.144  23.962  0.00  0.00     0.062 C 
ATOM     31  C   UNK d   0       3.292   1.252  23.383  0.00  0.00    -0.013 A 
ATOM     32  C   UNK d   0       0.107   3.037  23.646  0.00  0.00     0.066 A 
BRANCH   8  33
ATOM     33  C   UNK d   0      -3.198   4.537  23.057  0.00  0.00     0.151 C 
BRANCH  33  34
ATOM     34  C   UNK d   0      -3.705   4.276  21.698  0.00  0.00     0.143 C 
ATOM     35  O   UNK d   0      -4.574   3.416  21.497  0.00  0.00    -0.650 OA
BRANCH  34  36
ATOM     36  O   UNK d   0      -3.204   4.998  20.639  0.00  0.00    -0.776 OA
ATOM     37  H   UNK d   0      -3.825   5.386  19.916  0.00  0.00     0.167 HD
ENDBRANCH  34  36
ENDBRANCH  33  34
ENDBRANCH   8  33
BRANCH  31  38
ATOM     38  C   UNK d   0       2.838  -0.127  22.964  0.00  0.00     0.151 C 
BRANCH  38  39
ATOM     39  C   UNK d   0       2.785  -1.060  24.069  0.00  0.00     0.143 C 
ATOM     40  O   UNK d   0       3.366  -2.159  24.040  0.00  0.00    -0.650 OA
BRANCH  39  41
ATOM     41  O   UNK d   0       2.061  -0.728  25.214  0.00  0.00    -0.776 OA
ATOM     42  H   UNK d   0       1.039  -0.730  25.130  0.00  0.00     0.167 HD
ENDBRANCH  39  41
ENDBRANCH  38  39
ENDBRANCH  31  38
BRANCH  27  43
ATOM     43  C   UNK d   0       5.753   0.880  22.942  0.00  0.00     0.052 C 
BRANCH  43  44
ATOM     44  C   UNK d   0       6.531   0.321  24.089  0.00  0.00     0.115 C 
BRANCH  44  45
ATOM     45  C   UNK d   0       6.572  -1.152  23.895  0.00  0.00     0.139 C 
ATOM     46  O   UNK d   0       7.163  -1.846  24.760  0.00  0.00    -0.650 OA
BRANCH  45  47
ATOM     47  O   UNK d   0       5.988  -1.781  22.817  0.00  0.00    -0.776 OA
ATOM     48  H   UNK d   0       4.970  -1.940  22.746  0.00  0.00     0.167 HD
ENDBRANCH  45  47
ENDBRANCH  44  45
ENDBRANCH  43  44
ENDBRANCH  27  43
BRANCH  24  49
ATOM     49  C   UNK d   0       8.487   5.642  23.655  0.00  0.00     0.052 C 
BRANCH  49  50
ATOM     50  C   UNK d   0       9.104   5.015  22.431  0.00  0.00     0.115 C 
BRANCH  50  51
ATOM     51  C   UNK d   0      10.121   5.787  21.730  0.00  0.00     0.139 C 
ATOM     52  O   UNK d   0      10.820   6.658  22.298  0.00  0.00    -0.650 OA
BRANCH  51  53
ATOM     53  O   UNK d   0      10.340   5.566  20.379  0.00  0.00    -0.776 OA
ATOM     54  H   UNK d   0      10.430   4.617  20.060  0.00  0.00     0.167 HD
ENDBRANCH  51  53
ENDBRANCH  50  51
ENDBRANCH  49  50
ENDBRANCH  24  49
BRANCH  21  55
ATOM     55  C   UNK d   0       7.443   8.376  22.665  0.00  0.00     0.151 C 
BRANCH  55  56
ATOM     56  C   UNK d   0       7.873   8.425  21.259  0.00  0.00     0.143 C 
ATOM     57  O   UNK d   0       8.871   9.068  20.880  0.00  0.00    -0.650 OA
BRANCH  56  58
ATOM     58  O   UNK d   0       7.119   7.716  20.325  0.00  0.00    -0.776 OA
ATOM     59  H   UNK d   0       6.127   8.007  20.253  0.00  0.00     0.167 HD
ENDBRANCH  56  58
ENDBRANCH  55  56
ENDBRANCH  21  55
BRANCH  18  60
ATOM     60  C   UNK d   0       2.447  10.193  23.402  0.00  0.00     0.151 C 
BRANCH  60  61
ATOM     61  C   UNK d   0       2.804  10.090  24.825  0.00  0.00     0.143 C 
ATOM     62  O   UNK d   0       2.810   9.072  25.517  0.00  0.00    -0.650 OA
BRANCH  61  63
ATOM     63  O   UNK d   0       3.179  11.308  25.441  0.00  0.00    -0.776 OA
ATOM     64  H   UNK d   0       3.544  11.325  26.377  0.00  0.00     0.167 HD
ENDBRANCH  61  63
ENDBRANCH  60  61
ENDBRANCH  18  60
BRANCH  14  65
ATOM     65  C   UNK d   0      -0.434   9.243  23.300  0.00  0.00     0.052 C 
BRANCH  65  66
ATOM     66  C   UNK d   0      -1.200   8.790  24.492  0.00  0.00     0.115 C 
BRANCH  66  67
ATOM     67  C   UNK d   0      -0.634   8.945  25.803  0.00  0.00     0.139 C 
ATOM     68  O   UNK d   0      -0.870  10.033  26.448  0.00  0.00    -0.650 OA
BRANCH  67  69
ATOM     69  O   UNK d   0       0.168   8.042  26.498  0.00  0.00    -0.776 OA
ATOM     70  H   UNK d   0      -0.281   7.563  27.293  0.00  0.00     0.167 HD
ENDBRANCH  67  69
ENDBRANCH  66  67
ENDBRANCH  65  66
ENDBRANCH  14  65
ENDBRANCH   6   7
ENDBRANCH   5   6
ENDBRANCH   2   5
TORSDOF 28
ENDMDL
MODEL 9
REMARK VINA RESULT:      -9.8      1.510      7.686
REMARK  28 active torsions:
REMARK  status: ('A' for Active; 'I' for Inactive)
REMARK    1  A    between atoms: C_2  and  O_3 
REMARK    2  A    between atoms: C_2  and  C_4 
REMARK    3  A    between atoms: C_4  and  C_5 
REMARK    4  A    between atoms: C_5  and  C_6 
REMARK    5  A    between atoms: C_7  and  C_8 
REMARK    6  A    between atoms: C_8  and  C_9 
REMARK    7  A    between atoms: C_9  and  O_11 
REMARK    8  A    between atoms: C_28  and  C_29 
REMARK    9  A    between atoms: C_29  and  C_30 
REMARK   10  A    between atoms: C_30  and  O_32 
REMARK   11  A    between atoms: C_33  and  C_34 
REMARK   12  A    between atoms: C_34  and  C_35 
REMARK   13  A    between atoms: C_35  and  C_36 
REMARK   14  A    between atoms: C_36  and  O_38 
REMARK   15  A    between atoms: C_39  and  C_40 
REMARK   16  A    between atoms: C_40  and  C_41 
REMARK   17  A    between atoms: C_41  and  C_42 
REMARK   18  A    between atoms: C_42  and  O_44 
REMARK   19  A    between atoms: C_45  and  C_46 
REMARK   20  A    between atoms: C_46  and  C_47 
REMARK   21  A    between atoms: C_47  and  O_49 
REMARK   22  A    between atoms: C_50  and  C_51 
REMARK   23  A    between atoms: C_51  and  C_52 
REMARK   24  A    between atoms: C_52  and  O_54 
REMARK   25  A    between atoms: C_55  and  C_56 
REMARK   26  A    between atoms: C_56  and  C_57 
REMARK   27  A    between atoms: C_57  and  C_58 
REMARK   28  A    between atoms: C_58  and  O_60 
ROOT
ATOM      1  O   UNK d   0      -0.970   7.074  25.149  0.00  0.00    -0.650 OA
ATOM      2  C   UNK d   0      -1.459   6.478  24.165  0.00  0.00     0.139 C 
ENDROOT
BRANCH   2   3
ATOM      3  O   UNK d   0      -2.131   7.198  23.207  0.00  0.00    -0.776 OA
ATOM      4  H   UNK d   0      -1.796   8.115  22.904  0.00  0.00     0.167 HD
ENDBRANCH   2   3
BRANCH   2   5
ATOM      5  C   UNK d   0      -1.313   5.000  24.036  0.00  0.00     0.115 C 
BRANCH   5   6
ATOM      6  C   UNK d   0      -0.482   4.665  22.828  0.00  0.00     0.052 C 
BRANCH   6   7
ATOM      7  C   UNK d   0       0.985   4.962  23.030  0.00  0.00    -0.020 A 
ATOM      8  C   UNK d   0       1.869   4.227  23.653  0.00  0.00    -0.011 A 
ATOM      9  C   UNK d   0       3.144   4.923  23.600  0.00  0.00     0.067 A 
ATOM     10  C   UNK d   0       4.453   4.675  24.043  0.00  0.00     0.062 C 
ATOM     11  N   UNK d   0       2.942   6.078  22.931  0.00  0.00    -0.248 NA
ATOM     12  C   UNK d   0       5.619   5.342  23.654  0.00  0.00     0.041 A 
ATOM     13  N   UNK d   0       5.872   6.651  23.467  0.00  0.00    -0.355 N 
ATOM     14  C   UNK d   0       6.760   4.585  23.330  0.00  0.00    -0.022 A 
ATOM     15  C   UNK d   0       7.140   6.744  23.026  0.00  0.00     0.042 A 
ATOM     16  H   UNK d   0       5.173   7.495  23.662  0.00  0.00     0.166 HD
ATOM     17  C   UNK d   0       7.906   7.875  22.679  0.00  0.00     0.062 C 
ATOM     18  C   UNK d   0       7.730   5.469  22.927  0.00  0.00    -0.013 A 
ATOM     19  C   UNK d   0       7.546   8.963  21.925  0.00  0.00     0.067 A 
ATOM     20  N   UNK d   0       6.249   9.092  21.632  0.00  0.00    -0.248 NA
ATOM     21  C   UNK d   0       8.238  10.081  21.306  0.00  0.00    -0.011 A 
ATOM     22  C   UNK d   0       6.044  10.212  20.864  0.00  0.00     0.066 A 
ATOM     23  C   UNK d   0       4.730  10.489  20.517  0.00  0.00     0.062 C 
ATOM     24  C   UNK d   0       7.354  10.806  20.684  0.00  0.00    -0.020 A 
ATOM     25  C   UNK d   0       3.571   9.814  20.929  0.00  0.00     0.041 A 
ATOM     26  N   UNK d   0       3.315   8.512  21.100  0.00  0.00    -0.355 N 
ATOM     27  C   UNK d   0       2.428  10.575  21.258  0.00  0.00    -0.022 A 
ATOM     28  C   UNK d   0       2.048   8.416  21.532  0.00  0.00     0.042 A 
ATOM     29  H   UNK d   0       4.015   7.665  20.894  0.00  0.00     0.166 HD
ATOM     30  C   UNK d   0       1.271   7.298  21.872  0.00  0.00     0.062 C 
ATOM     31  C   UNK d   0       1.460   9.698  21.641  0.00  0.00    -0.013 A 
ATOM     32  C   UNK d   0       1.663   6.161  22.561  0.00  0.00     0.066 A 
BRANCH   8  33
ATOM     33  C   UNK d   0       1.637   2.924  24.304  0.00  0.00     0.151 C 
BRANCH  33  34
ATOM     34  C   UNK d   0       1.909   2.953  25.753  0.00  0.00     0.143 C 
ATOM     35  O   UNK d   0       1.222   3.647  26.516  0.00  0.00    -0.650 OA
BRANCH  34  36
ATOM     36  O   UNK d   0       2.942   2.201  26.261  0.00  0.00    -0.776 OA
ATOM     37  H   UNK d   0       3.916   2.362  25.968  0.00  0.00     0.167 HD
ENDBRANCH  34  36
ENDBRANCH  33  34
ENDBRANCH   8  33
BRANCH  31  38
ATOM     38  C   UNK d   0       0.064  10.055  22.097  0.00  0.00     0.151 C 
BRANCH  38  39
ATOM     39  C   UNK d   0      -0.086  10.010  23.536  0.00  0.00     0.143 C 
ATOM     40  O   UNK d   0      -1.195  10.083  24.092  0.00  0.00    -0.650 OA
BRANCH  39  41
ATOM     41  O   UNK d   0       1.047   9.881  24.340  0.00  0.00    -0.776 OA
ATOM     42  H   UNK d   0       1.955  10.001  23.881  0.00  0.00     0.167 HD
ENDBRANCH  39  41
ENDBRANCH  38  39
ENDBRANCH  31  38
BRANCH  27  43
ATOM     43  C   UNK d   0       2.228  12.069  21.220  0.00  0.00     0.052 C 
BRANCH  43  44
ATOM     44  C   UNK d   0       2.448  12.729  22.543  0.00  0.00     0.115 C 
BRANCH  44  45
ATOM     45  C   UNK d   0       2.152  14.173  22.351  0.00  0.00     0.139 C 
ATOM     46  O   UNK d   0       2.180  14.633  21.183  0.00  0.00    -0.650 OA
BRANCH  45  47
ATOM     47  O   UNK d   0       1.846  15.018  23.396  0.00  0.00    -0.776 OA
ATOM     48  H   UNK d   0       0.881  15.319  23.608  0.00  0.00     0.167 HD
ENDBRANCH  45  47
ENDBRANCH  44  45
ENDBRANCH  43  44
ENDBRANCH  27  43
BRANCH  24  49
ATOM     49  C   UNK d   0       7.617  12.057  19.952  0.00  0.00     0.052 C 
BRANCH  49  50
ATOM     50  C   UNK d   0       7.302  11.885  18.488  0.00  0.00     0.115 C 
BRANCH  50  51
ATOM     51  C   UNK d   0       8.224  11.079  17.700  0.00  0.00     0.139 C 
ATOM     52  O   UNK d   0       7.834  10.212  16.882  0.00  0.00    -0.650 OA
BRANCH  51  53
ATOM     53  O   UNK d   0       9.591  11.258  17.846  0.00  0.00    -0.776 OA
ATOM     54  H   UNK d   0      10.206  10.580  17.433  0.00  0.00     0.167 HD
ENDBRANCH  51  53
ENDBRANCH  50  51
ENDBRANCH  49  50
ENDBRANCH  24  49
BRANCH  21  55
ATOM     55  C   UNK d   0       9.710  10.310  21.406  0.00  0.00     0.151 C 
BRANCH  55  56
ATOM     56  C   UNK d   0      10.477   9.293  20.669  0.00  0.00     0.143 C 
ATOM     57  O   UNK d   0      10.183   8.933  19.513  0.00  0.00    -0.650 OA
BRANCH  56  58
ATOM     58  O   UNK d   0      11.576   8.721  21.308  0.00  0.00    -0.776 OA
ATOM     59  H   UNK d   0      11.397   8.394  22.275  0.00  0.00     0.167 HD
ENDBRANCH  56  58
ENDBRANCH  55  56
ENDBRANCH  21  55
BRANCH  18  60
ATOM     60  C   UNK d   0       9.118   5.084  22.479  0.00  0.00     0.151 C 
BRANCH  60  61
ATOM     61  C   UNK d   0      10.043   5.828  23.348  0.00  0.00     0.143 C 
ATOM     62  O   UNK d   0      11.008   6.506  22.996  0.00  0.00    -0.650 OA
BRANCH  61  63
ATOM     63  O   UNK d   0       9.771   5.738  24.734  0.00  0.00    -0.776 OA
ATOM     64  H   UNK d   0       9.094   6.339  25.170  0.00  0.00     0.167 HD
ENDBRANCH  61  63
ENDBRANCH  60  61
ENDBRANCH  18  60
BRANCH  14  65
ATOM     65  C   UNK d   0       7.032   3.113  23.466  0.00  0.00     0.052 C 
BRANCH  65  66
ATOM     66  C   UNK d   0       5.840   2.273  23.173  0.00  0.00     0.115 C 
BRANCH  66  67
ATOM     67  C   UNK d   0       5.568   1.118  23.981  0.00  0.00     0.139 C 
ATOM     68  O   UNK d   0       6.561   0.451  24.453  0.00  0.00    -0.650 OA
BRANCH  67  69
ATOM     69  O   UNK d   0       4.323   0.600  24.338  0.00  0.00    -0.776 OA
ATOM     70  H   UNK d   0       4.175  -0.397  24.126  0.00  0.00     0.167 HD
ENDBRANCH  67  69
ENDBRANCH  66  67
ENDBRANCH  65  66
ENDBRANCH  14  65
ENDBRANCH   6   7
ENDBRANCH   5   6
ENDBRANCH   2   5
TORSDOF 28
ENDMDL
MODEL 10
REMARK VINA RESULT:      -9.7      1.923     10.358
REMARK  28 active torsions:
REMARK  status: ('A' for Active; 'I' for Inactive)
REMARK    1  A    between atoms: C_2  and  O_3 
REMARK    2  A    between atoms: C_2  and  C_4 
REMARK    3  A    between atoms: C_4  and  C_5 
REMARK    4  A    between atoms: C_5  and  C_6 
REMARK    5  A    between atoms: C_7  and  C_8 
REMARK    6  A    between atoms: C_8  and  C_9 
REMARK    7  A    between atoms: C_9  and  O_11 
REMARK    8  A    between atoms: C_28  and  C_29 
REMARK    9  A    between atoms: C_29  and  C_30 
REMARK   10  A    between atoms: C_30  and  O_32 
REMARK   11  A    between atoms: C_33  and  C_34 
REMARK   12  A    between atoms: C_34  and  C_35 
REMARK   13  A    between atoms: C_35  and  C_36 
REMARK   14  A    between atoms: C_36  and  O_38 
REMARK   15  A    between atoms: C_39  and  C_40 
REMARK   16  A    between atoms: C_40  and  C_41 
REMARK   17  A    between atoms: C_41  and  C_42 
REMARK   18  A    between atoms: C_42  and  O_44 
REMARK   19  A    between atoms: C_45  and  C_46 
REMARK   20  A    between atoms: C_46  and  C_47 
REMARK   21  A    between atoms: C_47  and  O_49 
REMARK   22  A    between atoms: C_50  and  C_51 
REMARK   23  A    between atoms: C_51  and  C_52 
REMARK   24  A    between atoms: C_52  and  O_54 
REMARK   25  A    between atoms: C_55  and  C_56 
REMARK   26  A    between atoms: C_56  and  C_57 
REMARK   27  A    between atoms: C_57  and  C_58 
REMARK   28  A    between atoms: C_58  and  O_60 
ROOT
ATOM      1  O   UNK d   0      10.694   7.209  22.454  0.00  0.00    -0.650 OA
ATOM      2  C   UNK d   0      10.179   6.314  21.748  0.00  0.00     0.139 C 
ENDROOT
BRANCH   2   3
ATOM      3  O   UNK d   0      10.066   6.508  20.392  0.00  0.00    -0.776 OA
ATOM      4  H   UNK d   0      10.892   6.521  19.790  0.00  0.00     0.167 HD
ENDBRANCH   2   3
BRANCH   2   5
ATOM      5  C   UNK d   0       9.695   5.052  22.375  0.00  0.00     0.115 C 
BRANCH   5   6
ATOM      6  C   UNK d   0       9.033   5.350  23.693  0.00  0.00     0.052 C 
BRANCH   6   7
ATOM      7  C   UNK d   0       7.526   5.387  23.591  0.00  0.00    -0.020 A 
ATOM      8  C   UNK d   0       6.687   4.407  23.809  0.00  0.00    -0.011 A 
ATOM      9  C   UNK d   0       5.344   4.913  23.579  0.00  0.00     0.067 A 
ATOM     10  C   UNK d   0       4.041   4.397  23.659  0.00  0.00     0.062 C 
ATOM     11  N   UNK d   0       5.459   6.209  23.220  0.00  0.00    -0.248 NA
ATOM     12  C   UNK d   0       2.843   5.120  23.669  0.00  0.00     0.041 A 
ATOM     13  N   UNK d   0       2.440   6.178  22.939  0.00  0.00    -0.355 N 
ATOM     14  C   UNK d   0       1.853   4.784  24.610  0.00  0.00    -0.022 A 
ATOM     15  C   UNK d   0       1.223   6.526  23.399  0.00  0.00     0.042 A 
ATOM     16  H   UNK d   0       2.995   6.656  22.103  0.00  0.00     0.166 HD
ATOM     17  C   UNK d   0       0.354   7.558  22.992  0.00  0.00     0.062 C 
ATOM     18  C   UNK d   0       0.822   5.676  24.447  0.00  0.00    -0.013 A 
ATOM     19  C   UNK d   0       0.644   8.869  22.712  0.00  0.00     0.067 A 
ATOM     20  N   UNK d   0       1.935   9.195  22.612  0.00  0.00    -0.248 NA
ATOM     21  C   UNK d   0      -0.123  10.085  22.493  0.00  0.00    -0.011 A 
ATOM     22  C   UNK d   0       2.068  10.536  22.345  0.00  0.00     0.066 A 
ATOM     23  C   UNK d   0       3.363  11.005  22.178  0.00  0.00     0.062 C 
ATOM     24  C   UNK d   0       0.717  11.057  22.283  0.00  0.00    -0.020 A 
ATOM     25  C   UNK d   0       4.552  10.260  22.158  0.00  0.00     0.041 A 
ATOM     26  N   UNK d   0       4.959   9.218  22.893  0.00  0.00    -0.355 N 
ATOM     27  C   UNK d   0       5.543  10.595  21.210  0.00  0.00    -0.022 A 
ATOM     28  C   UNK d   0       6.176   8.874  22.443  0.00  0.00     0.042 A 
ATOM     29  H   UNK d   0       4.404   8.746  23.741  0.00  0.00     0.166 HD
ATOM     30  C   UNK d   0       7.055   7.856  22.844  0.00  0.00     0.062 C 
ATOM     31  C   UNK d   0       6.574   9.723  21.382  0.00  0.00    -0.013 A 
ATOM     32  C   UNK d   0       6.747   6.555  23.209  0.00  0.00     0.066 A 
BRANCH   8  33
ATOM     33  C   UNK d   0       7.022   3.028  24.210  0.00  0.00     0.151 C 
BRANCH  33  34
ATOM     34  C   UNK d   0       6.031   2.042  23.741  0.00  0.00     0.143 C 
ATOM     35  O   UNK d   0       5.941   1.751  22.540  0.00  0.00    -0.650 OA
BRANCH  34  36
ATOM     36  O   UNK d   0       5.195   1.439  24.653  0.00  0.00    -0.776 OA
ATOM     37  H   UNK d   0       4.278   1.066  24.372  0.00  0.00     0.167 HD
ENDBRANCH  34  36
ENDBRANCH  33  34
ENDBRANCH   8  33
BRANCH  31  38
ATOM     38  C   UNK d   0       7.854   9.687  20.581  0.00  0.00     0.151 C 
BRANCH  38  39
ATOM     39  C   UNK d   0       7.705   9.003  19.314  0.00  0.00     0.143 C 
ATOM     40  O   UNK d   0       6.594   8.675  18.862  0.00  0.00    -0.650 OA
BRANCH  39  41
ATOM     41  O   UNK d   0       8.838   8.696  18.562  0.00  0.00    -0.776 OA
ATOM     42  H   UNK d   0       9.485   9.467  18.366  0.00  0.00     0.167 HD
ENDBRANCH  39  41
ENDBRANCH  38  39
ENDBRANCH  31  38
BRANCH  27  43
ATOM     43  C   UNK d   0       5.546  11.690  20.172  0.00  0.00     0.052 C 
BRANCH  43  44
ATOM     44  C   UNK d   0       6.450  12.828  20.517  0.00  0.00     0.115 C 
BRANCH  44  45
ATOM     45  C   UNK d   0       5.667  14.073  20.299  0.00  0.00     0.139 C 
ATOM     46  O   UNK d   0       5.960  15.084  20.984  0.00  0.00    -0.650 OA
BRANCH  45  47
ATOM     47  O   UNK d   0       4.646  14.162  19.378  0.00  0.00    -0.776 OA
ATOM     48  H   UNK d   0       4.724  13.792  18.417  0.00  0.00     0.167 HD
ENDBRANCH  45  47
ENDBRANCH  44  45
ENDBRANCH  43  44
ENDBRANCH  27  43
BRANCH  24  49
ATOM     49  C   UNK d   0       0.368  12.455  21.979  0.00  0.00     0.052 C 
BRANCH  49  50
ATOM     50  C   UNK d   0       1.439  13.090  21.129  0.00  0.00     0.115 C 
BRANCH  50  51
ATOM     51  C   UNK d   0       2.013  14.341  21.608  0.00  0.00     0.139 C 
ATOM     52  O   UNK d   0       2.142  15.350  20.875  0.00  0.00    -0.650 OA
BRANCH  51  53
ATOM     53  O   UNK d   0       2.442  14.440  22.922  0.00  0.00    -0.776 OA
ATOM     54  H   UNK d   0       2.582  13.592  23.442  0.00  0.00     0.167 HD
ENDBRANCH  51  53
ENDBRANCH  50  51
ENDBRANCH  49  50
ENDBRANCH  24  49
BRANCH  21  55
ATOM     55  C   UNK d   0      -1.614  10.147  22.512  0.00  0.00     0.151 C 
BRANCH  55  56
ATOM     56  C   UNK d   0      -2.215   9.273  21.492  0.00  0.00     0.143 C 
ATOM     57  O   UNK d   0      -1.925   9.349  20.282  0.00  0.00    -0.650 OA
BRANCH  56  58
ATOM     58  O   UNK d   0      -3.147   8.327  21.916  0.00  0.00    -0.776 OA
ATOM     59  H   UNK d   0      -2.777   7.365  22.015  0.00  0.00     0.167 HD
ENDBRANCH  56  58
ENDBRANCH  55  56
ENDBRANCH  21  55
BRANCH  18  60
ATOM     60  C   UNK d   0      -0.448   5.686  25.261  0.00  0.00     0.151 C 
BRANCH  60  61
ATOM     61  C   UNK d   0      -0.143   6.458  26.476  0.00  0.00     0.143 C 
ATOM     62  O   UNK d   0       0.137   7.655  26.544  0.00  0.00    -0.650 OA
BRANCH  61  63
ATOM     63  O   UNK d   0      -0.183   5.720  27.684  0.00  0.00    -0.776 OA
ATOM     64  H   UNK d   0       0.099   4.756  27.712  0.00  0.00     0.167 HD
ENDBRANCH  61  63
ENDBRANCH  60  61
ENDBRANCH  18  60
BRANCH  14  65
ATOM     65  C   UNK d   0       1.767   3.636  25.576  0.00  0.00     0.052 C 
BRANCH  65  66
ATOM     66  C   UNK d   0       1.262   2.386  24.948  0.00  0.00     0.115 C 
BRANCH  66  67
ATOM     67  C   UNK d   0       0.913   1.265  25.775  0.00  0.00     0.139 C 
ATOM     68  O   UNK d   0      -0.324   1.084  26.073  0.00  0.00    -0.650 OA
BRANCH  67  69
ATOM     69  O   UNK d   0       1.769   0.308  26.321  0.00  0.00    -0.776 OA
ATOM     70  H   UNK d   0       1.496  -0.674  26.173  0.00  0.00     0.167 HD
ENDBRANCH  67  69
ENDBRANCH  66  67
ENDBRANCH  65  66
ENDBRANCH  14  65
ENDBRANCH   6   7
ENDBRANCH   5   6
ENDBRANCH   2   5
TORSDOF 28
ENDMDL
MODEL 11
REMARK VINA RESULT:      -9.7      1.559      7.910
REMARK  28 active torsions:
REMARK  status: ('A' for Active; 'I' for Inactive)
REMARK    1  A    between atoms: C_2  and  O_3 
REMARK    2  A    between atoms: C_2  and  C_4 
REMARK    3  A    between atoms: C_4  and  C_5 
REMARK    4  A    between atoms: C_5  and  C_6 
REMARK    5  A    between atoms: C_7  and  C_8 
REMARK    6  A    between atoms: C_8  and  C_9 
REMARK    7  A    between atoms: C_9  and  O_11 
REMARK    8  A    between atoms: C_28  and  C_29 
REMARK    9  A    between atoms: C_29  and  C_30 
REMARK   10  A    between atoms: C_30  and  O_32 
REMARK   11  A    between atoms: C_33  and  C_34 
REMARK   12  A    between atoms: C_34  and  C_35 
REMARK   13  A    between atoms: C_35  and  C_36 
REMARK   14  A    between atoms: C_36  and  O_38 
REMARK   15  A    between atoms: C_39  and  C_40 
REMARK   16  A    between atoms: C_40  and  C_41 
REMARK   17  A    between atoms: C_41  and  C_42 
REMARK   18  A    between atoms: C_42  and  O_44 
REMARK   19  A    between atoms: C_45  and  C_46 
REMARK   20  A    between atoms: C_46  and  C_47 
REMARK   21  A    between atoms: C_47  and  O_49 
REMARK   22  A    between atoms: C_50  and  C_51 
REMARK   23  A    between atoms: C_51  and  C_52 
REMARK   24  A    between atoms: C_52  and  O_54 
REMARK   25  A    between atoms: C_55  and  C_56 
REMARK   26  A    between atoms: C_56  and  C_57 
REMARK   27  A    between atoms: C_57  and  C_58 
REMARK   28  A    between atoms: C_58  and  O_60 
ROOT
ATOM      1  O   UNK d   0       8.908  12.907  21.723  0.00  0.00    -0.650 OA
ATOM      2  C   UNK d   0       8.231  12.464  20.769  0.00  0.00     0.139 C 
ENDROOT
BRANCH   2   3
ATOM      3  O   UNK d   0       8.814  11.603  19.872  0.00  0.00    -0.776 OA
ATOM      4  H   UNK d   0       8.246  11.011  19.262  0.00  0.00     0.167 HD
ENDBRANCH   2   3
BRANCH   2   5
ATOM      5  C   UNK d   0       6.805  12.869  20.612  0.00  0.00     0.115 C 
BRANCH   5   6
ATOM      6  C   UNK d   0       6.085  11.895  19.720  0.00  0.00     0.052 C 
BRANCH   6   7
ATOM      7  C   UNK d   0       5.230  10.920  20.494  0.00  0.00    -0.020 A 
ATOM      8  C   UNK d   0       3.968  11.045  20.813  0.00  0.00    -0.011 A 
ATOM      9  C   UNK d   0       3.580   9.863  21.564  0.00  0.00     0.067 A 
ATOM     10  C   UNK d   0       2.402   9.381  22.158  0.00  0.00     0.062 C 
ATOM     11  N   UNK d   0       4.670   9.073  21.660  0.00  0.00    -0.248 NA
ATOM     12  C   UNK d   0       2.149   8.080  22.604  0.00  0.00     0.041 A 
ATOM     13  N   UNK d   0       2.917   7.214  23.293  0.00  0.00    -0.355 N 
ATOM     14  C   UNK d   0       0.925   7.472  22.272  0.00  0.00    -0.022 A 
ATOM     15  C   UNK d   0       2.214   6.071  23.401  0.00  0.00     0.042 A 
ATOM     16  H   UNK d   0       3.927   7.414  23.713  0.00  0.00     0.166 HD
ATOM     17  C   UNK d   0       2.544   4.850  24.023  0.00  0.00     0.062 C 
ATOM     18  C   UNK d   0       0.959   6.194  22.772  0.00  0.00    -0.013 A 
ATOM     19  C   UNK d   0       3.718   4.144  23.968  0.00  0.00     0.067 A 
ATOM     20  N   UNK d   0       4.770   4.761  23.422  0.00  0.00    -0.248 NA
ATOM     21  C   UNK d   0       4.156   2.813  24.354  0.00  0.00    -0.011 A 
ATOM     22  C   UNK d   0       5.863   3.929  23.423  0.00  0.00     0.066 A 
ATOM     23  C   UNK d   0       7.040   4.459  22.916  0.00  0.00     0.062 C 
ATOM     24  C   UNK d   0       5.411   2.692  24.028  0.00  0.00    -0.020 A 
ATOM     25  C   UNK d   0       7.277   5.774  22.485  0.00  0.00     0.041 A 
ATOM     26  N   UNK d   0       6.520   6.629  21.787  0.00  0.00    -0.355 N 
ATOM     27  C   UNK d   0       8.505   6.384  22.823  0.00  0.00    -0.022 A 
ATOM     28  C   UNK d   0       7.223   7.767  21.671  0.00  0.00     0.042 A 
ATOM     29  H   UNK d   0       5.509   6.423  21.357  0.00  0.00     0.166 HD
ATOM     30  C   UNK d   0       6.911   8.985  21.047  0.00  0.00     0.062 C 
ATOM     31  C   UNK d   0       8.479   7.645  22.312  0.00  0.00    -0.013 A 
ATOM     32  C   UNK d   0       5.696   9.653  21.035  0.00  0.00     0.066 A 
BRANCH   8  33
ATOM     33  C   UNK d   0       3.079  12.176  20.486  0.00  0.00     0.151 C 
BRANCH  33  34
ATOM     34  C   UNK d   0       3.020  13.184  21.559  0.00  0.00     0.143 C 
ATOM     35  O   UNK d   0       2.530  12.910  22.664  0.00  0.00    -0.650 OA
BRANCH  34  36
ATOM     36  O   UNK d   0       3.517  14.447  21.328  0.00  0.00    -0.776 OA
ATOM     37  H   UNK d   0       3.946  14.695  20.427  0.00  0.00     0.167 HD
ENDBRANCH  34  36
ENDBRANCH  33  34
ENDBRANCH   8  33
BRANCH  31  38
ATOM     38  C   UNK d   0       9.573   8.680  22.435  0.00  0.00     0.151 C 
BRANCH  38  39
ATOM     39  C   UNK d   0      10.583   8.554  21.405  0.00  0.00     0.143 C 
ATOM     40  O   UNK d   0      11.620   7.889  21.568  0.00  0.00    -0.650 OA
BRANCH  39  41
ATOM     41  O   UNK d   0      10.398   9.197  20.182  0.00  0.00    -0.776 OA
ATOM     42  H   UNK d   0      10.580   8.645  19.338  0.00  0.00     0.167 HD
ENDBRANCH  39  41
ENDBRANCH  38  39
ENDBRANCH  31  38
BRANCH  27  43
ATOM     43  C   UNK d   0       9.674   5.823  23.593  0.00  0.00     0.052 C 
BRANCH  43  44
ATOM     44  C   UNK d   0       9.814   6.405  24.962  0.00  0.00     0.115 C 
BRANCH  44  45
ATOM     45  C   UNK d   0      11.271   6.523  25.226  0.00  0.00     0.139 C 
ATOM     46  O   UNK d   0      11.721   6.033  26.291  0.00  0.00    -0.650 OA
BRANCH  45  47
ATOM     47  O   UNK d   0      12.142   7.139  24.353  0.00  0.00    -0.776 OA
ATOM     48  H   UNK d   0      12.888   6.629  23.853  0.00  0.00     0.167 HD
ENDBRANCH  45  47
ENDBRANCH  44  45
ENDBRANCH  43  44
ENDBRANCH  27  43
BRANCH  24  49
ATOM     49  C   UNK d   0       6.262   1.516  24.275  0.00  0.00     0.052 C 
BRANCH  49  50
ATOM     50  C   UNK d   0       6.120   0.521  23.151  0.00  0.00     0.115 C 
BRANCH  50  51
ATOM     51  C   UNK d   0       5.878  -0.867  23.520  0.00  0.00     0.139 C 
ATOM     52  O   UNK d   0       5.398  -1.705  22.720  0.00  0.00    -0.650 OA
BRANCH  51  53
ATOM     53  O   UNK d   0       6.181  -1.300  24.802  0.00  0.00    -0.776 OA
ATOM     54  H   UNK d   0       7.002  -0.930  25.247  0.00  0.00     0.167 HD
ENDBRANCH  51  53
ENDBRANCH  50  51
ENDBRANCH  49  50
ENDBRANCH  24  49
BRANCH  21  55
ATOM     55  C   UNK d   0       3.276   1.803  25.012  0.00  0.00     0.151 C 
BRANCH  55  56
ATOM     56  C   UNK d   0       2.309   1.217  24.070  0.00  0.00     0.143 C 
ATOM     57  O   UNK d   0       2.607   0.298  23.282  0.00  0.00    -0.650 OA
BRANCH  56  58
ATOM     58  O   UNK d   0       1.011   1.723  24.074  0.00  0.00    -0.776 OA
ATOM     59  H   UNK d   0       0.535   1.697  24.993  0.00  0.00     0.167 HD
ENDBRANCH  56  58
ENDBRANCH  55  56
ENDBRANCH  21  55
BRANCH  18  60
ATOM     60  C   UNK d   0      -0.151   5.183  22.636  0.00  0.00     0.151 C 
BRANCH  60  61
ATOM     61  C   UNK d   0      -0.759   5.069  23.971  0.00  0.00     0.143 C 
ATOM     62  O   UNK d   0      -1.037   5.989  24.741  0.00  0.00    -0.650 OA
BRANCH  61  63
ATOM     63  O   UNK d   0      -1.046   3.748  24.392  0.00  0.00    -0.776 OA
ATOM     64  H   UNK d   0      -1.950   3.339  24.236  0.00  0.00     0.167 HD
ENDBRANCH  61  63
ENDBRANCH  60  61
ENDBRANCH  18  60
BRANCH  14  65
ATOM     65  C   UNK d   0      -0.302   8.035  21.611  0.00  0.00     0.052 C 
BRANCH  65  66
ATOM     66  C   UNK d   0      -1.276   8.603  22.580  0.00  0.00     0.115 C 
BRANCH  66  67
ATOM     67  C   UNK d   0      -1.168   9.980  22.974  0.00  0.00     0.139 C 
ATOM     68  O   UNK d   0      -1.008  10.251  24.221  0.00  0.00    -0.650 OA
BRANCH  67  69
ATOM     69  O   UNK d   0      -1.215  11.108  22.156  0.00  0.00    -0.776 OA
ATOM     70  H   UNK d   0      -1.953  11.108  21.436  0.00  0.00     0.167 HD
ENDBRANCH  67  69
ENDBRANCH  66  67
ENDBRANCH  65  66
ENDBRANCH  14  65
ENDBRANCH   6   7
ENDBRANCH   5   6
ENDBRANCH   2   5
TORSDOF 28
ENDMDL
MODEL 12
REMARK VINA RESULT:      -9.6      3.155      7.613
REMARK  28 active torsions:
REMARK  status: ('A' for Active; 'I' for Inactive)
REMARK    1  A    between atoms: C_2  and  O_3 
REMARK    2  A    between atoms: C_2  and  C_4 
REMARK    3  A    between atoms: C_4  and  C_5 
REMARK    4  A    between atoms: C_5  and  C_6 
REMARK    5  A    between atoms: C_7  and  C_8 
REMARK    6  A    between atoms: C_8  and  C_9 
REMARK    7  A    between atoms: C_9  and  O_11 
REMARK    8  A    between atoms: C_28  and  C_29 
REMARK    9  A    between atoms: C_29  and  C_30 
REMARK   10  A    between atoms: C_30  and  O_32 
REMARK   11  A    between atoms: C_33  and  C_34 
REMARK   12  A    between atoms: C_34  and  C_35 
REMARK   13  A    between atoms: C_35  and  C_36 
REMARK   14  A    between atoms: C_36  and  O_38 
REMARK   15  A    between atoms: C_39  and  C_40 
REMARK   16  A    between atoms: C_40  and  C_41 
REMARK   17  A    between atoms: C_41  and  C_42 
REMARK   18  A    between atoms: C_42  and  O_44 
REMARK   19  A    between atoms: C_45  and  C_46 
REMARK   20  A    between atoms: C_46  and  C_47 
REMARK   21  A    between atoms: C_47  and  O_49 
REMARK   22  A    between atoms: C_50  and  C_51 
REMARK   23  A    between atoms: C_51  and  C_52 
REMARK   24  A    between atoms: C_52  and  O_54 
REMARK   25  A    between atoms: C_55  and  C_56 
REMARK   26  A    between atoms: C_56  and  C_57 
REMARK   27  A    between atoms: C_57  and  C_58 
REMARK   28  A    between atoms: C_58  and  O_60 
ROOT
ATOM      1  O   UNK d   0       1.005  -0.171  28.184  0.00  0.00    -0.650 OA
ATOM      2  C   UNK d   0       0.884  -0.895  27.171  0.00  0.00     0.139 C 
ENDROOT
BRANCH   2   3
ATOM      3  O   UNK d   0       1.695  -1.995  27.029  0.00  0.00    -0.776 OA
ATOM      4  H   UNK d   0       2.061  -2.490  27.845  0.00  0.00     0.167 HD
ENDBRANCH   2   3
BRANCH   2   5
ATOM      5  C   UNK d   0      -0.132  -0.564  26.132  0.00  0.00     0.115 C 
BRANCH   5   6
ATOM      6  C   UNK d   0       0.538  -0.369  24.798  0.00  0.00     0.052 C 
BRANCH   6   7
ATOM      7  C   UNK d   0       0.334   1.021  24.244  0.00  0.00    -0.020 A 
ATOM      8  C   UNK d   0      -0.785   1.562  23.836  0.00  0.00    -0.011 A 
ATOM      9  C   UNK d   0      -0.488   2.909  23.380  0.00  0.00     0.067 A 
ATOM     10  C   UNK d   0      -1.221   3.988  22.861  0.00  0.00     0.062 C 
ATOM     11  N   UNK d   0       0.838   3.103  23.540  0.00  0.00    -0.248 NA
ATOM     12  C   UNK d   0      -0.801   5.316  22.737  0.00  0.00     0.041 A 
ATOM     13  N   UNK d   0       0.368   5.842  22.324  0.00  0.00    -0.355 N 
ATOM     14  C   UNK d   0      -1.671   6.346  23.142  0.00  0.00    -0.022 A 
ATOM     15  C   UNK d   0       0.266   7.177  22.465  0.00  0.00     0.042 A 
ATOM     16  H   UNK d   0       1.241   5.281  21.923  0.00  0.00     0.166 HD
ATOM     17  C   UNK d   0       1.194   8.199  22.181  0.00  0.00     0.062 C 
ATOM     18  C   UNK d   0      -0.998   7.531  22.975  0.00  0.00    -0.013 A 
ATOM     19  C   UNK d   0       2.533   8.252  22.471  0.00  0.00     0.067 A 
ATOM     20  N   UNK d   0       3.104   7.125  22.903  0.00  0.00    -0.248 NA
ATOM     21  C   UNK d   0       3.567   9.274  22.449  0.00  0.00    -0.011 A 
ATOM     22  C   UNK d   0       4.435   7.335  23.166  0.00  0.00     0.066 A 
ATOM     23  C   UNK d   0       5.162   6.232  23.588  0.00  0.00     0.062 C 
ATOM     24  C   UNK d   0       4.676   8.732  22.861  0.00  0.00    -0.020 A 
ATOM     25  C   UNK d   0       4.724   4.903  23.694  0.00  0.00     0.041 A 
ATOM     26  N   UNK d   0       3.568   4.380  24.119  0.00  0.00    -0.355 N 
ATOM     27  C   UNK d   0       5.596   3.871  23.283  0.00  0.00    -0.022 A 
ATOM     28  C   UNK d   0       3.670   3.048  23.988  0.00  0.00     0.042 A 
ATOM     29  H   UNK d   0       2.695   4.944  24.532  0.00  0.00     0.166 HD
ATOM     30  C   UNK d   0       2.759   2.019  24.275  0.00  0.00     0.062 C 
ATOM     31  C   UNK d   0       4.937   2.694  23.465  0.00  0.00    -0.013 A 
ATOM     32  C   UNK d   0       1.390   2.004  24.057  0.00  0.00     0.066 A 
BRANCH   8  33
ATOM     33  C   UNK d   0      -2.119   0.934  23.827  0.00  0.00     0.151 C 
BRANCH  33  34
ATOM     34  C   UNK d   0      -3.015   1.481  24.862  0.00  0.00     0.143 C 
ATOM     35  O   UNK d   0      -2.860   1.189  26.057  0.00  0.00    -0.650 OA
BRANCH  34  36
ATOM     36  O   UNK d   0      -4.036   2.326  24.494  0.00  0.00    -0.776 OA
ATOM     37  H   UNK d   0      -4.063   2.756  23.560  0.00  0.00     0.167 HD
ENDBRANCH  34  36
ENDBRANCH  33  34
ENDBRANCH   8  33
BRANCH  31  38
ATOM     38  C   UNK d   0       5.469   1.316  23.149  0.00  0.00     0.151 C 
BRANCH  38  39
ATOM     39  C   UNK d   0       5.969   0.625  24.319  0.00  0.00     0.143 C 
ATOM     40  O   UNK d   0       6.492   1.227  25.274  0.00  0.00    -0.650 OA
BRANCH  39  41
ATOM     41  O   UNK d   0       5.867  -0.764  24.392  0.00  0.00    -0.776 OA
ATOM     42  H   UNK d   0       4.954  -1.172  24.171  0.00  0.00     0.167 HD
ENDBRANCH  39  41
ENDBRANCH  38  39
ENDBRANCH  31  38
BRANCH  27  43
ATOM     43  C   UNK d   0       6.999   3.961  22.739  0.00  0.00     0.052 C 
BRANCH  43  44
ATOM     44  C   UNK d   0       7.976   4.531  23.716  0.00  0.00     0.115 C 
BRANCH  44  45
ATOM     45  C   UNK d   0       9.000   5.256  22.919  0.00  0.00     0.139 C 
ATOM     46  O   UNK d   0       9.978   5.756  23.527  0.00  0.00    -0.650 OA
BRANCH  45  47
ATOM     47  O   UNK d   0       8.921   5.393  21.550  0.00  0.00    -0.776 OA
ATOM     48  H   UNK d   0       9.504   4.844  20.897  0.00  0.00     0.167 HD
ENDBRANCH  45  47
ENDBRANCH  44  45
ENDBRANCH  43  44
ENDBRANCH  27  43
BRANCH  24  49
ATOM     49  C   UNK d   0       5.985   9.400  22.958  0.00  0.00     0.052 C 
BRANCH  49  50
ATOM     50  C   UNK d   0       6.619   9.512  21.595  0.00  0.00     0.115 C 
BRANCH  50  51
ATOM     51  C   UNK d   0       7.461   8.406  21.160  0.00  0.00     0.139 C 
ATOM     52  O   UNK d   0       8.692   8.361  21.391  0.00  0.00    -0.650 OA
BRANCH  51  53
ATOM     53  O   UNK d   0       6.898   7.350  20.459  0.00  0.00    -0.776 OA
ATOM     54  H   UNK d   0       6.729   7.469  19.475  0.00  0.00     0.167 HD
ENDBRANCH  51  53
ENDBRANCH  50  51
ENDBRANCH  49  50
ENDBRANCH  24  49
BRANCH  21  55
ATOM     55  C   UNK d   0       3.338  10.684  22.014  0.00  0.00     0.151 C 
BRANCH  55  56
ATOM     56  C   UNK d   0       2.522  11.433  22.981  0.00  0.00     0.143 C 
ATOM     57  O   UNK d   0       2.924  11.719  24.126  0.00  0.00    -0.650 OA
BRANCH  56  58
ATOM     58  O   UNK d   0       1.247  11.833  22.582  0.00  0.00    -0.776 OA
ATOM     59  H   UNK d   0       0.468  11.382  23.095  0.00  0.00     0.167 HD
ENDBRANCH  56  58
ENDBRANCH  55  56
ENDBRANCH  21  55
BRANCH  18  60
ATOM     60  C   UNK d   0      -1.557   8.895  23.297  0.00  0.00     0.151 C 
BRANCH  60  61
ATOM     61  C   UNK d   0      -1.794   9.549  22.001  0.00  0.00     0.143 C 
ATOM     62  O   UNK d   0      -2.343   9.061  21.013  0.00  0.00    -0.650 OA
BRANCH  61  63
ATOM     63  O   UNK d   0      -1.332  10.884  21.907  0.00  0.00    -0.776 OA
ATOM     64  H   UNK d   0      -0.433  11.095  21.513  0.00  0.00     0.167 HD
ENDBRANCH  61  63
ENDBRANCH  60  61
ENDBRANCH  18  60
BRANCH  14  65
ATOM     65  C   UNK d   0      -3.108   6.301  23.578  0.00  0.00     0.052 C 
BRANCH  65  66
ATOM     66  C   UNK d   0      -4.063   6.428  22.445  0.00  0.00     0.115 C 
BRANCH  66  67
ATOM     67  C   UNK d   0      -4.544   5.248  21.784  0.00  0.00     0.139 C 
ATOM     68  O   UNK d   0      -3.931   4.843  20.729  0.00  0.00    -0.650 OA
BRANCH  67  69
ATOM     69  O   UNK d   0      -5.629   4.450  22.144  0.00  0.00    -0.776 OA
ATOM     70  H   UNK d   0      -6.510   4.641  21.645  0.00  0.00     0.167 HD
ENDBRANCH  67  69
ENDBRANCH  66  67
ENDBRANCH  65  66
ENDBRANCH  14  65
ENDBRANCH   6   7
ENDBRANCH   5   6
ENDBRANCH   2   5
TORSDOF 28
ENDMDL
MODEL 13
REMARK VINA RESULT:      -9.6      1.436      7.808
REMARK  28 active torsions:
REMARK  status: ('A' for Active; 'I' for Inactive)
REMARK    1  A    between atoms: C_2  and  O_3 
REMARK    2  A    between atoms: C_2  and  C_4 
REMARK    3  A    between atoms: C_4  and  C_5 
REMARK    4  A    between atoms: C_5  and  C_6 
REMARK    5  A    between atoms: C_7  and  C_8 
REMARK    6  A    between atoms: C_8  and  C_9 
REMARK    7  A    between atoms: C_9  and  O_11 
REMARK    8  A    between atoms: C_28  and  C_29 
REMARK    9  A    between atoms: C_29  and  C_30 
REMARK   10  A    between atoms: C_30  and  O_32 
REMARK   11  A    between atoms: C_33  and  C_34 
REMARK   12  A    between atoms: C_34  and  C_35 
REMARK   13  A    between atoms: C_35  and  C_36 
REMARK   14  A    between atoms: C_36  and  O_38 
REMARK   15  A    between atoms: C_39  and  C_40 
REMARK   16  A    between atoms: C_40  and  C_41 
REMARK   17  A    between atoms: C_41  and  C_42 
REMARK   18  A    between atoms: C_42  and  O_44 
REMARK   19  A    between atoms: C_45  and  C_46 
REMARK   20  A    between atoms: C_46  and  C_47 
REMARK   21  A    between atoms: C_47  and  O_49 
REMARK   22  A    between atoms: C_50  and  C_51 
REMARK   23  A    between atoms: C_51  and  C_52 
REMARK   24  A    between atoms: C_52  and  O_54 
REMARK   25  A    between atoms: C_55  and  C_56 
REMARK   26  A    between atoms: C_56  and  C_57 
REMARK   27  A    between atoms: C_57  and  C_58 
REMARK   28  A    between atoms: C_58  and  O_60 
ROOT
ATOM      1  O   UNK d   0       1.414   0.754  26.403  0.00  0.00    -0.650 OA
ATOM      2  C   UNK d   0       1.654   1.979  26.327  0.00  0.00     0.139 C 
ENDROOT
BRANCH   2   3
ATOM      3  O   UNK d   0       2.184   2.630  27.415  0.00  0.00    -0.776 OA
ATOM      4  H   UNK d   0       2.903   3.347  27.303  0.00  0.00     0.167 HD
ENDBRANCH   2   3
BRANCH   2   5
ATOM      5  C   UNK d   0       1.366   2.722  25.068  0.00  0.00     0.115 C 
BRANCH   5   6
ATOM      6  C   UNK d   0       2.381   2.369  24.015  0.00  0.00     0.052 C 
BRANCH   6   7
ATOM      7  C   UNK d   0       3.386   3.472  23.784  0.00  0.00    -0.020 A 
ATOM      8  C   UNK d   0       4.683   3.417  23.945  0.00  0.00    -0.011 A 
ATOM      9  C   UNK d   0       5.230   4.721  23.610  0.00  0.00     0.067 A 
ATOM     10  C   UNK d   0       6.507   5.300  23.554  0.00  0.00     0.062 C 
ATOM     11  N   UNK d   0       4.193   5.512  23.260  0.00  0.00    -0.248 NA
ATOM     12  C   UNK d   0       6.866   6.503  22.936  0.00  0.00     0.041 A 
ATOM     13  N   UNK d   0       6.260   7.705  22.916  0.00  0.00    -0.355 N 
ATOM     14  C   UNK d   0       8.019   6.536  22.131  0.00  0.00    -0.022 A 
ATOM     15  C   UNK d   0       6.994   8.498  22.113  0.00  0.00     0.042 A 
ATOM     16  H   UNK d   0       5.342   7.993  23.474  0.00  0.00     0.166 HD
ATOM     17  C   UNK d   0       6.812   9.846  21.747  0.00  0.00     0.062 C 
ATOM     18  C   UNK d   0       8.106   7.800  21.602  0.00  0.00    -0.013 A 
ATOM     19  C   UNK d   0       5.663  10.487  21.358  0.00  0.00     0.067 A 
ATOM     20  N   UNK d   0       4.516   9.825  21.527  0.00  0.00    -0.248 NA
ATOM     21  C   UNK d   0       5.333  11.770  20.760  0.00  0.00    -0.011 A 
ATOM     22  C   UNK d   0       3.459  10.581  21.081  0.00  0.00     0.066 A 
ATOM     23  C   UNK d   0       2.197  10.027  21.232  0.00  0.00     0.062 C 
ATOM     24  C   UNK d   0       4.043  11.817  20.597  0.00  0.00    -0.020 A 
ATOM     25  C   UNK d   0       1.856   8.823  21.868  0.00  0.00     0.041 A 
ATOM     26  N   UNK d   0       2.451   7.624  21.875  0.00  0.00    -0.355 N 
ATOM     27  C   UNK d   0       0.701   8.792  22.679  0.00  0.00    -0.022 A 
ATOM     28  C   UNK d   0       1.715   6.829  22.668  0.00  0.00     0.042 A 
ATOM     29  H   UNK d   0       3.368   7.333  21.306  0.00  0.00     0.166 HD
ATOM     30  C   UNK d   0       1.880   5.484  23.034  0.00  0.00     0.062 C 
ATOM     31  C   UNK d   0       0.605   7.534  23.190  0.00  0.00    -0.013 A 
ATOM     32  C   UNK d   0       3.056   4.819  23.344  0.00  0.00     0.066 A 
BRANCH   8  33
ATOM     33  C   UNK d   0       5.471   2.252  24.391  0.00  0.00     0.151 C 
BRANCH  33  34
ATOM     34  C   UNK d   0       5.944   1.420  23.270  0.00  0.00     0.143 C 
ATOM     35  O   UNK d   0       6.030   1.884  22.125  0.00  0.00    -0.650 OA
BRANCH  34  36
ATOM     36  O   UNK d   0       6.292   0.110  23.503  0.00  0.00    -0.776 OA
ATOM     37  H   UNK d   0       6.068  -0.631  22.824  0.00  0.00     0.167 HD
ENDBRANCH  34  36
ENDBRANCH  33  34
ENDBRANCH   8  33
BRANCH  31  38
ATOM     38  C   UNK d   0      -0.469   7.032  24.127  0.00  0.00     0.151 C 
BRANCH  38  39
ATOM     39  C   UNK d   0      -0.107   7.173  25.522  0.00  0.00     0.143 C 
ATOM     40  O   UNK d   0       0.385   6.238  26.179  0.00  0.00    -0.650 OA
BRANCH  39  41
ATOM     41  O   UNK d   0      -0.310   8.394  26.164  0.00  0.00    -0.776 OA
ATOM     42  H   UNK d   0      -0.392   9.222  25.566  0.00  0.00     0.167 HD
ENDBRANCH  39  41
ENDBRANCH  38  39
ENDBRANCH  31  38
BRANCH  27  43
ATOM     43  C   UNK d   0      -0.291   9.888  22.976  0.00  0.00     0.052 C 
BRANCH  43  44
ATOM     44  C   UNK d   0      -1.088  10.304  21.782  0.00  0.00     0.115 C 
BRANCH  44  45
ATOM     45  C   UNK d   0      -2.129   9.263  21.583  0.00  0.00     0.139 C 
ATOM     46  O   UNK d   0      -2.335   8.848  20.415  0.00  0.00    -0.650 OA
BRANCH  45  47
ATOM     47  O   UNK d   0      -2.867   8.735  22.620  0.00  0.00    -0.776 OA
ATOM     48  H   UNK d   0      -2.772   7.756  22.934  0.00  0.00     0.167 HD
ENDBRANCH  45  47
ENDBRANCH  44  45
ENDBRANCH  43  44
ENDBRANCH  27  43
BRANCH  24  49
ATOM     49  C   UNK d   0       3.277  12.954  20.057  0.00  0.00     0.052 C 
BRANCH  49  50
ATOM     50  C   UNK d   0       3.194  14.061  21.076  0.00  0.00     0.115 C 
BRANCH  50  51
ATOM     51  C   UNK d   0       2.176  13.938  22.110  0.00  0.00     0.139 C 
ATOM     52  O   UNK d   0       1.137  13.254  21.958  0.00  0.00    -0.650 OA
BRANCH  51  53
ATOM     53  O   UNK d   0       2.343  14.597  23.319  0.00  0.00    -0.776 OA
ATOM     54  H   UNK d   0       3.277  14.816  23.616  0.00  0.00     0.167 HD
ENDBRANCH  51  53
ENDBRANCH  50  51
ENDBRANCH  49  50
ENDBRANCH  24  49
BRANCH  21  55
ATOM     55  C   UNK d   0       6.342  12.816  20.419  0.00  0.00     0.151 C 
BRANCH  55  56
ATOM     56  C   UNK d   0       7.359  12.316  19.480  0.00  0.00     0.143 C 
ATOM     57  O   UNK d   0       8.548  12.136  19.807  0.00  0.00    -0.650 OA
BRANCH  56  58
ATOM     58  O   UNK d   0       6.956  12.038  18.175  0.00  0.00    -0.776 OA
ATOM     59  H   UNK d   0       6.386  12.778  17.727  0.00  0.00     0.167 HD
ENDBRANCH  56  58
ENDBRANCH  55  56
ENDBRANCH  21  55
BRANCH  18  60
ATOM     60  C   UNK d   0       9.192   8.274  20.669  0.00  0.00     0.151 C 
BRANCH  60  61
ATOM     61  C   UNK d   0      10.371   8.519  21.514  0.00  0.00     0.143 C 
ATOM     62  O   UNK d   0      11.505   8.067  21.354  0.00  0.00    -0.650 OA
BRANCH  61  63
ATOM     63  O   UNK d   0      10.151   9.371  22.623  0.00  0.00    -0.776 OA
ATOM     64  H   UNK d   0       9.755   9.018  23.477  0.00  0.00     0.167 HD
ENDBRANCH  61  63
ENDBRANCH  60  61
ENDBRANCH  18  60
BRANCH  14  65
ATOM     65  C   UNK d   0       9.088   5.505  21.905  0.00  0.00     0.052 C 
BRANCH  65  66
ATOM     66  C   UNK d   0       9.765   5.083  23.161  0.00  0.00     0.115 C 
BRANCH  66  67
ATOM     67  C   UNK d   0      10.230   6.077  24.087  0.00  0.00     0.139 C 
ATOM     68  O   UNK d   0       9.578   6.249  25.182  0.00  0.00    -0.650 OA
BRANCH  67  69
ATOM     69  O   UNK d   0      11.337   6.915  23.954  0.00  0.00    -0.776 OA
ATOM     70  H   UNK d   0      11.856   7.112  24.822  0.00  0.00     0.167 HD
ENDBRANCH  67  69
ENDBRANCH  66  67
ENDBRANCH  65  66
ENDBRANCH  14  65
ENDBRANCH   6   7
ENDBRANCH   5   6
ENDBRANCH   2   5
TORSDOF 28
ENDMDL
MODEL 14
REMARK VINA RESULT:      -9.6      1.742      7.974
REMARK  28 active torsions:
REMARK  status: ('A' for Active; 'I' for Inactive)
REMARK    1  A    between atoms: C_2  and  O_3 
REMARK    2  A    between atoms: C_2  and  C_4 
REMARK    3  A    between atoms: C_4  and  C_5 
REMARK    4  A    between atoms: C_5  and  C_6 
REMARK    5  A    between atoms: C_7  and  C_8 
REMARK    6  A    between atoms: C_8  and  C_9 
REMARK    7  A    between atoms: C_9  and  O_11 
REMARK    8  A    between atoms: C_28  and  C_29 
REMARK    9  A    between atoms: C_29  and  C_30 
REMARK   10  A    between atoms: C_30  and  O_32 
REMARK   11  A    between atoms: C_33  and  C_34 
REMARK   12  A    between atoms: C_34  and  C_35 
REMARK   13  A    between atoms: C_35  and  C_36 
REMARK   14  A    between atoms: C_36  and  O_38 
REMARK   15  A    between atoms: C_39  and  C_40 
REMARK   16  A    between atoms: C_40  and  C_41 
REMARK   17  A    between atoms: C_41  and  C_42 
REMARK   18  A    between atoms: C_42  and  O_44 
REMARK   19  A    between atoms: C_45  and  C_46 
REMARK   20  A    between atoms: C_46  and  C_47 
REMARK   21  A    between atoms: C_47  and  O_49 
REMARK   22  A    between atoms: C_50  and  C_51 
REMARK   23  A    between atoms: C_51  and  C_52 
REMARK   24  A    between atoms: C_52  and  O_54 
REMARK   25  A    between atoms: C_55  and  C_56 
REMARK   26  A    between atoms: C_56  and  C_57 
REMARK   27  A    between atoms: C_57  and  C_58 
REMARK   28  A    between atoms: C_58  and  O_60 
ROOT
ATOM      1  O   UNK d   0       6.379  10.474  16.366  0.00  0.00    -0.650 OA
ATOM      2  C   UNK d   0       7.337  11.261  16.535  0.00  0.00     0.139 C 
ENDROOT
BRANCH   2   3
ATOM      3  O   UNK d   0       7.649  12.165  15.548  0.00  0.00    -0.776 OA
ATOM      4  H   UNK d   0       6.916  12.655  15.031  0.00  0.00     0.167 HD
ENDBRANCH   2   3
BRANCH   2   5
ATOM      5  C   UNK d   0       8.129  11.215  17.797  0.00  0.00     0.115 C 
BRANCH   5   6
ATOM      6  C   UNK d   0       7.470  12.059  18.854  0.00  0.00     0.052 C 
BRANCH   6   7
ATOM      7  C   UNK d   0       6.495  11.274  19.699  0.00  0.00    -0.020 A 
ATOM      8  C   UNK d   0       5.274  11.610  20.028  0.00  0.00    -0.011 A 
ATOM      9  C   UNK d   0       4.729  10.548  20.857  0.00  0.00     0.067 A 
ATOM     10  C   UNK d   0       3.507  10.288  21.497  0.00  0.00     0.062 C 
ATOM     11  N   UNK d   0       5.689   9.608  20.987  0.00  0.00    -0.248 NA
ATOM     12  C   UNK d   0       3.070   9.069  22.027  0.00  0.00     0.041 A 
ATOM     13  N   UNK d   0       3.713   8.140  22.759  0.00  0.00    -0.355 N 
ATOM     14  C   UNK d   0       1.760   8.638  21.751  0.00  0.00    -0.022 A 
ATOM     15  C   UNK d   0       2.847   7.126  22.947  0.00  0.00     0.042 A 
ATOM     16  H   UNK d   0       4.752   8.208  23.151  0.00  0.00     0.166 HD
ATOM     17  C   UNK d   0       3.003   5.909  23.641  0.00  0.00     0.062 C 
ATOM     18  C   UNK d   0       1.612   7.402  22.330  0.00  0.00    -0.013 A 
ATOM     19  C   UNK d   0       4.055   5.029  23.613  0.00  0.00     0.067 A 
ATOM     20  N   UNK d   0       5.175   5.445  23.016  0.00  0.00    -0.248 NA
ATOM     21  C   UNK d   0       4.295   3.673  24.076  0.00  0.00    -0.011 A 
ATOM     22  C   UNK d   0       6.129   4.457  23.053  0.00  0.00     0.066 A 
ATOM     23  C   UNK d   0       7.361   4.770  22.498  0.00  0.00     0.062 C 
ATOM     24  C   UNK d   0       5.509   3.342  23.741  0.00  0.00    -0.020 A 
ATOM     25  C   UNK d   0       7.784   6.004  21.981  0.00  0.00     0.041 A 
ATOM     26  N   UNK d   0       7.150   6.922  21.242  0.00  0.00    -0.355 N 
ATOM     27  C   UNK d   0       9.098   6.439  22.263  0.00  0.00    -0.022 A 
ATOM     28  C   UNK d   0       8.014   7.930  21.044  0.00  0.00     0.042 A 
ATOM     29  H   UNK d   0       6.109   6.847  20.840  0.00  0.00     0.166 HD
ATOM     30  C   UNK d   0       7.875   9.142  20.350  0.00  0.00     0.062 C 
ATOM     31  C   UNK d   0       9.251   7.657  21.674  0.00  0.00    -0.013 A 
ATOM     32  C   UNK d   0       6.776   9.985  20.313  0.00  0.00     0.066 A 
BRANCH   8  33
ATOM     33  C   UNK d   0       4.560  12.841  19.643  0.00  0.00     0.151 C 
BRANCH  33  34
ATOM     34  C   UNK d   0       5.322  14.064  19.955  0.00  0.00     0.143 C 
ATOM     35  O   UNK d   0       5.678  14.313  21.116  0.00  0.00    -0.650 OA
BRANCH  34  36
ATOM     36  O   UNK d   0       5.639  14.939  18.942  0.00  0.00    -0.776 OA
ATOM     37  H   UNK d   0       6.328  14.692  18.219  0.00  0.00     0.167 HD
ENDBRANCH  34  36
ENDBRANCH  33  34
ENDBRANCH   8  33
BRANCH  31  38
ATOM     38  C   UNK d   0      10.493   8.517  21.717  0.00  0.00     0.151 C 
BRANCH  38  39
ATOM     39  C   UNK d   0      10.381   9.618  22.650  0.00  0.00     0.143 C 
ATOM     40  O   UNK d   0      10.265  10.798  22.275  0.00  0.00    -0.650 OA
BRANCH  39  41
ATOM     41  O   UNK d   0      10.401   9.361  24.020  0.00  0.00    -0.776 OA
ATOM     42  H   UNK d   0       9.624   9.738  24.572  0.00  0.00     0.167 HD
ENDBRANCH  39  41
ENDBRANCH  38  39
ENDBRANCH  31  38
BRANCH  27  43
ATOM     43  C   UNK d   0      10.186   5.753  23.050  0.00  0.00     0.052 C 
BRANCH  43  44
ATOM     44  C   UNK d   0       9.953   5.777  24.526  0.00  0.00     0.115 C 
BRANCH  44  45
ATOM     45  C   UNK d   0      10.965   6.700  25.101  0.00  0.00     0.139 C 
ATOM     46  O   UNK d   0      12.037   6.870  24.469  0.00  0.00    -0.650 OA
BRANCH  45  47
ATOM     47  O   UNK d   0      10.773   7.374  26.288  0.00  0.00    -0.776 OA
ATOM     48  H   UNK d   0       9.898   7.311  26.832  0.00  0.00     0.167 HD
ENDBRANCH  45  47
ENDBRANCH  44  45
ENDBRANCH  43  44
ENDBRANCH  27  43
BRANCH  24  49
ATOM     49  C   UNK d   0       6.178   2.067  24.049  0.00  0.00     0.052 C 
BRANCH  49  50
ATOM     50  C   UNK d   0       6.014   1.099  22.905  0.00  0.00     0.115 C 
BRANCH  50  51
ATOM     51  C   UNK d   0       5.585  -0.253  23.234  0.00  0.00     0.139 C 
ATOM     52  O   UNK d   0       5.940  -1.256  22.570  0.00  0.00    -0.650 OA
BRANCH  51  53
ATOM     53  O   UNK d   0       4.749  -0.463  24.320  0.00  0.00    -0.776 OA
ATOM     54  H   UNK d   0       4.936   0.042  25.168  0.00  0.00     0.167 HD
ENDBRANCH  51  53
ENDBRANCH  50  51
ENDBRANCH  49  50
ENDBRANCH  24  49
BRANCH  21  55
ATOM     55  C   UNK d   0       3.287   2.850  24.809  0.00  0.00     0.151 C 
BRANCH  55  56
ATOM     56  C   UNK d   0       2.314   2.230  23.897  0.00  0.00     0.143 C 
ATOM     57  O   UNK d   0       2.413   1.050  23.505  0.00  0.00    -0.650 OA
BRANCH  56  58
ATOM     58  O   UNK d   0       1.242   3.008  23.463  0.00  0.00    -0.776 OA
ATOM     59  H   UNK d   0       0.440   3.048  24.117  0.00  0.00     0.167 HD
ENDBRANCH  56  58
ENDBRANCH  55  56
ENDBRANCH  21  55
BRANCH  18  60
ATOM     60  C   UNK d   0       0.358   6.565  22.274  0.00  0.00     0.151 C 
BRANCH  60  61
ATOM     61  C   UNK d   0      -0.160   6.521  23.650  0.00  0.00     0.143 C 
ATOM     62  O   UNK d   0      -0.281   7.467  24.428  0.00  0.00    -0.650 OA
BRANCH  61  63
ATOM     63  O   UNK d   0      -0.555   5.239  24.103  0.00  0.00    -0.776 OA
ATOM     64  H   UNK d   0       0.081   4.650  24.611  0.00  0.00     0.167 HD
ENDBRANCH  61  63
ENDBRANCH  60  61
ENDBRANCH  18  60
BRANCH  14  65
ATOM     65  C   UNK d   0       0.618   9.340  21.073  0.00  0.00     0.052 C 
BRANCH  65  66
ATOM     66  C   UNK d   0       0.008  10.405  21.915  0.00  0.00     0.115 C 
BRANCH  66  67
ATOM     67  C   UNK d   0      -1.281  10.190  22.511  0.00  0.00     0.139 C 
ATOM     68  O   UNK d   0      -1.419  10.413  23.770  0.00  0.00    -0.650 OA
BRANCH  67  69
ATOM     69  O   UNK d   0      -2.448   9.755  21.885  0.00  0.00    -0.776 OA
ATOM     70  H   UNK d   0      -3.304  10.279  22.119  0.00  0.00     0.167 HD
ENDBRANCH  67  69
ENDBRANCH  66  67
ENDBRANCH  65  66
ENDBRANCH  14  65
ENDBRANCH   6   7
ENDBRANCH   5   6
ENDBRANCH   2   5
TORSDOF 28
ENDMDL
MODEL 15
REMARK VINA RESULT:      -9.5      2.022      5.483
REMARK  28 active torsions:
REMARK  status: ('A' for Active; 'I' for Inactive)
REMARK    1  A    between atoms: C_2  and  O_3 
REMARK    2  A    between atoms: C_2  and  C_4 
REMARK    3  A    between atoms: C_4  and  C_5 
REMARK    4  A    between atoms: C_5  and  C_6 
REMARK    5  A    between atoms: C_7  and  C_8 
REMARK    6  A    between atoms: C_8  and  C_9 
REMARK    7  A    between atoms: C_9  and  O_11 
REMARK    8  A    between atoms: C_28  and  C_29 
REMARK    9  A    between atoms: C_29  and  C_30 
REMARK   10  A    between atoms: C_30  and  O_32 
REMARK   11  A    between atoms: C_33  and  C_34 
REMARK   12  A    between atoms: C_34  and  C_35 
REMARK   13  A    between atoms: C_35  and  C_36 
REMARK   14  A    between atoms: C_36  and  O_38 
REMARK   15  A    between atoms: C_39  and  C_40 
REMARK   16  A    between atoms: C_40  and  C_41 
REMARK   17  A    between atoms: C_41  and  C_42 
REMARK   18  A    between atoms: C_42  and  O_44 
REMARK   19  A    between atoms: C_45  and  C_46 
REMARK   20  A    between atoms: C_46  and  C_47 
REMARK   21  A    between atoms: C_47  and  O_49 
REMARK   22  A    between atoms: C_50  and  C_51 
REMARK   23  A    between atoms: C_51  and  C_52 
REMARK   24  A    between atoms: C_52  and  O_54 
REMARK   25  A    between atoms: C_55  and  C_56 
REMARK   26  A    between atoms: C_56  and  C_57 
REMARK   27  A    between atoms: C_57  and  C_58 
REMARK   28  A    between atoms: C_58  and  O_60 
ROOT
ATOM      1  O   UNK d   0       1.902   2.881  27.156  0.00  0.00    -0.650 OA
ATOM      2  C   UNK d   0       1.006   2.010  27.123  0.00  0.00     0.139 C 
ENDROOT
BRANCH   2   3
ATOM      3  O   UNK d   0       0.977   1.037  28.093  0.00  0.00    -0.776 OA
ATOM      4  H   UNK d   0       0.325   0.252  28.034  0.00  0.00     0.167 HD
ENDBRANCH   2   3
BRANCH   2   5
ATOM      5  C   UNK d   0      -0.019   2.029  26.041  0.00  0.00     0.115 C 
BRANCH   5   6
ATOM      6  C   UNK d   0       0.642   1.865  24.700  0.00  0.00     0.052 C 
BRANCH   6   7
ATOM      7  C   UNK d   0       0.798   3.174  23.964  0.00  0.00    -0.020 A 
ATOM      8  C   UNK d   0      -0.145   3.905  23.427  0.00  0.00    -0.011 A 
ATOM      9  C   UNK d   0       0.483   5.068  22.823  0.00  0.00     0.067 A 
ATOM     10  C   UNK d   0       0.048   6.209  22.131  0.00  0.00     0.062 C 
ATOM     11  N   UNK d   0       1.812   4.961  23.035  0.00  0.00    -0.248 NA
ATOM     12  C   UNK d   0       0.782   7.370  21.865  0.00  0.00     0.041 A 
ATOM     13  N   UNK d   0       2.055   7.541  21.458  0.00  0.00    -0.355 N 
ATOM     14  C   UNK d   0       0.179   8.622  22.086  0.00  0.00    -0.022 A 
ATOM     15  C   UNK d   0       2.277   8.869  21.423  0.00  0.00     0.042 A 
ATOM     16  H   UNK d   0       2.775   6.740  21.183  0.00  0.00     0.166 HD
ATOM     17  C   UNK d   0       3.433   9.592  21.068  0.00  0.00     0.062 C 
ATOM     18  C   UNK d   0       1.124   9.579  21.811  0.00  0.00    -0.013 A 
ATOM     19  C   UNK d   0       4.737   9.365  21.427  0.00  0.00     0.067 A 
ATOM     20  N   UNK d   0       5.004   8.204  22.030  0.00  0.00    -0.248 NA
ATOM     21  C   UNK d   0       5.988  10.098  21.337  0.00  0.00    -0.011 A 
ATOM     22  C   UNK d   0       6.340   8.125  22.342  0.00  0.00     0.066 A 
ATOM     23  C   UNK d   0       6.765   6.949  22.942  0.00  0.00     0.062 C 
ATOM     24  C   UNK d   0       6.921   9.369  21.878  0.00  0.00    -0.020 A 
ATOM     25  C   UNK d   0       6.014   5.789  23.188  0.00  0.00     0.041 A 
ATOM     26  N   UNK d   0       4.754   5.619  23.607  0.00  0.00    -0.355 N 
ATOM     27  C   UNK d   0       6.618   4.533  22.962  0.00  0.00    -0.022 A 
ATOM     28  C   UNK d   0       4.533   4.296  23.651  0.00  0.00     0.042 A 
ATOM     29  H   UNK d   0       4.035   6.425  23.893  0.00  0.00     0.166 HD
ATOM     30  C   UNK d   0       3.391   3.562  24.011  0.00  0.00     0.062 C 
ATOM     31  C   UNK d   0       5.688   3.583  23.251  0.00  0.00    -0.013 A 
ATOM     32  C   UNK d   0       2.066   3.844  23.717  0.00  0.00     0.066 A 
BRANCH   8  33
ATOM     33  C   UNK d   0      -1.591   3.617  23.418  0.00  0.00     0.151 C 
BRANCH  33  34
ATOM     34  C   UNK d   0      -2.350   4.479  24.342  0.00  0.00     0.143 C 
ATOM     35  O   UNK d   0      -3.541   4.746  24.131  0.00  0.00    -0.650 OA
BRANCH  34  36
ATOM     36  O   UNK d   0      -1.723   4.995  25.453  0.00  0.00    -0.776 OA
ATOM     37  H   UNK d   0      -1.051   5.771  25.376  0.00  0.00     0.167 HD
ENDBRANCH  34  36
ENDBRANCH  33  34
ENDBRANCH   8  33
BRANCH  31  38
ATOM     38  C   UNK d   0       5.877   2.088  23.143  0.00  0.00     0.151 C 
BRANCH  38  39
ATOM     39  C   UNK d   0       6.215   1.472  24.409  0.00  0.00     0.143 C 
ATOM     40  O   UNK d   0       6.949   2.028  25.245  0.00  0.00    -0.650 OA
BRANCH  39  41
ATOM     41  O   UNK d   0       5.706   0.210  24.715  0.00  0.00    -0.776 OA
ATOM     42  H   UNK d   0       5.025  -0.185  24.059  0.00  0.00     0.167 HD
ENDBRANCH  39  41
ENDBRANCH  38  39
ENDBRANCH  31  38
BRANCH  27  43
ATOM     43  C   UNK d   0       8.016   4.213  22.493  0.00  0.00     0.052 C 
BRANCH  43  44
ATOM     44  C   UNK d   0       9.080   4.832  23.340  0.00  0.00     0.115 C 
BRANCH  44  45
ATOM     45  C   UNK d   0      10.016   5.518  22.412  0.00  0.00     0.139 C 
ATOM     46  O   UNK d   0      10.825   6.348  22.894  0.00  0.00    -0.650 OA
BRANCH  45  47
ATOM     47  O   UNK d   0      10.034   5.276  21.055  0.00  0.00    -0.776 OA
ATOM     48  H   UNK d   0       9.337   4.676  20.584  0.00  0.00     0.167 HD
ENDBRANCH  45  47
ENDBRANCH  44  45
ENDBRANCH  43  44
ENDBRANCH  27  43
BRANCH  24  49
ATOM     49  C   UNK d   0       8.351   9.714  21.967  0.00  0.00     0.052 C 
BRANCH  49  50
ATOM     50  C   UNK d   0       9.172   8.767  21.130  0.00  0.00     0.115 C 
BRANCH  50  51
ATOM     51  C   UNK d   0       9.420   9.148  19.746  0.00  0.00     0.139 C 
ATOM     52  O   UNK d   0      10.408   9.838  19.401  0.00  0.00    -0.650 OA
BRANCH  51  53
ATOM     53  O   UNK d   0       8.540   8.742  18.754  0.00  0.00    -0.776 OA
ATOM     54  H   UNK d   0       7.556   8.862  18.914  0.00  0.00     0.167 HD
ENDBRANCH  51  53
ENDBRANCH  50  51
ENDBRANCH  49  50
ENDBRANCH  24  49
BRANCH  21  55
ATOM     55  C   UNK d   0       6.122  11.449  20.716  0.00  0.00     0.151 C 
BRANCH  55  56
ATOM     56  C   UNK d   0       6.483  11.369  19.293  0.00  0.00     0.143 C 
ATOM     57  O   UNK d   0       7.609  11.687  18.863  0.00  0.00    -0.650 OA
BRANCH  56  58
ATOM     58  O   UNK d   0       5.512  10.915  18.401  0.00  0.00    -0.776 OA
ATOM     59  H   UNK d   0       4.589  11.375  18.490  0.00  0.00     0.167 HD
ENDBRANCH  56  58
ENDBRANCH  55  56
ENDBRANCH  21  55
BRANCH  18  60
ATOM     60  C   UNK d   0       0.906  11.067  21.925  0.00  0.00     0.151 C 
BRANCH  60  61
ATOM     61  C   UNK d   0       1.875  11.542  22.924  0.00  0.00     0.143 C 
ATOM     62  O   UNK d   0       2.167  11.000  23.991  0.00  0.00    -0.650 OA
BRANCH  61  63
ATOM     63  O   UNK d   0       2.528  12.756  22.601  0.00  0.00    -0.776 OA
ATOM     64  H   UNK d   0       2.555  13.094  21.655  0.00  0.00     0.167 HD
ENDBRANCH  61  63
ENDBRANCH  60  61
ENDBRANCH  18  60
BRANCH  14  65
ATOM     65  C   UNK d   0      -1.236   8.980  22.439  0.00  0.00     0.052 C 
BRANCH  65  66
ATOM     66  C   UNK d   0      -1.621   8.548  23.809  0.00  0.00     0.115 C 
BRANCH  66  67
ATOM     67  C   UNK d   0      -0.654   8.597  24.869  0.00  0.00     0.139 C 
ATOM     68  O   UNK d   0      -0.265   7.491  25.397  0.00  0.00    -0.650 OA
BRANCH  67  69
ATOM     69  O   UNK d   0      -0.056   9.727  25.426  0.00  0.00    -0.776 OA
ATOM     70  H   UNK d   0       0.599  10.235  24.815  0.00  0.00     0.167 HD
ENDBRANCH  67  69
ENDBRANCH  66  67
ENDBRANCH  65  66
ENDBRANCH  14  65
ENDBRANCH   6   7
ENDBRANCH   5   6
ENDBRANCH   2   5
TORSDOF 28
ENDMDL
MODEL 16
REMARK VINA RESULT:      -9.5      1.936      7.886
REMARK  28 active torsions:
REMARK  status: ('A' for Active; 'I' for Inactive)
REMARK    1  A    between atoms: C_2  and  O_3 
REMARK    2  A    between atoms: C_2  and  C_4 
REMARK    3  A    between atoms: C_4  and  C_5 
REMARK    4  A    between atoms: C_5  and  C_6 
REMARK    5  A    between atoms: C_7  and  C_8 
REMARK    6  A    between atoms: C_8  and  C_9 
REMARK    7  A    between atoms: C_9  and  O_11 
REMARK    8  A    between atoms: C_28  and  C_29 
REMARK    9  A    between atoms: C_29  and  C_30 
REMARK   10  A    between atoms: C_30  and  O_32 
REMARK   11  A    between atoms: C_33  and  C_34 
REMARK   12  A    between atoms: C_34  and  C_35 
REMARK   13  A    between atoms: C_35  and  C_36 
REMARK   14  A    between atoms: C_36  and  O_38 
REMARK   15  A    between atoms: C_39  and  C_40 
REMARK   16  A    between atoms: C_40  and  C_41 
REMARK   17  A    between atoms: C_41  and  C_42 
REMARK   18  A    between atoms: C_42  and  O_44 
REMARK   19  A    between atoms: C_45  and  C_46 
REMARK   20  A    between atoms: C_46  and  C_47 
REMARK   21  A    between atoms: C_47  and  O_49 
REMARK   22  A    between atoms: C_50  and  C_51 
REMARK   23  A    between atoms: C_51  and  C_52 
REMARK   24  A    between atoms: C_52  and  O_54 
REMARK   25  A    between atoms: C_55  and  C_56 
REMARK   26  A    between atoms: C_56  and  C_57 
REMARK   27  A    between atoms: C_57  and  C_58 
REMARK   28  A    between atoms: C_58  and  O_60 
ROOT
ATOM      1  O   UNK d   0      11.533   8.378  21.168  0.00  0.00    -0.650 OA
ATOM      2  C   UNK d   0      10.666   8.496  20.274  0.00  0.00     0.139 C 
ENDROOT
BRANCH   2   3
ATOM      3  O   UNK d   0      10.403   7.431  19.446  0.00  0.00    -0.776 OA
ATOM      4  H   UNK d   0      10.193   6.506  19.827  0.00  0.00     0.167 HD
ENDBRANCH   2   3
BRANCH   2   5
ATOM      5  C   UNK d   0       9.929   9.781  20.111  0.00  0.00     0.115 C 
BRANCH   5   6
ATOM      6  C   UNK d   0       8.673   9.560  19.312  0.00  0.00     0.052 C 
BRANCH   6   7
ATOM      7  C   UNK d   0       7.423   9.660  20.154  0.00  0.00    -0.020 A 
ATOM      8  C   UNK d   0       6.671  10.714  20.343  0.00  0.00    -0.011 A 
ATOM      9  C   UNK d   0       5.588  10.333  21.233  0.00  0.00     0.067 A 
ATOM     10  C   UNK d   0       4.467  10.966  21.794  0.00  0.00     0.062 C 
ATOM     11  N   UNK d   0       5.762   9.030  21.542  0.00  0.00    -0.248 NA
ATOM     12  C   UNK d   0       3.371  10.356  22.414  0.00  0.00     0.041 A 
ATOM     13  N   UNK d   0       3.304   9.337  23.292  0.00  0.00    -0.355 N 
ATOM     14  C   UNK d   0       2.074  10.784  22.079  0.00  0.00    -0.022 A 
ATOM     15  C   UNK d   0       1.997   9.103  23.516  0.00  0.00     0.042 A 
ATOM     16  H   UNK d   0       4.163   8.806  23.758  0.00  0.00     0.166 HD
ATOM     17  C   UNK d   0       1.368   8.153  24.346  0.00  0.00     0.062 C 
ATOM     18  C   UNK d   0       1.195   9.991  22.773  0.00  0.00    -0.013 A 
ATOM     19  C   UNK d   0       1.652   6.820  24.500  0.00  0.00     0.067 A 
ATOM     20  N   UNK d   0       2.788   6.377  23.956  0.00  0.00    -0.248 NA
ATOM     21  C   UNK d   0       1.002   5.680  25.124  0.00  0.00    -0.011 A 
ATOM     22  C   UNK d   0       2.928   5.029  24.177  0.00  0.00     0.066 A 
ATOM     23  C   UNK d   0       4.089   4.442  23.696  0.00  0.00     0.062 C 
ATOM     24  C   UNK d   0       1.752   4.633  24.928  0.00  0.00    -0.020 A 
ATOM     25  C   UNK d   0       5.183   5.075  23.087  0.00  0.00     0.041 A 
ATOM     26  N   UNK d   0       5.250   6.078  22.203  0.00  0.00    -0.355 N 
ATOM     27  C   UNK d   0       6.485   4.647  23.427  0.00  0.00    -0.022 A 
ATOM     28  C   UNK d   0       6.553   6.307  21.971  0.00  0.00     0.042 A 
ATOM     29  H   UNK d   0       4.386   6.603  21.727  0.00  0.00     0.166 HD
ATOM     30  C   UNK d   0       7.191   7.242  21.141  0.00  0.00     0.062 C 
ATOM     31  C   UNK d   0       7.358   5.422  22.726  0.00  0.00    -0.013 A 
ATOM     32  C   UNK d   0       6.849   8.567  20.923  0.00  0.00     0.066 A 
BRANCH   8  33
ATOM     33  C   UNK d   0       6.870  12.058  19.770  0.00  0.00     0.151 C 
BRANCH  33  34
ATOM     34  C   UNK d   0       7.328  13.041  20.768  0.00  0.00     0.143 C 
ATOM     35  O   UNK d   0       8.436  12.928  21.311  0.00  0.00    -0.650 OA
BRANCH  34  36
ATOM     36  O   UNK d   0       6.511  14.097  21.100  0.00  0.00    -0.776 OA
ATOM     37  H   UNK d   0       5.505  13.961  21.270  0.00  0.00     0.167 HD
ENDBRANCH  34  36
ENDBRANCH  33  34
ENDBRANCH   8  33
BRANCH  31  38
ATOM     38  C   UNK d   0       8.865   5.337  22.778  0.00  0.00     0.151 C 
BRANCH  38  39
ATOM     39  C   UNK d   0       9.439   6.178  23.807  0.00  0.00     0.143 C 
ATOM     40  O   UNK d   0       8.992   6.209  24.967  0.00  0.00    -0.650 OA
BRANCH  39  41
ATOM     41  O   UNK d   0      10.534   6.986  23.502  0.00  0.00    -0.776 OA
ATOM     42  H   UNK d   0      10.356   7.798  22.903  0.00  0.00     0.167 HD
ENDBRANCH  39  41
ENDBRANCH  38  39
ENDBRANCH  31  38
BRANCH  27  43
ATOM     43  C   UNK d   0       6.918   3.553  24.370  0.00  0.00     0.052 C 
BRANCH  43  44
ATOM     44  C   UNK d   0       6.910   2.196  23.745  0.00  0.00     0.115 C 
BRANCH  44  45
ATOM     45  C   UNK d   0       6.144   1.311  24.660  0.00  0.00     0.139 C 
ATOM     46  O   UNK d   0       5.003   1.686  25.028  0.00  0.00    -0.650 OA
BRANCH  45  47
ATOM     47  O   UNK d   0       6.630   0.103  25.113  0.00  0.00    -0.776 OA
ATOM     48  H   UNK d   0       6.236  -0.805  24.818  0.00  0.00     0.167 HD
ENDBRANCH  45  47
ENDBRANCH  44  45
ENDBRANCH  43  44
ENDBRANCH  27  43
BRANCH  24  49
ATOM     49  C   UNK d   0       1.490   3.272  25.425  0.00  0.00     0.052 C 
BRANCH  49  50
ATOM     50  C   UNK d   0       1.193   2.342  24.276  0.00  0.00     0.115 C 
BRANCH  50  51
ATOM     51  C   UNK d   0       1.280   0.912  24.539  0.00  0.00     0.139 C 
ATOM     52  O   UNK d   0       0.368   0.111  24.226  0.00  0.00    -0.650 OA
BRANCH  51  53
ATOM     53  O   UNK d   0       2.406   0.396  25.160  0.00  0.00    -0.776 OA
ATOM     54  H   UNK d   0       3.025   1.034  25.629  0.00  0.00     0.167 HD
ENDBRANCH  51  53
ENDBRANCH  50  51
ENDBRANCH  49  50
ENDBRANCH  24  49
BRANCH  21  55
ATOM     55  C   UNK d   0      -0.297   5.755  25.855  0.00  0.00     0.151 C 
BRANCH  55  56
ATOM     56  C   UNK d   0      -0.113   6.098  27.274  0.00  0.00     0.143 C 
ATOM     57  O   UNK d   0       0.049   5.237  28.161  0.00  0.00    -0.650 OA
BRANCH  56  58
ATOM     58  O   UNK d   0      -0.122   7.448  27.622  0.00  0.00    -0.776 OA
ATOM     59  H   UNK d   0       0.783   7.815  27.966  0.00  0.00     0.167 HD
ENDBRANCH  56  58
ENDBRANCH  55  56
ENDBRANCH  21  55
BRANCH  18  60
ATOM     60  C   UNK d   0      -0.308  10.100  22.703  0.00  0.00     0.151 C 
BRANCH  60  61
ATOM     61  C   UNK d   0      -0.725   9.235  21.589  0.00  0.00     0.143 C 
ATOM     62  O   UNK d   0      -0.367   8.076  21.376  0.00  0.00    -0.650 OA
BRANCH  61  63
ATOM     63  O   UNK d   0      -1.636   9.822  20.679  0.00  0.00    -0.776 OA
ATOM     64  H   UNK d   0      -1.407   9.917  19.705  0.00  0.00     0.167 HD
ENDBRANCH  61  63
ENDBRANCH  60  61
ENDBRANCH  18  60
BRANCH  14  65
ATOM     65  C   UNK d   0       1.609  11.939  21.238  0.00  0.00     0.052 C 
BRANCH  65  66
ATOM     66  C   UNK d   0       1.370  13.176  22.029  0.00  0.00     0.115 C 
BRANCH  66  67
ATOM     67  C   UNK d   0       2.470  14.045  22.341  0.00  0.00     0.139 C 
ATOM     68  O   UNK d   0       2.561  14.516  23.534  0.00  0.00    -0.650 OA
BRANCH  67  69
ATOM     69  O   UNK d   0       3.493  14.465  21.492  0.00  0.00    -0.776 OA
ATOM     70  H   UNK d   0       3.236  15.190  20.806  0.00  0.00     0.167 HD
ENDBRANCH  67  69
ENDBRANCH  66  67
ENDBRANCH  65  66
ENDBRANCH  14  65
ENDBRANCH   6   7
ENDBRANCH   5   6
ENDBRANCH   2   5
TORSDOF 28
ENDMDL
MODEL 17
REMARK VINA RESULT:      -9.2      1.733      7.691
REMARK  28 active torsions:
REMARK  status: ('A' for Active; 'I' for Inactive)
REMARK    1  A    between atoms: C_2  and  O_3 
REMARK    2  A    between atoms: C_2  and  C_4 
REMARK    3  A    between atoms: C_4  and  C_5 
REMARK    4  A    between atoms: C_5  and  C_6 
REMARK    5  A    between atoms: C_7  and  C_8 
REMARK    6  A    between atoms: C_8  and  C_9 
REMARK    7  A    between atoms: C_9  and  O_11 
REMARK    8  A    between atoms: C_28  and  C_29 
REMARK    9  A    between atoms: C_29  and  C_30 
REMARK   10  A    between atoms: C_30  and  O_32 
REMARK   11  A    between atoms: C_33  and  C_34 
REMARK   12  A    between atoms: C_34  and  C_35 
REMARK   13  A    between atoms: C_35  and  C_36 
REMARK   14  A    between atoms: C_36  and  O_38 
REMARK   15  A    between atoms: C_39  and  C_40 
REMARK   16  A    between atoms: C_40  and  C_41 
REMARK   17  A    between atoms: C_41  and  C_42 
REMARK   18  A    between atoms: C_42  and  O_44 
REMARK   19  A    between atoms: C_45  and  C_46 
REMARK   20  A    between atoms: C_46  and  C_47 
REMARK   21  A    between atoms: C_47  and  O_49 
REMARK   22  A    between atoms: C_50  and  C_51 
REMARK   23  A    between atoms: C_51  and  C_52 
REMARK   24  A    between atoms: C_52  and  O_54 
REMARK   25  A    between atoms: C_55  and  C_56 
REMARK   26  A    between atoms: C_56  and  C_57 
REMARK   27  A    between atoms: C_57  and  C_58 
REMARK   28  A    between atoms: C_58  and  O_60 
ROOT
ATOM      1  O   UNK d   0       1.350  12.510  22.855  0.00  0.00    -0.650 OA
ATOM      2  C   UNK d   0       2.130  13.169  22.132  0.00  0.00     0.139 C 
ENDROOT
BRANCH   2   3
ATOM      3  O   UNK d   0       2.528  14.420  22.536  0.00  0.00    -0.776 OA
ATOM      4  H   UNK d   0       2.362  14.744  23.491  0.00  0.00     0.167 HD
ENDBRANCH   2   3
BRANCH   2   5
ATOM      5  C   UNK d   0       2.618  12.599  20.844  0.00  0.00     0.115 C 
BRANCH   5   6
ATOM      6  C   UNK d   0       4.099  12.829  20.705  0.00  0.00     0.052 C 
BRANCH   6   7
ATOM      7  C   UNK d   0       4.903  11.564  20.886  0.00  0.00    -0.020 A 
ATOM      8  C   UNK d   0       6.170  11.379  20.618  0.00  0.00    -0.011 A 
ATOM      9  C   UNK d   0       6.498  10.002  20.947  0.00  0.00     0.067 A 
ATOM     10  C   UNK d   0       7.650   9.200  20.915  0.00  0.00     0.062 C 
ATOM     11  N   UNK d   0       5.369   9.420  21.403  0.00  0.00    -0.248 NA
ATOM     12  C   UNK d   0       7.837   7.961  21.538  0.00  0.00     0.041 A 
ATOM     13  N   UNK d   0       7.027   6.891  21.644  0.00  0.00    -0.355 N 
ATOM     14  C   UNK d   0       9.029   7.729  22.247  0.00  0.00    -0.022 A 
ATOM     15  C   UNK d   0       7.671   5.989  22.407  0.00  0.00     0.042 A 
ATOM     16  H   UNK d   0       6.027   6.767  21.171  0.00  0.00     0.166 HD
ATOM     17  C   UNK d   0       7.280   4.702  22.828  0.00  0.00     0.062 C 
ATOM     18  C   UNK d   0       8.930   6.479  22.805  0.00  0.00    -0.013 A 
ATOM     19  C   UNK d   0       6.072   4.288  23.328  0.00  0.00     0.067 A 
ATOM     20  N   UNK d   0       5.053   5.146  23.234  0.00  0.00    -0.248 NA
ATOM     21  C   UNK d   0       5.568   3.096  23.989  0.00  0.00    -0.011 A 
ATOM     22  C   UNK d   0       3.919   4.602  23.787  0.00  0.00     0.066 A 
ATOM     23  C   UNK d   0       2.770   5.376  23.722  0.00  0.00     0.062 C 
ATOM     24  C   UNK d   0       4.309   3.288  24.259  0.00  0.00    -0.020 A 
ATOM     25  C   UNK d   0       2.600   6.612  23.080  0.00  0.00     0.041 A 
ATOM     26  N   UNK d   0       3.399   7.682  22.988  0.00  0.00    -0.355 N 
ATOM     27  C   UNK d   0       1.404   6.843  22.366  0.00  0.00    -0.022 A 
ATOM     28  C   UNK d   0       2.754   8.587  22.235  0.00  0.00     0.042 A 
ATOM     29  H   UNK d   0       4.398   7.809  23.473  0.00  0.00     0.166 HD
ATOM     30  C   UNK d   0       3.127   9.874  21.816  0.00  0.00     0.062 C 
ATOM     31  C   UNK d   0       1.494   8.089  21.827  0.00  0.00    -0.013 A 
ATOM     32  C   UNK d   0       4.374  10.307  21.392  0.00  0.00     0.066 A 
BRANCH   8  33
ATOM     33  C   UNK d   0       7.114  12.373  20.074  0.00  0.00     0.151 C 
BRANCH  33  34
ATOM     34  C   UNK d   0       7.798  13.147  21.127  0.00  0.00     0.143 C 
ATOM     35  O   UNK d   0       7.386  14.267  21.462  0.00  0.00    -0.650 OA
BRANCH  34  36
ATOM     36  O   UNK d   0       8.907  12.616  21.742  0.00  0.00    -0.776 OA
ATOM     37  H   UNK d   0       9.792  12.488  21.232  0.00  0.00     0.167 HD
ENDBRANCH  34  36
ENDBRANCH  33  34
ENDBRANCH   8  33
BRANCH  31  38
ATOM     38  C   UNK d   0       0.453   8.765  20.965  0.00  0.00     0.151 C 
BRANCH  38  39
ATOM     39  C   UNK d   0      -0.528   9.496  21.738  0.00  0.00     0.143 C 
ATOM     40  O   UNK d   0      -1.683   9.701  21.325  0.00  0.00    -0.650 OA
BRANCH  39  41
ATOM     41  O   UNK d   0      -0.180   9.994  22.994  0.00  0.00    -0.776 OA
ATOM     42  H   UNK d   0      -0.820  10.675  23.414  0.00  0.00     0.167 HD
ENDBRANCH  39  41
ENDBRANCH  38  39
ENDBRANCH  31  38
BRANCH  27  43
ATOM     43  C   UNK d   0       0.208   5.943  22.183  0.00  0.00     0.052 C 
BRANCH  43  44
ATOM     44  C   UNK d   0      -0.854   6.155  23.213  0.00  0.00     0.115 C 
BRANCH  44  45
ATOM     45  C   UNK d   0      -2.127   6.358  22.473  0.00  0.00     0.139 C 
ATOM     46  O   UNK d   0      -3.196   6.390  23.132  0.00  0.00    -0.650 OA
BRANCH  45  47
ATOM     47  O   UNK d   0      -2.180   6.517  21.105  0.00  0.00    -0.776 OA
ATOM     48  H   UNK d   0      -2.158   5.721  20.448  0.00  0.00     0.167 HD
ENDBRANCH  45  47
ENDBRANCH  44  45
ENDBRANCH  43  44
ENDBRANCH  27  43
BRANCH  24  49
ATOM     49  C   UNK d   0       3.399   2.319  24.893  0.00  0.00     0.052 C 
BRANCH  49  50
ATOM     50  C   UNK d   0       2.399   1.804  23.890  0.00  0.00     0.115 C 
BRANCH  50  51
ATOM     51  C   UNK d   0       2.280   0.359  23.750  0.00  0.00     0.139 C 
ATOM     52  O   UNK d   0       1.651  -0.351  24.570  0.00  0.00    -0.650 OA
BRANCH  51  53
ATOM     53  O   UNK d   0       2.883  -0.279  22.677  0.00  0.00    -0.776 OA
ATOM     54  H   UNK d   0       2.428  -1.086  22.287  0.00  0.00     0.167 HD
ENDBRANCH  51  53
ENDBRANCH  50  51
ENDBRANCH  49  50
ENDBRANCH  24  49
BRANCH  21  55
ATOM     55  C   UNK d   0       6.396   1.888  24.278  0.00  0.00     0.151 C 
BRANCH  55  56
ATOM     56  C   UNK d   0       5.946   0.715  23.513  0.00  0.00     0.143 C 
ATOM     57  O   UNK d   0       5.886   0.704  22.268  0.00  0.00    -0.650 OA
BRANCH  56  58
ATOM     58  O   UNK d   0       5.576  -0.423  24.228  0.00  0.00    -0.776 OA
ATOM     59  H   UNK d   0       4.560  -0.512  24.411  0.00  0.00     0.167 HD
ENDBRANCH  56  58
ENDBRANCH  55  56
ENDBRANCH  21  55
BRANCH  18  60
ATOM     60  C   UNK d   0       9.989   5.827  23.660  0.00  0.00     0.151 C 
BRANCH  60  61
ATOM     61  C   UNK d   0       9.746   6.299  25.032  0.00  0.00     0.143 C 
ATOM     62  O   UNK d   0       8.841   5.947  25.789  0.00  0.00    -0.650 OA
BRANCH  61  63
ATOM     63  O   UNK d   0      10.668   7.261  25.510  0.00  0.00    -0.776 OA
ATOM     64  H   UNK d   0      11.606   7.303  25.153  0.00  0.00     0.167 HD
ENDBRANCH  61  63
ENDBRANCH  60  61
ENDBRANCH  18  60
BRANCH  14  65
ATOM     65  C   UNK d   0      10.283   8.551  22.354  0.00  0.00     0.052 C 
BRANCH  65  66
ATOM     66  C   UNK d   0      11.188   8.386  21.185  0.00  0.00     0.115 C 
BRANCH  66  67
ATOM     67  C   UNK d   0      11.001   9.205  20.020  0.00  0.00     0.139 C 
ATOM     68  O   UNK d   0      10.546  10.397  20.174  0.00  0.00    -0.650 OA
BRANCH  67  69
ATOM     69  O   UNK d   0      11.256   8.868  18.691  0.00  0.00    -0.776 OA
ATOM     70  H   UNK d   0      11.457   7.874  18.511  0.00  0.00     0.167 HD
ENDBRANCH  67  69
ENDBRANCH  66  67
ENDBRANCH  65  66
ENDBRANCH  14  65
ENDBRANCH   6   7
ENDBRANCH   5   6
ENDBRANCH   2   5
TORSDOF 28
ENDMDL
MODEL 18
REMARK VINA RESULT:      -9.2      2.950      8.749
REMARK  28 active torsions:
REMARK  status: ('A' for Active; 'I' for Inactive)
REMARK    1  A    between atoms: C_2  and  O_3 
REMARK    2  A    between atoms: C_2  and  C_4 
REMARK    3  A    between atoms: C_4  and  C_5 
REMARK    4  A    between atoms: C_5  and  C_6 
REMARK    5  A    between atoms: C_7  and  C_8 
REMARK    6  A    between atoms: C_8  and  C_9 
REMARK    7  A    between atoms: C_9  and  O_11 
REMARK    8  A    between atoms: C_28  and  C_29 
REMARK    9  A    between atoms: C_29  and  C_30 
REMARK   10  A    between atoms: C_30  and  O_32 
REMARK   11  A    between atoms: C_33  and  C_34 
REMARK   12  A    between atoms: C_34  and  C_35 
REMARK   13  A    between atoms: C_35  and  C_36 
REMARK   14  A    between atoms: C_36  and  O_38 
REMARK   15  A    between atoms: C_39  and  C_40 
REMARK   16  A    between atoms: C_40  and  C_41 
REMARK   17  A    between atoms: C_41  and  C_42 
REMARK   18  A    between atoms: C_42  and  O_44 
REMARK   19  A    between atoms: C_45  and  C_46 
REMARK   20  A    between atoms: C_46  and  C_47 
REMARK   21  A    between atoms: C_47  and  O_49 
REMARK   22  A    between atoms: C_50  and  C_51 
REMARK   23  A    between atoms: C_51  and  C_52 
REMARK   24  A    between atoms: C_52  and  O_54 
REMARK   25  A    between atoms: C_55  and  C_56 
REMARK   26  A    between atoms: C_56  and  C_57 
REMARK   27  A    between atoms: C_57  and  C_58 
REMARK   28  A    between atoms: C_58  and  O_60 
ROOT
ATOM      1  O   UNK d   0      -4.892   2.740  21.040  0.00  0.00    -0.650 OA
ATOM      2  C   UNK d   0      -4.798   3.983  20.929  0.00  0.00     0.139 C 
ENDROOT
BRANCH   2   3
ATOM      3  O   UNK d   0      -5.942   4.738  20.823  0.00  0.00    -0.776 OA
ATOM      4  H   UNK d   0      -6.099   5.348  20.018  0.00  0.00     0.167 HD
ENDBRANCH   2   3
BRANCH   2   5
ATOM      5  C   UNK d   0      -3.458   4.634  20.910  0.00  0.00     0.115 C 
BRANCH   5   6
ATOM      6  C   UNK d   0      -3.076   5.073  22.298  0.00  0.00     0.052 C 
BRANCH   6   7
ATOM      7  C   UNK d   0      -1.681   4.640  22.681  0.00  0.00    -0.020 A 
ATOM      8  C   UNK d   0      -1.301   3.468  23.121  0.00  0.00    -0.011 A 
ATOM      9  C   UNK d   0       0.130   3.526  23.364  0.00  0.00     0.067 A 
ATOM     10  C   UNK d   0       1.120   2.633  23.806  0.00  0.00     0.062 C 
ATOM     11  N   UNK d   0       0.540   4.773  23.050  0.00  0.00    -0.248 NA
ATOM     12  C   UNK d   0       2.507   2.792  23.711  0.00  0.00     0.041 A 
ATOM     13  N   UNK d   0       3.294   3.861  23.934  0.00  0.00    -0.355 N 
ATOM     14  C   UNK d   0       3.286   1.710  23.261  0.00  0.00    -0.022 A 
ATOM     15  C   UNK d   0       4.551   3.488  23.630  0.00  0.00     0.042 A 
ATOM     16  H   UNK d   0       2.970   4.853  24.318  0.00  0.00     0.166 HD
ATOM     17  C   UNK d   0       5.758   4.215  23.684  0.00  0.00     0.062 C 
ATOM     18  C   UNK d   0       4.586   2.147  23.203  0.00  0.00    -0.013 A 
ATOM     19  C   UNK d   0       6.014   5.494  23.258  0.00  0.00     0.067 A 
ATOM     20  N   UNK d   0       4.960   6.243  22.925  0.00  0.00    -0.248 NA
ATOM     21  C   UNK d   0       7.200   6.305  23.044  0.00  0.00    -0.011 A 
ATOM     22  C   UNK d   0       5.371   7.485  22.507  0.00  0.00     0.066 A 
ATOM     23  C   UNK d   0       4.370   8.382  22.165  0.00  0.00     0.062 C 
ATOM     24  C   UNK d   0       6.818   7.468  22.600  0.00  0.00    -0.020 A 
ATOM     25  C   UNK d   0       2.982   8.208  22.279  0.00  0.00     0.041 A 
ATOM     26  N   UNK d   0       2.198   7.150  22.043  0.00  0.00    -0.355 N 
ATOM     27  C   UNK d   0       2.202   9.293  22.735  0.00  0.00    -0.022 A 
ATOM     28  C   UNK d   0       0.942   7.522  22.337  0.00  0.00     0.042 A 
ATOM     29  H   UNK d   0       2.524   6.157  21.647  0.00  0.00     0.166 HD
ATOM     30  C   UNK d   0      -0.268   6.812  22.280  0.00  0.00     0.062 C 
ATOM     31  C   UNK d   0       0.910   8.867  22.776  0.00  0.00    -0.013 A 
ATOM     32  C   UNK d   0      -0.503   5.492  22.632  0.00  0.00     0.066 A 
BRANCH   8  33
ATOM     33  C   UNK d   0      -2.156   2.287  23.345  0.00  0.00     0.151 C 
BRANCH  33  34
ATOM     34  C   UNK d   0      -2.644   2.190  24.733  0.00  0.00     0.143 C 
ATOM     35  O   UNK d   0      -1.925   2.526  25.685  0.00  0.00    -0.650 OA
BRANCH  34  36
ATOM     36  O   UNK d   0      -3.914   1.718  24.971  0.00  0.00    -0.776 OA
ATOM     37  H   UNK d   0      -4.178   1.335  25.889  0.00  0.00     0.167 HD
ENDBRANCH  34  36
ENDBRANCH  33  34
ENDBRANCH   8  33
BRANCH  31  38
ATOM     38  C   UNK d   0      -0.284   9.681  23.217  0.00  0.00     0.151 C 
BRANCH  38  39
ATOM     39  C   UNK d   0      -1.064  10.182  22.105  0.00  0.00     0.143 C 
ATOM     40  O   UNK d   0      -2.191   9.736  21.828  0.00  0.00    -0.650 OA
BRANCH  39  41
ATOM     41  O   UNK d   0      -0.545  11.201  21.307  0.00  0.00    -0.776 OA
ATOM     42  H   UNK d   0      -0.575  11.054  20.293  0.00  0.00     0.167 HD
ENDBRANCH  39  41
ENDBRANCH  38  39
ENDBRANCH  31  38
BRANCH  27  43
ATOM     43  C   UNK d   0       2.630  10.686  23.122  0.00  0.00     0.052 C 
BRANCH  43  44
ATOM     44  C   UNK d   0       2.833  11.589  21.949  0.00  0.00     0.115 C 
BRANCH  44  45
ATOM     45  C   UNK d   0       2.166  12.875  22.282  0.00  0.00     0.139 C 
ATOM     46  O   UNK d   0       2.448  13.421  23.377  0.00  0.00    -0.650 OA
BRANCH  45  47
ATOM     47  O   UNK d   0       1.263  13.488  21.441  0.00  0.00    -0.776 OA
ATOM     48  H   UNK d   0       0.596  14.207  21.765  0.00  0.00     0.167 HD
ENDBRANCH  45  47
ENDBRANCH  44  45
ENDBRANCH  43  44
ENDBRANCH  27  43
BRANCH  24  49
ATOM     49  C   UNK d   0       7.694   8.609  22.287  0.00  0.00     0.052 C 
BRANCH  49  50
ATOM     50  C   UNK d   0       8.102   8.576  20.837  0.00  0.00     0.115 C 
BRANCH  50  51
ATOM     51  C   UNK d   0       7.210   9.218  19.880  0.00  0.00     0.139 C 
ATOM     52  O   UNK d   0       6.412   8.572  19.161  0.00  0.00    -0.650 OA
BRANCH  51  53
ATOM     53  O   UNK d   0       7.230  10.597  19.742  0.00  0.00    -0.776 OA
ATOM     54  H   UNK d   0       7.437  10.981  18.837  0.00  0.00     0.167 HD
ENDBRANCH  51  53
ENDBRANCH  50  51
ENDBRANCH  49  50
ENDBRANCH  24  49
BRANCH  21  55
ATOM     55  C   UNK d   0       8.592   5.835  23.309  0.00  0.00     0.151 C 
BRANCH  55  56
ATOM     56  C   UNK d   0       9.181   6.491  24.487  0.00  0.00     0.143 C 
ATOM     57  O   UNK d   0      10.021   7.407  24.401  0.00  0.00    -0.650 OA
BRANCH  56  58
ATOM     58  O   UNK d   0       8.768   6.055  25.745  0.00  0.00    -0.776 OA
ATOM     59  H   UNK d   0       8.757   6.787  26.479  0.00  0.00     0.167 HD
ENDBRANCH  56  58
ENDBRANCH  55  56
ENDBRANCH  21  55
BRANCH  18  60
ATOM     60  C   UNK d   0       5.760   1.309  22.761  0.00  0.00     0.151 C 
BRANCH  60  61
ATOM     61  C   UNK d   0       6.210   0.581  23.958  0.00  0.00     0.143 C 
ATOM     62  O   UNK d   0       6.459   1.056  25.066  0.00  0.00    -0.650 OA
BRANCH  61  63
ATOM     63  O   UNK d   0       6.364  -0.817  23.790  0.00  0.00    -0.776 OA
ATOM     64  H   UNK d   0       7.121  -1.193  23.247  0.00  0.00     0.167 HD
ENDBRANCH  61  63
ENDBRANCH  60  61
ENDBRANCH  18  60
BRANCH  14  65
ATOM     65  C   UNK d   0       2.913   0.283  22.979  0.00  0.00     0.052 C 
BRANCH  65  66
ATOM     66  C   UNK d   0       2.539  -0.474  24.204  0.00  0.00     0.115 C 
BRANCH  66  67
ATOM     67  C   UNK d   0       2.308  -1.889  24.124  0.00  0.00     0.139 C 
ATOM     68  O   UNK d   0       3.258  -2.686  24.464  0.00  0.00    -0.650 OA
BRANCH  67  69
ATOM     69  O   UNK d   0       1.148  -2.542  23.710  0.00  0.00    -0.776 OA
ATOM     70  H   UNK d   0       0.545  -2.906  24.462  0.00  0.00     0.167 HD
ENDBRANCH  67  69
ENDBRANCH  66  67
ENDBRANCH  65  66
ENDBRANCH  14  65
ENDBRANCH   6   7
ENDBRANCH   5   6
ENDBRANCH   2   5
TORSDOF 28
ENDMDL
MODEL 19
REMARK VINA RESULT:      -9.1      1.761      7.869
REMARK  28 active torsions:
REMARK  status: ('A' for Active; 'I' for Inactive)
REMARK    1  A    between atoms: C_2  and  O_3 
REMARK    2  A    between atoms: C_2  and  C_4 
REMARK    3  A    between atoms: C_4  and  C_5 
REMARK    4  A    between atoms: C_5  and  C_6 
REMARK    5  A    between atoms: C_7  and  C_8 
REMARK    6  A    between atoms: C_8  and  C_9 
REMARK    7  A    between atoms: C_9  and  O_11 
REMARK    8  A    between atoms: C_28  and  C_29 
REMARK    9  A    between atoms: C_29  and  C_30 
REMARK   10  A    between atoms: C_30  and  O_32 
REMARK   11  A    between atoms: C_33  and  C_34 
REMARK   12  A    between atoms: C_34  and  C_35 
REMARK   13  A    between atoms: C_35  and  C_36 
REMARK   14  A    between atoms: C_36  and  O_38 
REMARK   15  A    between atoms: C_39  and  C_40 
REMARK   16  A    between atoms: C_40  and  C_41 
REMARK   17  A    between atoms: C_41  and  C_42 
REMARK   18  A    between atoms: C_42  and  O_44 
REMARK   19  A    between atoms: C_45  and  C_46 
REMARK   20  A    between atoms: C_46  and  C_47 
REMARK   21  A    between atoms: C_47  and  O_49 
REMARK   22  A    between atoms: C_50  and  C_51 
REMARK   23  A    between atoms: C_51  and  C_52 
REMARK   24  A    between atoms: C_52  and  O_54 
REMARK   25  A    between atoms: C_55  and  C_56 
REMARK   26  A    between atoms: C_56  and  C_57 
REMARK   27  A    between atoms: C_57  and  C_58 
REMARK   28  A    between atoms: C_58  and  O_60 
ROOT
ATOM      1  O   UNK d   0      -1.928  10.119  21.754  0.00  0.00    -0.650 OA
ATOM      2  C   UNK d   0      -2.030   9.114  21.016  0.00  0.00     0.139 C 
ENDROOT
BRANCH   2   3
ATOM      3  O   UNK d   0      -2.163   9.285  19.659  0.00  0.00    -0.776 OA
ATOM      4  H   UNK d   0      -3.003   8.973  19.168  0.00  0.00     0.167 HD
ENDBRANCH   2   3
BRANCH   2   5
ATOM      5  C   UNK d   0      -2.007   7.746  21.608  0.00  0.00     0.115 C 
BRANCH   5   6
ATOM      6  C   UNK d   0      -1.553   7.810  23.041  0.00  0.00     0.052 C 
BRANCH   6   7
ATOM      7  C   UNK d   0      -0.200   7.173  23.251  0.00  0.00    -0.020 A 
ATOM      8  C   UNK d   0       0.075   6.088  23.929  0.00  0.00    -0.011 A 
ATOM      9  C   UNK d   0       1.511   5.871  23.858  0.00  0.00     0.067 A 
ATOM     10  C   UNK d   0       2.414   4.908  24.335  0.00  0.00     0.062 C 
ATOM     11  N   UNK d   0       2.032   6.874  23.121  0.00  0.00    -0.248 NA
ATOM     12  C   UNK d   0       3.738   4.713  23.928  0.00  0.00     0.041 A 
ATOM     13  N   UNK d   0       4.725   5.593  23.672  0.00  0.00    -0.355 N 
ATOM     14  C   UNK d   0       4.184   3.405  23.667  0.00  0.00    -0.022 A 
ATOM     15  C   UNK d   0       5.783   4.877  23.247  0.00  0.00     0.042 A 
ATOM     16  H   UNK d   0       4.681   6.696  23.807  0.00  0.00     0.166 HD
ATOM     17  C   UNK d   0       7.069   5.296  22.849  0.00  0.00     0.062 C 
ATOM     18  C   UNK d   0       5.482   3.501  23.230  0.00  0.00    -0.013 A 
ATOM     19  C   UNK d   0       7.421   6.337  22.029  0.00  0.00     0.067 A 
ATOM     20  N   UNK d   0       6.459   7.206  21.707  0.00  0.00    -0.248 NA
ATOM     21  C   UNK d   0       8.635   6.775  21.359  0.00  0.00    -0.011 A 
ATOM     22  C   UNK d   0       6.955   8.179  20.874  0.00  0.00     0.066 A 
ATOM     23  C   UNK d   0       6.067   9.172  20.490  0.00  0.00     0.062 C 
ATOM     24  C   UNK d   0       8.354   7.850  20.682  0.00  0.00    -0.020 A 
ATOM     25  C   UNK d   0       4.744   9.357  20.921  0.00  0.00     0.041 A 
ATOM     26  N   UNK d   0       3.758   8.484  21.161  0.00  0.00    -0.355 N 
ATOM     27  C   UNK d   0       4.298  10.670  21.187  0.00  0.00    -0.022 A 
ATOM     28  C   UNK d   0       2.699   9.197  21.577  0.00  0.00     0.042 A 
ATOM     29  H   UNK d   0       3.801   7.377  21.015  0.00  0.00     0.166 HD
ATOM     30  C   UNK d   0       1.412   8.794  21.967  0.00  0.00     0.062 C 
ATOM     31  C   UNK d   0       3.006  10.578  21.603  0.00  0.00    -0.013 A 
ATOM     32  C   UNK d   0       1.055   7.691  22.726  0.00  0.00     0.066 A 
BRANCH   8  33
ATOM     33  C   UNK d   0      -0.882   5.228  24.649  0.00  0.00     0.151 C 
BRANCH  33  34
ATOM     34  C   UNK d   0      -0.558   5.087  26.080  0.00  0.00     0.143 C 
ATOM     35  O   UNK d   0      -0.503   3.970  26.613  0.00  0.00    -0.650 OA
BRANCH  34  36
ATOM     36  O   UNK d   0      -0.316   6.214  26.832  0.00  0.00    -0.776 OA
ATOM     37  H   UNK d   0       0.547   6.761  26.711  0.00  0.00     0.167 HD
ENDBRANCH  34  36
ENDBRANCH  33  34
ENDBRANCH   8  33
BRANCH  31  38
ATOM     38  C   UNK d   0       2.117  11.728  22.015  0.00  0.00     0.151 C 
BRANCH  38  39
ATOM     39  C   UNK d   0       2.511  12.319  23.276  0.00  0.00     0.143 C 
ATOM     40  O   UNK d   0       2.485  13.547  23.473  0.00  0.00    -0.650 OA
BRANCH  39  41
ATOM     41  O   UNK d   0       2.937  11.494  24.317  0.00  0.00    -0.776 OA
ATOM     42  H   UNK d   0       3.439  10.641  24.053  0.00  0.00     0.167 HD
ENDBRANCH  39  41
ENDBRANCH  38  39
ENDBRANCH  31  38
BRANCH  27  43
ATOM     43  C   UNK d   0       5.039  11.978  21.061  0.00  0.00     0.052 C 
BRANCH  43  44
ATOM     44  C   UNK d   0       4.704  12.729  19.813  0.00  0.00     0.115 C 
BRANCH  44  45
ATOM     45  C   UNK d   0       5.477  13.997  19.861  0.00  0.00     0.139 C 
ATOM     46  O   UNK d   0       6.157  14.238  20.889  0.00  0.00    -0.650 OA
BRANCH  45  47
ATOM     47  O   UNK d   0       5.480  14.910  18.828  0.00  0.00    -0.776 OA
ATOM     48  H   UNK d   0       5.793  15.887  18.945  0.00  0.00     0.167 HD
ENDBRANCH  45  47
ENDBRANCH  44  45
ENDBRANCH  43  44
ENDBRANCH  27  43
BRANCH  24  49
ATOM     49  C   UNK d   0       9.303   8.647  19.885  0.00  0.00     0.052 C 
BRANCH  49  50
ATOM     50  C   UNK d   0       9.543   9.984  20.538  0.00  0.00     0.115 C 
BRANCH  50  51
ATOM     51  C   UNK d   0       9.163  11.171  19.784  0.00  0.00     0.139 C 
ATOM     52  O   UNK d   0       8.809  12.239  20.337  0.00  0.00    -0.650 OA
BRANCH  51  53
ATOM     53  O   UNK d   0       9.184  11.139  18.398  0.00  0.00    -0.776 OA
ATOM     54  H   UNK d   0       8.347  10.861  17.916  0.00  0.00     0.167 HD
ENDBRANCH  51  53
ENDBRANCH  50  51
ENDBRANCH  49  50
ENDBRANCH  24  49
BRANCH  21  55
ATOM     55  C   UNK d   0       9.949   6.075  21.470  0.00  0.00     0.151 C 
BRANCH  55  56
ATOM     56  C   UNK d   0      10.800   6.662  22.516  0.00  0.00     0.143 C 
ATOM     57  O   UNK d   0      10.656   6.405  23.727  0.00  0.00    -0.650 OA
BRANCH  56  58
ATOM     58  O   UNK d   0      11.806   7.541  22.117  0.00  0.00    -0.776 OA
ATOM     59  H   UNK d   0      11.776   8.472  22.569  0.00  0.00     0.167 HD
ENDBRANCH  56  58
ENDBRANCH  55  56
ENDBRANCH  21  55
BRANCH  18  60
ATOM     60  C   UNK d   0       6.348   2.333  22.828  0.00  0.00     0.151 C 
BRANCH  60  61
ATOM     61  C   UNK d   0       6.650   1.608  24.072  0.00  0.00     0.143 C 
ATOM     62  O   UNK d   0       6.569   0.394  24.261  0.00  0.00    -0.650 OA
BRANCH  61  63
ATOM     63  O   UNK d   0       7.078   2.416  25.152  0.00  0.00    -0.776 OA
ATOM     64  H   UNK d   0       6.701   3.336  25.293  0.00  0.00     0.167 HD
ENDBRANCH  61  63
ENDBRANCH  60  61
ENDBRANCH  18  60
BRANCH  14  65
ATOM     65  C   UNK d   0       3.517   2.078  23.890  0.00  0.00     0.052 C 
BRANCH  65  66
ATOM     66  C   UNK d   0       3.117   1.859  25.306  0.00  0.00     0.115 C 
BRANCH  66  67
ATOM     67  C   UNK d   0       1.863   1.225  25.602  0.00  0.00     0.139 C 
ATOM     68  O   UNK d   0       0.850   1.493  24.857  0.00  0.00    -0.650 OA
BRANCH  67  69
ATOM     69  O   UNK d   0       1.583   0.324  26.628  0.00  0.00    -0.776 OA
ATOM     70  H   UNK d   0       1.041  -0.509  26.358  0.00  0.00     0.167 HD
ENDBRANCH  67  69
ENDBRANCH  66  67
ENDBRANCH  65  66
ENDBRANCH  14  65
ENDBRANCH   6   7
ENDBRANCH   5   6
ENDBRANCH   2   5
TORSDOF 28
ENDMDL
MODEL 20
REMARK VINA RESULT:      -9.1      2.256      5.892
REMARK  28 active torsions:
REMARK  status: ('A' for Active; 'I' for Inactive)
REMARK    1  A    between atoms: C_2  and  O_3 
REMARK    2  A    between atoms: C_2  and  C_4 
REMARK    3  A    between atoms: C_4  and  C_5 
REMARK    4  A    between atoms: C_5  and  C_6 
REMARK    5  A    between atoms: C_7  and  C_8 
REMARK    6  A    between atoms: C_8  and  C_9 
REMARK    7  A    between atoms: C_9  and  O_11 
REMARK    8  A    between atoms: C_28  and  C_29 
REMARK    9  A    between atoms: C_29  and  C_30 
REMARK   10  A    between atoms: C_30  and  O_32 
REMARK   11  A    between atoms: C_33  and  C_34 
REMARK   12  A    between atoms: C_34  and  C_35 
REMARK   13  A    between atoms: C_35  and  C_36 
REMARK   14  A    between atoms: C_36  and  O_38 
REMARK   15  A    between atoms: C_39  and  C_40 
REMARK   16  A    between atoms: C_40  and  C_41 
REMARK   17  A    between atoms: C_41  and  C_42 
REMARK   18  A    between atoms: C_42  and  O_44 
REMARK   19  A    between atoms: C_45  and  C_46 
REMARK   20  A    between atoms: C_46  and  C_47 
REMARK   21  A    between atoms: C_47  and  O_49 
REMARK   22  A    between atoms: C_50  and  C_51 
REMARK   23  A    between atoms: C_51  and  C_52 
REMARK   24  A    between atoms: C_52  and  O_54 
REMARK   25  A    between atoms: C_55  and  C_56 
REMARK   26  A    between atoms: C_56  and  C_57 
REMARK   27  A    between atoms: C_57  and  C_58 
REMARK   28  A    between atoms: C_58  and  O_60 
ROOT
ATOM      1  O   UNK d   0       1.751   3.359  28.585  0.00  0.00    -0.650 OA
ATOM      2  C   UNK d   0       0.992   2.466  28.148  0.00  0.00     0.139 C 
ENDROOT
BRANCH   2   3
ATOM      3  O   UNK d   0       1.158   1.171  28.578  0.00  0.00    -0.776 OA
ATOM      4  H   UNK d   0       1.807   0.538  28.106  0.00  0.00     0.167 HD
ENDBRANCH   2   3
BRANCH   2   5
ATOM      5  C   UNK d   0      -0.079   2.807  27.169  0.00  0.00     0.115 C 
BRANCH   5   6
ATOM      6  C   UNK d   0       0.315   2.349  25.791  0.00  0.00     0.052 C 
BRANCH   6   7
ATOM      7  C   UNK d   0       0.352   3.480  24.791  0.00  0.00    -0.020 A 
ATOM      8  C   UNK d   0      -0.660   4.027  24.167  0.00  0.00    -0.011 A 
ATOM      9  C   UNK d   0      -0.137   5.069  23.300  0.00  0.00     0.067 A 
ATOM     10  C   UNK d   0      -0.676   6.012  22.410  0.00  0.00     0.062 C 
ATOM     11  N   UNK d   0       1.204   5.084  23.455  0.00  0.00    -0.248 NA
ATOM     12  C   UNK d   0      -0.033   7.130  21.868  0.00  0.00     0.041 A 
ATOM     13  N   UNK d   0       1.207   7.282  21.364  0.00  0.00    -0.355 N 
ATOM     14  C   UNK d   0      -0.707   8.364  21.857  0.00  0.00    -0.022 A 
ATOM     15  C   UNK d   0       1.339   8.582  21.041  0.00  0.00     0.042 A 
ATOM     16  H   UNK d   0       1.967   6.482  21.222  0.00  0.00     0.166 HD
ATOM     17  C   UNK d   0       2.428   9.278  20.479  0.00  0.00     0.062 C 
ATOM     18  C   UNK d   0       0.159   9.293  21.336  0.00  0.00    -0.013 A 
ATOM     19  C   UNK d   0       3.758   9.205  20.805  0.00  0.00     0.067 A 
ATOM     20  N   UNK d   0       4.128   8.214  21.620  0.00  0.00    -0.248 NA
ATOM     21  C   UNK d   0       4.953   9.972  20.494  0.00  0.00    -0.011 A 
ATOM     22  C   UNK d   0       5.478   8.278  21.867  0.00  0.00     0.066 A 
ATOM     23  C   UNK d   0       6.005   7.281  22.674  0.00  0.00     0.062 C 
ATOM     24  C   UNK d   0       5.955   9.427  21.122  0.00  0.00    -0.020 A 
ATOM     25  C   UNK d   0       5.344   6.159  23.198  0.00  0.00     0.041 A 
ATOM     26  N   UNK d   0       4.118   6.011  23.712  0.00  0.00    -0.355 N 
ATOM     27  C   UNK d   0       6.021   4.920  23.205  0.00  0.00    -0.022 A 
ATOM     28  C   UNK d   0       3.987   4.717  24.043  0.00  0.00     0.042 A 
ATOM     29  H   UNK d   0       3.359   6.818  23.864  0.00  0.00     0.166 HD
ATOM     30  C   UNK d   0       2.913   4.014  24.611  0.00  0.00     0.062 C 
ATOM     31  C   UNK d   0       5.169   4.001  23.737  0.00  0.00    -0.013 A 
ATOM     32  C   UNK d   0       1.561   4.152  24.339  0.00  0.00     0.066 A 
BRANCH   8  33
ATOM     33  C   UNK d   0      -2.083   3.663  24.299  0.00  0.00     0.151 C 
BRANCH  33  34
ATOM     34  C   UNK d   0      -2.588   2.905  23.140  0.00  0.00     0.143 C 
ATOM     35  O   UNK d   0      -3.387   3.419  22.343  0.00  0.00    -0.650 OA
BRANCH  34  36
ATOM     36  O   UNK d   0      -2.167   1.611  22.943  0.00  0.00    -0.776 OA
ATOM     37  H   UNK d   0      -2.792   0.813  23.121  0.00  0.00     0.167 HD
ENDBRANCH  34  36
ENDBRANCH  33  34
ENDBRANCH   8  33
BRANCH  31  38
ATOM     38  C   UNK d   0       5.452   2.530  23.933  0.00  0.00     0.151 C 
BRANCH  38  39
ATOM     39  C   UNK d   0       5.003   1.719  22.821  0.00  0.00     0.143 C 
ATOM     40  O   UNK d   0       3.814   1.382  22.681  0.00  0.00    -0.650 OA
BRANCH  39  41
ATOM     41  O   UNK d   0       5.924   1.294  21.865  0.00  0.00    -0.776 OA
ATOM     42  H   UNK d   0       6.866   1.696  21.920  0.00  0.00     0.167 HD
ENDBRANCH  39  41
ENDBRANCH  38  39
ENDBRANCH  31  38
BRANCH  27  43
ATOM     43  C   UNK d   0       7.415   4.586  22.736  0.00  0.00     0.052 C 
BRANCH  43  44
ATOM     44  C   UNK d   0       8.474   4.957  23.723  0.00  0.00     0.115 C 
BRANCH  44  45
ATOM     45  C   UNK d   0       9.425   5.849  23.009  0.00  0.00     0.139 C 
ATOM     46  O   UNK d   0       9.216   6.086  21.794  0.00  0.00    -0.650 OA
BRANCH  45  47
ATOM     47  O   UNK d   0      10.514   6.427  23.626  0.00  0.00    -0.776 OA
ATOM     48  H   UNK d   0      10.482   7.366  24.053  0.00  0.00     0.167 HD
ENDBRANCH  45  47
ENDBRANCH  44  45
ENDBRANCH  43  44
ENDBRANCH  27  43
BRANCH  24  49
ATOM     49  C   UNK d   0       7.361   9.862  21.057  0.00  0.00     0.052 C 
BRANCH  49  50
ATOM     50  C   UNK d   0       7.989   9.811  22.426  0.00  0.00     0.115 C 
BRANCH  50  51
ATOM     51  C   UNK d   0       9.433   9.627  22.489  0.00  0.00     0.139 C 
ATOM     52  O   UNK d   0      10.175   9.757  21.487  0.00  0.00    -0.650 OA
BRANCH  51  53
ATOM     53  O   UNK d   0      10.031   9.293  23.694  0.00  0.00    -0.776 OA
ATOM     54  H   UNK d   0      10.468  10.025  24.227  0.00  0.00     0.167 HD
ENDBRANCH  51  53
ENDBRANCH  50  51
ENDBRANCH  49  50
ENDBRANCH  24  49
BRANCH  21  55
ATOM     55  C   UNK d   0       4.970  11.166  19.599  0.00  0.00     0.151 C 
BRANCH  55  56
ATOM     56  C   UNK d   0       4.369  12.345  20.241  0.00  0.00     0.143 C 
ATOM     57  O   UNK d   0       4.181  12.421  21.471  0.00  0.00    -0.650 OA
BRANCH  56  58
ATOM     58  O   UNK d   0       4.001  13.413  19.424  0.00  0.00    -0.776 OA
ATOM     59  H   UNK d   0       4.541  13.495  18.544  0.00  0.00     0.167 HD
ENDBRANCH  56  58
ENDBRANCH  55  56
ENDBRANCH  21  55
BRANCH  18  60
ATOM     60  C   UNK d   0      -0.153  10.757  21.149  0.00  0.00     0.151 C 
BRANCH  60  61
ATOM     61  C   UNK d   0       0.607  11.467  22.189  0.00  0.00     0.143 C 
ATOM     62  O   UNK d   0       1.006  12.632  22.152  0.00  0.00    -0.650 OA
BRANCH  61  63
ATOM     63  O   UNK d   0       0.898  10.708  23.348  0.00  0.00    -0.776 OA
ATOM     64  H   UNK d   0       1.820  10.342  23.510  0.00  0.00     0.167 HD
ENDBRANCH  61  63
ENDBRANCH  60  61
ENDBRANCH  18  60
BRANCH  14  65
ATOM     65  C   UNK d   0      -2.127   8.709  22.206  0.00  0.00     0.052 C 
BRANCH  65  66
ATOM     66  C   UNK d   0      -2.454   8.453  23.634  0.00  0.00     0.115 C 
BRANCH  66  67
ATOM     67  C   UNK d   0      -1.548   8.887  24.660  0.00  0.00     0.139 C 
ATOM     68  O   UNK d   0      -1.555  10.127  25.001  0.00  0.00    -0.650 OA
BRANCH  67  69
ATOM     69  O   UNK d   0      -0.625   8.116  25.365  0.00  0.00    -0.776 OA
ATOM     70  H   UNK d   0       0.333   8.107  24.986  0.00  0.00     0.167 HD
ENDBRANCH  67  69
ENDBRANCH  66  67
ENDBRANCH  65  66
ENDBRANCH  14  65
ENDBRANCH   6   7
ENDBRANCH   5   6
ENDBRANCH   2   5
TORSDOF 28
ENDMDL
