MODEL 1
REMARK VINA RESULT:      -6.9      0.000      0.000
REMARK  28 active torsions:
REMARK  status: ('A' for Active; 'I' for Inactive)
REMARK    1  A    between atoms: C_2  and  O_3 
REMARK    2  A    between atoms: C_2  and  C_4 
REMARK    3  A    between atoms: C_4  and  C_5 
REMARK    4  A    between atoms: C_5  and  C_6 
REMARK    5  A    between atoms: C_7  and  C_8 
REMARK    6  A    between atoms: C_8  and  C_9 
REMARK    7  A    between atoms: C_9  and  O_11 
REMARK    8  A    between atoms: C_28  and  C_29 
REMARK    9  A    between atoms: C_29  and  C_30 
REMARK   10  A    between atoms: C_30  and  O_32 
REMARK   11  A    between atoms: C_33  and  C_34 
REMARK   12  A    between atoms: C_34  and  C_35 
REMARK   13  A    between atoms: C_35  and  C_36 
REMARK   14  A    between atoms: C_36  and  O_38 
REMARK   15  A    between atoms: C_39  and  C_40 
REMARK   16  A    between atoms: C_40  and  C_41 
REMARK   17  A    between atoms: C_41  and  C_42 
REMARK   18  A    between atoms: C_42  and  O_44 
REMARK   19  A    between atoms: C_45  and  C_46 
REMARK   20  A    between atoms: C_46  and  C_47 
REMARK   21  A    between atoms: C_47  and  O_49 
REMARK   22  A    between atoms: C_50  and  C_51 
REMARK   23  A    between atoms: C_51  and  C_52 
REMARK   24  A    between atoms: C_52  and  O_54 
REMARK   25  A    between atoms: C_55  and  C_56 
REMARK   26  A    between atoms: C_56  and  C_57 
REMARK   27  A    between atoms: C_57  and  C_58 
REMARK   28  A    between atoms: C_58  and  O_60 
ROOT
ATOM      1  O   UNK d   0      -0.519 -13.772   9.974  0.00  0.00    -0.650 OA
ATOM      2  C   UNK d   0       0.334 -12.860   9.891  0.00  0.00     0.139 C 
ENDROOT
BRANCH   2   3
ATOM      3  O   UNK d   0      -0.079 -11.571   9.655  0.00  0.00    -0.776 OA
ATOM      4  H   UNK d   0      -0.995 -11.244   9.971  0.00  0.00     0.167 HD
ENDBRANCH   2   3
BRANCH   2   5
ATOM      5  C   UNK d   0       1.782 -13.174  10.046  0.00  0.00     0.115 C 
BRANCH   5   6
ATOM      6  C   UNK d   0       2.566 -12.576   8.909  0.00  0.00     0.052 C 
BRANCH   6   7
ATOM      7  C   UNK d   0       3.730 -13.441   8.488  0.00  0.00    -0.020 A 
ATOM      8  C   UNK d   0       3.705 -14.483   7.696  0.00  0.00    -0.011 A 
ATOM      9  C   UNK d   0       5.062 -14.995   7.592  0.00  0.00     0.067 A 
ATOM     10  C   UNK d   0       5.699 -16.041   6.907  0.00  0.00     0.062 C 
ATOM     11  N   UNK d   0       5.847 -14.208   8.357  0.00  0.00    -0.248 NA
ATOM     12  C   UNK d   0       7.073 -16.212   6.710  0.00  0.00     0.041 A 
ATOM     13  N   UNK d   0       8.116 -16.051   7.547  0.00  0.00    -0.355 N 
ATOM     14  C   UNK d   0       7.539 -16.559   5.429  0.00  0.00    -0.022 A 
ATOM     15  C   UNK d   0       9.231 -16.279   6.828  0.00  0.00     0.042 A 
ATOM     16  H   UNK d   0       8.063 -15.800   8.629  0.00  0.00     0.166 HD
ATOM     17  C   UNK d   0      10.587 -16.247   7.211  0.00  0.00     0.062 C 
ATOM     18  C   UNK d   0       8.910 -16.600   5.495  0.00  0.00    -0.013 A 
ATOM     19  C   UNK d   0      11.246 -15.315   7.971  0.00  0.00     0.067 A 
ATOM     20  N   UNK d   0      10.495 -14.415   8.611  0.00  0.00    -0.248 NA
ATOM     21  C   UNK d   0      12.634 -15.012   8.281  0.00  0.00    -0.011 A 
ATOM     22  C   UNK d   0      11.291 -13.544   9.315  0.00  0.00     0.066 A 
ATOM     23  C   UNK d   0      10.635 -12.575  10.059  0.00  0.00     0.062 C 
ATOM     24  C   UNK d   0      12.653 -13.972   9.064  0.00  0.00    -0.020 A 
ATOM     25  C   UNK d   0       9.253 -12.429  10.255  0.00  0.00     0.041 A 
ATOM     26  N   UNK d   0       8.218 -12.574   9.419  0.00  0.00    -0.355 N 
ATOM     27  C   UNK d   0       8.786 -12.085  11.542  0.00  0.00    -0.022 A 
ATOM     28  C   UNK d   0       7.105 -12.338  10.131  0.00  0.00     0.042 A 
ATOM     29  H   UNK d   0       8.272 -12.816   8.329  0.00  0.00     0.166 HD
ATOM     30  C   UNK d   0       5.751 -12.358   9.761  0.00  0.00     0.062 C 
ATOM     31  C   UNK d   0       7.428 -12.026  11.473  0.00  0.00    -0.013 A 
ATOM     32  C   UNK d   0       5.106 -13.254   8.923  0.00  0.00     0.066 A 
BRANCH   8  33
ATOM     33  C   UNK d   0       2.524 -15.056   7.024  0.00  0.00     0.151 C 
BRANCH  33  34
ATOM     34  C   UNK d   0       1.955 -16.204   7.753  0.00  0.00     0.143 C 
ATOM     35  O   UNK d   0       2.499 -17.316   7.713  0.00  0.00    -0.650 OA
BRANCH  34  36
ATOM     36  O   UNK d   0       0.801 -16.035   8.483  0.00  0.00    -0.776 OA
ATOM     37  H   UNK d   0       0.201 -15.210   8.351  0.00  0.00     0.167 HD
ENDBRANCH  34  36
ENDBRANCH  33  34
ENDBRANCH   8  33
BRANCH  31  38
ATOM     38  C   UNK d   0       6.490 -11.706  12.614  0.00  0.00     0.151 C 
BRANCH  38  39
ATOM     39  C   UNK d   0       6.518 -12.705  13.661  0.00  0.00     0.143 C 
ATOM     40  O   UNK d   0       6.790 -12.424  14.841  0.00  0.00    -0.650 OA
BRANCH  39  41
ATOM     41  O   UNK d   0       6.231 -14.033  13.349  0.00  0.00    -0.776 OA
ATOM     42  H   UNK d   0       5.292 -14.230  12.987  0.00  0.00     0.167 HD
ENDBRANCH  39  41
ENDBRANCH  38  39
ENDBRANCH  31  38
BRANCH  27  43
ATOM     43  C   UNK d   0       9.566 -11.814  12.804  0.00  0.00     0.052 C 
BRANCH  43  44
ATOM     44  C   UNK d   0      10.162 -13.045  13.406  0.00  0.00     0.115 C 
BRANCH  44  45
ATOM     45  C   UNK d   0      11.577 -12.722  13.722  0.00  0.00     0.139 C 
ATOM     46  O   UNK d   0      11.823 -12.138  14.806  0.00  0.00    -0.650 OA
BRANCH  45  47
ATOM     47  O   UNK d   0      12.622 -13.039  12.881  0.00  0.00    -0.776 OA
ATOM     48  H   UNK d   0      12.633 -13.892  12.298  0.00  0.00     0.167 HD
ENDBRANCH  45  47
ENDBRANCH  44  45
ENDBRANCH  43  44
ENDBRANCH  27  43
BRANCH  24  49
ATOM     49  C   UNK d   0      13.851 -13.349   9.651  0.00  0.00     0.052 C 
BRANCH  49  50
ATOM     50  C   UNK d   0      13.964 -11.912   9.212  0.00  0.00     0.115 C 
BRANCH  50  51
ATOM     51  C   UNK d   0      14.645 -11.654   7.950  0.00  0.00     0.139 C 
ATOM     52  O   UNK d   0      14.639 -12.471   6.999  0.00  0.00    -0.650 OA
BRANCH  51  53
ATOM     53  O   UNK d   0      15.336 -10.465   7.774  0.00  0.00    -0.776 OA
ATOM     54  H   UNK d   0      15.681  -9.990   8.589  0.00  0.00     0.167 HD
ENDBRANCH  51  53
ENDBRANCH  50  51
ENDBRANCH  49  50
ENDBRANCH  24  49
BRANCH  21  55
ATOM     55  C   UNK d   0      13.795 -15.796   7.766  0.00  0.00     0.151 C 
BRANCH  55  56
ATOM     56  C   UNK d   0      13.765 -15.929   6.301  0.00  0.00     0.143 C 
ATOM     57  O   UNK d   0      13.769 -17.033   5.723  0.00  0.00    -0.650 OA
BRANCH  56  58
ATOM     58  O   UNK d   0      13.729 -14.759   5.545  0.00  0.00    -0.776 OA
ATOM     59  H   UNK d   0      14.602 -14.547   5.028  0.00  0.00     0.167 HD
ENDBRANCH  56  58
ENDBRANCH  55  56
ENDBRANCH  21  55
BRANCH  18  60
ATOM     60  C   UNK d   0       9.822 -16.927   4.339  0.00  0.00     0.151 C 
BRANCH  60  61
ATOM     61  C   UNK d   0      10.320 -18.288   4.589  0.00  0.00     0.143 C 
ATOM     62  O   UNK d   0       9.661 -19.265   4.947  0.00  0.00    -0.650 OA
BRANCH  61  63
ATOM     63  O   UNK d   0      11.710 -18.467   4.388  0.00  0.00    -0.776 OA
ATOM     64  H   UNK d   0      12.083 -19.359   4.115  0.00  0.00     0.167 HD
ENDBRANCH  61  63
ENDBRANCH  60  61
ENDBRANCH  18  60
BRANCH  14  65
ATOM     65  C   UNK d   0       6.791 -16.947   4.185  0.00  0.00     0.052 C 
BRANCH  65  66
ATOM     66  C   UNK d   0       6.500 -18.404   4.112  0.00  0.00     0.115 C 
BRANCH  66  67
ATOM     67  C   UNK d   0       6.475 -19.062   2.836  0.00  0.00     0.139 C 
ATOM     68  O   UNK d   0       7.591 -19.275   2.234  0.00  0.00    -0.650 OA
BRANCH  67  69
ATOM     69  O   UNK d   0       5.361 -19.518   2.132  0.00  0.00    -0.776 OA
ATOM     70  H   UNK d   0       5.005 -20.444   2.409  0.00  0.00     0.167 HD
ENDBRANCH  67  69
ENDBRANCH  66  67
ENDBRANCH  65  66
ENDBRANCH  14  65
ENDBRANCH   6   7
ENDBRANCH   5   6
ENDBRANCH   2   5
TORSDOF 28
ENDMDL
MODEL 2
REMARK VINA RESULT:      -6.6      4.441      9.548
REMARK  28 active torsions:
REMARK  status: ('A' for Active; 'I' for Inactive)
REMARK    1  A    between atoms: C_2  and  O_3 
REMARK    2  A    between atoms: C_2  and  C_4 
REMARK    3  A    between atoms: C_4  and  C_5 
REMARK    4  A    between atoms: C_5  and  C_6 
REMARK    5  A    between atoms: C_7  and  C_8 
REMARK    6  A    between atoms: C_8  and  C_9 
REMARK    7  A    between atoms: C_9  and  O_11 
REMARK    8  A    between atoms: C_28  and  C_29 
REMARK    9  A    between atoms: C_29  and  C_30 
REMARK   10  A    between atoms: C_30  and  O_32 
REMARK   11  A    between atoms: C_33  and  C_34 
REMARK   12  A    between atoms: C_34  and  C_35 
REMARK   13  A    between atoms: C_35  and  C_36 
REMARK   14  A    between atoms: C_36  and  O_38 
REMARK   15  A    between atoms: C_39  and  C_40 
REMARK   16  A    between atoms: C_40  and  C_41 
REMARK   17  A    between atoms: C_41  and  C_42 
REMARK   18  A    between atoms: C_42  and  O_44 
REMARK   19  A    between atoms: C_45  and  C_46 
REMARK   20  A    between atoms: C_46  and  C_47 
REMARK   21  A    between atoms: C_47  and  O_49 
REMARK   22  A    between atoms: C_50  and  C_51 
REMARK   23  A    between atoms: C_51  and  C_52 
REMARK   24  A    between atoms: C_52  and  O_54 
REMARK   25  A    between atoms: C_55  and  C_56 
REMARK   26  A    between atoms: C_56  and  C_57 
REMARK   27  A    between atoms: C_57  and  C_58 
REMARK   28  A    between atoms: C_58  and  O_60 
ROOT
ATOM      1  O   UNK d   0      15.827 -13.727  -3.092  0.00  0.00    -0.650 OA
ATOM      2  C   UNK d   0      15.226 -13.834  -2.000  0.00  0.00     0.139 C 
ENDROOT
BRANCH   2   3
ATOM      3  O   UNK d   0      15.574 -13.011  -0.956  0.00  0.00    -0.776 OA
ATOM      4  H   UNK d   0      15.392 -12.006  -0.993  0.00  0.00     0.167 HD
ENDBRANCH   2   3
BRANCH   2   5
ATOM      5  C   UNK d   0      14.145 -14.847  -1.837  0.00  0.00     0.115 C 
BRANCH   5   6
ATOM      6  C   UNK d   0      14.627 -15.984  -0.978  0.00  0.00     0.052 C 
BRANCH   6   7
ATOM      7  C   UNK d   0      13.708 -16.262   0.188  0.00  0.00    -0.020 A 
ATOM      8  C   UNK d   0      12.858 -17.248   0.318  0.00  0.00    -0.011 A 
ATOM      9  C   UNK d   0      12.193 -17.096   1.601  0.00  0.00     0.067 A 
ATOM     10  C   UNK d   0      11.224 -17.804   2.329  0.00  0.00     0.062 C 
ATOM     11  N   UNK d   0      12.694 -15.987   2.184  0.00  0.00    -0.248 NA
ATOM     12  C   UNK d   0      10.905 -17.654   3.683  0.00  0.00     0.041 A 
ATOM     13  N   UNK d   0      10.749 -16.552   4.441  0.00  0.00    -0.355 N 
ATOM     14  C   UNK d   0      10.757 -18.805   4.479  0.00  0.00    -0.022 A 
ATOM     15  C   UNK d   0      10.514 -16.974   5.698  0.00  0.00     0.042 A 
ATOM     16  H   UNK d   0      10.785 -15.497   4.091  0.00  0.00     0.166 HD
ATOM     17  C   UNK d   0      10.279 -16.241   6.878  0.00  0.00     0.062 C 
ATOM     18  C   UNK d   0      10.511 -18.381   5.761  0.00  0.00    -0.013 A 
ATOM     19  C   UNK d   0      10.939 -15.137   7.353  0.00  0.00     0.067 A 
ATOM     20  N   UNK d   0      11.791 -14.536   6.519  0.00  0.00    -0.248 NA
ATOM     21  C   UNK d   0      10.977 -14.401   8.606  0.00  0.00    -0.011 A 
ATOM     22  C   UNK d   0      12.385 -13.462   7.135  0.00  0.00     0.066 A 
ATOM     23  C   UNK d   0      13.269 -12.721   6.366  0.00  0.00     0.062 C 
ATOM     24  C   UNK d   0      11.828 -13.425   8.473  0.00  0.00    -0.020 A 
ATOM     25  C   UNK d   0      13.566 -12.879   5.003  0.00  0.00     0.041 A 
ATOM     26  N   UNK d   0      13.735 -13.975   4.253  0.00  0.00    -0.355 N 
ATOM     27  C   UNK d   0      13.710 -11.724   4.205  0.00  0.00    -0.022 A 
ATOM     28  C   UNK d   0      13.979 -13.557   3.001  0.00  0.00     0.042 A 
ATOM     29  H   UNK d   0      13.709 -15.034   4.609  0.00  0.00     0.166 HD
ATOM     30  C   UNK d   0      14.223 -14.274   1.819  0.00  0.00     0.062 C 
ATOM     31  C   UNK d   0      13.971 -12.143   2.936  0.00  0.00    -0.013 A 
ATOM     32  C   UNK d   0      13.611 -15.439   1.385  0.00  0.00     0.066 A 
BRANCH   8  33
ATOM     33  C   UNK d   0      12.602 -18.328  -0.652  0.00  0.00     0.151 C 
BRANCH  33  34
ATOM     34  C   UNK d   0      11.507 -18.009  -1.585  0.00  0.00     0.143 C 
ATOM     35  O   UNK d   0      11.745 -17.595  -2.729  0.00  0.00    -0.650 OA
BRANCH  34  36
ATOM     36  O   UNK d   0      10.203 -18.171  -1.178  0.00  0.00    -0.776 OA
ATOM     37  H   UNK d   0       9.440 -17.617  -1.592  0.00  0.00     0.167 HD
ENDBRANCH  34  36
ENDBRANCH  33  34
ENDBRANCH   8  33
BRANCH  31  38
ATOM     38  C   UNK d   0      14.186 -11.257   1.731  0.00  0.00     0.151 C 
BRANCH  38  39
ATOM     39  C   UNK d   0      13.009 -11.149   0.896  0.00  0.00     0.143 C 
ATOM     40  O   UNK d   0      12.925 -11.708  -0.211  0.00  0.00    -0.650 OA
BRANCH  39  41
ATOM     41  O   UNK d   0      11.922 -10.395   1.337  0.00  0.00    -0.776 OA
ATOM     42  H   UNK d   0      12.125  -9.452   1.683  0.00  0.00     0.167 HD
ENDBRANCH  39  41
ENDBRANCH  38  39
ENDBRANCH  31  38
BRANCH  27  43
ATOM     43  C   UNK d   0      13.612 -10.270   4.596  0.00  0.00     0.052 C 
BRANCH  43  44
ATOM     44  C   UNK d   0      12.211  -9.822   4.859  0.00  0.00     0.115 C 
BRANCH  44  45
ATOM     45  C   UNK d   0      12.241  -9.068   6.139  0.00  0.00     0.139 C 
ATOM     46  O   UNK d   0      11.521  -8.043   6.239  0.00  0.00    -0.650 OA
BRANCH  45  47
ATOM     47  O   UNK d   0      13.015  -9.449   7.214  0.00  0.00    -0.776 OA
ATOM     48  H   UNK d   0      13.508 -10.356   7.256  0.00  0.00     0.167 HD
ENDBRANCH  45  47
ENDBRANCH  44  45
ENDBRANCH  43  44
ENDBRANCH  27  43
BRANCH  24  49
ATOM     49  C   UNK d   0      12.148 -12.407   9.489  0.00  0.00     0.052 C 
BRANCH  49  50
ATOM     50  C   UNK d   0      13.362 -12.820  10.281  0.00  0.00     0.115 C 
BRANCH  50  51
ATOM     51  C   UNK d   0      14.541 -11.971  10.182  0.00  0.00     0.139 C 
ATOM     52  O   UNK d   0      15.429 -11.940  11.066  0.00  0.00    -0.650 OA
BRANCH  51  53
ATOM     53  O   UNK d   0      14.707 -11.153   9.075  0.00  0.00    -0.776 OA
ATOM     54  H   UNK d   0      14.322 -11.457   8.197  0.00  0.00     0.167 HD
ENDBRANCH  51  53
ENDBRANCH  50  51
ENDBRANCH  49  50
ENDBRANCH  24  49
BRANCH  21  55
ATOM     55  C   UNK d   0      10.156 -14.748   9.804  0.00  0.00     0.151 C 
BRANCH  55  56
ATOM     56  C   UNK d   0       8.956 -13.905   9.912  0.00  0.00     0.143 C 
ATOM     57  O   UNK d   0       8.316 -13.510   8.918  0.00  0.00    -0.650 OA
BRANCH  56  58
ATOM     58  O   UNK d   0       8.530 -13.543  11.189  0.00  0.00    -0.776 OA
ATOM     59  H   UNK d   0       8.031 -14.287  11.710  0.00  0.00     0.167 HD
ENDBRANCH  56  58
ENDBRANCH  55  56
ENDBRANCH  21  55
BRANCH  18  60
ATOM     60  C   UNK d   0      10.296 -19.289   6.946  0.00  0.00     0.151 C 
BRANCH  60  61
ATOM     61  C   UNK d   0       8.985 -19.921   6.738  0.00  0.00     0.143 C 
ATOM     62  O   UNK d   0       7.887 -19.364   6.720  0.00  0.00    -0.650 OA
BRANCH  61  63
ATOM     63  O   UNK d   0       9.016 -21.322   6.537  0.00  0.00    -0.776 OA
ATOM     64  H   UNK d   0       9.416 -21.718   5.705  0.00  0.00     0.167 HD
ENDBRANCH  61  63
ENDBRANCH  60  61
ENDBRANCH  18  60
BRANCH  14  65
ATOM     65  C   UNK d   0      10.732 -20.260   4.104  0.00  0.00     0.052 C 
BRANCH  65  66
ATOM     66  C   UNK d   0      12.051 -20.927   4.274  0.00  0.00     0.115 C 
BRANCH  66  67
ATOM     67  C   UNK d   0      12.115 -22.355   4.404  0.00  0.00     0.139 C 
ATOM     68  O   UNK d   0      11.525 -22.907   5.404  0.00  0.00    -0.650 OA
BRANCH  67  69
ATOM     69  O   UNK d   0      12.756 -23.261   3.560  0.00  0.00    -0.776 OA
ATOM     70  H   UNK d   0      12.247 -24.137   3.373  0.00  0.00     0.167 HD
ENDBRANCH  67  69
ENDBRANCH  66  67
ENDBRANCH  65  66
ENDBRANCH  14  65
ENDBRANCH   6   7
ENDBRANCH   5   6
ENDBRANCH   2   5
TORSDOF 28
ENDMDL
MODEL 3
REMARK VINA RESULT:      -6.3     14.765     19.150
REMARK  28 active torsions:
REMARK  status: ('A' for Active; 'I' for Inactive)
REMARK    1  A    between atoms: C_2  and  O_3 
REMARK    2  A    between atoms: C_2  and  C_4 
REMARK    3  A    between atoms: C_4  and  C_5 
REMARK    4  A    between atoms: C_5  and  C_6 
REMARK    5  A    between atoms: C_7  and  C_8 
REMARK    6  A    between atoms: C_8  and  C_9 
REMARK    7  A    between atoms: C_9  and  O_11 
REMARK    8  A    between atoms: C_28  and  C_29 
REMARK    9  A    between atoms: C_29  and  C_30 
REMARK   10  A    between atoms: C_30  and  O_32 
REMARK   11  A    between atoms: C_33  and  C_34 
REMARK   12  A    between atoms: C_34  and  C_35 
REMARK   13  A    between atoms: C_35  and  C_36 
REMARK   14  A    between atoms: C_36  and  O_38 
REMARK   15  A    between atoms: C_39  and  C_40 
REMARK   16  A    between atoms: C_40  and  C_41 
REMARK   17  A    between atoms: C_41  and  C_42 
REMARK   18  A    between atoms: C_42  and  O_44 
REMARK   19  A    between atoms: C_45  and  C_46 
REMARK   20  A    between atoms: C_46  and  C_47 
REMARK   21  A    between atoms: C_47  and  O_49 
REMARK   22  A    between atoms: C_50  and  C_51 
REMARK   23  A    between atoms: C_51  and  C_52 
REMARK   24  A    between atoms: C_52  and  O_54 
REMARK   25  A    between atoms: C_55  and  C_56 
REMARK   26  A    between atoms: C_56  and  C_57 
REMARK   27  A    between atoms: C_57  and  C_58 
REMARK   28  A    between atoms: C_58  and  O_60 
ROOT
ATOM      1  O   UNK d   0      14.476  -6.769   4.519  0.00  0.00    -0.650 OA
ATOM      2  C   UNK d   0      13.389  -7.024   3.955  0.00  0.00     0.139 C 
ENDROOT
BRANCH   2   3
ATOM      3  O   UNK d   0      12.284  -7.312   4.719  0.00  0.00    -0.776 OA
ATOM      4  H   UNK d   0      11.677  -8.102   4.493  0.00  0.00     0.167 HD
ENDBRANCH   2   3
BRANCH   2   5
ATOM      5  C   UNK d   0      13.298  -7.016   2.467  0.00  0.00     0.115 C 
BRANCH   5   6
ATOM      6  C   UNK d   0      14.444  -6.236   1.882  0.00  0.00     0.052 C 
BRANCH   6   7
ATOM      7  C   UNK d   0      14.022  -4.879   1.370  0.00  0.00    -0.020 A 
ATOM      8  C   UNK d   0      14.287  -3.710   1.894  0.00  0.00    -0.011 A 
ATOM      9  C   UNK d   0      13.666  -2.697   1.058  0.00  0.00     0.067 A 
ATOM     10  C   UNK d   0      13.590  -1.295   1.053  0.00  0.00     0.062 C 
ATOM     11  N   UNK d   0      13.039  -3.338   0.050  0.00  0.00    -0.248 NA
ATOM     12  C   UNK d   0      13.174  -0.473   0.000  0.00  0.00     0.041 A 
ATOM     13  N   UNK d   0      12.144  -0.586  -0.860  0.00  0.00    -0.355 N 
ATOM     14  C   UNK d   0      13.939   0.664  -0.318  0.00  0.00    -0.022 A 
ATOM     15  C   UNK d   0      12.241   0.445  -1.720  0.00  0.00     0.042 A 
ATOM     16  H   UNK d   0      11.354  -1.369  -0.846  0.00  0.00     0.166 HD
ATOM     17  C   UNK d   0      11.425   0.802  -2.812  0.00  0.00     0.062 C 
ATOM     18  C   UNK d   0      13.354   1.250  -1.413  0.00  0.00    -0.013 A 
ATOM     19  C   UNK d   0      10.905   0.004  -3.799  0.00  0.00     0.067 A 
ATOM     20  N   UNK d   0      11.004  -1.317  -3.622  0.00  0.00    -0.248 NA
ATOM     21  C   UNK d   0      10.245   0.217  -5.076  0.00  0.00    -0.011 A 
ATOM     22  C   UNK d   0      10.457  -1.982  -4.692  0.00  0.00     0.066 A 
ATOM     23  C   UNK d   0      10.459  -3.368  -4.622  0.00  0.00     0.062 C 
ATOM     24  C   UNK d   0       9.989  -0.949  -5.595  0.00  0.00    -0.020 A 
ATOM     25  C   UNK d   0      10.869  -4.174  -3.550  0.00  0.00     0.041 A 
ATOM     26  N   UNK d   0      11.901  -4.070  -2.705  0.00  0.00    -0.355 N 
ATOM     27  C   UNK d   0      10.098  -5.313  -3.228  0.00  0.00    -0.022 A 
ATOM     28  C   UNK d   0      11.813  -5.102  -1.850  0.00  0.00     0.042 A 
ATOM     29  H   UNK d   0      12.701  -3.289  -2.726  0.00  0.00     0.166 HD
ATOM     30  C   UNK d   0      12.622  -5.475  -0.766  0.00  0.00     0.062 C 
ATOM     31  C   UNK d   0      10.688  -5.905  -2.154  0.00  0.00    -0.013 A 
ATOM     32  C   UNK d   0      13.215  -4.654   0.180  0.00  0.00     0.066 A 
BRANCH   8  33
ATOM     33  C   UNK d   0      15.068  -3.445   3.117  0.00  0.00     0.151 C 
BRANCH  33  34
ATOM     34  C   UNK d   0      16.511  -3.305   2.852  0.00  0.00     0.143 C 
ATOM     35  O   UNK d   0      16.971  -2.260   2.369  0.00  0.00    -0.650 OA
BRANCH  34  36
ATOM     36  O   UNK d   0      17.356  -4.350   3.145  0.00  0.00    -0.776 OA
ATOM     37  H   UNK d   0      18.307  -4.184   3.504  0.00  0.00     0.167 HD
ENDBRANCH  34  36
ENDBRANCH  33  34
ENDBRANCH   8  33
BRANCH  31  38
ATOM     38  C   UNK d   0      10.207  -7.151  -1.447  0.00  0.00     0.151 C 
BRANCH  38  39
ATOM     39  C   UNK d   0      10.644  -8.369  -2.095  0.00  0.00     0.143 C 
ATOM     40  O   UNK d   0       9.853  -9.141  -2.665  0.00  0.00    -0.650 OA
BRANCH  39  41
ATOM     41  O   UNK d   0      11.999  -8.700  -2.090  0.00  0.00    -0.776 OA
ATOM     42  H   UNK d   0      12.271  -9.518  -1.535  0.00  0.00     0.167 HD
ENDBRANCH  39  41
ENDBRANCH  38  39
ENDBRANCH  31  38
BRANCH  27  43
ATOM     43  C   UNK d   0       8.853  -5.846  -3.891  0.00  0.00     0.052 C 
BRANCH  43  44
ATOM     44  C   UNK d   0       9.131  -6.602  -5.149  0.00  0.00     0.115 C 
BRANCH  44  45
ATOM     45  C   UNK d   0       8.236  -6.036  -6.192  0.00  0.00     0.139 C 
ATOM     46  O   UNK d   0       8.729  -5.233  -7.022  0.00  0.00    -0.650 OA
BRANCH  45  47
ATOM     47  O   UNK d   0       6.900  -6.359  -6.286  0.00  0.00    -0.776 OA
ATOM     48  H   UNK d   0       6.153  -5.646  -6.339  0.00  0.00     0.167 HD
ENDBRANCH  45  47
ENDBRANCH  44  45
ENDBRANCH  43  44
ENDBRANCH  27  43
BRANCH  24  49
ATOM     49  C   UNK d   0       9.292  -1.198  -6.869  0.00  0.00     0.052 C 
BRANCH  49  50
ATOM     50  C   UNK d   0      10.287  -1.350  -7.991  0.00  0.00     0.115 C 
BRANCH  50  51
ATOM     51  C   UNK d   0       9.874  -0.897  -9.312  0.00  0.00     0.139 C 
ATOM     52  O   UNK d   0       9.742  -1.677 -10.284  0.00  0.00    -0.650 OA
BRANCH  51  53
ATOM     53  O   UNK d   0       9.612   0.448  -9.526  0.00  0.00    -0.776 OA
ATOM     54  H   UNK d   0       8.718   0.704  -9.906  0.00  0.00     0.167 HD
ENDBRANCH  51  53
ENDBRANCH  50  51
ENDBRANCH  49  50
ENDBRANCH  24  49
BRANCH  21  55
ATOM     55  C   UNK d   0       9.934   1.563  -5.641  0.00  0.00     0.151 C 
BRANCH  55  56
ATOM     56  C   UNK d   0      11.090   2.148  -6.339  0.00  0.00     0.143 C 
ATOM     57  O   UNK d   0      11.315   1.955  -7.550  0.00  0.00    -0.650 OA
BRANCH  56  58
ATOM     58  O   UNK d   0      11.958   2.949  -5.598  0.00  0.00    -0.776 OA
ATOM     59  H   UNK d   0      12.505   3.630  -6.155  0.00  0.00     0.167 HD
ENDBRANCH  56  58
ENDBRANCH  55  56
ENDBRANCH  21  55
BRANCH  18  60
ATOM     60  C   UNK d   0      13.856   2.498  -2.097  0.00  0.00     0.151 C 
BRANCH  60  61
ATOM     61  C   UNK d   0      13.379   3.625  -1.280  0.00  0.00     0.143 C 
ATOM     62  O   UNK d   0      14.034   4.599  -0.906  0.00  0.00    -0.650 OA
BRANCH  61  63
ATOM     63  O   UNK d   0      12.018   3.559  -0.898  0.00  0.00    -0.776 OA
ATOM     64  H   UNK d   0      11.456   2.756  -1.118  0.00  0.00     0.167 HD
ENDBRANCH  61  63
ENDBRANCH  60  61
ENDBRANCH  18  60
BRANCH  14  65
ATOM     65  C   UNK d   0      15.111   1.287   0.386  0.00  0.00     0.052 C 
BRANCH  65  66
ATOM     66  C   UNK d   0      14.710   2.285   1.413  0.00  0.00     0.115 C 
BRANCH  66  67
ATOM     67  C   UNK d   0      13.514   2.076   2.180  0.00  0.00     0.139 C 
ATOM     68  O   UNK d   0      13.626   1.653   3.389  0.00  0.00    -0.650 OA
BRANCH  67  69
ATOM     69  O   UNK d   0      12.195   2.276   1.774  0.00  0.00    -0.776 OA
ATOM     70  H   UNK d   0      11.504   1.613   2.153  0.00  0.00     0.167 HD
ENDBRANCH  67  69
ENDBRANCH  66  67
ENDBRANCH  65  66
ENDBRANCH  14  65
ENDBRANCH   6   7
ENDBRANCH   5   6
ENDBRANCH   2   5
TORSDOF 28
ENDMDL
MODEL 4
REMARK VINA RESULT:      -6.3     23.723     28.050
REMARK  28 active torsions:
REMARK  status: ('A' for Active; 'I' for Inactive)
REMARK    1  A    between atoms: C_2  and  O_3 
REMARK    2  A    between atoms: C_2  and  C_4 
REMARK    3  A    between atoms: C_4  and  C_5 
REMARK    4  A    between atoms: C_5  and  C_6 
REMARK    5  A    between atoms: C_7  and  C_8 
REMARK    6  A    between atoms: C_8  and  C_9 
REMARK    7  A    between atoms: C_9  and  O_11 
REMARK    8  A    between atoms: C_28  and  C_29 
REMARK    9  A    between atoms: C_29  and  C_30 
REMARK   10  A    between atoms: C_30  and  O_32 
REMARK   11  A    between atoms: C_33  and  C_34 
REMARK   12  A    between atoms: C_34  and  C_35 
REMARK   13  A    between atoms: C_35  and  C_36 
REMARK   14  A    between atoms: C_36  and  O_38 
REMARK   15  A    between atoms: C_39  and  C_40 
REMARK   16  A    between atoms: C_40  and  C_41 
REMARK   17  A    between atoms: C_41  and  C_42 
REMARK   18  A    between atoms: C_42  and  O_44 
REMARK   19  A    between atoms: C_45  and  C_46 
REMARK   20  A    between atoms: C_46  and  C_47 
REMARK   21  A    between atoms: C_47  and  O_49 
REMARK   22  A    between atoms: C_50  and  C_51 
REMARK   23  A    between atoms: C_51  and  C_52 
REMARK   24  A    between atoms: C_52  and  O_54 
REMARK   25  A    between atoms: C_55  and  C_56 
REMARK   26  A    between atoms: C_56  and  C_57 
REMARK   27  A    between atoms: C_57  and  C_58 
REMARK   28  A    between atoms: C_58  and  O_60 
ROOT
ATOM      1  O   UNK d   0     -20.728  -0.250  -4.027  0.00  0.00    -0.650 OA
ATOM      2  C   UNK d   0     -19.899   0.271  -3.248  0.00  0.00     0.139 C 
ENDROOT
BRANCH   2   3
ATOM      3  O   UNK d   0     -19.288   1.449  -3.605  0.00  0.00    -0.776 OA
ATOM      4  H   UNK d   0     -19.009   2.133  -2.898  0.00  0.00     0.167 HD
ENDBRANCH   2   3
BRANCH   2   5
ATOM      5  C   UNK d   0     -19.579  -0.384  -1.948  0.00  0.00     0.115 C 
BRANCH   5   6
ATOM      6  C   UNK d   0     -18.145  -0.839  -1.936  0.00  0.00     0.052 C 
BRANCH   6   7
ATOM      7  C   UNK d   0     -17.979  -2.225  -1.360  0.00  0.00    -0.020 A 
ATOM      8  C   UNK d   0     -18.116  -3.369  -1.980  0.00  0.00    -0.011 A 
ATOM      9  C   UNK d   0     -17.869  -4.429  -1.017  0.00  0.00     0.067 A 
ATOM     10  C   UNK d   0     -17.836  -5.832  -1.042  0.00  0.00     0.062 C 
ATOM     11  N   UNK d   0     -17.595  -3.840   0.166  0.00  0.00    -0.248 NA
ATOM     12  C   UNK d   0     -17.302  -6.684  -0.069  0.00  0.00     0.041 A 
ATOM     13  N   UNK d   0     -17.380  -6.655   1.275  0.00  0.00    -0.355 N 
ATOM     14  C   UNK d   0     -16.483  -7.754  -0.477  0.00  0.00    -0.022 A 
ATOM     15  C   UNK d   0     -16.626  -7.673   1.731  0.00  0.00     0.042 A 
ATOM     16  H   UNK d   0     -17.972  -5.941   1.888  0.00  0.00     0.166 HD
ATOM     17  C   UNK d   0     -16.362  -8.095   3.049  0.00  0.00     0.062 C 
ATOM     18  C   UNK d   0     -16.047  -8.385   0.662  0.00  0.00    -0.013 A 
ATOM     19  C   UNK d   0     -16.040  -7.341   4.148  0.00  0.00     0.067 A 
ATOM     20  N   UNK d   0     -16.177  -6.017   4.034  0.00  0.00    -0.248 NA
ATOM     21  C   UNK d   0     -15.543  -7.606   5.488  0.00  0.00    -0.011 A 
ATOM     22  C   UNK d   0     -15.805  -5.397   5.202  0.00  0.00     0.066 A 
ATOM     23  C   UNK d   0     -15.935  -4.017   5.236  0.00  0.00     0.062 C 
ATOM     24  C   UNK d   0     -15.404  -6.464   6.098  0.00  0.00    -0.020 A 
ATOM     25  C   UNK d   0     -16.486  -3.180   4.253  0.00  0.00     0.041 A 
ATOM     26  N   UNK d   0     -16.396  -3.201   2.917  0.00  0.00    -0.355 N 
ATOM     27  C   UNK d   0     -17.311  -2.110   4.662  0.00  0.00    -0.022 A 
ATOM     28  C   UNK d   0     -17.140  -2.181   2.461  0.00  0.00     0.042 A 
ATOM     29  H   UNK d   0     -15.792  -3.913   2.303  0.00  0.00     0.166 HD
ATOM     30  C   UNK d   0     -17.404  -1.744   1.153  0.00  0.00     0.062 C 
ATOM     31  C   UNK d   0     -17.729  -1.473   3.535  0.00  0.00    -0.013 A 
ATOM     32  C   UNK d   0     -17.645  -2.514   0.027  0.00  0.00     0.066 A 
BRANCH   8  33
ATOM     33  C   UNK d   0     -18.463  -3.571  -3.399  0.00  0.00     0.151 C 
BRANCH  33  34
ATOM     34  C   UNK d   0     -17.300  -3.439  -4.295  0.00  0.00     0.143 C 
ATOM     35  O   UNK d   0     -17.215  -2.494  -5.092  0.00  0.00    -0.650 OA
BRANCH  34  36
ATOM     36  O   UNK d   0     -16.298  -4.380  -4.245  0.00  0.00    -0.776 OA
ATOM     37  H   UNK d   0     -16.337  -5.166  -3.582  0.00  0.00     0.167 HD
ENDBRANCH  34  36
ENDBRANCH  33  34
ENDBRANCH   8  33
BRANCH  31  38
ATOM     38  C   UNK d   0     -18.645  -0.272   3.477  0.00  0.00     0.151 C 
BRANCH  38  39
ATOM     39  C   UNK d   0     -17.951   0.975   3.721  0.00  0.00     0.143 C 
ATOM     40  O   UNK d   0     -18.505   1.951   4.255  0.00  0.00    -0.650 OA
BRANCH  39  41
ATOM     41  O   UNK d   0     -16.613   1.100   3.349  0.00  0.00    -0.776 OA
ATOM     42  H   UNK d   0     -15.916   1.008   4.095  0.00  0.00     0.167 HD
ENDBRANCH  39  41
ENDBRANCH  38  39
ENDBRANCH  31  38
BRANCH  27  43
ATOM     43  C   UNK d   0     -17.703  -1.681   6.054  0.00  0.00     0.052 C 
BRANCH  43  44
ATOM     44  C   UNK d   0     -16.555  -1.163   6.858  0.00  0.00     0.115 C 
BRANCH  44  45
ATOM     45  C   UNK d   0     -16.823   0.279   7.100  0.00  0.00     0.139 C 
ATOM     46  O   UNK d   0     -15.845   1.031   7.332  0.00  0.00    -0.650 OA
BRANCH  45  47
ATOM     47  O   UNK d   0     -18.091   0.818   7.074  0.00  0.00    -0.776 OA
ATOM     48  H   UNK d   0     -18.552   1.206   7.913  0.00  0.00     0.167 HD
ENDBRANCH  45  47
ENDBRANCH  44  45
ENDBRANCH  43  44
ENDBRANCH  27  43
BRANCH  24  49
ATOM     49  C   UNK d   0     -14.961  -6.271   7.490  0.00  0.00     0.052 C 
BRANCH  49  50
ATOM     50  C   UNK d   0     -16.024  -5.556   8.284  0.00  0.00     0.115 C 
BRANCH  50  51
ATOM     51  C   UNK d   0     -15.781  -5.378   9.709  0.00  0.00     0.139 C 
ATOM     52  O   UNK d   0     -14.697  -5.690  10.255  0.00  0.00    -0.650 OA
BRANCH  51  53
ATOM     53  O   UNK d   0     -16.777  -4.845  10.513  0.00  0.00    -0.776 OA
ATOM     54  H   UNK d   0     -17.717  -5.180  10.392  0.00  0.00     0.167 HD
ENDBRANCH  51  53
ENDBRANCH  50  51
ENDBRANCH  49  50
ENDBRANCH  24  49
BRANCH  21  55
ATOM     55  C   UNK d   0     -15.264  -8.972   6.020  0.00  0.00     0.151 C 
BRANCH  55  56
ATOM     56  C   UNK d   0     -14.063  -9.565   5.412  0.00  0.00     0.143 C 
ATOM     57  O   UNK d   0     -13.145  -8.879   4.923  0.00  0.00    -0.650 OA
BRANCH  56  58
ATOM     58  O   UNK d   0     -13.965 -10.956   5.393  0.00  0.00    -0.776 OA
ATOM     59  H   UNK d   0     -14.523 -11.443   6.117  0.00  0.00     0.167 HD
ENDBRANCH  56  58
ENDBRANCH  55  56
ENDBRANCH  21  55
BRANCH  18  60
ATOM     60  C   UNK d   0     -15.135  -9.586   0.689  0.00  0.00     0.151 C 
BRANCH  60  61
ATOM     61  C   UNK d   0     -13.765  -9.052   0.694  0.00  0.00     0.143 C 
ATOM     62  O   UNK d   0     -12.960  -9.063  -0.238  0.00  0.00    -0.650 OA
BRANCH  61  63
ATOM     63  O   UNK d   0     -13.350  -8.466   1.915  0.00  0.00    -0.776 OA
ATOM     64  H   UNK d   0     -12.999  -9.031   2.668  0.00  0.00     0.167 HD
ENDBRANCH  61  63
ENDBRANCH  60  61
ENDBRANCH  18  60
BRANCH  14  65
ATOM     65  C   UNK d   0     -16.166  -8.278  -1.848  0.00  0.00     0.052 C 
BRANCH  65  66
ATOM     66  C   UNK d   0     -15.466  -7.283  -2.704  0.00  0.00     0.115 C 
BRANCH  66  67
ATOM     67  C   UNK d   0     -14.388  -6.508  -2.158  0.00  0.00     0.139 C 
ATOM     68  O   UNK d   0     -14.630  -5.306  -1.771  0.00  0.00    -0.650 OA
BRANCH  67  69
ATOM     69  O   UNK d   0     -13.060  -6.897  -1.985  0.00  0.00    -0.776 OA
ATOM     70  H   UNK d   0     -12.362  -6.140  -2.025  0.00  0.00     0.167 HD
ENDBRANCH  67  69
ENDBRANCH  66  67
ENDBRANCH  65  66
ENDBRANCH  14  65
ENDBRANCH   6   7
ENDBRANCH   5   6
ENDBRANCH   2   5
TORSDOF 28
ENDMDL
MODEL 5
REMARK VINA RESULT:      -6.3     23.376     27.770
REMARK  28 active torsions:
REMARK  status: ('A' for Active; 'I' for Inactive)
REMARK    1  A    between atoms: C_2  and  O_3 
REMARK    2  A    between atoms: C_2  and  C_4 
REMARK    3  A    between atoms: C_4  and  C_5 
REMARK    4  A    between atoms: C_5  and  C_6 
REMARK    5  A    between atoms: C_7  and  C_8 
REMARK    6  A    between atoms: C_8  and  C_9 
REMARK    7  A    between atoms: C_9  and  O_11 
REMARK    8  A    between atoms: C_28  and  C_29 
REMARK    9  A    between atoms: C_29  and  C_30 
REMARK   10  A    between atoms: C_30  and  O_32 
REMARK   11  A    between atoms: C_33  and  C_34 
REMARK   12  A    between atoms: C_34  and  C_35 
REMARK   13  A    between atoms: C_35  and  C_36 
REMARK   14  A    between atoms: C_36  and  O_38 
REMARK   15  A    between atoms: C_39  and  C_40 
REMARK   16  A    between atoms: C_40  and  C_41 
REMARK   17  A    between atoms: C_41  and  C_42 
REMARK   18  A    between atoms: C_42  and  O_44 
REMARK   19  A    between atoms: C_45  and  C_46 
REMARK   20  A    between atoms: C_46  and  C_47 
REMARK   21  A    between atoms: C_47  and  O_49 
REMARK   22  A    between atoms: C_50  and  C_51 
REMARK   23  A    between atoms: C_51  and  C_52 
REMARK   24  A    between atoms: C_52  and  O_54 
REMARK   25  A    between atoms: C_55  and  C_56 
REMARK   26  A    between atoms: C_56  and  C_57 
REMARK   27  A    between atoms: C_57  and  C_58 
REMARK   28  A    between atoms: C_58  and  O_60 
ROOT
ATOM      1  O   UNK d   0     -18.285   0.887  -4.043  0.00  0.00    -0.650 OA
ATOM      2  C   UNK d   0     -17.265   0.967  -3.322  0.00  0.00     0.139 C 
ENDROOT
BRANCH   2   3
ATOM      3  O   UNK d   0     -16.083   1.399  -3.873  0.00  0.00    -0.776 OA
ATOM      4  H   UNK d   0     -16.068   2.146  -4.571  0.00  0.00     0.167 HD
ENDBRANCH   2   3
BRANCH   2   5
ATOM      5  C   UNK d   0     -17.337   0.595  -1.881  0.00  0.00     0.115 C 
BRANCH   5   6
ATOM      6  C   UNK d   0     -18.506  -0.322  -1.640  0.00  0.00     0.052 C 
BRANCH   6   7
ATOM      7  C   UNK d   0     -18.087  -1.759  -1.447  0.00  0.00    -0.020 A 
ATOM      8  C   UNK d   0     -18.184  -2.742  -2.306  0.00  0.00    -0.011 A 
ATOM      9  C   UNK d   0     -17.661  -3.940  -1.672  0.00  0.00     0.067 A 
ATOM     10  C   UNK d   0     -17.467  -5.280  -2.044  0.00  0.00     0.062 C 
ATOM     11  N   UNK d   0     -17.273  -3.598  -0.426  0.00  0.00    -0.248 NA
ATOM     12  C   UNK d   0     -16.686  -6.237  -1.387  0.00  0.00     0.041 A 
ATOM     13  N   UNK d   0     -16.550  -6.523  -0.078  0.00  0.00    -0.355 N 
ATOM     14  C   UNK d   0     -15.823  -7.049  -2.146  0.00  0.00    -0.022 A 
ATOM     15  C   UNK d   0     -15.617  -7.490   0.014  0.00  0.00     0.042 A 
ATOM     16  H   UNK d   0     -17.116  -6.065   0.762  0.00  0.00     0.166 HD
ATOM     17  C   UNK d   0     -15.097  -8.152   1.143  0.00  0.00     0.062 C 
ATOM     18  C   UNK d   0     -15.138  -7.845  -1.262  0.00  0.00    -0.013 A 
ATOM     19  C   UNK d   0     -14.694  -7.624   2.343  0.00  0.00     0.067 A 
ATOM     20  N   UNK d   0     -15.004  -6.346   2.576  0.00  0.00    -0.248 NA
ATOM     21  C   UNK d   0     -13.960  -8.104   3.502  0.00  0.00    -0.011 A 
ATOM     22  C   UNK d   0     -14.525  -5.956   3.803  0.00  0.00     0.066 A 
ATOM     23  C   UNK d   0     -14.810  -4.655   4.190  0.00  0.00     0.062 C 
ATOM     24  C   UNK d   0     -13.861  -7.122   4.351  0.00  0.00    -0.020 A 
ATOM     25  C   UNK d   0     -15.608  -3.713   3.521  0.00  0.00     0.041 A 
ATOM     26  N   UNK d   0     -15.732  -3.418   2.221  0.00  0.00    -0.355 N 
ATOM     27  C   UNK d   0     -16.477  -2.902   4.283  0.00  0.00    -0.022 A 
ATOM     28  C   UNK d   0     -16.655  -2.448   2.128  0.00  0.00     0.042 A 
ATOM     29  H   UNK d   0     -15.154  -3.872   1.379  0.00  0.00     0.166 HD
ATOM     30  C   UNK d   0     -17.175  -1.774   1.012  0.00  0.00     0.062 C 
ATOM     31  C   UNK d   0     -17.144  -2.099   3.409  0.00  0.00    -0.013 A 
ATOM     32  C   UNK d   0     -17.502  -2.299  -0.229  0.00  0.00     0.066 A 
BRANCH   8  33
ATOM     33  C   UNK d   0     -18.728  -2.669  -3.675  0.00  0.00     0.151 C 
BRANCH  33  34
ATOM     34  C   UNK d   0     -17.682  -2.743  -4.710  0.00  0.00     0.143 C 
ATOM     35  O   UNK d   0     -17.056  -3.794  -4.908  0.00  0.00    -0.650 OA
BRANCH  34  36
ATOM     36  O   UNK d   0     -17.396  -1.628  -5.463  0.00  0.00    -0.776 OA
ATOM     37  H   UNK d   0     -18.132  -1.136  -5.989  0.00  0.00     0.167 HD
ENDBRANCH  34  36
ENDBRANCH  33  34
ENDBRANCH   8  33
BRANCH  31  38
ATOM     38  C   UNK d   0     -18.192  -1.071   3.765  0.00  0.00     0.151 C 
BRANCH  38  39
ATOM     39  C   UNK d   0     -17.622   0.168   4.248  0.00  0.00     0.143 C 
ATOM     40  O   UNK d   0     -17.904   0.640   5.364  0.00  0.00    -0.650 OA
BRANCH  39  41
ATOM     41  O   UNK d   0     -16.722   0.868   3.445  0.00  0.00    -0.776 OA
ATOM     42  H   UNK d   0     -16.845   1.884   3.392  0.00  0.00     0.167 HD
ENDBRANCH  39  41
ENDBRANCH  38  39
ENDBRANCH  31  38
BRANCH  27  43
ATOM     43  C   UNK d   0     -16.689  -2.862   5.775  0.00  0.00     0.052 C 
BRANCH  43  44
ATOM     44  C   UNK d   0     -17.383  -4.075   6.306  0.00  0.00     0.115 C 
BRANCH  44  45
ATOM     45  C   UNK d   0     -17.646  -3.817   7.746  0.00  0.00     0.139 C 
ATOM     46  O   UNK d   0     -18.773  -3.369   8.071  0.00  0.00    -0.650 OA
BRANCH  45  47
ATOM     47  O   UNK d   0     -16.711  -4.055   8.730  0.00  0.00    -0.776 OA
ATOM     48  H   UNK d   0     -16.964  -4.383   9.676  0.00  0.00     0.167 HD
ENDBRANCH  45  47
ENDBRANCH  44  45
ENDBRANCH  43  44
ENDBRANCH  27  43
BRANCH  24  49
ATOM     49  C   UNK d   0     -13.227  -7.182   5.679  0.00  0.00     0.052 C 
BRANCH  49  50
ATOM     50  C   UNK d   0     -14.220  -7.643   6.714  0.00  0.00     0.115 C 
BRANCH  50  51
ATOM     51  C   UNK d   0     -14.809  -6.622   7.570  0.00  0.00     0.139 C 
ATOM     52  O   UNK d   0     -15.791  -6.849   8.317  0.00  0.00    -0.650 OA
BRANCH  51  53
ATOM     53  O   UNK d   0     -14.281  -5.340   7.573  0.00  0.00    -0.776 OA
ATOM     54  H   UNK d   0     -13.310  -5.227   7.803  0.00  0.00     0.167 HD
ENDBRANCH  51  53
ENDBRANCH  50  51
ENDBRANCH  49  50
ENDBRANCH  24  49
BRANCH  21  55
ATOM     55  C   UNK d   0     -13.439  -9.496   3.643  0.00  0.00     0.151 C 
BRANCH  55  56
ATOM     56  C   UNK d   0     -14.417 -10.390   4.281  0.00  0.00     0.143 C 
ATOM     57  O   UNK d   0     -14.249 -10.873   5.418  0.00  0.00    -0.650 OA
BRANCH  56  58
ATOM     58  O   UNK d   0     -15.575 -10.699   3.569  0.00  0.00    -0.776 OA
ATOM     59  H   UNK d   0     -16.304  -9.962   3.581  0.00  0.00     0.167 HD
ENDBRANCH  56  58
ENDBRANCH  55  56
ENDBRANCH  21  55
BRANCH  18  60
ATOM     60  C   UNK d   0     -14.097  -8.867  -1.647  0.00  0.00     0.151 C 
BRANCH  60  61
ATOM     61  C   UNK d   0     -12.795  -8.231  -1.396  0.00  0.00     0.143 C 
ATOM     62  O   UNK d   0     -11.847  -8.703  -0.767  0.00  0.00    -0.650 OA
BRANCH  61  63
ATOM     63  O   UNK d   0     -12.640  -6.937  -1.949  0.00  0.00    -0.776 OA
ATOM     64  H   UNK d   0     -11.889  -6.336  -1.659  0.00  0.00     0.167 HD
ENDBRANCH  61  63
ENDBRANCH  60  61
ENDBRANCH  18  60
BRANCH  14  65
ATOM     65  C   UNK d   0     -15.670  -7.196  -3.633  0.00  0.00     0.052 C 
BRANCH  65  66
ATOM     66  C   UNK d   0     -16.813  -7.905  -4.268  0.00  0.00     0.115 C 
BRANCH  66  67
ATOM     67  C   UNK d   0     -17.522  -7.285  -5.351  0.00  0.00     0.139 C 
ATOM     68  O   UNK d   0     -17.300  -7.701  -6.548  0.00  0.00    -0.650 OA
BRANCH  67  69
ATOM     69  O   UNK d   0     -18.456  -6.252  -5.279  0.00  0.00    -0.776 OA
ATOM     70  H   UNK d   0     -19.374  -6.448  -5.705  0.00  0.00     0.167 HD
ENDBRANCH  67  69
ENDBRANCH  66  67
ENDBRANCH  65  66
ENDBRANCH  14  65
ENDBRANCH   6   7
ENDBRANCH   5   6
ENDBRANCH   2   5
TORSDOF 28
ENDMDL
MODEL 6
REMARK VINA RESULT:      -6.3      4.336     10.511
REMARK  28 active torsions:
REMARK  status: ('A' for Active; 'I' for Inactive)
REMARK    1  A    between atoms: C_2  and  O_3 
REMARK    2  A    between atoms: C_2  and  C_4 
REMARK    3  A    between atoms: C_4  and  C_5 
REMARK    4  A    between atoms: C_5  and  C_6 
REMARK    5  A    between atoms: C_7  and  C_8 
REMARK    6  A    between atoms: C_8  and  C_9 
REMARK    7  A    between atoms: C_9  and  O_11 
REMARK    8  A    between atoms: C_28  and  C_29 
REMARK    9  A    between atoms: C_29  and  C_30 
REMARK   10  A    between atoms: C_30  and  O_32 
REMARK   11  A    between atoms: C_33  and  C_34 
REMARK   12  A    between atoms: C_34  and  C_35 
REMARK   13  A    between atoms: C_35  and  C_36 
REMARK   14  A    between atoms: C_36  and  O_38 
REMARK   15  A    between atoms: C_39  and  C_40 
REMARK   16  A    between atoms: C_40  and  C_41 
REMARK   17  A    between atoms: C_41  and  C_42 
REMARK   18  A    between atoms: C_42  and  O_44 
REMARK   19  A    between atoms: C_45  and  C_46 
REMARK   20  A    between atoms: C_46  and  C_47 
REMARK   21  A    between atoms: C_47  and  O_49 
REMARK   22  A    between atoms: C_50  and  C_51 
REMARK   23  A    between atoms: C_51  and  C_52 
REMARK   24  A    between atoms: C_52  and  O_54 
REMARK   25  A    between atoms: C_55  and  C_56 
REMARK   26  A    between atoms: C_56  and  C_57 
REMARK   27  A    between atoms: C_57  and  C_58 
REMARK   28  A    between atoms: C_58  and  O_60 
ROOT
ATOM      1  O   UNK d   0       9.214 -18.909  -2.098  0.00  0.00    -0.650 OA
ATOM      2  C   UNK d   0      10.169 -18.759  -1.303  0.00  0.00     0.139 C 
ENDROOT
BRANCH   2   3
ATOM      3  O   UNK d   0      10.292 -19.609  -0.231  0.00  0.00    -0.776 OA
ATOM      4  H   UNK d   0      11.038 -19.485   0.457  0.00  0.00     0.167 HD
ENDBRANCH   2   3
BRANCH   2   5
ATOM      5  C   UNK d   0      11.160 -17.668  -1.522  0.00  0.00     0.115 C 
BRANCH   5   6
ATOM      6  C   UNK d   0      12.440 -17.977  -0.795  0.00  0.00     0.052 C 
BRANCH   6   7
ATOM      7  C   UNK d   0      12.807 -16.914   0.212  0.00  0.00    -0.020 A 
ATOM      8  C   UNK d   0      13.535 -15.844   0.015  0.00  0.00    -0.011 A 
ATOM      9  C   UNK d   0      13.622 -15.127   1.275  0.00  0.00     0.067 A 
ATOM     10  C   UNK d   0      14.215 -13.936   1.724  0.00  0.00     0.062 C 
ATOM     11  N   UNK d   0      12.924 -15.834   2.189  0.00  0.00    -0.248 NA
ATOM     12  C   UNK d   0      13.957 -13.259   2.921  0.00  0.00     0.041 A 
ATOM     13  N   UNK d   0      13.788 -13.713   4.177  0.00  0.00    -0.355 N 
ATOM     14  C   UNK d   0      13.773 -11.865   2.888  0.00  0.00    -0.022 A 
ATOM     15  C   UNK d   0      13.495 -12.644   4.941  0.00  0.00     0.042 A 
ATOM     16  H   UNK d   0      13.894 -14.766   4.521  0.00  0.00     0.166 HD
ATOM     17  C   UNK d   0      13.228 -12.553   6.322  0.00  0.00     0.062 C 
ATOM     18  C   UNK d   0      13.476 -11.467   4.168  0.00  0.00    -0.013 A 
ATOM     19  C   UNK d   0      12.429 -13.351   7.100  0.00  0.00     0.067 A 
ATOM     20  N   UNK d   0      11.987 -14.484   6.549  0.00  0.00    -0.248 NA
ATOM     21  C   UNK d   0      11.883 -13.288   8.445  0.00  0.00    -0.011 A 
ATOM     22  C   UNK d   0      11.191 -15.167   7.436  0.00  0.00     0.066 A 
ATOM     23  C   UNK d   0      10.692 -16.387   7.005  0.00  0.00     0.062 C 
ATOM     24  C   UNK d   0      11.156 -14.351   8.635  0.00  0.00    -0.020 A 
ATOM     25  C   UNK d   0      10.974 -17.055   5.804  0.00  0.00     0.041 A 
ATOM     26  N   UNK d   0      11.126 -16.606   4.552  0.00  0.00    -0.355 N 
ATOM     27  C   UNK d   0      11.162 -18.454   5.838  0.00  0.00    -0.022 A 
ATOM     28  C   UNK d   0      11.410 -17.672   3.787  0.00  0.00     0.042 A 
ATOM     29  H   UNK d   0      11.009 -15.550   4.207  0.00  0.00     0.166 HD
ATOM     30  C   UNK d   0      11.669 -17.777   2.411  0.00  0.00     0.062 C 
ATOM     31  C   UNK d   0      11.439 -18.852   4.566  0.00  0.00    -0.013 A 
ATOM     32  C   UNK d   0      12.408 -16.920   1.612  0.00  0.00     0.066 A 
BRANCH   8  33
ATOM     33  C   UNK d   0      14.166 -15.425  -1.250  0.00  0.00     0.151 C 
BRANCH  33  34
ATOM     34  C   UNK d   0      15.603 -15.749  -1.305  0.00  0.00     0.143 C 
ATOM     35  O   UNK d   0      16.453 -14.949  -0.888  0.00  0.00    -0.650 OA
BRANCH  34  36
ATOM     36  O   UNK d   0      16.004 -16.957  -1.829  0.00  0.00    -0.776 OA
ATOM     37  H   UNK d   0      16.877 -17.043  -2.365  0.00  0.00     0.167 HD
ENDBRANCH  34  36
ENDBRANCH  33  34
ENDBRANCH   8  33
BRANCH  31  38
ATOM     38  C   UNK d   0      11.728 -20.266   4.118  0.00  0.00     0.151 C 
BRANCH  38  39
ATOM     39  C   UNK d   0      10.737 -20.776   3.194  0.00  0.00     0.143 C 
ATOM     40  O   UNK d   0      11.044 -21.284   2.102  0.00  0.00    -0.650 OA
BRANCH  39  41
ATOM     41  O   UNK d   0       9.385 -20.702   3.529  0.00  0.00    -0.776 OA
ATOM     42  H   UNK d   0       9.158 -20.679   4.528  0.00  0.00     0.167 HD
ENDBRANCH  39  41
ENDBRANCH  38  39
ENDBRANCH  31  38
BRANCH  27  43
ATOM     43  C   UNK d   0      11.088 -19.403   7.008  0.00  0.00     0.052 C 
BRANCH  43  44
ATOM     44  C   UNK d   0       9.724 -19.489   7.613  0.00  0.00     0.115 C 
BRANCH  44  45
ATOM     45  C   UNK d   0       8.868 -20.202   6.631  0.00  0.00     0.139 C 
ATOM     46  O   UNK d   0       7.966 -19.550   6.049  0.00  0.00    -0.650 OA
BRANCH  45  47
ATOM     47  O   UNK d   0       9.027 -21.538   6.332  0.00  0.00    -0.776 OA
ATOM     48  H   UNK d   0       9.310 -22.239   7.035  0.00  0.00     0.167 HD
ENDBRANCH  45  47
ENDBRANCH  44  45
ENDBRANCH  43  44
ENDBRANCH  27  43
BRANCH  24  49
ATOM     49  C   UNK d   0      10.449 -14.710   9.876  0.00  0.00     0.052 C 
BRANCH  49  50
ATOM     50  C   UNK d   0       9.150 -13.953   9.976  0.00  0.00     0.115 C 
BRANCH  50  51
ATOM     51  C   UNK d   0       8.742 -13.506  11.301  0.00  0.00     0.139 C 
ATOM     52  O   UNK d   0       8.134 -12.426  11.493  0.00  0.00    -0.650 OA
BRANCH  51  53
ATOM     53  O   UNK d   0       9.028 -14.289  12.409  0.00  0.00    -0.776 OA
ATOM     54  H   UNK d   0       8.261 -14.632  12.960  0.00  0.00     0.167 HD
ENDBRANCH  51  53
ENDBRANCH  50  51
ENDBRANCH  49  50
ENDBRANCH  24  49
BRANCH  21  55
ATOM     55  C   UNK d   0      12.149 -12.174   9.403  0.00  0.00     0.151 C 
BRANCH  55  56
ATOM     56  C   UNK d   0      13.426 -12.350  10.113  0.00  0.00     0.143 C 
ATOM     57  O   UNK d   0      13.537 -13.050  11.139  0.00  0.00    -0.650 OA
BRANCH  56  58
ATOM     58  O   UNK d   0      14.548 -11.699   9.602  0.00  0.00    -0.776 OA
ATOM     59  H   UNK d   0      15.449 -11.987  10.025  0.00  0.00     0.167 HD
ENDBRANCH  56  58
ENDBRANCH  55  56
ENDBRANCH  21  55
BRANCH  18  60
ATOM     60  C   UNK d   0      13.195 -10.045   4.588  0.00  0.00     0.151 C 
BRANCH  60  61
ATOM     61  C   UNK d   0      14.506  -9.440   4.866  0.00  0.00     0.143 C 
ATOM     62  O   UNK d   0      15.245  -9.675   5.823  0.00  0.00    -0.650 OA
BRANCH  61  63
ATOM     63  O   UNK d   0      14.943  -8.486   3.915  0.00  0.00    -0.776 OA
ATOM     64  H   UNK d   0      14.377  -7.690   3.681  0.00  0.00     0.167 HD
ENDBRANCH  61  63
ENDBRANCH  60  61
ENDBRANCH  18  60
BRANCH  14  65
ATOM     65  C   UNK d   0      13.952 -10.877   1.770  0.00  0.00     0.052 C 
BRANCH  65  66
ATOM     66  C   UNK d   0      12.684 -10.570   1.056  0.00  0.00     0.115 C 
BRANCH  66  67
ATOM     67  C   UNK d   0      12.193  -9.221   1.027  0.00  0.00     0.139 C 
ATOM     68  O   UNK d   0      11.265  -8.924   0.188  0.00  0.00    -0.650 OA
BRANCH  67  69
ATOM     69  O   UNK d   0      12.602  -8.147   1.816  0.00  0.00    -0.776 OA
ATOM     70  H   UNK d   0      12.540  -8.290   2.835  0.00  0.00     0.167 HD
ENDBRANCH  67  69
ENDBRANCH  66  67
ENDBRANCH  65  66
ENDBRANCH  14  65
ENDBRANCH   6   7
ENDBRANCH   5   6
ENDBRANCH   2   5
TORSDOF 28
ENDMDL
MODEL 7
REMARK VINA RESULT:      -6.3      5.821      8.895
REMARK  28 active torsions:
REMARK  status: ('A' for Active; 'I' for Inactive)
REMARK    1  A    between atoms: C_2  and  O_3 
REMARK    2  A    between atoms: C_2  and  C_4 
REMARK    3  A    between atoms: C_4  and  C_5 
REMARK    4  A    between atoms: C_5  and  C_6 
REMARK    5  A    between atoms: C_7  and  C_8 
REMARK    6  A    between atoms: C_8  and  C_9 
REMARK    7  A    between atoms: C_9  and  O_11 
REMARK    8  A    between atoms: C_28  and  C_29 
REMARK    9  A    between atoms: C_29  and  C_30 
REMARK   10  A    between atoms: C_30  and  O_32 
REMARK   11  A    between atoms: C_33  and  C_34 
REMARK   12  A    between atoms: C_34  and  C_35 
REMARK   13  A    between atoms: C_35  and  C_36 
REMARK   14  A    between atoms: C_36  and  O_38 
REMARK   15  A    between atoms: C_39  and  C_40 
REMARK   16  A    between atoms: C_40  and  C_41 
REMARK   17  A    between atoms: C_41  and  C_42 
REMARK   18  A    between atoms: C_42  and  O_44 
REMARK   19  A    between atoms: C_45  and  C_46 
REMARK   20  A    between atoms: C_46  and  C_47 
REMARK   21  A    between atoms: C_47  and  O_49 
REMARK   22  A    between atoms: C_50  and  C_51 
REMARK   23  A    between atoms: C_51  and  C_52 
REMARK   24  A    between atoms: C_52  and  O_54 
REMARK   25  A    between atoms: C_55  and  C_56 
REMARK   26  A    between atoms: C_56  and  C_57 
REMARK   27  A    between atoms: C_57  and  C_58 
REMARK   28  A    between atoms: C_58  and  O_60 
ROOT
ATOM      1  O   UNK d   0       9.278 -20.705   6.190  0.00  0.00    -0.650 OA
ATOM      2  C   UNK d   0      10.419 -20.275   5.912  0.00  0.00     0.139 C 
ENDROOT
BRANCH   2   3
ATOM      3  O   UNK d   0      11.485 -21.142   5.917  0.00  0.00    -0.776 OA
ATOM      4  H   UNK d   0      11.684 -21.728   6.730  0.00  0.00     0.167 HD
ENDBRANCH   2   3
BRANCH   2   5
ATOM      5  C   UNK d   0      10.616 -18.836   5.579  0.00  0.00     0.115 C 
BRANCH   5   6
ATOM      6  C   UNK d   0      12.027 -18.419   5.895  0.00  0.00     0.052 C 
BRANCH   6   7
ATOM      7  C   UNK d   0      12.496 -17.264   5.044  0.00  0.00    -0.020 A 
ATOM      8  C   UNK d   0      12.922 -17.305   3.807  0.00  0.00    -0.011 A 
ATOM      9  C   UNK d   0      13.272 -15.951   3.412  0.00  0.00     0.067 A 
ATOM     10  C   UNK d   0      13.753 -15.328   2.250  0.00  0.00     0.062 C 
ATOM     11  N   UNK d   0      13.033 -15.150   4.472  0.00  0.00    -0.248 NA
ATOM     12  C   UNK d   0      13.767 -13.957   1.967  0.00  0.00     0.041 A 
ATOM     13  N   UNK d   0      14.085 -12.897   2.734  0.00  0.00    -0.355 N 
ATOM     14  C   UNK d   0      13.338 -13.519   0.701  0.00  0.00    -0.022 A 
ATOM     15  C   UNK d   0      13.861 -11.798   1.990  0.00  0.00     0.042 A 
ATOM     16  H   UNK d   0      14.478 -12.926   3.774  0.00  0.00     0.166 HD
ATOM     17  C   UNK d   0      14.029 -10.434   2.302  0.00  0.00     0.062 C 
ATOM     18  C   UNK d   0      13.391 -12.148   0.710  0.00  0.00    -0.013 A 
ATOM     19  C   UNK d   0      13.669  -9.759   3.441  0.00  0.00     0.067 A 
ATOM     20  N   UNK d   0      13.285 -10.497   4.486  0.00  0.00    -0.248 NA
ATOM     21  C   UNK d   0      13.571  -8.365   3.842  0.00  0.00    -0.011 A 
ATOM     22  C   UNK d   0      12.942  -9.687   5.541  0.00  0.00     0.066 A 
ATOM     23  C   UNK d   0      12.559 -10.328   6.710  0.00  0.00     0.062 C 
ATOM     24  C   UNK d   0      13.141  -8.330   5.071  0.00  0.00    -0.020 A 
ATOM     25  C   UNK d   0      12.564 -11.705   6.978  0.00  0.00     0.041 A 
ATOM     26  N   UNK d   0      12.234 -12.758   6.220  0.00  0.00    -0.355 N 
ATOM     27  C   UNK d   0      13.000 -12.144   8.247  0.00  0.00    -0.022 A 
ATOM     28  C   UNK d   0      12.448 -13.856   6.963  0.00  0.00     0.042 A 
ATOM     29  H   UNK d   0      11.829 -12.727   5.179  0.00  0.00     0.166 HD
ATOM     30  C   UNK d   0      12.277 -15.218   6.669  0.00  0.00     0.062 C 
ATOM     31  C   UNK d   0      12.930 -13.504   8.246  0.00  0.00    -0.013 A 
ATOM     32  C   UNK d   0      12.564 -15.879   5.485  0.00  0.00     0.066 A 
BRANCH   8  33
ATOM     33  C   UNK d   0      13.040 -18.500   2.951  0.00  0.00     0.151 C 
BRANCH  33  34
ATOM     34  C   UNK d   0      14.422 -19.008   2.868  0.00  0.00     0.143 C 
ATOM     35  O   UNK d   0      14.893 -19.721   3.765  0.00  0.00    -0.650 OA
BRANCH  34  36
ATOM     36  O   UNK d   0      15.196 -18.682   1.778  0.00  0.00    -0.776 OA
ATOM     37  H   UNK d   0      16.187 -18.427   1.885  0.00  0.00     0.167 HD
ENDBRANCH  34  36
ENDBRANCH  33  34
ENDBRANCH   8  33
BRANCH  31  38
ATOM     38  C   UNK d   0      13.310 -14.416   9.389  0.00  0.00     0.151 C 
BRANCH  38  39
ATOM     39  C   UNK d   0      12.420 -14.295  10.524  0.00  0.00     0.143 C 
ATOM     40  O   UNK d   0      12.840 -14.191  11.690  0.00  0.00    -0.650 OA
BRANCH  39  41
ATOM     41  O   UNK d   0      11.041 -14.293  10.318  0.00  0.00    -0.776 OA
ATOM     42  H   UNK d   0      10.514 -13.518  10.732  0.00  0.00     0.167 HD
ENDBRANCH  39  41
ENDBRANCH  38  39
ENDBRANCH  31  38
BRANCH  27  43
ATOM     43  C   UNK d   0      13.466 -11.337   9.433  0.00  0.00     0.052 C 
BRANCH  43  44
ATOM     44  C   UNK d   0      14.942 -11.407   9.652  0.00  0.00     0.115 C 
BRANCH  44  45
ATOM     45  C   UNK d   0      15.142 -11.809  11.068  0.00  0.00     0.139 C 
ATOM     46  O   UNK d   0      16.262 -12.272  11.400  0.00  0.00    -0.650 OA
BRANCH  45  47
ATOM     47  O   UNK d   0      14.158 -11.691  12.025  0.00  0.00    -0.776 OA
ATOM     48  H   UNK d   0      13.153 -11.641  11.792  0.00  0.00     0.167 HD
ENDBRANCH  45  47
ENDBRANCH  44  45
ENDBRANCH  43  44
ENDBRANCH  27  43
BRANCH  24  49
ATOM     49  C   UNK d   0      12.934  -7.120   5.884  0.00  0.00     0.052 C 
BRANCH  49  50
ATOM     50  C   UNK d   0      13.839  -7.137   7.089  0.00  0.00     0.115 C 
BRANCH  50  51
ATOM     51  C   UNK d   0      15.264  -6.949   6.854  0.00  0.00     0.139 C 
ATOM     52  O   UNK d   0      15.774  -5.821   6.654  0.00  0.00    -0.650 OA
BRANCH  51  53
ATOM     53  O   UNK d   0      16.109  -8.048   6.843  0.00  0.00    -0.776 OA
ATOM     54  H   UNK d   0      16.486  -8.366   7.718  0.00  0.00     0.167 HD
ENDBRANCH  51  53
ENDBRANCH  50  51
ENDBRANCH  49  50
ENDBRANCH  24  49
BRANCH  21  55
ATOM     55  C   UNK d   0      13.921  -7.215   2.958  0.00  0.00     0.151 C 
BRANCH  55  56
ATOM     56  C   UNK d   0      15.371  -7.117   2.728  0.00  0.00     0.143 C 
ATOM     57  O   UNK d   0      15.876  -7.138   1.589  0.00  0.00    -0.650 OA
BRANCH  56  58
ATOM     58  O   UNK d   0      16.198  -6.997   3.844  0.00  0.00    -0.776 OA
ATOM     59  H   UNK d   0      17.183  -7.276   3.688  0.00  0.00     0.167 HD
ENDBRANCH  56  58
ENDBRANCH  55  56
ENDBRANCH  21  55
BRANCH  18  60
ATOM     60  C   UNK d   0      13.008 -11.261  -0.449  0.00  0.00     0.151 C 
BRANCH  60  61
ATOM     61  C   UNK d   0      11.564 -11.016  -0.310  0.00  0.00     0.143 C 
ATOM     62  O   UNK d   0      11.005 -10.351   0.563  0.00  0.00    -0.650 OA
BRANCH  61  63
ATOM     63  O   UNK d   0      10.752 -11.620  -1.299  0.00  0.00    -0.776 OA
ATOM     64  H   UNK d   0      11.041 -12.464  -1.762  0.00  0.00     0.167 HD
ENDBRANCH  61  63
ENDBRANCH  60  61
ENDBRANCH  18  60
BRANCH  14  65
ATOM     65  C   UNK d   0      12.979 -14.294  -0.535  0.00  0.00     0.052 C 
BRANCH  65  66
ATOM     66  C   UNK d   0      14.156 -14.929  -1.186  0.00  0.00     0.115 C 
BRANCH  66  67
ATOM     67  C   UNK d   0      15.385 -14.196  -1.304  0.00  0.00     0.139 C 
ATOM     68  O   UNK d   0      15.463 -13.268  -2.190  0.00  0.00    -0.650 OA
BRANCH  67  69
ATOM     69  O   UNK d   0      16.552 -14.362  -0.559  0.00  0.00    -0.776 OA
ATOM     70  H   UNK d   0      16.622 -15.241  -0.026  0.00  0.00     0.167 HD
ENDBRANCH  67  69
ENDBRANCH  66  67
ENDBRANCH  65  66
ENDBRANCH  14  65
ENDBRANCH   6   7
ENDBRANCH   5   6
ENDBRANCH   2   5
TORSDOF 28
ENDMDL
MODEL 8
REMARK VINA RESULT:      -6.3     22.668     27.434
REMARK  28 active torsions:
REMARK  status: ('A' for Active; 'I' for Inactive)
REMARK    1  A    between atoms: C_2  and  O_3 
REMARK    2  A    between atoms: C_2  and  C_4 
REMARK    3  A    between atoms: C_4  and  C_5 
REMARK    4  A    between atoms: C_5  and  C_6 
REMARK    5  A    between atoms: C_7  and  C_8 
REMARK    6  A    between atoms: C_8  and  C_9 
REMARK    7  A    between atoms: C_9  and  O_11 
REMARK    8  A    between atoms: C_28  and  C_29 
REMARK    9  A    between atoms: C_29  and  C_30 
REMARK   10  A    between atoms: C_30  and  O_32 
REMARK   11  A    between atoms: C_33  and  C_34 
REMARK   12  A    between atoms: C_34  and  C_35 
REMARK   13  A    between atoms: C_35  and  C_36 
REMARK   14  A    between atoms: C_36  and  O_38 
REMARK   15  A    between atoms: C_39  and  C_40 
REMARK   16  A    between atoms: C_40  and  C_41 
REMARK   17  A    between atoms: C_41  and  C_42 
REMARK   18  A    between atoms: C_42  and  O_44 
REMARK   19  A    between atoms: C_45  and  C_46 
REMARK   20  A    between atoms: C_46  and  C_47 
REMARK   21  A    between atoms: C_47  and  O_49 
REMARK   22  A    between atoms: C_50  and  C_51 
REMARK   23  A    between atoms: C_51  and  C_52 
REMARK   24  A    between atoms: C_52  and  O_54 
REMARK   25  A    between atoms: C_55  and  C_56 
REMARK   26  A    between atoms: C_56  and  C_57 
REMARK   27  A    between atoms: C_57  and  C_58 
REMARK   28  A    between atoms: C_58  and  O_60 
ROOT
ATOM      1  O   UNK d   0     -17.748   1.011   0.048  0.00  0.00    -0.650 OA
ATOM      2  C   UNK d   0     -18.951   0.702  -0.102  0.00  0.00     0.139 C 
ENDROOT
BRANCH   2   3
ATOM      3  O   UNK d   0     -19.916   1.397   0.587  0.00  0.00    -0.776 OA
ATOM      4  H   UNK d   0     -20.856   1.516   0.203  0.00  0.00     0.167 HD
ENDBRANCH   2   3
BRANCH   2   5
ATOM      5  C   UNK d   0     -19.330  -0.410  -1.020  0.00  0.00     0.115 C 
BRANCH   5   6
ATOM      6  C   UNK d   0     -18.098  -1.006  -1.646  0.00  0.00     0.052 C 
BRANCH   6   7
ATOM      7  C   UNK d   0     -17.870  -2.439  -1.228  0.00  0.00    -0.020 A 
ATOM      8  C   UNK d   0     -18.057  -3.519  -1.943  0.00  0.00    -0.011 A 
ATOM      9  C   UNK d   0     -17.712  -4.664  -1.118  0.00  0.00     0.067 A 
ATOM     10  C   UNK d   0     -17.673  -6.058  -1.285  0.00  0.00     0.062 C 
ATOM     11  N   UNK d   0     -17.331  -4.190   0.087  0.00  0.00    -0.248 NA
ATOM     12  C   UNK d   0     -17.043  -6.993  -0.457  0.00  0.00     0.041 A 
ATOM     13  N   UNK d   0     -16.993  -7.097   0.885  0.00  0.00    -0.355 N 
ATOM     14  C   UNK d   0     -16.261  -8.004  -1.044  0.00  0.00    -0.022 A 
ATOM     15  C   UNK d   0     -16.192  -8.143   1.164  0.00  0.00     0.042 A 
ATOM     16  H   UNK d   0     -17.528  -6.456   1.619  0.00  0.00     0.166 HD
ATOM     17  C   UNK d   0     -15.802  -8.689   2.403  0.00  0.00     0.062 C 
ATOM     18  C   UNK d   0     -15.714  -8.737  -0.020  0.00  0.00    -0.013 A 
ATOM     19  C   UNK d   0     -15.381  -8.041   3.537  0.00  0.00     0.067 A 
ATOM     20  N   UNK d   0     -15.537  -6.715   3.568  0.00  0.00    -0.248 NA
ATOM     21  C   UNK d   0     -14.757  -8.428   4.791  0.00  0.00    -0.011 A 
ATOM     22  C   UNK d   0     -15.059  -6.207   4.752  0.00  0.00     0.066 A 
ATOM     23  C   UNK d   0     -15.194  -4.839   4.934  0.00  0.00     0.062 C 
ATOM     24  C   UNK d   0     -14.567  -7.350   5.495  0.00  0.00    -0.020 A 
ATOM     25  C   UNK d   0     -15.842  -3.918   4.096  0.00  0.00     0.041 A 
ATOM     26  N   UNK d   0     -15.879  -3.806   2.763  0.00  0.00    -0.355 N 
ATOM     27  C   UNK d   0     -16.630  -2.907   4.686  0.00  0.00    -0.022 A 
ATOM     28  C   UNK d   0     -16.670  -2.758   2.482  0.00  0.00     0.042 A 
ATOM     29  H   UNK d   0     -15.332  -4.444   2.026  0.00  0.00     0.166 HD
ATOM     30  C   UNK d   0     -17.060  -2.199   1.255  0.00  0.00     0.062 C 
ATOM     31  C   UNK d   0     -17.159  -2.168   3.672  0.00  0.00    -0.013 A 
ATOM     32  C   UNK d   0     -17.402  -2.859   0.085  0.00  0.00     0.066 A 
BRANCH   8  33
ATOM     33  C   UNK d   0     -18.537  -3.585  -3.336  0.00  0.00     0.151 C 
BRANCH  33  34
ATOM     34  C   UNK d   0     -17.443  -3.503  -4.321  0.00  0.00     0.143 C 
ATOM     35  O   UNK d   0     -16.646  -4.441  -4.467  0.00  0.00    -0.650 OA
BRANCH  34  36
ATOM     36  O   UNK d   0     -17.306  -2.367  -5.085  0.00  0.00    -0.776 OA
ATOM     37  H   UNK d   0     -17.811  -1.502  -4.850  0.00  0.00     0.167 HD
ENDBRANCH  34  36
ENDBRANCH  33  34
ENDBRANCH   8  33
BRANCH  31  38
ATOM     38  C   UNK d   0     -18.083  -0.982   3.820  0.00  0.00     0.151 C 
BRANCH  38  39
ATOM     39  C   UNK d   0     -17.372   0.260   4.038  0.00  0.00     0.143 C 
ATOM     40  O   UNK d   0     -17.409   0.866   5.123  0.00  0.00    -0.650 OA
BRANCH  39  41
ATOM     41  O   UNK d   0     -16.615   0.807   3.002  0.00  0.00    -0.776 OA
ATOM     42  H   UNK d   0     -16.534   0.251   2.145  0.00  0.00     0.167 HD
ENDBRANCH  39  41
ENDBRANCH  38  39
ENDBRANCH  31  38
BRANCH  27  43
ATOM     43  C   UNK d   0     -16.891  -2.623   6.144  0.00  0.00     0.052 C 
BRANCH  43  44
ATOM     44  C   UNK d   0     -18.185  -3.188   6.634  0.00  0.00     0.115 C 
BRANCH  44  45
ATOM     45  C   UNK d   0     -17.839  -4.277   7.585  0.00  0.00     0.139 C 
ATOM     46  O   UNK d   0     -17.914  -5.463   7.179  0.00  0.00    -0.650 OA
BRANCH  45  47
ATOM     47  O   UNK d   0     -17.436  -4.037   8.881  0.00  0.00    -0.776 OA
ATOM     48  H   UNK d   0     -18.048  -4.200   9.697  0.00  0.00     0.167 HD
ENDBRANCH  45  47
ENDBRANCH  44  45
ENDBRANCH  43  44
ENDBRANCH  27  43
BRANCH  24  49
ATOM     49  C   UNK d   0     -13.995  -7.288   6.851  0.00  0.00     0.052 C 
BRANCH  49  50
ATOM     50  C   UNK d   0     -15.089  -7.361   7.886  0.00  0.00     0.115 C 
BRANCH  50  51
ATOM     51  C   UNK d   0     -14.917  -6.562   9.092  0.00  0.00     0.139 C 
ATOM     52  O   UNK d   0     -14.772  -5.317   9.064  0.00  0.00    -0.650 OA
BRANCH  51  53
ATOM     53  O   UNK d   0     -14.908  -7.184  10.331  0.00  0.00    -0.776 OA
ATOM     54  H   UNK d   0     -14.694  -8.165  10.369  0.00  0.00     0.167 HD
ENDBRANCH  51  53
ENDBRANCH  50  51
ENDBRANCH  49  50
ENDBRANCH  24  49
BRANCH  21  55
ATOM     55  C   UNK d   0     -14.419  -9.836   5.155  0.00  0.00     0.151 C 
BRANCH  55  56
ATOM     56  C   UNK d   0     -13.032 -10.179   4.805  0.00  0.00     0.143 C 
ATOM     57  O   UNK d   0     -12.494  -9.813   3.742  0.00  0.00    -0.650 OA
BRANCH  56  58
ATOM     58  O   UNK d   0     -12.304 -10.944   5.714  0.00  0.00    -0.776 OA
ATOM     59  H   UNK d   0     -11.373 -10.562   5.959  0.00  0.00     0.167 HD
ENDBRANCH  56  58
ENDBRANCH  55  56
ENDBRANCH  21  55
BRANCH  18  60
ATOM     60  C   UNK d   0     -14.795  -9.920  -0.198  0.00  0.00     0.151 C 
BRANCH  60  61
ATOM     61  C   UNK d   0     -13.428  -9.383  -0.133  0.00  0.00     0.143 C 
ATOM     62  O   UNK d   0     -12.873  -8.663  -0.964  0.00  0.00    -0.650 OA
BRANCH  61  63
ATOM     63  O   UNK d   0     -12.691  -9.747   1.019  0.00  0.00    -0.776 OA
ATOM     64  H   UNK d   0     -13.155  -9.966   1.883  0.00  0.00     0.167 HD
ENDBRANCH  61  63
ENDBRANCH  60  61
ENDBRANCH  18  60
BRANCH  14  65
ATOM     65  C   UNK d   0     -16.072  -8.386  -2.484  0.00  0.00     0.052 C 
BRANCH  65  66
ATOM     66  C   UNK d   0     -15.121  -7.495  -3.203  0.00  0.00     0.115 C 
BRANCH  66  67
ATOM     67  C   UNK d   0     -15.036  -7.552  -4.635  0.00  0.00     0.139 C 
ATOM     68  O   UNK d   0     -15.794  -8.380  -5.262  0.00  0.00    -0.650 OA
BRANCH  67  69
ATOM     69  O   UNK d   0     -14.211  -6.801  -5.471  0.00  0.00    -0.776 OA
ATOM     70  H   UNK d   0     -13.906  -5.890  -5.099  0.00  0.00     0.167 HD
ENDBRANCH  67  69
ENDBRANCH  66  67
ENDBRANCH  65  66
ENDBRANCH  14  65
ENDBRANCH   6   7
ENDBRANCH   5   6
ENDBRANCH   2   5
TORSDOF 28
ENDMDL
MODEL 9
REMARK VINA RESULT:      -6.2      5.506      8.382
REMARK  28 active torsions:
REMARK  status: ('A' for Active; 'I' for Inactive)
REMARK    1  A    between atoms: C_2  and  O_3 
REMARK    2  A    between atoms: C_2  and  C_4 
REMARK    3  A    between atoms: C_4  and  C_5 
REMARK    4  A    between atoms: C_5  and  C_6 
REMARK    5  A    between atoms: C_7  and  C_8 
REMARK    6  A    between atoms: C_8  and  C_9 
REMARK    7  A    between atoms: C_9  and  O_11 
REMARK    8  A    between atoms: C_28  and  C_29 
REMARK    9  A    between atoms: C_29  and  C_30 
REMARK   10  A    between atoms: C_30  and  O_32 
REMARK   11  A    between atoms: C_33  and  C_34 
REMARK   12  A    between atoms: C_34  and  C_35 
REMARK   13  A    between atoms: C_35  and  C_36 
REMARK   14  A    between atoms: C_36  and  O_38 
REMARK   15  A    between atoms: C_39  and  C_40 
REMARK   16  A    between atoms: C_40  and  C_41 
REMARK   17  A    between atoms: C_41  and  C_42 
REMARK   18  A    between atoms: C_42  and  O_44 
REMARK   19  A    between atoms: C_45  and  C_46 
REMARK   20  A    between atoms: C_46  and  C_47 
REMARK   21  A    between atoms: C_47  and  O_49 
REMARK   22  A    between atoms: C_50  and  C_51 
REMARK   23  A    between atoms: C_51  and  C_52 
REMARK   24  A    between atoms: C_52  and  O_54 
REMARK   25  A    between atoms: C_55  and  C_56 
REMARK   26  A    between atoms: C_56  and  C_57 
REMARK   27  A    between atoms: C_57  and  C_58 
REMARK   28  A    between atoms: C_58  and  O_60 
ROOT
ATOM      1  O   UNK d   0       8.380 -20.348   5.937  0.00  0.00    -0.650 OA
ATOM      2  C   UNK d   0       9.600 -20.122   6.093  0.00  0.00     0.139 C 
ENDROOT
BRANCH   2   3
ATOM      3  O   UNK d   0      10.509 -21.121   5.838  0.00  0.00    -0.776 OA
ATOM      4  H   UNK d   0      11.366 -21.208   6.388  0.00  0.00     0.167 HD
ENDBRANCH   2   3
BRANCH   2   5
ATOM      5  C   UNK d   0      10.060 -18.780   6.553  0.00  0.00     0.115 C 
BRANCH   5   6
ATOM      6  C   UNK d   0      11.564 -18.730   6.580  0.00  0.00     0.052 C 
BRANCH   6   7
ATOM      7  C   UNK d   0      12.129 -17.726   5.605  0.00  0.00    -0.020 A 
ATOM      8  C   UNK d   0      12.576 -17.951   4.396  0.00  0.00    -0.011 A 
ATOM      9  C   UNK d   0      13.026 -16.684   3.844  0.00  0.00     0.067 A 
ATOM     10  C   UNK d   0      13.573 -16.247   2.627  0.00  0.00     0.062 C 
ATOM     11  N   UNK d   0      12.823 -15.741   4.788  0.00  0.00    -0.248 NA
ATOM     12  C   UNK d   0      13.688 -14.927   2.176  0.00  0.00     0.041 A 
ATOM     13  N   UNK d   0      14.063 -13.802   2.813  0.00  0.00    -0.355 N 
ATOM     14  C   UNK d   0      13.315 -14.625   0.854  0.00  0.00    -0.022 A 
ATOM     15  C   UNK d   0      13.931 -12.793   1.932  0.00  0.00     0.042 A 
ATOM     16  H   UNK d   0      14.433 -13.725   3.859  0.00  0.00     0.166 HD
ATOM     17  C   UNK d   0      14.188 -11.415   2.075  0.00  0.00     0.062 C 
ATOM     18  C   UNK d   0      13.464 -13.270   0.692  0.00  0.00    -0.013 A 
ATOM     19  C   UNK d   0      13.853 -10.579   3.110  0.00  0.00     0.067 A 
ATOM     20  N   UNK d   0      13.399 -11.151   4.228  0.00  0.00    -0.248 NA
ATOM     21  C   UNK d   0      13.845  -9.142   3.331  0.00  0.00    -0.011 A 
ATOM     22  C   UNK d   0      13.092 -10.194   5.163  0.00  0.00     0.066 A 
ATOM     23  C   UNK d   0      12.642 -10.654   6.392  0.00  0.00     0.062 C 
ATOM     24  C   UNK d   0      13.394  -8.923   4.533  0.00  0.00    -0.020 A 
ATOM     25  C   UNK d   0      12.546 -11.984   6.830  0.00  0.00     0.041 A 
ATOM     26  N   UNK d   0      12.159 -13.100   6.201  0.00  0.00    -0.355 N 
ATOM     27  C   UNK d   0      12.925 -12.286   8.156  0.00  0.00    -0.022 A 
ATOM     28  C   UNK d   0      12.281 -14.106   7.081  0.00  0.00     0.042 A 
ATOM     29  H   UNK d   0      11.777 -13.174   5.153  0.00  0.00     0.166 HD
ATOM     30  C   UNK d   0      12.021 -15.480   6.954  0.00  0.00     0.062 C 
ATOM     31  C   UNK d   0      12.761 -13.627   8.323  0.00  0.00    -0.013 A 
ATOM     32  C   UNK d   0      12.285 -16.303   5.871  0.00  0.00     0.066 A 
BRANCH   8  33
ATOM     33  C   UNK d   0      12.627 -19.250   3.699  0.00  0.00     0.151 C 
BRANCH  33  34
ATOM     34  C   UNK d   0      13.996 -19.635   3.310  0.00  0.00     0.143 C 
ATOM     35  O   UNK d   0      14.310 -19.750   2.117  0.00  0.00    -0.650 OA
BRANCH  34  36
ATOM     36  O   UNK d   0      14.934 -19.871   4.288  0.00  0.00    -0.776 OA
ATOM     37  H   UNK d   0      15.925 -20.020   4.053  0.00  0.00     0.167 HD
ENDBRANCH  34  36
ENDBRANCH  33  34
ENDBRANCH   8  33
BRANCH  31  38
ATOM     38  C   UNK d   0      13.054 -14.411   9.581  0.00  0.00     0.151 C 
BRANCH  38  39
ATOM     39  C   UNK d   0      12.042 -14.235  10.601  0.00  0.00     0.143 C 
ATOM     40  O   UNK d   0      10.826 -14.325  10.354  0.00  0.00    -0.650 OA
BRANCH  39  41
ATOM     41  O   UNK d   0      12.429 -13.957  11.911  0.00  0.00    -0.776 OA
ATOM     42  H   UNK d   0      13.268 -13.381  12.032  0.00  0.00     0.167 HD
ENDBRANCH  39  41
ENDBRANCH  38  39
ENDBRANCH  31  38
BRANCH  27  43
ATOM     43  C   UNK d   0      13.423 -11.368   9.244  0.00  0.00     0.052 C 
BRANCH  43  44
ATOM     44  C   UNK d   0      14.904 -11.426   9.434  0.00  0.00     0.115 C 
BRANCH  44  45
ATOM     45  C   UNK d   0      15.135 -11.787  10.857  0.00  0.00     0.139 C 
ATOM     46  O   UNK d   0      14.156 -11.754  11.643  0.00  0.00    -0.650 OA
BRANCH  45  47
ATOM     47  O   UNK d   0      16.370 -12.159  11.342  0.00  0.00    -0.776 OA
ATOM     48  H   UNK d   0      17.043 -12.719  10.793  0.00  0.00     0.167 HD
ENDBRANCH  45  47
ENDBRANCH  44  45
ENDBRANCH  43  44
ENDBRANCH  27  43
BRANCH  24  49
ATOM     49  C   UNK d   0      13.256  -7.609   5.182  0.00  0.00     0.052 C 
BRANCH  49  50
ATOM     50  C   UNK d   0      14.197  -7.501   6.355  0.00  0.00     0.115 C 
BRANCH  50  51
ATOM     51  C   UNK d   0      15.600  -7.810   6.112  0.00  0.00     0.139 C 
ATOM     52  O   UNK d   0      16.343  -7.079   5.416  0.00  0.00    -0.650 OA
BRANCH  51  53
ATOM     53  O   UNK d   0      16.155  -8.955   6.662  0.00  0.00    -0.776 OA
ATOM     54  H   UNK d   0      15.570  -9.766   6.764  0.00  0.00     0.167 HD
ENDBRANCH  51  53
ENDBRANCH  50  51
ENDBRANCH  49  50
ENDBRANCH  24  49
BRANCH  21  55
ATOM     55  C   UNK d   0      14.292  -8.139   2.320  0.00  0.00     0.151 C 
BRANCH  55  56
ATOM     56  C   UNK d   0      13.177  -7.662   1.487  0.00  0.00     0.143 C 
ATOM     57  O   UNK d   0      13.211  -6.579   0.870  0.00  0.00    -0.650 OA
BRANCH  56  58
ATOM     58  O   UNK d   0      12.044  -8.468   1.395  0.00  0.00    -0.776 OA
ATOM     59  H   UNK d   0      12.077  -9.184   0.647  0.00  0.00     0.167 HD
ENDBRANCH  56  58
ENDBRANCH  55  56
ENDBRANCH  21  55
BRANCH  18  60
ATOM     60  C   UNK d   0      13.166 -12.514  -0.579  0.00  0.00     0.151 C 
BRANCH  60  61
ATOM     61  C   UNK d   0      14.464 -12.305  -1.238  0.00  0.00     0.143 C 
ATOM     62  O   UNK d   0      15.227 -13.172  -1.665  0.00  0.00    -0.650 OA
BRANCH  61  63
ATOM     63  O   UNK d   0      14.855 -10.953  -1.386  0.00  0.00    -0.776 OA
ATOM     64  H   UNK d   0      14.335 -10.212  -0.948  0.00  0.00     0.167 HD
ENDBRANCH  61  63
ENDBRANCH  60  61
ENDBRANCH  18  60
BRANCH  14  65
ATOM     65  C   UNK d   0      12.927 -15.525  -0.286  0.00  0.00     0.052 C 
BRANCH  65  66
ATOM     66  C   UNK d   0      11.474 -15.842  -0.308  0.00  0.00     0.115 C 
BRANCH  66  67
ATOM     67  C   UNK d   0      10.696 -15.533  -1.474  0.00  0.00     0.139 C 
ATOM     68  O   UNK d   0      10.372 -14.308  -1.690  0.00  0.00    -0.650 OA
BRANCH  67  69
ATOM     69  O   UNK d   0      10.224 -16.418  -2.444  0.00  0.00    -0.776 OA
ATOM     70  H   UNK d   0       9.754 -17.263  -2.089  0.00  0.00     0.167 HD
ENDBRANCH  67  69
ENDBRANCH  66  67
ENDBRANCH  65  66
ENDBRANCH  14  65
ENDBRANCH   6   7
ENDBRANCH   5   6
ENDBRANCH   2   5
TORSDOF 28
ENDMDL
MODEL 10
REMARK VINA RESULT:      -6.2      5.460     10.914
REMARK  28 active torsions:
REMARK  status: ('A' for Active; 'I' for Inactive)
REMARK    1  A    between atoms: C_2  and  O_3 
REMARK    2  A    between atoms: C_2  and  C_4 
REMARK    3  A    between atoms: C_4  and  C_5 
REMARK    4  A    between atoms: C_5  and  C_6 
REMARK    5  A    between atoms: C_7  and  C_8 
REMARK    6  A    between atoms: C_8  and  C_9 
REMARK    7  A    between atoms: C_9  and  O_11 
REMARK    8  A    between atoms: C_28  and  C_29 
REMARK    9  A    between atoms: C_29  and  C_30 
REMARK   10  A    between atoms: C_30  and  O_32 
REMARK   11  A    between atoms: C_33  and  C_34 
REMARK   12  A    between atoms: C_34  and  C_35 
REMARK   13  A    between atoms: C_35  and  C_36 
REMARK   14  A    between atoms: C_36  and  O_38 
REMARK   15  A    between atoms: C_39  and  C_40 
REMARK   16  A    between atoms: C_40  and  C_41 
REMARK   17  A    between atoms: C_41  and  C_42 
REMARK   18  A    between atoms: C_42  and  O_44 
REMARK   19  A    between atoms: C_45  and  C_46 
REMARK   20  A    between atoms: C_46  and  C_47 
REMARK   21  A    between atoms: C_47  and  O_49 
REMARK   22  A    between atoms: C_50  and  C_51 
REMARK   23  A    between atoms: C_51  and  C_52 
REMARK   24  A    between atoms: C_52  and  O_54 
REMARK   25  A    between atoms: C_55  and  C_56 
REMARK   26  A    between atoms: C_56  and  C_57 
REMARK   27  A    between atoms: C_57  and  C_58 
REMARK   28  A    between atoms: C_58  and  O_60 
ROOT
ATOM      1  O   UNK d   0      14.693 -13.104  11.611  0.00  0.00    -0.650 OA
ATOM      2  C   UNK d   0      13.970 -13.277  10.605  0.00  0.00     0.139 C 
ENDROOT
BRANCH   2   3
ATOM      3  O   UNK d   0      13.650 -14.555  10.217  0.00  0.00    -0.776 OA
ATOM      4  H   UNK d   0      13.045 -14.726   9.411  0.00  0.00     0.167 HD
ENDBRANCH   2   3
BRANCH   2   5
ATOM      5  C   UNK d   0      13.462 -12.104   9.838  0.00  0.00     0.115 C 
BRANCH   5   6
ATOM      6  C   UNK d   0      14.603 -11.397   9.158  0.00  0.00     0.052 C 
BRANCH   6   7
ATOM      7  C   UNK d   0      14.337 -11.140   7.694  0.00  0.00    -0.020 A 
ATOM      8  C   UNK d   0      14.323  -9.987   7.076  0.00  0.00    -0.011 A 
ATOM      9  C   UNK d   0      14.014 -10.236   5.677  0.00  0.00     0.067 A 
ATOM     10  C   UNK d   0      13.874  -9.458   4.517  0.00  0.00     0.062 C 
ATOM     11  N   UNK d   0      13.849 -11.568   5.534  0.00  0.00    -0.248 NA
ATOM     12  C   UNK d   0      13.847  -9.909   3.193  0.00  0.00     0.041 A 
ATOM     13  N   UNK d   0      13.226 -10.963   2.628  0.00  0.00    -0.355 N 
ATOM     14  C   UNK d   0      14.616  -9.234   2.228  0.00  0.00    -0.022 A 
ATOM     15  C   UNK d   0      13.589 -10.978   1.332  0.00  0.00     0.042 A 
ATOM     16  H   UNK d   0      12.531 -11.670   3.132  0.00  0.00     0.166 HD
ATOM     17  C   UNK d   0      13.230 -11.861   0.293  0.00  0.00     0.062 C 
ATOM     18  C   UNK d   0      14.460  -9.910   1.043  0.00  0.00    -0.013 A 
ATOM     19  C   UNK d   0      13.164 -13.230   0.310  0.00  0.00     0.067 A 
ATOM     20  N   UNK d   0      13.256 -13.826   1.502  0.00  0.00    -0.248 NA
ATOM     21  C   UNK d   0      13.027 -14.282  -0.684  0.00  0.00    -0.011 A 
ATOM     22  C   UNK d   0      13.191 -15.190   1.359  0.00  0.00     0.066 A 
ATOM     23  C   UNK d   0      13.237 -15.935   2.528  0.00  0.00     0.062 C 
ATOM     24  C   UNK d   0      13.047 -15.426  -0.064  0.00  0.00    -0.020 A 
ATOM     25  C   UNK d   0      13.251 -15.463   3.849  0.00  0.00     0.041 A 
ATOM     26  N   UNK d   0      13.880 -14.424   4.414  0.00  0.00    -0.355 N 
ATOM     27  C   UNK d   0      12.475 -16.138   4.817  0.00  0.00    -0.022 A 
ATOM     28  C   UNK d   0      13.527 -14.412   5.709  0.00  0.00     0.042 A 
ATOM     29  H   UNK d   0      14.586 -13.721   3.909  0.00  0.00     0.166 HD
ATOM     30  C   UNK d   0      13.884 -13.546   6.755  0.00  0.00     0.062 C 
ATOM     31  C   UNK d   0      12.644 -15.480   5.996  0.00  0.00    -0.013 A 
ATOM     32  C   UNK d   0      14.031 -12.169   6.711  0.00  0.00     0.066 A 
BRANCH   8  33
ATOM     33  C   UNK d   0      14.568  -8.661   7.671  0.00  0.00     0.151 C 
BRANCH  33  34
ATOM     34  C   UNK d   0      15.465  -7.825   6.852  0.00  0.00     0.143 C 
ATOM     35  O   UNK d   0      16.676  -8.078   6.775  0.00  0.00    -0.650 OA
BRANCH  34  36
ATOM     36  O   UNK d   0      14.948  -6.750   6.168  0.00  0.00    -0.776 OA
ATOM     37  H   UNK d   0      15.206  -5.784   6.415  0.00  0.00     0.167 HD
ENDBRANCH  34  36
ENDBRANCH  33  34
ENDBRANCH   8  33
BRANCH  31  38
ATOM     38  C   UNK d   0      11.995 -15.833   7.314  0.00  0.00     0.151 C 
BRANCH  38  39
ATOM     39  C   UNK d   0      10.990 -14.874   7.720  0.00  0.00     0.143 C 
ATOM     40  O   UNK d   0      10.231 -14.320   6.906  0.00  0.00    -0.650 OA
BRANCH  39  41
ATOM     41  O   UNK d   0      10.857 -14.550   9.070  0.00  0.00    -0.776 OA
ATOM     42  H   UNK d   0      11.003 -13.568   9.326  0.00  0.00     0.167 HD
ENDBRANCH  39  41
ENDBRANCH  38  39
ENDBRANCH  31  38
BRANCH  27  43
ATOM     43  C   UNK d   0      11.603 -17.359   4.663  0.00  0.00     0.052 C 
BRANCH  43  44
ATOM     44  C   UNK d   0      10.252 -17.053   4.102  0.00  0.00     0.115 C 
BRANCH  44  45
ATOM     45  C   UNK d   0       9.292 -17.146   5.233  0.00  0.00     0.139 C 
ATOM     46  O   UNK d   0       9.345 -18.159   5.973  0.00  0.00    -0.650 OA
BRANCH  45  47
ATOM     47  O   UNK d   0       8.359 -16.168   5.503  0.00  0.00    -0.776 OA
ATOM     48  H   UNK d   0       8.436 -15.528   6.310  0.00  0.00     0.167 HD
ENDBRANCH  45  47
ENDBRANCH  44  45
ENDBRANCH  43  44
ENDBRANCH  27  43
BRANCH  24  49
ATOM     49  C   UNK d   0      12.899 -16.754  -0.686  0.00  0.00     0.052 C 
BRANCH  49  50
ATOM     50  C   UNK d   0      14.250 -17.328  -1.025  0.00  0.00     0.115 C 
BRANCH  50  51
ATOM     51  C   UNK d   0      14.820 -18.285  -0.086  0.00  0.00     0.139 C 
ATOM     52  O   UNK d   0      16.043 -18.559  -0.059  0.00  0.00    -0.650 OA
BRANCH  51  53
ATOM     53  O   UNK d   0      13.995 -18.931   0.822  0.00  0.00    -0.776 OA
ATOM     54  H   UNK d   0      14.031 -18.645   1.785  0.00  0.00     0.167 HD
ENDBRANCH  51  53
ENDBRANCH  50  51
ENDBRANCH  49  50
ENDBRANCH  24  49
BRANCH  21  55
ATOM     55  C   UNK d   0      12.885 -14.033  -2.149  0.00  0.00     0.151 C 
BRANCH  55  56
ATOM     56  C   UNK d   0      14.174 -13.710  -2.781  0.00  0.00     0.143 C 
ATOM     57  O   UNK d   0      14.654 -12.559  -2.786  0.00  0.00    -0.650 OA
BRANCH  56  58
ATOM     58  O   UNK d   0      14.874 -14.748  -3.394  0.00  0.00    -0.776 OA
ATOM     59  H   UNK d   0      15.722 -14.455  -3.912  0.00  0.00     0.167 HD
ENDBRANCH  56  58
ENDBRANCH  55  56
ENDBRANCH  21  55
BRANCH  18  60
ATOM     60  C   UNK d   0      15.118  -9.532  -0.261  0.00  0.00     0.151 C 
BRANCH  60  61
ATOM     61  C   UNK d   0      14.040  -9.031  -1.127  0.00  0.00     0.143 C 
ATOM     62  O   UNK d   0      13.196  -8.180  -0.845  0.00  0.00    -0.650 OA
BRANCH  61  63
ATOM     63  O   UNK d   0      13.990  -9.605  -2.420  0.00  0.00    -0.776 OA
ATOM     64  H   UNK d   0      14.445 -10.479  -2.617  0.00  0.00     0.167 HD
ENDBRANCH  61  63
ENDBRANCH  60  61
ENDBRANCH  18  60
BRANCH  14  65
ATOM     65  C   UNK d   0      15.400  -7.956   2.318  0.00  0.00     0.052 C 
BRANCH  65  66
ATOM     66  C   UNK d   0      14.604  -6.758   1.940  0.00  0.00     0.115 C 
BRANCH  66  67
ATOM     67  C   UNK d   0      13.258  -6.617   2.420  0.00  0.00     0.139 C 
ATOM     68  O   UNK d   0      13.075  -6.195   3.620  0.00  0.00    -0.650 OA
BRANCH  67  69
ATOM     69  O   UNK d   0      12.075  -6.889   1.733  0.00  0.00    -0.776 OA
ATOM     70  H   UNK d   0      11.494  -7.646   2.123  0.00  0.00     0.167 HD
ENDBRANCH  67  69
ENDBRANCH  66  67
ENDBRANCH  65  66
ENDBRANCH  14  65
ENDBRANCH   6   7
ENDBRANCH   5   6
ENDBRANCH   2   5
TORSDOF 28
ENDMDL
MODEL 11
REMARK VINA RESULT:      -6.2     14.971     18.209
REMARK  28 active torsions:
REMARK  status: ('A' for Active; 'I' for Inactive)
REMARK    1  A    between atoms: C_2  and  O_3 
REMARK    2  A    between atoms: C_2  and  C_4 
REMARK    3  A    between atoms: C_4  and  C_5 
REMARK    4  A    between atoms: C_5  and  C_6 
REMARK    5  A    between atoms: C_7  and  C_8 
REMARK    6  A    between atoms: C_8  and  C_9 
REMARK    7  A    between atoms: C_9  and  O_11 
REMARK    8  A    between atoms: C_28  and  C_29 
REMARK    9  A    between atoms: C_29  and  C_30 
REMARK   10  A    between atoms: C_30  and  O_32 
REMARK   11  A    between atoms: C_33  and  C_34 
REMARK   12  A    between atoms: C_34  and  C_35 
REMARK   13  A    between atoms: C_35  and  C_36 
REMARK   14  A    between atoms: C_36  and  O_38 
REMARK   15  A    between atoms: C_39  and  C_40 
REMARK   16  A    between atoms: C_40  and  C_41 
REMARK   17  A    between atoms: C_41  and  C_42 
REMARK   18  A    between atoms: C_42  and  O_44 
REMARK   19  A    between atoms: C_45  and  C_46 
REMARK   20  A    between atoms: C_46  and  C_47 
REMARK   21  A    between atoms: C_47  and  O_49 
REMARK   22  A    between atoms: C_50  and  C_51 
REMARK   23  A    between atoms: C_51  and  C_52 
REMARK   24  A    between atoms: C_52  and  O_54 
REMARK   25  A    between atoms: C_55  and  C_56 
REMARK   26  A    between atoms: C_56  and  C_57 
REMARK   27  A    between atoms: C_57  and  C_58 
REMARK   28  A    between atoms: C_58  and  O_60 
ROOT
ATOM      1  O   UNK d   0      16.154  -1.225   2.007  0.00  0.00    -0.650 OA
ATOM      2  C   UNK d   0      15.649  -1.900   2.931  0.00  0.00     0.139 C 
ENDROOT
BRANCH   2   3
ATOM      3  O   UNK d   0      15.144  -1.258   4.036  0.00  0.00    -0.776 OA
ATOM      4  H   UNK d   0      14.812  -1.785   4.847  0.00  0.00     0.167 HD
ENDBRANCH   2   3
BRANCH   2   5
ATOM      5  C   UNK d   0      15.598  -3.386   2.831  0.00  0.00     0.115 C 
BRANCH   5   6
ATOM      6  C   UNK d   0      14.171  -3.848   2.711  0.00  0.00     0.052 C 
BRANCH   6   7
ATOM      7  C   UNK d   0      13.790  -4.196   1.291  0.00  0.00    -0.020 A 
ATOM      8  C   UNK d   0      13.865  -5.364   0.708  0.00  0.00    -0.011 A 
ATOM      9  C   UNK d   0      13.397  -5.210  -0.659  0.00  0.00     0.067 A 
ATOM     10  C   UNK d   0      13.212  -6.052  -1.767  0.00  0.00     0.062 C 
ATOM     11  N   UNK d   0      13.062  -3.913  -0.824  0.00  0.00    -0.248 NA
ATOM     12  C   UNK d   0      12.482  -5.776  -2.928  0.00  0.00     0.041 A 
ATOM     13  N   UNK d   0      12.415  -4.667  -3.690  0.00  0.00    -0.355 N 
ATOM     14  C   UNK d   0      11.600  -6.752  -3.427  0.00  0.00    -0.022 A 
ATOM     15  C   UNK d   0      11.507  -4.912  -4.654  0.00  0.00     0.042 A 
ATOM     16  H   UNK d   0      13.011  -3.737  -3.560  0.00  0.00     0.166 HD
ATOM     17  C   UNK d   0      11.054  -4.097  -5.710  0.00  0.00     0.062 C 
ATOM     18  C   UNK d   0      10.974  -6.209  -4.521  0.00  0.00    -0.013 A 
ATOM     19  C   UNK d   0      10.698  -2.772  -5.686  0.00  0.00     0.067 A 
ATOM     20  N   UNK d   0      10.994  -2.087  -4.579  0.00  0.00    -0.248 NA
ATOM     21  C   UNK d   0      10.030  -1.854  -6.593  0.00  0.00    -0.011 A 
ATOM     22  C   UNK d   0      10.566  -0.787  -4.695  0.00  0.00     0.066 A 
ATOM     23  C   UNK d   0      10.844   0.051  -3.625  0.00  0.00     0.062 C 
ATOM     24  C   UNK d   0       9.952  -0.694  -6.005  0.00  0.00    -0.020 A 
ATOM     25  C   UNK d   0      11.589  -0.242  -2.473  0.00  0.00     0.041 A 
ATOM     26  N   UNK d   0      11.646  -1.339  -1.708  0.00  0.00    -0.355 N 
ATOM     27  C   UNK d   0      12.478   0.736  -1.977  0.00  0.00    -0.022 A 
ATOM     28  C   UNK d   0      12.544  -1.094  -0.741  0.00  0.00     0.042 A 
ATOM     29  H   UNK d   0      11.038  -2.268  -1.833  0.00  0.00     0.166 HD
ATOM     30  C   UNK d   0      12.997  -1.892   0.322  0.00  0.00     0.062 C 
ATOM     31  C   UNK d   0      13.086   0.206  -0.881  0.00  0.00    -0.013 A 
ATOM     32  C   UNK d   0      13.274  -3.250   0.313  0.00  0.00     0.066 A 
BRANCH   8  33
ATOM     33  C   UNK d   0      14.342  -6.624   1.308  0.00  0.00     0.151 C 
BRANCH  33  34
ATOM     34  C   UNK d   0      13.472  -7.102   2.398  0.00  0.00     0.143 C 
ATOM     35  O   UNK d   0      13.941  -7.381   3.511  0.00  0.00    -0.650 OA
BRANCH  34  36
ATOM     36  O   UNK d   0      12.122  -7.241   2.173  0.00  0.00    -0.776 OA
ATOM     37  H   UNK d   0      11.450  -6.535   2.501  0.00  0.00     0.167 HD
ENDBRANCH  34  36
ENDBRANCH  33  34
ENDBRANCH   8  33
BRANCH  31  38
ATOM     38  C   UNK d   0      14.130   0.884  -0.025  0.00  0.00     0.151 C 
BRANCH  38  39
ATOM     39  C   UNK d   0      13.586   1.419   1.205  0.00  0.00     0.143 C 
ATOM     40  O   UNK d   0      12.592   2.166   1.223  0.00  0.00    -0.650 OA
BRANCH  39  41
ATOM     41  O   UNK d   0      14.188   1.094   2.420  0.00  0.00    -0.776 OA
ATOM     42  H   UNK d   0      13.845   0.253   2.895  0.00  0.00     0.167 HD
ENDBRANCH  39  41
ENDBRANCH  38  39
ENDBRANCH  31  38
BRANCH  27  43
ATOM     43  C   UNK d   0      12.760   2.125  -2.493  0.00  0.00     0.052 C 
BRANCH  43  44
ATOM     44  C   UNK d   0      13.673   2.142  -3.675  0.00  0.00     0.115 C 
BRANCH  44  45
ATOM     45  C   UNK d   0      13.881   3.569  -4.031  0.00  0.00     0.139 C 
ATOM     46  O   UNK d   0      15.058   4.006  -4.065  0.00  0.00    -0.650 OA
BRANCH  45  47
ATOM     47  O   UNK d   0      12.842   4.424  -4.328  0.00  0.00    -0.776 OA
ATOM     48  H   UNK d   0      12.989   5.392  -4.659  0.00  0.00     0.167 HD
ENDBRANCH  45  47
ENDBRANCH  44  45
ENDBRANCH  43  44
ENDBRANCH  27  43
BRANCH  24  49
ATOM     49  C   UNK d   0       9.383   0.535  -6.583  0.00  0.00     0.052 C 
BRANCH  49  50
ATOM     50  C   UNK d   0      10.417   1.632  -6.605  0.00  0.00     0.115 C 
BRANCH  50  51
ATOM     51  C   UNK d   0      11.453   1.548  -7.626  0.00  0.00     0.139 C 
ATOM     52  O   UNK d   0      12.658   1.339  -7.351  0.00  0.00    -0.650 OA
BRANCH  51  53
ATOM     53  O   UNK d   0      11.114   1.704  -8.962  0.00  0.00    -0.776 OA
ATOM     54  H   UNK d   0      11.715   2.263  -9.542  0.00  0.00     0.167 HD
ENDBRANCH  51  53
ENDBRANCH  50  51
ENDBRANCH  49  50
ENDBRANCH  24  49
BRANCH  21  55
ATOM     55  C   UNK d   0       9.544  -2.229  -7.953  0.00  0.00     0.151 C 
BRANCH  55  56
ATOM     56  C   UNK d   0      10.349  -1.609  -9.017  0.00  0.00     0.143 C 
ATOM     57  O   UNK d   0      11.576  -1.797  -9.132  0.00  0.00    -0.650 OA
BRANCH  56  58
ATOM     58  O   UNK d   0       9.694  -0.780  -9.927  0.00  0.00    -0.776 OA
ATOM     59  H   UNK d   0       9.831   0.235  -9.769  0.00  0.00     0.167 HD
ENDBRANCH  56  58
ENDBRANCH  55  56
ENDBRANCH  21  55
BRANCH  18  60
ATOM     60  C   UNK d   0       9.936  -6.912  -5.360  0.00  0.00     0.151 C 
BRANCH  60  61
ATOM     61  C   UNK d   0       8.689  -6.154  -5.179  0.00  0.00     0.143 C 
ATOM     62  O   UNK d   0       7.987  -5.658  -6.060  0.00  0.00    -0.650 OA
BRANCH  61  63
ATOM     63  O   UNK d   0       8.273  -5.992  -3.835  0.00  0.00    -0.776 OA
ATOM     64  H   UNK d   0       7.449  -6.451  -3.489  0.00  0.00     0.167 HD
ENDBRANCH  61  63
ENDBRANCH  60  61
ENDBRANCH  18  60
BRANCH  14  65
ATOM     65  C   UNK d   0      11.379  -8.178  -3.010  0.00  0.00     0.052 C 
BRANCH  65  66
ATOM     66  C   UNK d   0      10.274  -8.332  -2.026  0.00  0.00     0.115 C 
BRANCH  66  67
ATOM     67  C   UNK d   0      10.534  -8.135  -0.628  0.00  0.00     0.139 C 
ATOM     68  O   UNK d   0      11.437  -8.856  -0.064  0.00  0.00    -0.650 OA
BRANCH  67  69
ATOM     69  O   UNK d   0       9.915  -7.232   0.236  0.00  0.00    -0.776 OA
ATOM     70  H   UNK d   0      10.417  -6.347   0.393  0.00  0.00     0.167 HD
ENDBRANCH  67  69
ENDBRANCH  66  67
ENDBRANCH  65  66
ENDBRANCH  14  65
ENDBRANCH   6   7
ENDBRANCH   5   6
ENDBRANCH   2   5
TORSDOF 28
ENDMDL
MODEL 12
REMARK VINA RESULT:      -6.1     21.324     27.732
REMARK  28 active torsions:
REMARK  status: ('A' for Active; 'I' for Inactive)
REMARK    1  A    between atoms: C_2  and  O_3 
REMARK    2  A    between atoms: C_2  and  C_4 
REMARK    3  A    between atoms: C_4  and  C_5 
REMARK    4  A    between atoms: C_5  and  C_6 
REMARK    5  A    between atoms: C_7  and  C_8 
REMARK    6  A    between atoms: C_8  and  C_9 
REMARK    7  A    between atoms: C_9  and  O_11 
REMARK    8  A    between atoms: C_28  and  C_29 
REMARK    9  A    between atoms: C_29  and  C_30 
REMARK   10  A    between atoms: C_30  and  O_32 
REMARK   11  A    between atoms: C_33  and  C_34 
REMARK   12  A    between atoms: C_34  and  C_35 
REMARK   13  A    between atoms: C_35  and  C_36 
REMARK   14  A    between atoms: C_36  and  O_38 
REMARK   15  A    between atoms: C_39  and  C_40 
REMARK   16  A    between atoms: C_40  and  C_41 
REMARK   17  A    between atoms: C_41  and  C_42 
REMARK   18  A    between atoms: C_42  and  O_44 
REMARK   19  A    between atoms: C_45  and  C_46 
REMARK   20  A    between atoms: C_46  and  C_47 
REMARK   21  A    between atoms: C_47  and  O_49 
REMARK   22  A    between atoms: C_50  and  C_51 
REMARK   23  A    between atoms: C_51  and  C_52 
REMARK   24  A    between atoms: C_52  and  O_54 
REMARK   25  A    between atoms: C_55  and  C_56 
REMARK   26  A    between atoms: C_56  and  C_57 
REMARK   27  A    between atoms: C_57  and  C_58 
REMARK   28  A    between atoms: C_58  and  O_60 
ROOT
ATOM      1  O   UNK d   0     -18.315  -5.476  -4.955  0.00  0.00    -0.650 OA
ATOM      2  C   UNK d   0     -17.443  -4.689  -4.523  0.00  0.00     0.139 C 
ENDROOT
BRANCH   2   3
ATOM      3  O   UNK d   0     -16.117  -5.035  -4.619  0.00  0.00    -0.776 OA
ATOM      4  H   UNK d   0     -15.594  -4.886  -5.485  0.00  0.00     0.167 HD
ENDBRANCH   2   3
BRANCH   2   5
ATOM      5  C   UNK d   0     -17.844  -3.390  -3.911  0.00  0.00     0.115 C 
BRANCH   5   6
ATOM      6  C   UNK d   0     -18.817  -3.626  -2.788  0.00  0.00     0.052 C 
BRANCH   6   7
ATOM      7  C   UNK d   0     -18.179  -3.486  -1.427  0.00  0.00    -0.020 A 
ATOM      8  C   UNK d   0     -18.149  -2.423  -0.665  0.00  0.00    -0.011 A 
ATOM      9  C   UNK d   0     -17.418  -2.762   0.544  0.00  0.00     0.067 A 
ATOM     10  C   UNK d   0     -17.059  -2.102   1.730  0.00  0.00     0.062 C 
ATOM     11  N   UNK d   0     -17.033  -4.051   0.431  0.00  0.00    -0.248 NA
ATOM     12  C   UNK d   0     -16.587  -2.682   2.913  0.00  0.00     0.041 A 
ATOM     13  N   UNK d   0     -15.689  -3.663   3.122  0.00  0.00    -0.355 N 
ATOM     14  C   UNK d   0     -17.132  -2.263   4.140  0.00  0.00    -0.022 A 
ATOM     15  C   UNK d   0     -15.655  -3.882   4.450  0.00  0.00     0.042 A 
ATOM     16  H   UNK d   0     -15.076  -4.176   2.348  0.00  0.00     0.166 HD
ATOM     17  C   UNK d   0     -14.891  -4.794   5.206  0.00  0.00     0.062 C 
ATOM     18  C   UNK d   0     -16.546  -3.023   5.122  0.00  0.00    -0.013 A 
ATOM     19  C   UNK d   0     -14.641  -6.120   4.962  0.00  0.00     0.067 A 
ATOM     20  N   UNK d   0     -14.989  -6.590   3.761  0.00  0.00    -0.248 NA
ATOM     21  C   UNK d   0     -14.076  -7.231   5.709  0.00  0.00    -0.011 A 
ATOM     22  C   UNK d   0     -14.694  -7.928   3.670  0.00  0.00     0.066 A 
ATOM     23  C   UNK d   0     -14.971  -8.538   2.455  0.00  0.00     0.062 C 
ATOM     24  C   UNK d   0     -14.114  -8.287   4.949  0.00  0.00    -0.020 A 
ATOM     25  C   UNK d   0     -15.433  -7.936   1.275  0.00  0.00     0.041 A 
ATOM     26  N   UNK d   0     -16.337  -6.971   1.065  0.00  0.00    -0.355 N 
ATOM     27  C   UNK d   0     -14.882  -8.354   0.043  0.00  0.00    -0.022 A 
ATOM     28  C   UNK d   0     -16.379  -6.757  -0.259  0.00  0.00     0.042 A 
ATOM     29  H   UNK d   0     -16.959  -6.464   1.843  0.00  0.00     0.166 HD
ATOM     30  C   UNK d   0     -17.140  -5.860  -1.025  0.00  0.00     0.062 C 
ATOM     31  C   UNK d   0     -15.475  -7.613  -0.932  0.00  0.00    -0.013 A 
ATOM     32  C   UNK d   0     -17.461  -4.544  -0.732  0.00  0.00     0.066 A 
BRANCH   8  33
ATOM     33  C   UNK d   0     -18.740  -1.105  -0.962  0.00  0.00     0.151 C 
BRANCH  33  34
ATOM     34  C   UNK d   0     -17.779  -0.176  -1.584  0.00  0.00     0.143 C 
ATOM     35  O   UNK d   0     -17.967   0.263  -2.727  0.00  0.00    -0.650 OA
BRANCH  34  36
ATOM     36  O   UNK d   0     -16.659   0.206  -0.883  0.00  0.00    -0.776 OA
ATOM     37  H   UNK d   0     -15.713  -0.004  -1.231  0.00  0.00     0.167 HD
ENDBRANCH  34  36
ENDBRANCH  33  34
ENDBRANCH   8  33
BRANCH  31  38
ATOM     38  C   UNK d   0     -15.192  -7.700  -2.414  0.00  0.00     0.151 C 
BRANCH  38  39
ATOM     39  C   UNK d   0     -13.905  -7.143  -2.774  0.00  0.00     0.143 C 
ATOM     40  O   UNK d   0     -13.224  -7.594  -3.711  0.00  0.00    -0.650 OA
BRANCH  39  41
ATOM     41  O   UNK d   0     -13.400  -6.061  -2.053  0.00  0.00    -0.776 OA
ATOM     42  H   UNK d   0     -13.374  -6.157  -1.033  0.00  0.00     0.167 HD
ENDBRANCH  39  41
ENDBRANCH  38  39
ENDBRANCH  31  38
BRANCH  27  43
ATOM     43  C   UNK d   0     -13.840  -9.409  -0.232  0.00  0.00     0.052 C 
BRANCH  43  44
ATOM     44  C   UNK d   0     -12.442  -8.933  -0.003  0.00  0.00     0.115 C 
BRANCH  44  45
ATOM     45  C   UNK d   0     -11.585 -10.146   0.057  0.00  0.00     0.139 C 
ATOM     46  O   UNK d   0     -10.943 -10.468  -0.973  0.00  0.00    -0.650 OA
BRANCH  45  47
ATOM     47  O   UNK d   0     -11.465 -10.920   1.191  0.00  0.00    -0.776 OA
ATOM     48  H   UNK d   0     -10.560 -11.091   1.659  0.00  0.00     0.167 HD
ENDBRANCH  45  47
ENDBRANCH  44  45
ENDBRANCH  43  44
ENDBRANCH  27  43
BRANCH  24  49
ATOM     49  C   UNK d   0     -13.607  -9.626   5.296  0.00  0.00     0.052 C 
BRANCH  49  50
ATOM     50  C   UNK d   0     -12.483 -10.017   4.371  0.00  0.00     0.115 C 
BRANCH  50  51
ATOM     51  C   UNK d   0     -11.684 -11.176   4.748  0.00  0.00     0.139 C 
ATOM     52  O   UNK d   0     -10.644 -11.509   4.133  0.00  0.00    -0.650 OA
BRANCH  51  53
ATOM     53  O   UNK d   0     -12.073 -11.956   5.826  0.00  0.00    -0.776 OA
ATOM     54  H   UNK d   0     -13.047 -11.971   6.075  0.00  0.00     0.167 HD
ENDBRANCH  51  53
ENDBRANCH  50  51
ENDBRANCH  49  50
ENDBRANCH  24  49
BRANCH  21  55
ATOM     55  C   UNK d   0     -13.554  -7.121   7.103  0.00  0.00     0.151 C 
BRANCH  55  56
ATOM     56  C   UNK d   0     -14.570  -6.605   8.033  0.00  0.00     0.143 C 
ATOM     57  O   UNK d   0     -14.445  -5.521   8.636  0.00  0.00    -0.650 OA
BRANCH  56  58
ATOM     58  O   UNK d   0     -15.714  -7.375   8.237  0.00  0.00    -0.776 OA
ATOM     59  H   UNK d   0     -16.551  -7.060   7.715  0.00  0.00     0.167 HD
ENDBRANCH  56  58
ENDBRANCH  55  56
ENDBRANCH  21  55
BRANCH  18  60
ATOM     60  C   UNK d   0     -16.846  -2.912   6.596  0.00  0.00     0.151 C 
BRANCH  60  61
ATOM     61  C   UNK d   0     -17.765  -4.018   6.906  0.00  0.00     0.143 C 
ATOM     62  O   UNK d   0     -18.805  -4.308   6.313  0.00  0.00    -0.650 OA
BRANCH  61  63
ATOM     63  O   UNK d   0     -17.389  -4.822   8.009  0.00  0.00    -0.776 OA
ATOM     64  H   UNK d   0     -16.946  -5.714   7.873  0.00  0.00     0.167 HD
ENDBRANCH  61  63
ENDBRANCH  60  61
ENDBRANCH  18  60
BRANCH  14  65
ATOM     65  C   UNK d   0     -18.080  -1.143   4.461  0.00  0.00     0.052 C 
BRANCH  65  66
ATOM     66  C   UNK d   0     -17.390   0.083   4.945  0.00  0.00     0.115 C 
BRANCH  66  67
ATOM     67  C   UNK d   0     -17.740   0.641   6.221  0.00  0.00     0.139 C 
ATOM     68  O   UNK d   0     -16.987   1.556   6.719  0.00  0.00    -0.650 OA
BRANCH  67  69
ATOM     69  O   UNK d   0     -18.831   0.311   7.026  0.00  0.00    -0.776 OA
ATOM     70  H   UNK d   0     -18.823   0.710   7.975  0.00  0.00     0.167 HD
ENDBRANCH  67  69
ENDBRANCH  66  67
ENDBRANCH  65  66
ENDBRANCH  14  65
ENDBRANCH   6   7
ENDBRANCH   5   6
ENDBRANCH   2   5
TORSDOF 28
ENDMDL
MODEL 13
REMARK VINA RESULT:      -6.1     21.579     26.322
REMARK  28 active torsions:
REMARK  status: ('A' for Active; 'I' for Inactive)
REMARK    1  A    between atoms: C_2  and  O_3 
REMARK    2  A    between atoms: C_2  and  C_4 
REMARK    3  A    between atoms: C_4  and  C_5 
REMARK    4  A    between atoms: C_5  and  C_6 
REMARK    5  A    between atoms: C_7  and  C_8 
REMARK    6  A    between atoms: C_8  and  C_9 
REMARK    7  A    between atoms: C_9  and  O_11 
REMARK    8  A    between atoms: C_28  and  C_29 
REMARK    9  A    between atoms: C_29  and  C_30 
REMARK   10  A    between atoms: C_30  and  O_32 
REMARK   11  A    between atoms: C_33  and  C_34 
REMARK   12  A    between atoms: C_34  and  C_35 
REMARK   13  A    between atoms: C_35  and  C_36 
REMARK   14  A    between atoms: C_36  and  O_38 
REMARK   15  A    between atoms: C_39  and  C_40 
REMARK   16  A    between atoms: C_40  and  C_41 
REMARK   17  A    between atoms: C_41  and  C_42 
REMARK   18  A    between atoms: C_42  and  O_44 
REMARK   19  A    between atoms: C_45  and  C_46 
REMARK   20  A    between atoms: C_46  and  C_47 
REMARK   21  A    between atoms: C_47  and  O_49 
REMARK   22  A    between atoms: C_50  and  C_51 
REMARK   23  A    between atoms: C_51  and  C_52 
REMARK   24  A    between atoms: C_52  and  O_54 
REMARK   25  A    between atoms: C_55  and  C_56 
REMARK   26  A    between atoms: C_56  and  C_57 
REMARK   27  A    between atoms: C_57  and  C_58 
REMARK   28  A    between atoms: C_58  and  O_60 
ROOT
ATOM      1  O   UNK d   0      14.954   1.144 -14.512  0.00  0.00    -0.650 OA
ATOM      2  C   UNK d   0      15.158   0.874 -13.308  0.00  0.00     0.139 C 
ENDROOT
BRANCH   2   3
ATOM      3  O   UNK d   0      14.115   0.428 -12.532  0.00  0.00    -0.776 OA
ATOM      4  H   UNK d   0      13.656  -0.464 -12.727  0.00  0.00     0.167 HD
ENDBRANCH   2   3
BRANCH   2   5
ATOM      5  C   UNK d   0      16.520   1.035 -12.724  0.00  0.00     0.115 C 
BRANCH   5   6
ATOM      6  C   UNK d   0      16.749   2.469 -12.333  0.00  0.00     0.052 C 
BRANCH   6   7
ATOM      7  C   UNK d   0      17.241   2.613 -10.913  0.00  0.00    -0.020 A 
ATOM      8  C   UNK d   0      18.477   2.757 -10.507  0.00  0.00    -0.011 A 
ATOM      9  C   UNK d   0      18.462   2.845  -9.056  0.00  0.00     0.067 A 
ATOM     10  C   UNK d   0      19.417   3.021  -8.043  0.00  0.00     0.062 C 
ATOM     11  N   UNK d   0      17.176   2.740  -8.662  0.00  0.00    -0.248 NA
ATOM     12  C   UNK d   0      19.181   3.362  -6.706  0.00  0.00     0.041 A 
ATOM     13  N   UNK d   0      18.251   2.931  -5.833  0.00  0.00    -0.355 N 
ATOM     14  C   UNK d   0      19.973   4.359  -6.109  0.00  0.00    -0.022 A 
ATOM     15  C   UNK d   0      18.428   3.635  -4.698  0.00  0.00     0.042 A 
ATOM     16  H   UNK d   0      17.498   2.132  -6.007  0.00  0.00     0.166 HD
ATOM     17  C   UNK d   0      17.732   3.583  -3.474  0.00  0.00     0.062 C 
ATOM     18  C   UNK d   0      19.498   4.540  -4.833  0.00  0.00    -0.013 A 
ATOM     19  C   UNK d   0      16.380   3.530  -3.252  0.00  0.00     0.067 A 
ATOM     20  N   UNK d   0      15.602   3.298  -4.312  0.00  0.00    -0.248 NA
ATOM     21  C   UNK d   0      15.504   3.681  -2.102  0.00  0.00    -0.011 A 
ATOM     22  C   UNK d   0      14.280   3.288  -3.939  0.00  0.00     0.066 A 
ATOM     23  C   UNK d   0      13.359   3.019  -4.941  0.00  0.00     0.062 C 
ATOM     24  C   UNK d   0      14.276   3.542  -2.512  0.00  0.00    -0.020 A 
ATOM     25  C   UNK d   0      13.617   2.666  -6.275  0.00  0.00     0.041 A 
ATOM     26  N   UNK d   0      14.532   3.105  -7.148  0.00  0.00    -0.355 N 
ATOM     27  C   UNK d   0      12.825   1.662  -6.873  0.00  0.00    -0.022 A 
ATOM     28  C   UNK d   0      14.352   2.411  -8.283  0.00  0.00     0.042 A 
ATOM     29  H   UNK d   0      15.281   3.916  -6.975  0.00  0.00     0.166 HD
ATOM     30  C   UNK d   0      15.030   2.458  -9.511  0.00  0.00     0.062 C 
ATOM     31  C   UNK d   0      13.284   1.494  -8.143  0.00  0.00    -0.013 A 
ATOM     32  C   UNK d   0      16.391   2.598  -9.731  0.00  0.00     0.066 A 
BRANCH   8  33
ATOM     33  C   UNK d   0      19.684   2.816 -11.352  0.00  0.00     0.151 C 
BRANCH  33  34
ATOM     34  C   UNK d   0      19.926   4.160 -11.908  0.00  0.00     0.143 C 
ATOM     35  O   UNK d   0      19.987   4.340 -13.132  0.00  0.00    -0.650 OA
BRANCH  34  36
ATOM     36  O   UNK d   0      20.088   5.225 -11.053  0.00  0.00    -0.776 OA
ATOM     37  H   UNK d   0      20.307   6.166 -11.408  0.00  0.00     0.167 HD
ENDBRANCH  34  36
ENDBRANCH  33  34
ENDBRANCH   8  33
BRANCH  31  38
ATOM     38  C   UNK d   0      12.750   0.512  -9.161  0.00  0.00     0.151 C 
BRANCH  38  39
ATOM     39  C   UNK d   0      11.755   1.096 -10.035  0.00  0.00     0.143 C 
ATOM     40  O   UNK d   0      12.059   1.722 -11.065  0.00  0.00    -0.650 OA
BRANCH  39  41
ATOM     41  O   UNK d   0      10.402   0.957  -9.724  0.00  0.00    -0.776 OA
ATOM     42  H   UNK d   0       9.897   1.813  -9.472  0.00  0.00     0.167 HD
ENDBRANCH  39  41
ENDBRANCH  38  39
ENDBRANCH  31  38
BRANCH  27  43
ATOM     43  C   UNK d   0      11.674   0.877  -6.294  0.00  0.00     0.052 C 
BRANCH  43  44
ATOM     44  C   UNK d   0      10.369   1.600  -6.371  0.00  0.00     0.115 C 
BRANCH  44  45
ATOM     45  C   UNK d   0       9.310   0.559  -6.420  0.00  0.00     0.139 C 
ATOM     46  O   UNK d   0       9.170  -0.092  -7.485  0.00  0.00    -0.650 OA
BRANCH  45  47
ATOM     47  O   UNK d   0       8.486   0.279  -5.352  0.00  0.00    -0.776 OA
ATOM     48  H   UNK d   0       7.478   0.082  -5.458  0.00  0.00     0.167 HD
ENDBRANCH  45  47
ENDBRANCH  44  45
ENDBRANCH  43  44
ENDBRANCH  27  43
BRANCH  24  49
ATOM     49  C   UNK d   0      13.069   3.583  -1.669  0.00  0.00     0.052 C 
BRANCH  49  50
ATOM     50  C   UNK d   0      12.692   2.193  -1.225  0.00  0.00     0.115 C 
BRANCH  50  51
ATOM     51  C   UNK d   0      12.543   1.969   0.207  0.00  0.00     0.139 C 
ATOM     52  O   UNK d   0      13.444   2.249   1.033  0.00  0.00    -0.650 OA
BRANCH  51  53
ATOM     53  O   UNK d   0      11.366   1.425   0.697  0.00  0.00    -0.776 OA
ATOM     54  H   UNK d   0      10.655   1.159   0.039  0.00  0.00     0.167 HD
ENDBRANCH  51  53
ENDBRANCH  50  51
ENDBRANCH  49  50
ENDBRANCH  24  49
BRANCH  21  55
ATOM     55  C   UNK d   0      15.985   3.943  -0.714  0.00  0.00     0.151 C 
BRANCH  55  56
ATOM     56  C   UNK d   0      15.929   5.373  -0.372  0.00  0.00     0.143 C 
ATOM     57  O   UNK d   0      14.897   5.925   0.055  0.00  0.00    -0.650 OA
BRANCH  56  58
ATOM     58  O   UNK d   0      17.091   6.126  -0.539  0.00  0.00    -0.776 OA
ATOM     59  H   UNK d   0      17.030   6.866  -1.262  0.00  0.00     0.167 HD
ENDBRANCH  56  58
ENDBRANCH  55  56
ENDBRANCH  21  55
BRANCH  18  60
ATOM     60  C   UNK d   0      20.053   5.527  -3.836  0.00  0.00     0.151 C 
BRANCH  60  61
ATOM     61  C   UNK d   0      19.112   6.657  -3.820  0.00  0.00     0.143 C 
ATOM     62  O   UNK d   0      18.224   6.872  -2.994  0.00  0.00    -0.650 OA
BRANCH  61  63
ATOM     63  O   UNK d   0      19.267   7.585  -4.878  0.00  0.00    -0.776 OA
ATOM     64  H   UNK d   0      18.916   8.524  -4.799  0.00  0.00     0.167 HD
ENDBRANCH  61  63
ENDBRANCH  60  61
ENDBRANCH  18  60
BRANCH  14  65
ATOM     65  C   UNK d   0      21.193   5.076  -6.612  0.00  0.00     0.052 C 
BRANCH  65  66
ATOM     66  C   UNK d   0      20.882   6.094  -7.651  0.00  0.00     0.115 C 
BRANCH  66  67
ATOM     67  C   UNK d   0      21.207   7.473  -7.416  0.00  0.00     0.139 C 
ATOM     68  O   UNK d   0      22.372   7.759  -6.955  0.00  0.00    -0.650 OA
BRANCH  67  69
ATOM     69  O   UNK d   0      20.397   8.588  -7.628  0.00  0.00    -0.776 OA
ATOM     70  H   UNK d   0      20.069   9.072  -6.780  0.00  0.00     0.167 HD
ENDBRANCH  67  69
ENDBRANCH  66  67
ENDBRANCH  65  66
ENDBRANCH  14  65
ENDBRANCH   6   7
ENDBRANCH   5   6
ENDBRANCH   2   5
TORSDOF 28
ENDMDL
MODEL 14
REMARK VINA RESULT:      -6.1     34.761     38.362
REMARK  28 active torsions:
REMARK  status: ('A' for Active; 'I' for Inactive)
REMARK    1  A    between atoms: C_2  and  O_3 
REMARK    2  A    between atoms: C_2  and  C_4 
REMARK    3  A    between atoms: C_4  and  C_5 
REMARK    4  A    between atoms: C_5  and  C_6 
REMARK    5  A    between atoms: C_7  and  C_8 
REMARK    6  A    between atoms: C_8  and  C_9 
REMARK    7  A    between atoms: C_9  and  O_11 
REMARK    8  A    between atoms: C_28  and  C_29 
REMARK    9  A    between atoms: C_29  and  C_30 
REMARK   10  A    between atoms: C_30  and  O_32 
REMARK   11  A    between atoms: C_33  and  C_34 
REMARK   12  A    between atoms: C_34  and  C_35 
REMARK   13  A    between atoms: C_35  and  C_36 
REMARK   14  A    between atoms: C_36  and  O_38 
REMARK   15  A    between atoms: C_39  and  C_40 
REMARK   16  A    between atoms: C_40  and  C_41 
REMARK   17  A    between atoms: C_41  and  C_42 
REMARK   18  A    between atoms: C_42  and  O_44 
REMARK   19  A    between atoms: C_45  and  C_46 
REMARK   20  A    between atoms: C_46  and  C_47 
REMARK   21  A    between atoms: C_47  and  O_49 
REMARK   22  A    between atoms: C_50  and  C_51 
REMARK   23  A    between atoms: C_51  and  C_52 
REMARK   24  A    between atoms: C_52  and  O_54 
REMARK   25  A    between atoms: C_55  and  C_56 
REMARK   26  A    between atoms: C_56  and  C_57 
REMARK   27  A    between atoms: C_57  and  C_58 
REMARK   28  A    between atoms: C_58  and  O_60 
ROOT
ATOM      1  O   UNK d   0      15.046  -1.906 -18.532  0.00  0.00    -0.650 OA
ATOM      2  C   UNK d   0      14.662  -0.724 -18.677  0.00  0.00     0.139 C 
ENDROOT
BRANCH   2   3
ATOM      3  O   UNK d   0      13.403  -0.369 -18.259  0.00  0.00    -0.776 OA
ATOM      4  H   UNK d   0      13.262   0.403 -17.604  0.00  0.00     0.167 HD
ENDBRANCH   2   3
BRANCH   2   5
ATOM      5  C   UNK d   0      15.566   0.285 -19.299  0.00  0.00     0.115 C 
BRANCH   5   6
ATOM      6  C   UNK d   0      14.819   1.079 -20.336  0.00  0.00     0.052 C 
BRANCH   6   7
ATOM      7  C   UNK d   0      15.175   2.546 -20.312  0.00  0.00    -0.020 A 
ATOM      8  C   UNK d   0      14.665   3.479 -19.548  0.00  0.00    -0.011 A 
ATOM      9  C   UNK d   0      15.312   4.735 -19.889  0.00  0.00     0.067 A 
ATOM     10  C   UNK d   0      15.240   6.064 -19.443  0.00  0.00     0.062 C 
ATOM     11  N   UNK d   0      16.197   4.476 -20.874  0.00  0.00    -0.248 NA
ATOM     12  C   UNK d   0      16.149   7.096 -19.704  0.00  0.00     0.041 A 
ATOM     13  N   UNK d   0      16.784   7.452 -20.837  0.00  0.00    -0.355 N 
ATOM     14  C   UNK d   0      16.567   7.919 -18.642  0.00  0.00    -0.022 A 
ATOM     15  C   UNK d   0      17.600   8.474 -20.520  0.00  0.00     0.042 A 
ATOM     16  H   UNK d   0      16.643   7.002 -21.844  0.00  0.00     0.166 HD
ATOM     17  C   UNK d   0      18.485   9.220 -21.324  0.00  0.00     0.062 C 
ATOM     18  C   UNK d   0      17.492   8.795 -19.153  0.00  0.00    -0.013 A 
ATOM     19  C   UNK d   0      19.379   8.774 -22.265  0.00  0.00     0.067 A 
ATOM     20  N   UNK d   0      19.284   7.493 -22.630  0.00  0.00    -0.248 NA
ATOM     21  C   UNK d   0      20.483   9.352 -23.012  0.00  0.00    -0.011 A 
ATOM     22  C   UNK d   0      20.247   7.190 -23.561  0.00  0.00     0.066 A 
ATOM     23  C   UNK d   0      20.239   5.895 -24.057  0.00  0.00     0.062 C 
ATOM     24  C   UNK d   0      20.990   8.419 -23.766  0.00  0.00    -0.020 A 
ATOM     25  C   UNK d   0      19.310   4.878 -23.791  0.00  0.00     0.041 A 
ATOM     26  N   UNK d   0      18.690   4.514 -22.662  0.00  0.00    -0.355 N 
ATOM     27  C   UNK d   0      18.887   4.055 -24.858  0.00  0.00    -0.022 A 
ATOM     28  C   UNK d   0      17.882   3.489 -22.974  0.00  0.00     0.042 A 
ATOM     29  H   UNK d   0      18.840   4.960 -21.649  0.00  0.00     0.166 HD
ATOM     30  C   UNK d   0      17.003   2.732 -22.182  0.00  0.00     0.062 C 
ATOM     31  C   UNK d   0      17.983   3.174 -24.350  0.00  0.00    -0.013 A 
ATOM     32  C   UNK d   0      16.164   3.177 -21.173  0.00  0.00     0.066 A 
BRANCH   8  33
ATOM     33  C   UNK d   0      13.618   3.310 -18.524  0.00  0.00     0.151 C 
BRANCH  33  34
ATOM     34  C   UNK d   0      14.168   2.990 -17.194  0.00  0.00     0.143 C 
ATOM     35  O   UNK d   0      15.061   3.686 -16.691  0.00  0.00    -0.650 OA
BRANCH  34  36
ATOM     36  O   UNK d   0      13.681   1.903 -16.505  0.00  0.00    -0.776 OA
ATOM     37  H   UNK d   0      14.310   1.174 -16.143  0.00  0.00     0.167 HD
ENDBRANCH  34  36
ENDBRANCH  33  34
ENDBRANCH   8  33
BRANCH  31  38
ATOM     38  C   UNK d   0      17.248   2.105 -25.124  0.00  0.00     0.151 C 
BRANCH  38  39
ATOM     39  C   UNK d   0      15.904   2.500 -25.489  0.00  0.00     0.143 C 
ATOM     40  O   UNK d   0      15.664   3.551 -26.108  0.00  0.00    -0.650 OA
BRANCH  39  41
ATOM     41  O   UNK d   0      14.830   1.681 -25.142  0.00  0.00    -0.776 OA
ATOM     42  H   UNK d   0      14.189   1.416 -25.896  0.00  0.00     0.167 HD
ENDBRANCH  39  41
ENDBRANCH  38  39
ENDBRANCH  31  38
BRANCH  27  43
ATOM     43  C   UNK d   0      19.304   4.075 -26.308  0.00  0.00     0.052 C 
BRANCH  43  44
ATOM     44  C   UNK d   0      18.653   5.166 -27.095  0.00  0.00     0.115 C 
BRANCH  44  45
ATOM     45  C   UNK d   0      19.735   6.100 -27.502  0.00  0.00     0.139 C 
ATOM     46  O   UNK d   0      20.678   5.646 -28.195  0.00  0.00    -0.650 OA
BRANCH  45  47
ATOM     47  O   UNK d   0      19.739   7.434 -27.156  0.00  0.00    -0.776 OA
ATOM     48  H   UNK d   0      19.337   7.785 -26.272  0.00  0.00     0.167 HD
ENDBRANCH  45  47
ENDBRANCH  44  45
ENDBRANCH  43  44
ENDBRANCH  27  43
BRANCH  24  49
ATOM     49  C   UNK d   0      22.103   8.579 -24.716  0.00  0.00     0.052 C 
BRANCH  49  50
ATOM     50  C   UNK d   0      23.396   8.118 -24.093  0.00  0.00     0.115 C 
BRANCH  50  51
ATOM     51  C   UNK d   0      24.493   9.075 -24.053  0.00  0.00     0.139 C 
ATOM     52  O   UNK d   0      25.696   8.724 -24.002  0.00  0.00    -0.650 OA
BRANCH  51  53
ATOM     53  O   UNK d   0      24.220  10.434 -24.070  0.00  0.00    -0.776 OA
ATOM     54  H   UNK d   0      24.424  10.950 -24.907  0.00  0.00     0.167 HD
ENDBRANCH  51  53
ENDBRANCH  50  51
ENDBRANCH  49  50
ENDBRANCH  24  49
BRANCH  21  55
ATOM     55  C   UNK d   0      20.914  10.776 -22.899  0.00  0.00     0.151 C 
BRANCH  55  56
ATOM     56  C   UNK d   0      21.526  11.065 -21.594  0.00  0.00     0.143 C 
ATOM     57  O   UNK d   0      20.923  11.667 -20.683  0.00  0.00    -0.650 OA
BRANCH  56  58
ATOM     58  O   UNK d   0      22.837  10.640 -21.383  0.00  0.00    -0.776 OA
ATOM     59  H   UNK d   0      23.549  11.393 -21.403  0.00  0.00     0.167 HD
ENDBRANCH  56  58
ENDBRANCH  55  56
ENDBRANCH  21  55
BRANCH  18  60
ATOM     60  C   UNK d   0      18.210   9.856 -18.355  0.00  0.00     0.151 C 
BRANCH  60  61
ATOM     61  C   UNK d   0      19.571   9.345 -18.136  0.00  0.00     0.143 C 
ATOM     62  O   UNK d   0      19.895   8.190 -17.857  0.00  0.00    -0.650 OA
BRANCH  61  63
ATOM     63  O   UNK d   0      20.603  10.306 -18.266  0.00  0.00    -0.776 OA
ATOM     64  H   UNK d   0      21.204  10.529 -17.493  0.00  0.00     0.167 HD
ENDBRANCH  61  63
ENDBRANCH  60  61
ENDBRANCH  18  60
BRANCH  14  65
ATOM     65  C   UNK d   0      16.091   8.003 -17.220  0.00  0.00     0.052 C 
BRANCH  65  66
ATOM     66  C   UNK d   0      16.930   7.214 -16.278  0.00  0.00     0.115 C 
BRANCH  66  67
ATOM     67  C   UNK d   0      17.540   7.864 -15.153  0.00  0.00     0.139 C 
ATOM     68  O   UNK d   0      16.794   8.211 -14.165  0.00  0.00    -0.650 OA
BRANCH  67  69
ATOM     69  O   UNK d   0      18.887   8.183 -14.979  0.00  0.00    -0.776 OA
ATOM     70  H   UNK d   0      19.555   7.421 -15.162  0.00  0.00     0.167 HD
ENDBRANCH  67  69
ENDBRANCH  66  67
ENDBRANCH  65  66
ENDBRANCH  14  65
ENDBRANCH   6   7
ENDBRANCH   5   6
ENDBRANCH   2   5
TORSDOF 28
ENDMDL
MODEL 15
REMARK VINA RESULT:      -6.1      5.876     11.291
REMARK  28 active torsions:
REMARK  status: ('A' for Active; 'I' for Inactive)
REMARK    1  A    between atoms: C_2  and  O_3 
REMARK    2  A    between atoms: C_2  and  C_4 
REMARK    3  A    between atoms: C_4  and  C_5 
REMARK    4  A    between atoms: C_5  and  C_6 
REMARK    5  A    between atoms: C_7  and  C_8 
REMARK    6  A    between atoms: C_8  and  C_9 
REMARK    7  A    between atoms: C_9  and  O_11 
REMARK    8  A    between atoms: C_28  and  C_29 
REMARK    9  A    between atoms: C_29  and  C_30 
REMARK   10  A    between atoms: C_30  and  O_32 
REMARK   11  A    between atoms: C_33  and  C_34 
REMARK   12  A    between atoms: C_34  and  C_35 
REMARK   13  A    between atoms: C_35  and  C_36 
REMARK   14  A    between atoms: C_36  and  O_38 
REMARK   15  A    between atoms: C_39  and  C_40 
REMARK   16  A    between atoms: C_40  and  C_41 
REMARK   17  A    between atoms: C_41  and  C_42 
REMARK   18  A    between atoms: C_42  and  O_44 
REMARK   19  A    between atoms: C_45  and  C_46 
REMARK   20  A    between atoms: C_46  and  C_47 
REMARK   21  A    between atoms: C_47  and  O_49 
REMARK   22  A    between atoms: C_50  and  C_51 
REMARK   23  A    between atoms: C_51  and  C_52 
REMARK   24  A    between atoms: C_52  and  O_54 
REMARK   25  A    between atoms: C_55  and  C_56 
REMARK   26  A    between atoms: C_56  and  C_57 
REMARK   27  A    between atoms: C_57  and  C_58 
REMARK   28  A    between atoms: C_58  and  O_60 
ROOT
ATOM      1  O   UNK d   0      14.793 -12.011  11.520  0.00  0.00    -0.650 OA
ATOM      2  C   UNK d   0      14.211 -12.289  10.448  0.00  0.00     0.139 C 
ENDROOT
BRANCH   2   3
ATOM      3  O   UNK d   0      13.545 -13.485  10.333  0.00  0.00    -0.776 OA
ATOM      4  H   UNK d   0      13.526 -14.154  11.106  0.00  0.00     0.167 HD
ENDBRANCH   2   3
BRANCH   2   5
ATOM      5  C   UNK d   0      14.245 -11.329   9.308  0.00  0.00     0.115 C 
BRANCH   5   6
ATOM      6  C   UNK d   0      12.873 -11.193   8.705  0.00  0.00     0.052 C 
BRANCH   6   7
ATOM      7  C   UNK d   0      12.915 -10.838   7.238  0.00  0.00    -0.020 A 
ATOM      8  C   UNK d   0      12.768  -9.655   6.699  0.00  0.00    -0.011 A 
ATOM      9  C   UNK d   0      12.877  -9.807   5.257  0.00  0.00     0.067 A 
ATOM     10  C   UNK d   0      12.836  -8.954   4.144  0.00  0.00     0.062 C 
ATOM     11  N   UNK d   0      13.085 -11.117   5.007  0.00  0.00    -0.248 NA
ATOM     12  C   UNK d   0      13.241  -9.246   2.837  0.00  0.00     0.041 A 
ATOM     13  N   UNK d   0      13.055 -10.341   2.075  0.00  0.00    -0.355 N 
ATOM     14  C   UNK d   0      14.031  -8.311   2.144  0.00  0.00    -0.022 A 
ATOM     15  C   UNK d   0      13.713 -10.127   0.920  0.00  0.00     0.042 A 
ATOM     16  H   UNK d   0      12.455 -11.238   2.341  0.00  0.00     0.166 HD
ATOM     17  C   UNK d   0      13.844 -10.944  -0.221  0.00  0.00     0.062 C 
ATOM     18  C   UNK d   0      14.337  -8.865   0.926  0.00  0.00    -0.013 A 
ATOM     19  C   UNK d   0      14.116 -12.286  -0.294  0.00  0.00     0.067 A 
ATOM     20  N   UNK d   0      14.060 -12.977   0.848  0.00  0.00    -0.248 NA
ATOM     21  C   UNK d   0      14.486 -13.222  -1.343  0.00  0.00    -0.011 A 
ATOM     22  C   UNK d   0      14.369 -14.296   0.622  0.00  0.00     0.066 A 
ATOM     23  C   UNK d   0      14.312 -15.140   1.721  0.00  0.00     0.062 C 
ATOM     24  C   UNK d   0      14.637 -14.396  -0.800  0.00  0.00    -0.020 A 
ATOM     25  C   UNK d   0      13.890 -14.829   3.023  0.00  0.00     0.041 A 
ATOM     26  N   UNK d   0      14.087 -13.747   3.786  0.00  0.00    -0.355 N 
ATOM     27  C   UNK d   0      13.093 -15.767   3.716  0.00  0.00    -0.022 A 
ATOM     28  C   UNK d   0      13.440 -13.962   4.942  0.00  0.00     0.042 A 
ATOM     29  H   UNK d   0      14.700 -12.851   3.522  0.00  0.00     0.166 HD
ATOM     30  C   UNK d   0      13.308 -13.162   6.089  0.00  0.00     0.062 C 
ATOM     31  C   UNK d   0      12.804 -15.226   4.931  0.00  0.00    -0.013 A 
ATOM     32  C   UNK d   0      13.119 -11.791   6.157  0.00  0.00     0.066 A 
BRANCH   8  33
ATOM     33  C   UNK d   0      12.528  -8.384   7.406  0.00  0.00     0.151 C 
BRANCH  33  34
ATOM     34  C   UNK d   0      13.704  -7.496   7.400  0.00  0.00     0.143 C 
ATOM     35  O   UNK d   0      13.599  -6.302   7.087  0.00  0.00    -0.650 OA
BRANCH  34  36
ATOM     36  O   UNK d   0      14.935  -8.004   7.745  0.00  0.00    -0.776 OA
ATOM     37  H   UNK d   0      15.027  -8.752   8.446  0.00  0.00     0.167 HD
ENDBRANCH  34  36
ENDBRANCH  33  34
ENDBRANCH   8  33
BRANCH  31  38
ATOM     38  C   UNK d   0      11.963 -15.863   6.013  0.00  0.00     0.151 C 
BRANCH  38  39
ATOM     39  C   UNK d   0      10.554 -15.557   5.883  0.00  0.00     0.143 C 
ATOM     40  O   UNK d   0       9.780 -16.260   5.211  0.00  0.00    -0.650 OA
BRANCH  39  41
ATOM     41  O   UNK d   0      10.033 -14.436   6.529  0.00  0.00    -0.776 OA
ATOM     42  H   UNK d   0       9.038 -14.239   6.382  0.00  0.00     0.167 HD
ENDBRANCH  39  41
ENDBRANCH  38  39
ENDBRANCH  31  38
BRANCH  27  43
ATOM     43  C   UNK d   0      12.612 -17.127   3.276  0.00  0.00     0.052 C 
BRANCH  43  44
ATOM     44  C   UNK d   0      13.455 -18.247   3.791  0.00  0.00     0.115 C 
BRANCH  44  45
ATOM     45  C   UNK d   0      12.521 -19.324   4.211  0.00  0.00     0.139 C 
ATOM     46  O   UNK d   0      12.246 -20.226   3.380  0.00  0.00    -0.650 OA
BRANCH  45  47
ATOM     47  O   UNK d   0      11.953 -19.374   5.465  0.00  0.00    -0.776 OA
ATOM     48  H   UNK d   0      12.292 -18.804   6.257  0.00  0.00     0.167 HD
ENDBRANCH  45  47
ENDBRANCH  44  45
ENDBRANCH  43  44
ENDBRANCH  27  43
BRANCH  24  49
ATOM     49  C   UNK d   0      14.974 -15.643  -1.507  0.00  0.00     0.052 C 
BRANCH  49  50
ATOM     50  C   UNK d   0      16.461 -15.886  -1.462  0.00  0.00     0.115 C 
BRANCH  50  51
ATOM     51  C   UNK d   0      16.978 -16.635  -0.324  0.00  0.00     0.139 C 
ATOM     52  O   UNK d   0      16.690 -17.838  -0.120  0.00  0.00    -0.650 OA
BRANCH  51  53
ATOM     53  O   UNK d   0      17.821 -16.011   0.583  0.00  0.00    -0.776 OA
ATOM     54  H   UNK d   0      18.425 -15.282   0.246  0.00  0.00     0.167 HD
ENDBRANCH  51  53
ENDBRANCH  50  51
ENDBRANCH  49  50
ENDBRANCH  24  49
BRANCH  21  55
ATOM     55  C   UNK d   0      14.647 -12.846  -2.778  0.00  0.00     0.151 C 
BRANCH  55  56
ATOM     56  C   UNK d   0      16.031 -12.467  -3.098  0.00  0.00     0.143 C 
ATOM     57  O   UNK d   0      16.418 -12.242  -4.262  0.00  0.00    -0.650 OA
BRANCH  56  58
ATOM     58  O   UNK d   0      16.935 -12.360  -2.042  0.00  0.00    -0.776 OA
ATOM     59  H   UNK d   0      17.927 -12.507  -2.301  0.00  0.00     0.167 HD
ENDBRANCH  56  58
ENDBRANCH  55  56
ENDBRANCH  21  55
BRANCH  18  60
ATOM     60  C   UNK d   0      15.178  -8.203  -0.138  0.00  0.00     0.151 C 
BRANCH  60  61
ATOM     61  C   UNK d   0      16.525  -8.777  -0.003  0.00  0.00     0.143 C 
ATOM     62  O   UNK d   0      17.337  -8.561   0.898  0.00  0.00    -0.650 OA
BRANCH  61  63
ATOM     63  O   UNK d   0      16.905  -9.672  -1.032  0.00  0.00    -0.776 OA
ATOM     64  H   UNK d   0      16.780 -10.663  -0.929  0.00  0.00     0.167 HD
ENDBRANCH  61  63
ENDBRANCH  60  61
ENDBRANCH  18  60
BRANCH  14  65
ATOM     65  C   UNK d   0      14.431  -6.908   2.503  0.00  0.00     0.052 C 
BRANCH  65  66
ATOM     66  C   UNK d   0      15.796  -6.824   3.087  0.00  0.00     0.115 C 
BRANCH  66  67
ATOM     67  C   UNK d   0      15.981  -7.020   4.497  0.00  0.00     0.139 C 
ATOM     68  O   UNK d   0      16.130  -8.220   4.935  0.00  0.00    -0.650 OA
BRANCH  67  69
ATOM     69  O   UNK d   0      16.020  -6.048   5.496  0.00  0.00    -0.776 OA
ATOM     70  H   UNK d   0      15.567  -6.301   6.386  0.00  0.00     0.167 HD
ENDBRANCH  67  69
ENDBRANCH  66  67
ENDBRANCH  65  66
ENDBRANCH  14  65
ENDBRANCH   6   7
ENDBRANCH   5   6
ENDBRANCH   2   5
TORSDOF 28
ENDMDL
MODEL 16
REMARK VINA RESULT:      -6.1     34.506     37.539
REMARK  28 active torsions:
REMARK  status: ('A' for Active; 'I' for Inactive)
REMARK    1  A    between atoms: C_2  and  O_3 
REMARK    2  A    between atoms: C_2  and  C_4 
REMARK    3  A    between atoms: C_4  and  C_5 
REMARK    4  A    between atoms: C_5  and  C_6 
REMARK    5  A    between atoms: C_7  and  C_8 
REMARK    6  A    between atoms: C_8  and  C_9 
REMARK    7  A    between atoms: C_9  and  O_11 
REMARK    8  A    between atoms: C_28  and  C_29 
REMARK    9  A    between atoms: C_29  and  C_30 
REMARK   10  A    between atoms: C_30  and  O_32 
REMARK   11  A    between atoms: C_33  and  C_34 
REMARK   12  A    between atoms: C_34  and  C_35 
REMARK   13  A    between atoms: C_35  and  C_36 
REMARK   14  A    between atoms: C_36  and  O_38 
REMARK   15  A    between atoms: C_39  and  C_40 
REMARK   16  A    between atoms: C_40  and  C_41 
REMARK   17  A    between atoms: C_41  and  C_42 
REMARK   18  A    between atoms: C_42  and  O_44 
REMARK   19  A    between atoms: C_45  and  C_46 
REMARK   20  A    between atoms: C_46  and  C_47 
REMARK   21  A    between atoms: C_47  and  O_49 
REMARK   22  A    between atoms: C_50  and  C_51 
REMARK   23  A    between atoms: C_51  and  C_52 
REMARK   24  A    between atoms: C_52  and  O_54 
REMARK   25  A    between atoms: C_55  and  C_56 
REMARK   26  A    between atoms: C_56  and  C_57 
REMARK   27  A    between atoms: C_57  and  C_58 
REMARK   28  A    between atoms: C_58  and  O_60 
ROOT
ATOM      1  O   UNK d   0      12.990  -0.793 -18.165  0.00  0.00    -0.650 OA
ATOM      2  C   UNK d   0      13.771   0.040 -18.675  0.00  0.00     0.139 C 
ENDROOT
BRANCH   2   3
ATOM      3  O   UNK d   0      13.801   1.324 -18.185  0.00  0.00    -0.776 OA
ATOM      4  H   UNK d   0      14.686   1.774 -17.939  0.00  0.00     0.167 HD
ENDBRANCH   2   3
BRANCH   2   5
ATOM      5  C   UNK d   0      14.657  -0.359 -19.805  0.00  0.00     0.115 C 
BRANCH   5   6
ATOM      6  C   UNK d   0      14.350   0.470 -21.022  0.00  0.00     0.052 C 
BRANCH   6   7
ATOM      7  C   UNK d   0      15.548   1.244 -21.516  0.00  0.00    -0.020 A 
ATOM      8  C   UNK d   0      16.515   0.813 -22.286  0.00  0.00    -0.011 A 
ATOM      9  C   UNK d   0      17.447   1.910 -22.485  0.00  0.00     0.067 A 
ATOM     10  C   UNK d   0      18.640   2.109 -23.198  0.00  0.00     0.062 C 
ATOM     11  N   UNK d   0      16.974   2.969 -21.795  0.00  0.00    -0.248 NA
ATOM     12  C   UNK d   0      19.256   3.329 -23.496  0.00  0.00     0.041 A 
ATOM     13  N   UNK d   0      19.458   4.427 -22.743  0.00  0.00    -0.355 N 
ATOM     14  C   UNK d   0      19.726   3.553 -24.803  0.00  0.00    -0.022 A 
ATOM     15  C   UNK d   0      20.038   5.344 -23.541  0.00  0.00     0.042 A 
ATOM     16  H   UNK d   0      19.214   4.545 -21.664  0.00  0.00     0.166 HD
ATOM     17  C   UNK d   0      20.462   6.659 -23.263  0.00  0.00     0.062 C 
ATOM     18  C   UNK d   0      20.222   4.832 -24.840  0.00  0.00    -0.013 A 
ATOM     19  C   UNK d   0      19.809   7.647 -22.571  0.00  0.00     0.067 A 
ATOM     20  N   UNK d   0      18.717   7.289 -21.892  0.00  0.00    -0.248 NA
ATOM     21  C   UNK d   0      19.988   9.076 -22.372  0.00  0.00    -0.011 A 
ATOM     22  C   UNK d   0      18.166   8.381 -21.265  0.00  0.00     0.066 A 
ATOM     23  C   UNK d   0      17.041   8.144 -20.489  0.00  0.00     0.062 C 
ATOM     24  C   UNK d   0      19.021   9.500 -21.611  0.00  0.00    -0.020 A 
ATOM     25  C   UNK d   0      16.446   6.908 -20.192  0.00  0.00     0.041 A 
ATOM     26  N   UNK d   0      16.231   5.822 -20.944  0.00  0.00    -0.355 N 
ATOM     27  C   UNK d   0      15.978   6.683 -18.879  0.00  0.00    -0.022 A 
ATOM     28  C   UNK d   0      15.645   4.909 -20.153  0.00  0.00     0.042 A 
ATOM     29  H   UNK d   0      16.467   5.709 -22.031  0.00  0.00     0.166 HD
ATOM     30  C   UNK d   0      15.210   3.601 -20.419  0.00  0.00     0.062 C 
ATOM     31  C   UNK d   0      15.470   5.421 -18.845  0.00  0.00    -0.013 A 
ATOM     32  C   UNK d   0      15.833   2.633 -21.190  0.00  0.00     0.066 A 
BRANCH   8  33
ATOM     33  C   UNK d   0      16.656  -0.539 -22.856  0.00  0.00     0.151 C 
BRANCH  33  34
ATOM     34  C   UNK d   0      16.276  -0.601 -24.279  0.00  0.00     0.143 C 
ATOM     35  O   UNK d   0      15.116  -0.358 -24.639  0.00  0.00    -0.650 OA
BRANCH  34  36
ATOM     36  O   UNK d   0      17.226  -0.934 -25.218  0.00  0.00    -0.776 OA
ATOM     37  H   UNK d   0      17.385  -1.913 -25.491  0.00  0.00     0.167 HD
ENDBRANCH  34  36
ENDBRANCH  33  34
ENDBRANCH   8  33
BRANCH  31  38
ATOM     38  C   UNK d   0      14.867   4.734 -17.642  0.00  0.00     0.151 C 
BRANCH  38  39
ATOM     39  C   UNK d   0      15.816   3.898 -16.938  0.00  0.00     0.143 C 
ATOM     40  O   UNK d   0      15.465   2.911 -16.268  0.00  0.00    -0.650 OA
BRANCH  39  41
ATOM     41  O   UNK d   0      17.177   4.197 -17.007  0.00  0.00    -0.776 OA
ATOM     42  H   UNK d   0      17.798   3.664 -16.390  0.00  0.00     0.167 HD
ENDBRANCH  39  41
ENDBRANCH  38  39
ENDBRANCH  31  38
BRANCH  27  43
ATOM     43  C   UNK d   0      15.994   7.604 -17.685  0.00  0.00     0.052 C 
BRANCH  43  44
ATOM     44  C   UNK d   0      17.334   7.701 -17.031  0.00  0.00     0.115 C 
BRANCH  44  45
ATOM     45  C   UNK d   0      17.105   7.549 -15.570  0.00  0.00     0.139 C 
ATOM     46  O   UNK d   0      16.739   8.559 -14.920  0.00  0.00    -0.650 OA
BRANCH  45  47
ATOM     47  O   UNK d   0      17.272   6.352 -14.908  0.00  0.00    -0.776 OA
ATOM     48  H   UNK d   0      18.199   5.928 -14.740  0.00  0.00     0.167 HD
ENDBRANCH  45  47
ENDBRANCH  44  45
ENDBRANCH  43  44
ENDBRANCH  27  43
BRANCH  24  49
ATOM     49  C   UNK d   0      18.837  10.879 -21.127  0.00  0.00     0.052 C 
BRANCH  49  50
ATOM     50  C   UNK d   0      19.141  10.963 -19.653  0.00  0.00     0.115 C 
BRANCH  50  51
ATOM     51  C   UNK d   0      20.450  10.494 -19.217  0.00  0.00     0.139 C 
ATOM     52  O   UNK d   0      20.596   9.504 -18.462  0.00  0.00    -0.650 OA
BRANCH  51  53
ATOM     53  O   UNK d   0      21.592  11.156 -19.640  0.00  0.00    -0.776 OA
ATOM     54  H   UNK d   0      22.154  11.623 -18.950  0.00  0.00     0.167 HD
ENDBRANCH  51  53
ENDBRANCH  50  51
ENDBRANCH  49  50
ENDBRANCH  24  49
BRANCH  21  55
ATOM     55  C   UNK d   0      21.108   9.867 -22.961  0.00  0.00     0.151 C 
BRANCH  55  56
ATOM     56  C   UNK d   0      20.772  10.394 -24.292  0.00  0.00     0.143 C 
ATOM     57  O   UNK d   0      19.740  11.058 -24.515  0.00  0.00    -0.650 OA
BRANCH  56  58
ATOM     58  O   UNK d   0      21.656  10.130 -25.337  0.00  0.00    -0.776 OA
ATOM     59  H   UNK d   0      22.648  10.034 -25.056  0.00  0.00     0.167 HD
ENDBRANCH  56  58
ENDBRANCH  55  56
ENDBRANCH  21  55
BRANCH  18  60
ATOM     60  C   UNK d   0      20.822   5.492 -26.057  0.00  0.00     0.151 C 
BRANCH  60  61
ATOM     61  C   UNK d   0      19.937   6.622 -26.381  0.00  0.00     0.143 C 
ATOM     62  O   UNK d   0      20.239   7.815 -26.413  0.00  0.00    -0.650 OA
BRANCH  61  63
ATOM     63  O   UNK d   0      18.600   6.271 -26.687  0.00  0.00    -0.776 OA
ATOM     64  H   UNK d   0      18.168   5.465 -26.272  0.00  0.00     0.167 HD
ENDBRANCH  61  63
ENDBRANCH  60  61
ENDBRANCH  18  60
BRANCH  14  65
ATOM     65  C   UNK d   0      19.832   2.624 -25.979  0.00  0.00     0.052 C 
BRANCH  65  66
ATOM     66  C   UNK d   0      18.767   2.847 -26.993  0.00  0.00     0.115 C 
BRANCH  66  67
ATOM     67  C   UNK d   0      17.394   2.928 -26.578  0.00  0.00     0.139 C 
ATOM     68  O   UNK d   0      16.805   4.070 -26.626  0.00  0.00    -0.650 OA
BRANCH  67  69
ATOM     69  O   UNK d   0      16.582   1.896 -26.111  0.00  0.00    -0.776 OA
ATOM     70  H   UNK d   0      15.722   1.723 -26.651  0.00  0.00     0.167 HD
ENDBRANCH  67  69
ENDBRANCH  66  67
ENDBRANCH  65  66
ENDBRANCH  14  65
ENDBRANCH   6   7
ENDBRANCH   5   6
ENDBRANCH   2   5
TORSDOF 28
ENDMDL
MODEL 17
REMARK VINA RESULT:      -6.1     27.837     31.322
REMARK  28 active torsions:
REMARK  status: ('A' for Active; 'I' for Inactive)
REMARK    1  A    between atoms: C_2  and  O_3 
REMARK    2  A    between atoms: C_2  and  C_4 
REMARK    3  A    between atoms: C_4  and  C_5 
REMARK    4  A    between atoms: C_5  and  C_6 
REMARK    5  A    between atoms: C_7  and  C_8 
REMARK    6  A    between atoms: C_8  and  C_9 
REMARK    7  A    between atoms: C_9  and  O_11 
REMARK    8  A    between atoms: C_28  and  C_29 
REMARK    9  A    between atoms: C_29  and  C_30 
REMARK   10  A    between atoms: C_30  and  O_32 
REMARK   11  A    between atoms: C_33  and  C_34 
REMARK   12  A    between atoms: C_34  and  C_35 
REMARK   13  A    between atoms: C_35  and  C_36 
REMARK   14  A    between atoms: C_36  and  O_38 
REMARK   15  A    between atoms: C_39  and  C_40 
REMARK   16  A    between atoms: C_40  and  C_41 
REMARK   17  A    between atoms: C_41  and  C_42 
REMARK   18  A    between atoms: C_42  and  O_44 
REMARK   19  A    between atoms: C_45  and  C_46 
REMARK   20  A    between atoms: C_46  and  C_47 
REMARK   21  A    between atoms: C_47  and  O_49 
REMARK   22  A    between atoms: C_50  and  C_51 
REMARK   23  A    between atoms: C_51  and  C_52 
REMARK   24  A    between atoms: C_52  and  O_54 
REMARK   25  A    between atoms: C_55  and  C_56 
REMARK   26  A    between atoms: C_56  and  C_57 
REMARK   27  A    between atoms: C_57  and  C_58 
REMARK   28  A    between atoms: C_58  and  O_60 
ROOT
ATOM      1  O   UNK d   0      18.610   6.402 -10.639  0.00  0.00    -0.650 OA
ATOM      2  C   UNK d   0      18.857   6.637 -11.842  0.00  0.00     0.139 C 
ENDROOT
BRANCH   2   3
ATOM      3  O   UNK d   0      20.097   6.331 -12.348  0.00  0.00    -0.776 OA
ATOM      4  H   UNK d   0      20.706   7.058 -12.729  0.00  0.00     0.167 HD
ENDBRANCH   2   3
BRANCH   2   5
ATOM      5  C   UNK d   0      17.813   7.245 -12.716  0.00  0.00     0.115 C 
BRANCH   5   6
ATOM      6  C   UNK d   0      18.266   7.231 -14.151  0.00  0.00     0.052 C 
BRANCH   6   7
ATOM      7  C   UNK d   0      17.387   6.373 -15.029  0.00  0.00    -0.020 A 
ATOM      8  C   UNK d   0      16.766   6.727 -16.125  0.00  0.00    -0.011 A 
ATOM      9  C   UNK d   0      16.037   5.570 -16.617  0.00  0.00     0.067 A 
ATOM     10  C   UNK d   0      15.217   5.284 -17.720  0.00  0.00     0.062 C 
ATOM     11  N   UNK d   0      16.266   4.557 -15.756  0.00  0.00    -0.248 NA
ATOM     12  C   UNK d   0      14.825   4.022 -18.179  0.00  0.00     0.041 A 
ATOM     13  N   UNK d   0      14.407   2.927 -17.514  0.00  0.00    -0.355 N 
ATOM     14  C   UNK d   0      14.899   3.745 -19.556  0.00  0.00    -0.022 A 
ATOM     15  C   UNK d   0      14.223   1.961 -18.433  0.00  0.00     0.042 A 
ATOM     16  H   UNK d   0      14.228   2.845 -16.419  0.00  0.00     0.166 HD
ATOM     17  C   UNK d   0      13.793   0.627 -18.283  0.00  0.00     0.062 C 
ATOM     18  C   UNK d   0      14.522   2.436 -19.725  0.00  0.00    -0.013 A 
ATOM     19  C   UNK d   0      14.182  -0.305 -17.355  0.00  0.00     0.067 A 
ATOM     20  N   UNK d   0      14.915   0.134 -16.328  0.00  0.00    -0.248 NA
ATOM     21  C   UNK d   0      14.015  -1.738 -17.180  0.00  0.00    -0.011 A 
ATOM     22  C   UNK d   0      15.240  -0.909 -15.495  0.00  0.00     0.066 A 
ATOM     23  C   UNK d   0      15.971  -0.587 -14.361  0.00  0.00     0.062 C 
ATOM     24  C   UNK d   0      14.640  -2.086 -16.092  0.00  0.00    -0.020 A 
ATOM     25  C   UNK d   0      16.344   0.689 -13.911  0.00  0.00     0.041 A 
ATOM     26  N   UNK d   0      16.773   1.772 -14.570  0.00  0.00    -0.355 N 
ATOM     27  C   UNK d   0      16.265   0.968 -12.529  0.00  0.00    -0.022 A 
ATOM     28  C   UNK d   0      16.967   2.735 -13.655  0.00  0.00     0.042 A 
ATOM     29  H   UNK d   0      16.963   1.850 -15.669  0.00  0.00     0.166 HD
ATOM     30  C   UNK d   0      17.402   4.063 -13.789  0.00  0.00     0.062 C 
ATOM     31  C   UNK d   0      16.656   2.260 -12.358  0.00  0.00    -0.013 A 
ATOM     32  C   UNK d   0      17.072   4.975 -14.779  0.00  0.00     0.066 A 
BRANCH   8  33
ATOM     33  C   UNK d   0      16.783   8.057 -16.762  0.00  0.00     0.151 C 
BRANCH  33  34
ATOM     34  C   UNK d   0      17.725   8.136 -17.893  0.00  0.00     0.143 C 
ATOM     35  O   UNK d   0      17.565   8.968 -18.797  0.00  0.00    -0.650 OA
BRANCH  34  36
ATOM     36  O   UNK d   0      18.794   7.272 -17.943  0.00  0.00    -0.776 OA
ATOM     37  H   UNK d   0      19.749   7.613 -18.119  0.00  0.00     0.167 HD
ENDBRANCH  34  36
ENDBRANCH  33  34
ENDBRANCH   8  33
BRANCH  31  38
ATOM     38  C   UNK d   0      16.720   3.006 -11.046  0.00  0.00     0.151 C 
BRANCH  38  39
ATOM     39  C   UNK d   0      17.954   2.772 -10.326  0.00  0.00     0.143 C 
ATOM     40  O   UNK d   0      19.065   3.077 -10.794  0.00  0.00    -0.650 OA
BRANCH  39  41
ATOM     41  O   UNK d   0      17.910   2.185  -9.062  0.00  0.00    -0.776 OA
ATOM     42  H   UNK d   0      18.793   2.138  -8.544  0.00  0.00     0.167 HD
ENDBRANCH  39  41
ENDBRANCH  38  39
ENDBRANCH  31  38
BRANCH  27  43
ATOM     43  C   UNK d   0      15.843   0.070 -11.394  0.00  0.00     0.052 C 
BRANCH  43  44
ATOM     44  C   UNK d   0      14.460   0.351 -10.901  0.00  0.00     0.115 C 
BRANCH  44  45
ATOM     45  C   UNK d   0      13.680  -0.900 -11.089  0.00  0.00     0.139 C 
ATOM     46  O   UNK d   0      14.310  -1.983 -11.171  0.00  0.00    -0.650 OA
BRANCH  45  47
ATOM     47  O   UNK d   0      12.305  -0.918 -11.171  0.00  0.00    -0.776 OA
ATOM     48  H   UNK d   0      11.732  -1.693 -10.801  0.00  0.00     0.167 HD
ENDBRANCH  45  47
ENDBRANCH  44  45
ENDBRANCH  43  44
ENDBRANCH  27  43
BRANCH  24  49
ATOM     49  C   UNK d   0      14.696  -3.441 -15.518  0.00  0.00     0.052 C 
BRANCH  49  50
ATOM     50  C   UNK d   0      14.092  -3.451 -14.137  0.00  0.00     0.115 C 
BRANCH  50  51
ATOM     51  C   UNK d   0      12.656  -3.674 -14.042  0.00  0.00     0.139 C 
ATOM     52  O   UNK d   0      12.014  -4.328 -14.898  0.00  0.00    -0.650 OA
BRANCH  51  53
ATOM     53  O   UNK d   0      11.950  -3.150 -12.970  0.00  0.00    -0.776 OA
ATOM     54  H   UNK d   0      11.675  -2.184 -13.009  0.00  0.00     0.167 HD
ENDBRANCH  51  53
ENDBRANCH  50  51
ENDBRANCH  49  50
ENDBRANCH  24  49
BRANCH  21  55
ATOM     55  C   UNK d   0      13.245  -2.609 -18.116  0.00  0.00     0.151 C 
BRANCH  55  56
ATOM     56  C   UNK d   0      11.802  -2.586 -17.830  0.00  0.00     0.143 C 
ATOM     57  O   UNK d   0      10.960  -3.138 -18.565  0.00  0.00    -0.650 OA
BRANCH  56  58
ATOM     58  O   UNK d   0      11.378  -1.913 -16.686  0.00  0.00    -0.776 OA
ATOM     59  H   UNK d   0      10.512  -2.286 -16.256  0.00  0.00     0.167 HD
ENDBRANCH  56  58
ENDBRANCH  55  56
ENDBRANCH  21  55
BRANCH  18  60
ATOM     60  C   UNK d   0      14.464   1.717 -21.050  0.00  0.00     0.151 C 
BRANCH  60  61
ATOM     61  C   UNK d   0      15.529   0.704 -21.006  0.00  0.00     0.143 C 
ATOM     62  O   UNK d   0      15.407  -0.509 -21.179  0.00  0.00    -0.650 OA
BRANCH  61  63
ATOM     63  O   UNK d   0      16.826   1.203 -20.734  0.00  0.00    -0.776 OA
ATOM     64  H   UNK d   0      16.962   1.983 -20.116  0.00  0.00     0.167 HD
ENDBRANCH  61  63
ENDBRANCH  60  61
ENDBRANCH  18  60
BRANCH  14  65
ATOM     65  C   UNK d   0      15.202   4.642 -20.722  0.00  0.00     0.052 C 
BRANCH  65  66
ATOM     66  C   UNK d   0      16.610   4.534 -21.189  0.00  0.00     0.115 C 
BRANCH  66  67
ATOM     67  C   UNK d   0      17.653   5.212 -20.471  0.00  0.00     0.139 C 
ATOM     68  O   UNK d   0      18.017   6.377 -20.874  0.00  0.00    -0.650 OA
BRANCH  67  69
ATOM     69  O   UNK d   0      18.351   4.761 -19.352  0.00  0.00    -0.776 OA
ATOM     70  H   UNK d   0      18.940   5.461 -18.879  0.00  0.00     0.167 HD
ENDBRANCH  67  69
ENDBRANCH  66  67
ENDBRANCH  65  66
ENDBRANCH  14  65
ENDBRANCH   6   7
ENDBRANCH   5   6
ENDBRANCH   2   5
TORSDOF 28
ENDMDL
MODEL 18
REMARK VINA RESULT:      -6.0     23.805     29.027
REMARK  28 active torsions:
REMARK  status: ('A' for Active; 'I' for Inactive)
REMARK    1  A    between atoms: C_2  and  O_3 
REMARK    2  A    between atoms: C_2  and  C_4 
REMARK    3  A    between atoms: C_4  and  C_5 
REMARK    4  A    between atoms: C_5  and  C_6 
REMARK    5  A    between atoms: C_7  and  C_8 
REMARK    6  A    between atoms: C_8  and  C_9 
REMARK    7  A    between atoms: C_9  and  O_11 
REMARK    8  A    between atoms: C_28  and  C_29 
REMARK    9  A    between atoms: C_29  and  C_30 
REMARK   10  A    between atoms: C_30  and  O_32 
REMARK   11  A    between atoms: C_33  and  C_34 
REMARK   12  A    between atoms: C_34  and  C_35 
REMARK   13  A    between atoms: C_35  and  C_36 
REMARK   14  A    between atoms: C_36  and  O_38 
REMARK   15  A    between atoms: C_39  and  C_40 
REMARK   16  A    between atoms: C_40  and  C_41 
REMARK   17  A    between atoms: C_41  and  C_42 
REMARK   18  A    between atoms: C_42  and  O_44 
REMARK   19  A    between atoms: C_45  and  C_46 
REMARK   20  A    between atoms: C_46  and  C_47 
REMARK   21  A    between atoms: C_47  and  O_49 
REMARK   22  A    between atoms: C_50  and  C_51 
REMARK   23  A    between atoms: C_51  and  C_52 
REMARK   24  A    between atoms: C_52  and  O_54 
REMARK   25  A    between atoms: C_55  and  C_56 
REMARK   26  A    between atoms: C_56  and  C_57 
REMARK   27  A    between atoms: C_57  and  C_58 
REMARK   28  A    between atoms: C_58  and  O_60 
ROOT
ATOM      1  O   UNK d   0     -14.779  -7.826  -3.053  0.00  0.00    -0.650 OA
ATOM      2  C   UNK d   0     -14.029  -7.613  -2.075  0.00  0.00     0.139 C 
ENDROOT
BRANCH   2   3
ATOM      3  O   UNK d   0     -13.287  -6.457  -2.034  0.00  0.00    -0.776 OA
ATOM      4  H   UNK d   0     -12.595  -6.300  -1.298  0.00  0.00     0.167 HD
ENDBRANCH   2   3
BRANCH   2   5
ATOM      5  C   UNK d   0     -13.945  -8.605  -0.966  0.00  0.00     0.115 C 
BRANCH   5   6
ATOM      6  C   UNK d   0     -15.326  -9.012  -0.529  0.00  0.00     0.052 C 
BRANCH   6   7
ATOM      7  C   UNK d   0     -15.763  -8.316   0.738  0.00  0.00    -0.020 A 
ATOM      8  C   UNK d   0     -15.881  -8.834   1.933  0.00  0.00    -0.011 A 
ATOM      9  C   UNK d   0     -16.340  -7.786   2.829  0.00  0.00     0.067 A 
ATOM     10  C   UNK d   0     -16.632  -7.681   4.198  0.00  0.00     0.062 C 
ATOM     11  N   UNK d   0     -16.481  -6.664   2.094  0.00  0.00    -0.248 NA
ATOM     12  C   UNK d   0     -16.797  -6.507   4.941  0.00  0.00     0.041 A 
ATOM     13  N   UNK d   0     -17.447  -5.362   4.657  0.00  0.00    -0.355 N 
ATOM     14  C   UNK d   0     -16.162  -6.398   6.192  0.00  0.00    -0.022 A 
ATOM     15  C   UNK d   0     -17.234  -4.527   5.692  0.00  0.00     0.042 A 
ATOM     16  H   UNK d   0     -18.060  -5.155   3.753  0.00  0.00     0.166 HD
ATOM     17  C   UNK d   0     -17.683  -3.209   5.910  0.00  0.00     0.062 C 
ATOM     18  C   UNK d   0     -16.433  -5.141   6.674  0.00  0.00    -0.013 A 
ATOM     19  C   UNK d   0     -17.706  -2.151   5.037  0.00  0.00     0.067 A 
ATOM     20  N   UNK d   0     -17.462  -2.421   3.752  0.00  0.00    -0.248 NA
ATOM     21  C   UNK d   0     -17.925  -0.718   5.139  0.00  0.00    -0.011 A 
ATOM     22  C   UNK d   0     -17.504  -1.268   3.007  0.00  0.00     0.066 A 
ATOM     23  C   UNK d   0     -17.304  -1.410   1.641  0.00  0.00     0.062 C 
ATOM     24  C   UNK d   0     -17.801  -0.206   3.948  0.00  0.00    -0.020 A 
ATOM     25  C   UNK d   0     -17.153  -2.599   0.913  0.00  0.00     0.041 A 
ATOM     26  N   UNK d   0     -16.495  -3.732   1.188  0.00  0.00    -0.355 N 
ATOM     27  C   UNK d   0     -17.795  -2.709  -0.341  0.00  0.00    -0.022 A 
ATOM     28  C   UNK d   0     -16.699  -4.563   0.154  0.00  0.00     0.042 A 
ATOM     29  H   UNK d   0     -15.871  -3.934   2.093  0.00  0.00     0.166 HD
ATOM     30  C   UNK d   0     -16.251  -5.873  -0.080  0.00  0.00     0.062 C 
ATOM     31  C   UNK d   0     -17.513  -3.949  -0.827  0.00  0.00    -0.013 A 
ATOM     32  C   UNK d   0     -16.149  -6.916   0.827  0.00  0.00     0.066 A 
BRANCH   8  33
ATOM     33  C   UNK d   0     -15.608 -10.230   2.324  0.00  0.00     0.151 C 
BRANCH  33  34
ATOM     34  C   UNK d   0     -14.336 -10.380   3.054  0.00  0.00     0.143 C 
ATOM     35  O   UNK d   0     -13.256 -10.102   2.514  0.00  0.00    -0.650 OA
BRANCH  34  36
ATOM     36  O   UNK d   0     -14.352 -10.837   4.351  0.00  0.00    -0.776 OA
ATOM     37  H   UNK d   0     -14.212 -11.833   4.568  0.00  0.00     0.167 HD
ENDBRANCH  34  36
ENDBRANCH  33  34
ENDBRANCH   8  33
BRANCH  31  38
ATOM     38  C   UNK d   0     -17.997  -4.522  -2.139  0.00  0.00     0.151 C 
BRANCH  38  39
ATOM     39  C   UNK d   0     -17.083  -4.271  -3.233  0.00  0.00     0.143 C 
ATOM     40  O   UNK d   0     -17.364  -3.503  -4.170  0.00  0.00    -0.650 OA
BRANCH  39  41
ATOM     41  O   UNK d   0     -15.841  -4.904  -3.250  0.00  0.00    -0.776 OA
ATOM     42  H   UNK d   0     -15.276  -4.790  -4.097  0.00  0.00     0.167 HD
ENDBRANCH  39  41
ENDBRANCH  38  39
ENDBRANCH  31  38
BRANCH  27  43
ATOM     43  C   UNK d   0     -18.643  -1.701  -1.075  0.00  0.00     0.052 C 
BRANCH  43  44
ATOM     44  C   UNK d   0     -17.846  -0.764  -1.922  0.00  0.00     0.115 C 
BRANCH  44  45
ATOM     45  C   UNK d   0     -18.759   0.346  -2.302  0.00  0.00     0.139 C 
ATOM     46  O   UNK d   0     -18.436   1.071  -3.275  0.00  0.00    -0.650 OA
BRANCH  45  47
ATOM     47  O   UNK d   0     -19.939   0.604  -1.638  0.00  0.00    -0.776 OA
ATOM     48  H   UNK d   0     -20.099   1.468  -1.095  0.00  0.00     0.167 HD
ENDBRANCH  45  47
ENDBRANCH  44  45
ENDBRANCH  43  44
ENDBRANCH  27  43
BRANCH  24  49
ATOM     49  C   UNK d   0     -17.981   1.210   3.588  0.00  0.00     0.052 C 
BRANCH  49  50
ATOM     50  C   UNK d   0     -19.403   1.465   3.156  0.00  0.00     0.115 C 
BRANCH  50  51
ATOM     51  C   UNK d   0     -19.670   1.476   1.724  0.00  0.00     0.139 C 
ATOM     52  O   UNK d   0     -20.759   1.091   1.236  0.00  0.00    -0.650 OA
BRANCH  51  53
ATOM     53  O   UNK d   0     -18.694   1.925   0.847  0.00  0.00    -0.776 OA
ATOM     54  H   UNK d   0     -17.746   1.628   0.999  0.00  0.00     0.167 HD
ENDBRANCH  51  53
ENDBRANCH  50  51
ENDBRANCH  49  50
ENDBRANCH  24  49
BRANCH  21  55
ATOM     55  C   UNK d   0     -18.240  -0.009   6.415  0.00  0.00     0.151 C 
BRANCH  55  56
ATOM     56  C   UNK d   0     -17.049   0.626   7.001  0.00  0.00     0.143 C 
ATOM     57  O   UNK d   0     -16.086  -0.028   7.448  0.00  0.00    -0.650 OA
BRANCH  56  58
ATOM     58  O   UNK d   0     -17.014   2.018   7.049  0.00  0.00    -0.776 OA
ATOM     59  H   UNK d   0     -17.887   2.487   6.749  0.00  0.00     0.167 HD
ENDBRANCH  56  58
ENDBRANCH  55  56
ENDBRANCH  21  55
BRANCH  18  60
ATOM     60  C   UNK d   0     -15.938  -4.595   7.990  0.00  0.00     0.151 C 
BRANCH  60  61
ATOM     61  C   UNK d   0     -16.929  -5.006   8.996  0.00  0.00     0.143 C 
ATOM     62  O   UNK d   0     -18.108  -4.657   9.062  0.00  0.00    -0.650 OA
BRANCH  61  63
ATOM     63  O   UNK d   0     -16.451  -5.901   9.983  0.00  0.00    -0.776 OA
ATOM     64  H   UNK d   0     -15.511  -5.834  10.332  0.00  0.00     0.167 HD
ENDBRANCH  61  63
ENDBRANCH  60  61
ENDBRANCH  18  60
BRANCH  14  65
ATOM     65  C   UNK d   0     -15.410  -7.416   7.002  0.00  0.00     0.052 C 
BRANCH  65  66
ATOM     66  C   UNK d   0     -14.040  -7.673   6.484  0.00  0.00     0.115 C 
BRANCH  66  67
ATOM     67  C   UNK d   0     -13.411  -6.710   5.624  0.00  0.00     0.139 C 
ATOM     68  O   UNK d   0     -13.212  -7.024   4.393  0.00  0.00    -0.650 OA
BRANCH  67  69
ATOM     69  O   UNK d   0     -12.969  -5.430   5.956  0.00  0.00    -0.776 OA
ATOM     70  H   UNK d   0     -12.123  -5.386   6.542  0.00  0.00     0.167 HD
ENDBRANCH  67  69
ENDBRANCH  66  67
ENDBRANCH  65  66
ENDBRANCH  14  65
ENDBRANCH   6   7
ENDBRANCH   5   6
ENDBRANCH   2   5
TORSDOF 28
ENDMDL
MODEL 19
REMARK VINA RESULT:      -6.0      5.768     11.270
REMARK  28 active torsions:
REMARK  status: ('A' for Active; 'I' for Inactive)
REMARK    1  A    between atoms: C_2  and  O_3 
REMARK    2  A    between atoms: C_2  and  C_4 
REMARK    3  A    between atoms: C_4  and  C_5 
REMARK    4  A    between atoms: C_5  and  C_6 
REMARK    5  A    between atoms: C_7  and  C_8 
REMARK    6  A    between atoms: C_8  and  C_9 
REMARK    7  A    between atoms: C_9  and  O_11 
REMARK    8  A    between atoms: C_28  and  C_29 
REMARK    9  A    between atoms: C_29  and  C_30 
REMARK   10  A    between atoms: C_30  and  O_32 
REMARK   11  A    between atoms: C_33  and  C_34 
REMARK   12  A    between atoms: C_34  and  C_35 
REMARK   13  A    between atoms: C_35  and  C_36 
REMARK   14  A    between atoms: C_36  and  O_38 
REMARK   15  A    between atoms: C_39  and  C_40 
REMARK   16  A    between atoms: C_40  and  C_41 
REMARK   17  A    between atoms: C_41  and  C_42 
REMARK   18  A    between atoms: C_42  and  O_44 
REMARK   19  A    between atoms: C_45  and  C_46 
REMARK   20  A    between atoms: C_46  and  C_47 
REMARK   21  A    between atoms: C_47  and  O_49 
REMARK   22  A    between atoms: C_50  and  C_51 
REMARK   23  A    between atoms: C_51  and  C_52 
REMARK   24  A    between atoms: C_52  and  O_54 
REMARK   25  A    between atoms: C_55  and  C_56 
REMARK   26  A    between atoms: C_56  and  C_57 
REMARK   27  A    between atoms: C_57  and  C_58 
REMARK   28  A    between atoms: C_58  and  O_60 
ROOT
ATOM      1  O   UNK d   0      14.781 -13.046  11.254  0.00  0.00    -0.650 OA
ATOM      2  C   UNK d   0      13.957 -13.010  10.313  0.00  0.00     0.139 C 
ENDROOT
BRANCH   2   3
ATOM      3  O   UNK d   0      13.331 -14.168   9.921  0.00  0.00    -0.776 OA
ATOM      4  H   UNK d   0      13.475 -14.555   8.986  0.00  0.00     0.167 HD
ENDBRANCH   2   3
BRANCH   2   5
ATOM      5  C   UNK d   0      13.661 -11.720   9.627  0.00  0.00     0.115 C 
BRANCH   5   6
ATOM      6  C   UNK d   0      14.825 -11.315   8.763  0.00  0.00     0.052 C 
BRANCH   6   7
ATOM      7  C   UNK d   0      14.420 -11.041   7.334  0.00  0.00    -0.020 A 
ATOM      8  C   UNK d   0      14.266  -9.877   6.757  0.00  0.00    -0.011 A 
ATOM      9  C   UNK d   0      13.863 -10.112   5.381  0.00  0.00     0.067 A 
ATOM     10  C   UNK d   0      13.568  -9.318   4.262  0.00  0.00     0.062 C 
ATOM     11  N   UNK d   0      13.790 -11.449   5.208  0.00  0.00    -0.248 NA
ATOM     12  C   UNK d   0      13.466  -9.734   2.930  0.00  0.00     0.041 A 
ATOM     13  N   UNK d   0      12.885 -10.818   2.383  0.00  0.00    -0.355 N 
ATOM     14  C   UNK d   0      14.099  -8.974   1.929  0.00  0.00    -0.022 A 
ATOM     15  C   UNK d   0      13.139 -10.770   1.061  0.00  0.00     0.042 A 
ATOM     16  H   UNK d   0      12.290 -11.592   2.917  0.00  0.00     0.166 HD
ATOM     17  C   UNK d   0      12.765 -11.650   0.026  0.00  0.00     0.062 C 
ATOM     18  C   UNK d   0      13.898  -9.628   0.739  0.00  0.00    -0.013 A 
ATOM     19  C   UNK d   0      12.807 -13.021   0.003  0.00  0.00     0.067 A 
ATOM     20  N   UNK d   0      13.043 -13.639   1.163  0.00  0.00    -0.248 NA
ATOM     21  C   UNK d   0      12.670 -14.053  -1.011  0.00  0.00    -0.011 A 
ATOM     22  C   UNK d   0      13.071 -15.000   0.981  0.00  0.00     0.066 A 
ATOM     23  C   UNK d   0      13.271 -15.770   2.118  0.00  0.00     0.062 C 
ATOM     24  C   UNK d   0      12.830 -15.209  -0.433  0.00  0.00    -0.020 A 
ATOM     25  C   UNK d   0      13.358 -15.332   3.449  0.00  0.00     0.041 A 
ATOM     26  N   UNK d   0      13.949 -14.263   3.995  0.00  0.00    -0.355 N 
ATOM     27  C   UNK d   0      12.719 -16.093   4.452  0.00  0.00    -0.022 A 
ATOM     28  C   UNK d   0      13.704 -14.313   5.314  0.00  0.00     0.042 A 
ATOM     29  H   UNK d   0      14.555 -13.492   3.458  0.00  0.00     0.166 HD
ATOM     30  C   UNK d   0      14.078 -13.450   6.355  0.00  0.00     0.062 C 
ATOM     31  C   UNK d   0      12.933 -15.455   5.635  0.00  0.00    -0.013 A 
ATOM     32  C   UNK d   0      14.115 -12.064   6.346  0.00  0.00     0.066 A 
BRANCH   8  33
ATOM     33  C   UNK d   0      14.456  -8.551   7.374  0.00  0.00     0.151 C 
BRANCH  33  34
ATOM     34  C   UNK d   0      15.698  -7.890   6.934  0.00  0.00     0.143 C 
ATOM     35  O   UNK d   0      15.767  -6.655   6.853  0.00  0.00    -0.650 OA
BRANCH  34  36
ATOM     36  O   UNK d   0      16.793  -8.656   6.608  0.00  0.00    -0.776 OA
ATOM     37  H   UNK d   0      16.754  -9.346   5.845  0.00  0.00     0.167 HD
ENDBRANCH  34  36
ENDBRANCH  33  34
ENDBRANCH   8  33
BRANCH  31  38
ATOM     38  C   UNK d   0      12.425 -15.894   6.989  0.00  0.00     0.151 C 
BRANCH  38  39
ATOM     39  C   UNK d   0      11.148 -15.302   7.328  0.00  0.00     0.143 C 
ATOM     40  O   UNK d   0      10.074 -15.914   7.192  0.00  0.00    -0.650 OA
BRANCH  39  41
ATOM     41  O   UNK d   0      11.106 -14.001   7.828  0.00  0.00    -0.776 OA
ATOM     42  H   UNK d   0      11.037 -13.244   7.141  0.00  0.00     0.167 HD
ENDBRANCH  39  41
ENDBRANCH  38  39
ENDBRANCH  31  38
BRANCH  27  43
ATOM     43  C   UNK d   0      11.934 -17.375   4.329  0.00  0.00     0.052 C 
BRANCH  43  44
ATOM     44  C   UNK d   0      10.492 -17.156   4.006  0.00  0.00     0.115 C 
BRANCH  44  45
ATOM     45  C   UNK d   0       9.810 -18.462   4.202  0.00  0.00     0.139 C 
ATOM     46  O   UNK d   0       8.929 -18.541   5.094  0.00  0.00    -0.650 OA
BRANCH  45  47
ATOM     47  O   UNK d   0      10.100 -19.577   3.447  0.00  0.00    -0.776 OA
ATOM     48  H   UNK d   0       9.371 -20.149   2.990  0.00  0.00     0.167 HD
ENDBRANCH  45  47
ENDBRANCH  44  45
ENDBRANCH  43  44
ENDBRANCH  27  43
BRANCH  24  49
ATOM     49  C   UNK d   0      12.733 -16.526  -1.084  0.00  0.00     0.052 C 
BRANCH  49  50
ATOM     50  C   UNK d   0      11.362 -17.116  -0.874  0.00  0.00     0.115 C 
BRANCH  50  51
ATOM     51  C   UNK d   0      11.227 -18.132   0.162  0.00  0.00     0.139 C 
ATOM     52  O   UNK d   0      12.207 -18.766   0.619  0.00  0.00    -0.650 OA
BRANCH  51  53
ATOM     53  O   UNK d   0       9.973 -18.427   0.673  0.00  0.00    -0.776 OA
ATOM     54  H   UNK d   0       9.533 -17.752   1.274  0.00  0.00     0.167 HD
ENDBRANCH  51  53
ENDBRANCH  50  51
ENDBRANCH  49  50
ENDBRANCH  24  49
BRANCH  21  55
ATOM     55  C   UNK d   0      12.389 -13.777  -2.451  0.00  0.00     0.151 C 
BRANCH  55  56
ATOM     56  C   UNK d   0      10.968 -13.481  -2.689  0.00  0.00     0.143 C 
ATOM     57  O   UNK d   0      10.093 -14.368  -2.742  0.00  0.00    -0.650 OA
BRANCH  56  58
ATOM     58  O   UNK d   0      10.602 -12.146  -2.858  0.00  0.00    -0.776 OA
ATOM     59  H   UNK d   0      10.636 -11.572  -1.997  0.00  0.00     0.167 HD
ENDBRANCH  56  58
ENDBRANCH  55  56
ENDBRANCH  21  55
BRANCH  18  60
ATOM     60  C   UNK d   0      14.415  -9.164  -0.600  0.00  0.00     0.151 C 
BRANCH  60  61
ATOM     61  C   UNK d   0      15.596  -9.993  -0.885  0.00  0.00     0.143 C 
ATOM     62  O   UNK d   0      15.615 -11.095  -1.434  0.00  0.00    -0.650 OA
BRANCH  61  63
ATOM     63  O   UNK d   0      16.833  -9.440  -0.475  0.00  0.00    -0.776 OA
ATOM     64  H   UNK d   0      16.977  -8.446  -0.459  0.00  0.00     0.167 HD
ENDBRANCH  61  63
ENDBRANCH  60  61
ENDBRANCH  18  60
BRANCH  14  65
ATOM     65  C   UNK d   0      14.786  -7.641   1.998  0.00  0.00     0.052 C 
BRANCH  65  66
ATOM     66  C   UNK d   0      16.251  -7.753   2.233  0.00  0.00     0.115 C 
BRANCH  66  67
ATOM     67  C   UNK d   0      16.824  -7.201   3.429  0.00  0.00     0.139 C 
ATOM     68  O   UNK d   0      17.745  -7.866   4.031  0.00  0.00    -0.650 OA
BRANCH  67  69
ATOM     69  O   UNK d   0      16.504  -5.994   4.050  0.00  0.00    -0.776 OA
ATOM     70  H   UNK d   0      17.209  -5.627   4.705  0.00  0.00     0.167 HD
ENDBRANCH  67  69
ENDBRANCH  66  67
ENDBRANCH  65  66
ENDBRANCH  14  65
ENDBRANCH   6   7
ENDBRANCH   5   6
ENDBRANCH   2   5
TORSDOF 28
ENDMDL
MODEL 20
REMARK VINA RESULT:      -6.0     23.302     28.863
REMARK  28 active torsions:
REMARK  status: ('A' for Active; 'I' for Inactive)
REMARK    1  A    between atoms: C_2  and  O_3 
REMARK    2  A    between atoms: C_2  and  C_4 
REMARK    3  A    between atoms: C_4  and  C_5 
REMARK    4  A    between atoms: C_5  and  C_6 
REMARK    5  A    between atoms: C_7  and  C_8 
REMARK    6  A    between atoms: C_8  and  C_9 
REMARK    7  A    between atoms: C_9  and  O_11 
REMARK    8  A    between atoms: C_28  and  C_29 
REMARK    9  A    between atoms: C_29  and  C_30 
REMARK   10  A    between atoms: C_30  and  O_32 
REMARK   11  A    between atoms: C_33  and  C_34 
REMARK   12  A    between atoms: C_34  and  C_35 
REMARK   13  A    between atoms: C_35  and  C_36 
REMARK   14  A    between atoms: C_36  and  O_38 
REMARK   15  A    between atoms: C_39  and  C_40 
REMARK   16  A    between atoms: C_40  and  C_41 
REMARK   17  A    between atoms: C_41  and  C_42 
REMARK   18  A    between atoms: C_42  and  O_44 
REMARK   19  A    between atoms: C_45  and  C_46 
REMARK   20  A    between atoms: C_46  and  C_47 
REMARK   21  A    between atoms: C_47  and  O_49 
REMARK   22  A    between atoms: C_50  and  C_51 
REMARK   23  A    between atoms: C_51  and  C_52 
REMARK   24  A    between atoms: C_52  and  O_54 
REMARK   25  A    between atoms: C_55  and  C_56 
REMARK   26  A    between atoms: C_56  and  C_57 
REMARK   27  A    between atoms: C_57  and  C_58 
REMARK   28  A    between atoms: C_58  and  O_60 
ROOT
ATOM      1  O   UNK d   0     -16.345  -5.341  -4.765  0.00  0.00    -0.650 OA
ATOM      2  C   UNK d   0     -17.470  -4.883  -4.466  0.00  0.00     0.139 C 
ENDROOT
BRANCH   2   3
ATOM      3  O   UNK d   0     -18.561  -5.719  -4.472  0.00  0.00    -0.776 OA
ATOM      4  H   UNK d   0     -19.220  -5.732  -3.691  0.00  0.00     0.167 HD
ENDBRANCH   2   3
BRANCH   2   5
ATOM      5  C   UNK d   0     -17.622  -3.444  -4.108  0.00  0.00     0.115 C 
BRANCH   5   6
ATOM      6  C   UNK d   0     -18.786  -3.263  -3.172  0.00  0.00     0.052 C 
BRANCH   6   7
ATOM      7  C   UNK d   0     -18.353  -2.937  -1.762  0.00  0.00    -0.020 A 
ATOM      8  C   UNK d   0     -18.385  -1.773  -1.167  0.00  0.00    -0.011 A 
ATOM      9  C   UNK d   0     -17.861  -1.946   0.178  0.00  0.00     0.067 A 
ATOM     10  C   UNK d   0     -17.653  -1.125   1.297  0.00  0.00     0.062 C 
ATOM     11  N   UNK d   0     -17.528  -3.247   0.314  0.00  0.00    -0.248 NA
ATOM     12  C   UNK d   0     -17.393  -1.533   2.610  0.00  0.00     0.041 A 
ATOM     13  N   UNK d   0     -16.586  -2.495   3.096  0.00  0.00    -0.355 N 
ATOM     14  C   UNK d   0     -18.094  -0.920   3.664  0.00  0.00    -0.022 A 
ATOM     15  C   UNK d   0     -16.763  -2.513   4.431  0.00  0.00     0.042 A 
ATOM     16  H   UNK d   0     -15.890  -3.135   2.510  0.00  0.00     0.166 HD
ATOM     17  C   UNK d   0     -16.167  -3.321   5.420  0.00  0.00     0.062 C 
ATOM     18  C   UNK d   0     -17.702  -1.540   4.824  0.00  0.00    -0.013 A 
ATOM     19  C   UNK d   0     -15.950  -4.675   5.412  0.00  0.00     0.067 A 
ATOM     20  N   UNK d   0     -16.136  -5.310   4.253  0.00  0.00    -0.248 NA
ATOM     21  C   UNK d   0     -15.559  -5.676   6.391  0.00  0.00    -0.011 A 
ATOM     22  C   UNK d   0     -15.897  -6.655   4.402  0.00  0.00     0.066 A 
ATOM     23  C   UNK d   0     -16.018  -7.433   3.260  0.00  0.00     0.062 C 
ATOM     24  C   UNK d   0     -15.534  -6.833   5.794  0.00  0.00    -0.020 A 
ATOM     25  C   UNK d   0     -16.267  -7.002   1.948  0.00  0.00     0.041 A 
ATOM     26  N   UNK d   0     -17.080  -6.057   1.464  0.00  0.00    -0.355 N 
ATOM     27  C   UNK d   0     -15.559  -7.615   0.891  0.00  0.00    -0.022 A 
ATOM     28  C   UNK d   0     -16.912  -6.042   0.132  0.00  0.00     0.042 A 
ATOM     29  H   UNK d   0     -17.787  -5.422   2.053  0.00  0.00     0.166 HD
ATOM     30  C   UNK d   0     -17.505  -5.251  -0.865  0.00  0.00     0.062 C 
ATOM     31  C   UNK d   0     -15.961  -7.013  -0.262  0.00  0.00    -0.013 A 
ATOM     32  C   UNK d   0     -17.800  -3.898  -0.819  0.00  0.00     0.066 A 
BRANCH   8  33
ATOM     33  C   UNK d   0     -18.859  -0.499  -1.739  0.00  0.00     0.151 C 
BRANCH  33  34
ATOM     34  C   UNK d   0     -17.782   0.271  -2.386  0.00  0.00     0.143 C 
ATOM     35  O   UNK d   0     -17.059   1.033  -1.728  0.00  0.00    -0.650 OA
BRANCH  34  36
ATOM     36  O   UNK d   0     -17.579   0.141  -3.741  0.00  0.00    -0.776 OA
ATOM     37  H   UNK d   0     -17.066   0.855  -4.276  0.00  0.00     0.167 HD
ENDBRANCH  34  36
ENDBRANCH  33  34
ENDBRANCH   8  33
BRANCH  31  38
ATOM     38  C   UNK d   0     -15.464  -7.330  -1.653  0.00  0.00     0.151 C 
BRANCH  38  39
ATOM     39  C   UNK d   0     -14.202  -6.690  -1.957  0.00  0.00     0.143 C 
ATOM     40  O   UNK d   0     -13.223  -7.322  -2.391  0.00  0.00    -0.650 OA
BRANCH  39  41
ATOM     41  O   UNK d   0     -14.065  -5.316  -1.763  0.00  0.00    -0.776 OA
ATOM     42  H   UNK d   0     -14.643  -4.893  -1.029  0.00  0.00     0.167 HD
ENDBRANCH  39  41
ENDBRANCH  38  39
ENDBRANCH  31  38
BRANCH  27  43
ATOM     43  C   UNK d   0     -14.541  -8.727   0.937  0.00  0.00     0.052 C 
BRANCH  43  44
ATOM     44  C   UNK d   0     -15.133 -10.079   0.704  0.00  0.00     0.115 C 
BRANCH  44  45
ATOM     45  C   UNK d   0     -15.005 -10.825   1.983  0.00  0.00     0.139 C 
ATOM     46  O   UNK d   0     -16.015 -10.902   2.726  0.00  0.00    -0.650 OA
BRANCH  45  47
ATOM     47  O   UNK d   0     -13.834 -11.433   2.380  0.00  0.00    -0.776 OA
ATOM     48  H   UNK d   0     -12.943 -11.318   1.871  0.00  0.00     0.167 HD
ENDBRANCH  45  47
ENDBRANCH  44  45
ENDBRANCH  43  44
ENDBRANCH  27  43
BRANCH  24  49
ATOM     49  C   UNK d   0     -15.152  -8.117   6.406  0.00  0.00     0.052 C 
BRANCH  49  50
ATOM     50  C   UNK d   0     -13.694  -8.405   6.153  0.00  0.00     0.115 C 
BRANCH  50  51
ATOM     51  C   UNK d   0     -13.380  -9.431   5.168  0.00  0.00     0.139 C 
ATOM     52  O   UNK d   0     -13.574 -10.652   5.377  0.00  0.00    -0.650 OA
BRANCH  51  53
ATOM     53  O   UNK d   0     -12.842  -9.064   3.943  0.00  0.00    -0.776 OA
ATOM     54  H   UNK d   0     -12.248  -8.254   3.909  0.00  0.00     0.167 HD
ENDBRANCH  51  53
ENDBRANCH  50  51
ENDBRANCH  49  50
ENDBRANCH  24  49
BRANCH  21  55
ATOM     55  C   UNK d   0     -15.247  -5.371   7.819  0.00  0.00     0.151 C 
BRANCH  55  56
ATOM     56  C   UNK d   0     -16.465  -5.213   8.628  0.00  0.00     0.143 C 
ATOM     57  O   UNK d   0     -17.055  -6.177   9.155  0.00  0.00    -0.650 OA
BRANCH  56  58
ATOM     58  O   UNK d   0     -16.966  -3.924   8.802  0.00  0.00    -0.776 OA
ATOM     59  H   UNK d   0     -16.409  -3.321   9.433  0.00  0.00     0.167 HD
ENDBRANCH  56  58
ENDBRANCH  55  56
ENDBRANCH  21  55
BRANCH  18  60
ATOM     60  C   UNK d   0     -18.214  -1.200   6.202  0.00  0.00     0.151 C 
BRANCH  60  61
ATOM     61  C   UNK d   0     -17.107  -0.513   6.886  0.00  0.00     0.143 C 
ATOM     62  O   UNK d   0     -16.587   0.556   6.567  0.00  0.00    -0.650 OA
BRANCH  61  63
ATOM     63  O   UNK d   0     -16.605  -1.174   8.033  0.00  0.00    -0.776 OA
ATOM     64  H   UNK d   0     -15.780  -0.844   8.501  0.00  0.00     0.167 HD
ENDBRANCH  61  63
ENDBRANCH  60  61
ENDBRANCH  18  60
BRANCH  14  65
ATOM     65  C   UNK d   0     -19.023   0.261   3.669  0.00  0.00     0.052 C 
BRANCH  65  66
ATOM     66  C   UNK d   0     -18.307   1.565   3.665  0.00  0.00     0.115 C 
BRANCH  66  67
ATOM     67  C   UNK d   0     -18.461   2.464   4.773  0.00  0.00     0.139 C 
ATOM     68  O   UNK d   0     -17.925   3.630   4.697  0.00  0.00    -0.650 OA
BRANCH  67  69
ATOM     69  O   UNK d   0     -19.141   2.236   5.970  0.00  0.00    -0.776 OA
ATOM     70  H   UNK d   0     -19.754   3.000   6.290  0.00  0.00     0.167 HD
ENDBRANCH  67  69
ENDBRANCH  66  67
ENDBRANCH  65  66
ENDBRANCH  14  65
ENDBRANCH   6   7
ENDBRANCH   5   6
ENDBRANCH   2   5
TORSDOF 28
ENDMDL
