MODEL 1
REMARK VINA RESULT:     -10.5      0.000      0.000
REMARK  28 active torsions:
REMARK  status: ('A' for Active; 'I' for Inactive)
REMARK    1  A    between atoms: C_2  and  O_3 
REMARK    2  A    between atoms: C_2  and  C_4 
REMARK    3  A    between atoms: C_4  and  C_5 
REMARK    4  A    between atoms: C_5  and  C_6 
REMARK    5  A    between atoms: C_7  and  C_8 
REMARK    6  A    between atoms: C_8  and  C_9 
REMARK    7  A    between atoms: C_9  and  O_11 
REMARK    8  A    between atoms: C_28  and  C_29 
REMARK    9  A    between atoms: C_29  and  C_30 
REMARK   10  A    between atoms: C_30  and  O_32 
REMARK   11  A    between atoms: C_33  and  C_34 
REMARK   12  A    between atoms: C_34  and  C_35 
REMARK   13  A    between atoms: C_35  and  C_36 
REMARK   14  A    between atoms: C_36  and  O_38 
REMARK   15  A    between atoms: C_39  and  C_40 
REMARK   16  A    between atoms: C_40  and  C_41 
REMARK   17  A    between atoms: C_41  and  C_42 
REMARK   18  A    between atoms: C_42  and  O_44 
REMARK   19  A    between atoms: C_45  and  C_46 
REMARK   20  A    between atoms: C_46  and  C_47 
REMARK   21  A    between atoms: C_47  and  O_49 
REMARK   22  A    between atoms: C_50  and  C_51 
REMARK   23  A    between atoms: C_51  and  C_52 
REMARK   24  A    between atoms: C_52  and  O_54 
REMARK   25  A    between atoms: C_55  and  C_56 
REMARK   26  A    between atoms: C_56  and  C_57 
REMARK   27  A    between atoms: C_57  and  C_58 
REMARK   28  A    between atoms: C_58  and  O_60 
ROOT
ATOM      1  O   UNK d   0       0.805   7.605  -6.386  0.00  0.00    -0.650 OA
ATOM      2  C   UNK d   0      -0.016   6.666  -6.289  0.00  0.00     0.139 C 
ENDROOT
BRANCH   2   3
ATOM      3  O   UNK d   0      -1.347   6.951  -6.104  0.00  0.00    -0.776 OA
ATOM      4  H   UNK d   0      -1.886   6.498  -5.362  0.00  0.00     0.167 HD
ENDBRANCH   2   3
BRANCH   2   5
ATOM      5  C   UNK d   0       0.451   5.253  -6.372  0.00  0.00     0.115 C 
BRANCH   5   6
ATOM      6  C   UNK d   0       1.346   5.073  -7.568  0.00  0.00     0.052 C 
BRANCH   6   7
ATOM      7  C   UNK d   0       0.725   4.201  -8.633  0.00  0.00    -0.020 A 
ATOM      8  C   UNK d   0       1.130   3.025  -9.038  0.00  0.00    -0.011 A 
ATOM      9  C   UNK d   0       0.225   2.578 -10.084  0.00  0.00     0.067 A 
ATOM     10  C   UNK d   0       0.094   1.436 -10.889  0.00  0.00     0.062 C 
ATOM     11  N   UNK d   0      -0.699   3.547 -10.255  0.00  0.00    -0.248 NA
ATOM     12  C   UNK d   0      -1.016   1.062 -11.655  0.00  0.00     0.041 A 
ATOM     13  N   UNK d   0      -1.828   1.785 -12.450  0.00  0.00    -0.355 N 
ATOM     14  C   UNK d   0      -1.463  -0.271 -11.600  0.00  0.00    -0.022 A 
ATOM     15  C   UNK d   0      -2.783   0.946 -12.896  0.00  0.00     0.042 A 
ATOM     16  H   UNK d   0      -1.717   2.861 -12.707  0.00  0.00     0.166 HD
ATOM     17  C   UNK d   0      -3.876   1.180 -13.754  0.00  0.00     0.062 C 
ATOM     18  C   UNK d   0      -2.587  -0.351 -12.384  0.00  0.00    -0.013 A 
ATOM     19  C   UNK d   0      -4.767   2.222 -13.751  0.00  0.00     0.067 A 
ATOM     20  N   UNK d   0      -4.473   3.267 -12.973  0.00  0.00    -0.248 NA
ATOM     21  C   UNK d   0      -6.036   2.513 -14.397  0.00  0.00    -0.011 A 
ATOM     22  C   UNK d   0      -5.459   4.219 -13.062  0.00  0.00     0.066 A 
ATOM     23  C   UNK d   0      -5.262   5.381 -12.329  0.00  0.00     0.062 C 
ATOM     24  C   UNK d   0      -6.437   3.682 -13.986  0.00  0.00    -0.020 A 
ATOM     25  C   UNK d   0      -4.133   5.742 -11.577  0.00  0.00     0.041 A 
ATOM     26  N   UNK d   0      -3.335   5.027 -10.774  0.00  0.00    -0.355 N 
ATOM     27  C   UNK d   0      -3.683   7.079 -11.635  0.00  0.00    -0.022 A 
ATOM     28  C   UNK d   0      -2.388   5.863 -10.322  0.00  0.00     0.042 A 
ATOM     29  H   UNK d   0      -3.454   3.948 -10.508  0.00  0.00     0.166 HD
ATOM     30  C   UNK d   0      -1.301   5.647  -9.460  0.00  0.00     0.062 C 
ATOM     31  C   UNK d   0      -2.579   7.164 -10.845  0.00  0.00    -0.013 A 
ATOM     32  C   UNK d   0      -0.454   4.550  -9.411  0.00  0.00     0.066 A 
BRANCH   8  33
ATOM     33  C   UNK d   0       2.297   2.271  -8.542  0.00  0.00     0.151 C 
BRANCH  33  34
ATOM     34  C   UNK d   0       3.547   2.635  -9.233  0.00  0.00     0.143 C 
ATOM     35  O   UNK d   0       4.497   3.131  -8.611  0.00  0.00    -0.650 OA
BRANCH  34  36
ATOM     36  O   UNK d   0       3.657   2.420 -10.587  0.00  0.00    -0.776 OA
ATOM     37  H   UNK d   0       3.961   1.511 -10.961  0.00  0.00     0.167 HD
ENDBRANCH  34  36
ENDBRANCH  33  34
ENDBRANCH   8  33
BRANCH  31  38
ATOM     38  C   UNK d   0      -1.745   8.402 -10.608  0.00  0.00     0.151 C 
BRANCH  38  39
ATOM     39  C   UNK d   0      -1.642   8.751  -9.207  0.00  0.00     0.143 C 
ATOM     40  O   UNK d   0      -2.622   8.728  -8.442  0.00  0.00    -0.650 OA
BRANCH  39  41
ATOM     41  O   UNK d   0      -0.406   9.128  -8.683  0.00  0.00    -0.776 OA
ATOM     42  H   UNK d   0       0.180   8.380  -8.300  0.00  0.00     0.167 HD
ENDBRANCH  39  41
ENDBRANCH  38  39
ENDBRANCH  31  38
BRANCH  27  43
ATOM     43  C   UNK d   0      -4.253   8.250 -12.396  0.00  0.00     0.052 C 
BRANCH  43  44
ATOM     44  C   UNK d   0      -4.821   9.310 -11.509  0.00  0.00     0.115 C 
BRANCH  44  45
ATOM     45  C   UNK d   0      -4.454  10.615 -12.120  0.00  0.00     0.139 C 
ATOM     46  O   UNK d   0      -5.101  11.634 -11.771  0.00  0.00    -0.650 OA
BRANCH  45  47
ATOM     47  O   UNK d   0      -3.438  10.750 -13.041  0.00  0.00    -0.776 OA
ATOM     48  H   UNK d   0      -3.196  11.653 -13.480  0.00  0.00     0.167 HD
ENDBRANCH  45  47
ENDBRANCH  44  45
ENDBRANCH  43  44
ENDBRANCH  27  43
BRANCH  24  49
ATOM     49  C   UNK d   0      -7.659   4.382 -14.419  0.00  0.00     0.052 C 
BRANCH  49  50
ATOM     50  C   UNK d   0      -8.578   4.606 -13.246  0.00  0.00     0.115 C 
BRANCH  50  51
ATOM     51  C   UNK d   0      -9.684   5.535 -13.436  0.00  0.00     0.139 C 
ATOM     52  O   UNK d   0     -10.597   5.682 -12.589  0.00  0.00    -0.650 OA
BRANCH  51  53
ATOM     53  O   UNK d   0      -9.750   6.296 -14.593  0.00  0.00    -0.776 OA
ATOM     54  H   UNK d   0     -10.034   5.843 -15.444  0.00  0.00     0.167 HD
ENDBRANCH  51  53
ENDBRANCH  50  51
ENDBRANCH  49  50
ENDBRANCH  24  49
BRANCH  21  55
ATOM     55  C   UNK d   0      -6.712   1.596 -15.361  0.00  0.00     0.151 C 
BRANCH  55  56
ATOM     56  C   UNK d   0      -6.665   2.110 -16.738  0.00  0.00     0.143 C 
ATOM     57  O   UNK d   0      -5.659   2.000 -17.466  0.00  0.00    -0.650 OA
BRANCH  56  58
ATOM     58  O   UNK d   0      -7.803   2.745 -17.233  0.00  0.00    -0.776 OA
ATOM     59  H   UNK d   0      -8.562   2.882 -16.542  0.00  0.00     0.167 HD
ENDBRANCH  56  58
ENDBRANCH  55  56
ENDBRANCH  21  55
BRANCH  18  60
ATOM     60  C   UNK d   0      -3.399  -1.604 -12.604  0.00  0.00     0.151 C 
BRANCH  60  61
ATOM     61  C   UNK d   0      -4.411  -1.622 -11.536  0.00  0.00     0.143 C 
ATOM     62  O   UNK d   0      -4.513  -0.832 -10.598  0.00  0.00    -0.650 OA
BRANCH  61  63
ATOM     63  O   UNK d   0      -5.356  -2.672 -11.620  0.00  0.00    -0.776 OA
ATOM     64  H   UNK d   0      -6.279  -2.511 -11.982  0.00  0.00     0.167 HD
ENDBRANCH  61  63
ENDBRANCH  60  61
ENDBRANCH  18  60
BRANCH  14  65
ATOM     65  C   UNK d   0      -0.858  -1.482 -10.950  0.00  0.00     0.052 C 
BRANCH  65  66
ATOM     66  C   UNK d   0      -1.204  -1.603  -9.509  0.00  0.00     0.115 C 
BRANCH  66  67
ATOM     67  C   UNK d   0      -0.157  -1.635  -8.526  0.00  0.00     0.139 C 
ATOM     68  O   UNK d   0      -0.392  -2.204  -7.397  0.00  0.00    -0.650 OA
BRANCH  67  69
ATOM     69  O   UNK d   0       1.131  -1.111  -8.634  0.00  0.00    -0.776 OA
ATOM     70  H   UNK d   0       1.280  -0.195  -8.187  0.00  0.00     0.167 HD
ENDBRANCH  67  69
ENDBRANCH  66  67
ENDBRANCH  65  66
ENDBRANCH  14  65
ENDBRANCH   6   7
ENDBRANCH   5   6
ENDBRANCH   2   5
TORSDOF 28
ENDMDL
MODEL 2
REMARK VINA RESULT:     -10.3      1.900     10.571
REMARK  28 active torsions:
REMARK  status: ('A' for Active; 'I' for Inactive)
REMARK    1  A    between atoms: C_2  and  O_3 
REMARK    2  A    between atoms: C_2  and  C_4 
REMARK    3  A    between atoms: C_4  and  C_5 
REMARK    4  A    between atoms: C_5  and  C_6 
REMARK    5  A    between atoms: C_7  and  C_8 
REMARK    6  A    between atoms: C_8  and  C_9 
REMARK    7  A    between atoms: C_9  and  O_11 
REMARK    8  A    between atoms: C_28  and  C_29 
REMARK    9  A    between atoms: C_29  and  C_30 
REMARK   10  A    between atoms: C_30  and  O_32 
REMARK   11  A    between atoms: C_33  and  C_34 
REMARK   12  A    between atoms: C_34  and  C_35 
REMARK   13  A    between atoms: C_35  and  C_36 
REMARK   14  A    between atoms: C_36  and  O_38 
REMARK   15  A    between atoms: C_39  and  C_40 
REMARK   16  A    between atoms: C_40  and  C_41 
REMARK   17  A    between atoms: C_41  and  C_42 
REMARK   18  A    between atoms: C_42  and  O_44 
REMARK   19  A    between atoms: C_45  and  C_46 
REMARK   20  A    between atoms: C_46  and  C_47 
REMARK   21  A    between atoms: C_47  and  O_49 
REMARK   22  A    between atoms: C_50  and  C_51 
REMARK   23  A    between atoms: C_51  and  C_52 
REMARK   24  A    between atoms: C_52  and  O_54 
REMARK   25  A    between atoms: C_55  and  C_56 
REMARK   26  A    between atoms: C_56  and  C_57 
REMARK   27  A    between atoms: C_57  and  C_58 
REMARK   28  A    between atoms: C_58  and  O_60 
ROOT
ATOM      1  O   UNK d   0      -7.803   1.808 -16.808  0.00  0.00    -0.650 OA
ATOM      2  C   UNK d   0      -7.538   2.883 -16.227  0.00  0.00     0.139 C 
ENDROOT
BRANCH   2   3
ATOM      3  O   UNK d   0      -8.213   4.026 -16.584  0.00  0.00    -0.776 OA
ATOM      4  H   UNK d   0      -7.717   4.908 -16.730  0.00  0.00     0.167 HD
ENDBRANCH   2   3
BRANCH   2   5
ATOM      5  C   UNK d   0      -6.499   2.921 -15.159  0.00  0.00     0.115 C 
BRANCH   5   6
ATOM      6  C   UNK d   0      -6.996   3.716 -13.982  0.00  0.00     0.052 C 
BRANCH   6   7
ATOM      7  C   UNK d   0      -5.874   4.334 -13.182  0.00  0.00    -0.020 A 
ATOM      8  C   UNK d   0      -5.666   5.604 -12.949  0.00  0.00    -0.011 A 
ATOM      9  C   UNK d   0      -4.462   5.717 -12.143  0.00  0.00     0.067 A 
ATOM     10  C   UNK d   0      -3.731   6.762 -11.556  0.00  0.00     0.062 C 
ATOM     11  N   UNK d   0      -3.999   4.466 -11.937  0.00  0.00    -0.248 NA
ATOM     12  C   UNK d   0      -2.741   6.655 -10.573  0.00  0.00     0.041 A 
ATOM     13  N   UNK d   0      -1.720   5.788 -10.433  0.00  0.00    -0.355 N 
ATOM     14  C   UNK d   0      -2.775   7.533  -9.474  0.00  0.00    -0.022 A 
ATOM     15  C   UNK d   0      -1.111   6.088  -9.271  0.00  0.00     0.042 A 
ATOM     16  H   UNK d   0      -1.424   4.992 -11.151  0.00  0.00     0.166 HD
ATOM     17  C   UNK d   0       0.007   5.499  -8.646  0.00  0.00     0.062 C 
ATOM     18  C   UNK d   0      -1.744   7.177  -8.641  0.00  0.00    -0.013 A 
ATOM     19  C   UNK d   0       0.299   4.170  -8.476  0.00  0.00     0.067 A 
ATOM     20  N   UNK d   0      -0.454   3.295  -9.149  0.00  0.00    -0.248 NA
ATOM     21  C   UNK d   0       1.259   3.401  -7.701  0.00  0.00    -0.011 A 
ATOM     22  C   UNK d   0      -0.056   2.010  -8.869  0.00  0.00     0.066 A 
ATOM     23  C   UNK d   0      -0.732   0.997  -9.533  0.00  0.00     0.062 C 
ATOM     24  C   UNK d   0       1.043   2.138  -7.932  0.00  0.00    -0.020 A 
ATOM     25  C   UNK d   0      -1.714   1.126 -10.527  0.00  0.00     0.041 A 
ATOM     26  N   UNK d   0      -2.738   1.978 -10.658  0.00  0.00    -0.355 N 
ATOM     27  C   UNK d   0      -1.676   0.247 -11.631  0.00  0.00    -0.022 A 
ATOM     28  C   UNK d   0      -3.352   1.675 -11.813  0.00  0.00     0.042 A 
ATOM     29  H   UNK d   0      -3.040   2.771  -9.930  0.00  0.00     0.166 HD
ATOM     30  C   UNK d   0      -4.470   2.247 -12.441  0.00  0.00     0.062 C 
ATOM     31  C   UNK d   0      -2.709   0.588 -12.450  0.00  0.00    -0.013 A 
ATOM     32  C   UNK d   0      -4.804   3.588 -12.536  0.00  0.00     0.066 A 
BRANCH   8  33
ATOM     33  C   UNK d   0      -6.488   6.736 -13.416  0.00  0.00     0.151 C 
BRANCH  33  34
ATOM     34  C   UNK d   0      -5.722   7.991 -13.526  0.00  0.00     0.143 C 
ATOM     35  O   UNK d   0      -6.022   8.981 -12.845  0.00  0.00    -0.650 OA
BRANCH  34  36
ATOM     36  O   UNK d   0      -4.661   8.060 -14.399  0.00  0.00    -0.776 OA
ATOM     37  H   UNK d   0      -3.900   7.368 -14.371  0.00  0.00     0.167 HD
ENDBRANCH  34  36
ENDBRANCH  33  34
ENDBRANCH   8  33
BRANCH  31  38
ATOM     38  C   UNK d   0      -3.058  -0.069 -13.765  0.00  0.00     0.151 C 
BRANCH  38  39
ATOM     39  C   UNK d   0      -2.424   0.571 -14.898  0.00  0.00     0.143 C 
ATOM     40  O   UNK d   0      -3.003   1.426 -15.590  0.00  0.00    -0.650 OA
BRANCH  39  41
ATOM     41  O   UNK d   0      -1.115   0.226 -15.237  0.00  0.00    -0.776 OA
ATOM     42  H   UNK d   0      -0.825   0.410 -16.202  0.00  0.00     0.167 HD
ENDBRANCH  39  41
ENDBRANCH  38  39
ENDBRANCH  31  38
BRANCH  27  43
ATOM     43  C   UNK d   0      -0.718  -0.879 -11.927  0.00  0.00     0.052 C 
BRANCH  43  44
ATOM     44  C   UNK d   0      -1.373  -2.222 -11.950  0.00  0.00     0.115 C 
BRANCH  44  45
ATOM     45  C   UNK d   0      -1.882  -2.469 -10.576  0.00  0.00     0.139 C 
ATOM     46  O   UNK d   0      -3.113  -2.672 -10.428  0.00  0.00    -0.650 OA
BRANCH  45  47
ATOM     47  O   UNK d   0      -1.063  -2.490  -9.468  0.00  0.00    -0.776 OA
ATOM     48  H   UNK d   0      -0.053  -2.275  -9.514  0.00  0.00     0.167 HD
ENDBRANCH  45  47
ENDBRANCH  44  45
ENDBRANCH  43  44
ENDBRANCH  27  43
BRANCH  24  49
ATOM     49  C   UNK d   0       1.814   1.011  -7.381  0.00  0.00     0.052 C 
BRANCH  49  50
ATOM     50  C   UNK d   0       1.129   0.456  -6.158  0.00  0.00     0.115 C 
BRANCH  50  51
ATOM     51  C   UNK d   0       0.496  -0.849  -6.285  0.00  0.00     0.139 C 
ATOM     52  O   UNK d   0       0.675  -1.594  -7.277  0.00  0.00    -0.650 OA
BRANCH  51  53
ATOM     53  O   UNK d   0      -0.345  -1.305  -5.281  0.00  0.00    -0.776 OA
ATOM     54  H   UNK d   0      -1.321  -1.415  -5.492  0.00  0.00     0.167 HD
ENDBRANCH  51  53
ENDBRANCH  50  51
ENDBRANCH  49  50
ENDBRANCH  24  49
BRANCH  21  55
ATOM     55  C   UNK d   0       2.294   4.010  -6.814  0.00  0.00     0.151 C 
BRANCH  55  56
ATOM     56  C   UNK d   0       3.658   3.732  -7.288  0.00  0.00     0.143 C 
ATOM     57  O   UNK d   0       4.047   4.025  -8.436  0.00  0.00    -0.650 OA
BRANCH  56  58
ATOM     58  O   UNK d   0       4.540   3.116  -6.402  0.00  0.00    -0.776 OA
ATOM     59  H   UNK d   0       4.247   2.176  -6.078  0.00  0.00     0.167 HD
ENDBRANCH  56  58
ENDBRANCH  55  56
ENDBRANCH  21  55
BRANCH  18  60
ATOM     60  C   UNK d   0      -1.417   7.854  -7.333  0.00  0.00     0.151 C 
BRANCH  60  61
ATOM     61  C   UNK d   0      -2.363   7.308  -6.348  0.00  0.00     0.143 C 
ATOM     62  O   UNK d   0      -2.903   6.201  -6.371  0.00  0.00    -0.650 OA
BRANCH  61  63
ATOM     63  O   UNK d   0      -2.669   8.168  -5.265  0.00  0.00    -0.776 OA
ATOM     64  H   UNK d   0      -3.605   8.238  -4.908  0.00  0.00     0.167 HD
ENDBRANCH  61  63
ENDBRANCH  60  61
ENDBRANCH  18  60
BRANCH  14  65
ATOM     65  C   UNK d   0      -3.638   8.733  -9.204  0.00  0.00     0.052 C 
BRANCH  65  66
ATOM     66  C   UNK d   0      -3.079   9.991  -9.767  0.00  0.00     0.115 C 
BRANCH  66  67
ATOM     67  C   UNK d   0      -3.652  10.555 -10.956  0.00  0.00     0.139 C 
ATOM     68  O   UNK d   0      -4.497  11.517 -10.834  0.00  0.00    -0.650 OA
BRANCH  67  69
ATOM     69  O   UNK d   0      -3.408  10.186 -12.279  0.00  0.00    -0.776 OA
ATOM     70  H   UNK d   0      -2.694  10.740 -12.774  0.00  0.00     0.167 HD
ENDBRANCH  67  69
ENDBRANCH  66  67
ENDBRANCH  65  66
ENDBRANCH  14  65
ENDBRANCH   6   7
ENDBRANCH   5   6
ENDBRANCH   2   5
TORSDOF 28
ENDMDL
MODEL 3
REMARK VINA RESULT:     -10.2      1.963      8.315
REMARK  28 active torsions:
REMARK  status: ('A' for Active; 'I' for Inactive)
REMARK    1  A    between atoms: C_2  and  O_3 
REMARK    2  A    between atoms: C_2  and  C_4 
REMARK    3  A    between atoms: C_4  and  C_5 
REMARK    4  A    between atoms: C_5  and  C_6 
REMARK    5  A    between atoms: C_7  and  C_8 
REMARK    6  A    between atoms: C_8  and  C_9 
REMARK    7  A    between atoms: C_9  and  O_11 
REMARK    8  A    between atoms: C_28  and  C_29 
REMARK    9  A    between atoms: C_29  and  C_30 
REMARK   10  A    between atoms: C_30  and  O_32 
REMARK   11  A    between atoms: C_33  and  C_34 
REMARK   12  A    between atoms: C_34  and  C_35 
REMARK   13  A    between atoms: C_35  and  C_36 
REMARK   14  A    between atoms: C_36  and  O_38 
REMARK   15  A    between atoms: C_39  and  C_40 
REMARK   16  A    between atoms: C_40  and  C_41 
REMARK   17  A    between atoms: C_41  and  C_42 
REMARK   18  A    between atoms: C_42  and  O_44 
REMARK   19  A    between atoms: C_45  and  C_46 
REMARK   20  A    between atoms: C_46  and  C_47 
REMARK   21  A    between atoms: C_47  and  O_49 
REMARK   22  A    between atoms: C_50  and  C_51 
REMARK   23  A    between atoms: C_51  and  C_52 
REMARK   24  A    between atoms: C_52  and  O_54 
REMARK   25  A    between atoms: C_55  and  C_56 
REMARK   26  A    between atoms: C_56  and  C_57 
REMARK   27  A    between atoms: C_57  and  C_58 
REMARK   28  A    between atoms: C_58  and  O_60 
ROOT
ATOM      1  O   UNK d   0      -4.361  13.151 -10.986  0.00  0.00    -0.650 OA
ATOM      2  C   UNK d   0      -4.466  11.906 -10.922  0.00  0.00     0.139 C 
ENDROOT
BRANCH   2   3
ATOM      3  O   UNK d   0      -3.991  11.246  -9.814  0.00  0.00    -0.776 OA
ATOM      4  H   UNK d   0      -4.361  10.332  -9.545  0.00  0.00     0.167 HD
ENDBRANCH   2   3
BRANCH   2   5
ATOM      5  C   UNK d   0      -5.101  11.149 -12.039  0.00  0.00     0.115 C 
BRANCH   5   6
ATOM      6  C   UNK d   0      -4.069  10.321 -12.754  0.00  0.00     0.052 C 
BRANCH   6   7
ATOM      7  C   UNK d   0      -4.278   8.838 -12.560  0.00  0.00    -0.020 A 
ATOM      8  C   UNK d   0      -5.177   8.077 -13.129  0.00  0.00    -0.011 A 
ATOM      9  C   UNK d   0      -4.998   6.725 -12.628  0.00  0.00     0.067 A 
ATOM     10  C   UNK d   0      -5.600   5.476 -12.846  0.00  0.00     0.062 C 
ATOM     11  N   UNK d   0      -3.970   6.755 -11.754  0.00  0.00    -0.248 NA
ATOM     12  C   UNK d   0      -5.106   4.221 -12.475  0.00  0.00     0.041 A 
ATOM     13  N   UNK d   0      -4.517   3.800 -11.340  0.00  0.00    -0.355 N 
ATOM     14  C   UNK d   0      -5.143   3.171 -13.411  0.00  0.00    -0.022 A 
ATOM     15  C   UNK d   0      -4.172   2.513 -11.534  0.00  0.00     0.042 A 
ATOM     16  H   UNK d   0      -4.365   4.395 -10.413  0.00  0.00     0.166 HD
ATOM     17  C   UNK d   0      -3.532   1.599 -10.674  0.00  0.00     0.062 C 
ATOM     18  C   UNK d   0      -4.548   2.084 -12.822  0.00  0.00    -0.013 A 
ATOM     19  C   UNK d   0      -2.434   1.791  -9.874  0.00  0.00     0.067 A 
ATOM     20  N   UNK d   0      -2.012   3.049  -9.718  0.00  0.00    -0.248 NA
ATOM     21  C   UNK d   0      -1.537   0.941  -9.110  0.00  0.00    -0.011 A 
ATOM     22  C   UNK d   0      -0.904   3.082  -8.908  0.00  0.00     0.066 A 
ATOM     23  C   UNK d   0      -0.381   4.337  -8.630  0.00  0.00     0.062 C 
ATOM     24  C   UNK d   0      -0.641   1.702  -8.550  0.00  0.00    -0.020 A 
ATOM     25  C   UNK d   0      -0.900   5.586  -9.002  0.00  0.00     0.041 A 
ATOM     26  N   UNK d   0      -1.472   6.009 -10.136  0.00  0.00    -0.355 N 
ATOM     27  C   UNK d   0      -0.866   6.638  -8.060  0.00  0.00    -0.022 A 
ATOM     28  C   UNK d   0      -1.809   7.294  -9.947  0.00  0.00     0.042 A 
ATOM     29  H   UNK d   0      -1.614   5.412 -11.070  0.00  0.00     0.166 HD
ATOM     30  C   UNK d   0      -2.438   8.218 -10.798  0.00  0.00     0.062 C 
ATOM     31  C   UNK d   0      -1.440   7.722  -8.650  0.00  0.00    -0.013 A 
ATOM     32  C   UNK d   0      -3.493   7.997 -11.668  0.00  0.00     0.066 A 
BRANCH   8  33
ATOM     33  C   UNK d   0      -6.202   8.496 -14.103  0.00  0.00     0.151 C 
BRANCH  33  34
ATOM     34  C   UNK d   0      -7.556   8.039 -13.739  0.00  0.00     0.143 C 
ATOM     35  O   UNK d   0      -8.104   8.437 -12.701  0.00  0.00    -0.650 OA
BRANCH  34  36
ATOM     36  O   UNK d   0      -8.216   7.158 -14.564  0.00  0.00    -0.776 OA
ATOM     37  H   UNK d   0      -8.386   6.184 -14.278  0.00  0.00     0.167 HD
ENDBRANCH  34  36
ENDBRANCH  33  34
ENDBRANCH   8  33
BRANCH  31  38
ATOM     38  C   UNK d   0      -1.640   9.080  -8.018  0.00  0.00     0.151 C 
BRANCH  38  39
ATOM     39  C   UNK d   0      -2.867   9.170  -7.256  0.00  0.00     0.143 C 
ATOM     40  O   UNK d   0      -2.876   9.332  -6.023  0.00  0.00    -0.650 OA
BRANCH  39  41
ATOM     41  O   UNK d   0      -4.092   9.073  -7.916  0.00  0.00    -0.776 OA
ATOM     42  H   UNK d   0      -4.828   8.535  -7.447  0.00  0.00     0.167 HD
ENDBRANCH  39  41
ENDBRANCH  38  39
ENDBRANCH  31  38
BRANCH  27  43
ATOM     43  C   UNK d   0      -0.320   6.649  -6.655  0.00  0.00     0.052 C 
BRANCH  43  44
ATOM     44  C   UNK d   0       1.138   6.972  -6.590  0.00  0.00     0.115 C 
BRANCH  44  45
ATOM     45  C   UNK d   0       1.257   8.247  -5.835  0.00  0.00     0.139 C 
ATOM     46  O   UNK d   0       1.476   9.300  -6.482  0.00  0.00    -0.650 OA
BRANCH  45  47
ATOM     47  O   UNK d   0       1.131   8.318  -4.464  0.00  0.00    -0.776 OA
ATOM     48  H   UNK d   0       0.979   7.485  -3.872  0.00  0.00     0.167 HD
ENDBRANCH  45  47
ENDBRANCH  44  45
ENDBRANCH  43  44
ENDBRANCH  27  43
BRANCH  24  49
ATOM     49  C   UNK d   0       0.440   1.256  -7.655  0.00  0.00     0.052 C 
BRANCH  49  50
ATOM     50  C   UNK d   0       1.763   1.284  -8.376  0.00  0.00     0.115 C 
BRANCH  50  51
ATOM     51  C   UNK d   0       2.830   2.076  -7.779  0.00  0.00     0.139 C 
ATOM     52  O   UNK d   0       2.611   3.133  -7.142  0.00  0.00    -0.650 OA
BRANCH  51  53
ATOM     53  O   UNK d   0       4.147   1.664  -7.912  0.00  0.00    -0.776 OA
ATOM     54  H   UNK d   0       4.740   1.700  -7.101  0.00  0.00     0.167 HD
ENDBRANCH  51  53
ENDBRANCH  50  51
ENDBRANCH  49  50
ENDBRANCH  24  49
BRANCH  21  55
ATOM     55  C   UNK d   0      -1.671  -0.543  -9.014  0.00  0.00     0.151 C 
BRANCH  55  56
ATOM     56  C   UNK d   0      -0.768  -1.239  -9.944  0.00  0.00     0.143 C 
ATOM     57  O   UNK d   0       0.331  -1.711  -9.591  0.00  0.00    -0.650 OA
BRANCH  56  58
ATOM     58  O   UNK d   0      -1.175  -1.367 -11.271  0.00  0.00    -0.776 OA
ATOM     59  H   UNK d   0      -0.473  -1.791 -11.903  0.00  0.00     0.167 HD
ENDBRANCH  56  58
ENDBRANCH  55  56
ENDBRANCH  21  55
BRANCH  18  60
ATOM     60  C   UNK d   0      -4.365   0.737 -13.477  0.00  0.00     0.151 C 
BRANCH  60  61
ATOM     61  C   UNK d   0      -3.016   0.753 -14.064  0.00  0.00     0.143 C 
ATOM     62  O   UNK d   0      -2.585   1.535 -14.911  0.00  0.00    -0.650 OA
BRANCH  61  63
ATOM     63  O   UNK d   0      -2.139  -0.249 -13.584  0.00  0.00    -0.776 OA
ATOM     64  H   UNK d   0      -2.481  -1.157 -13.326  0.00  0.00     0.167 HD
ENDBRANCH  61  63
ENDBRANCH  60  61
ENDBRANCH  18  60
BRANCH  14  65
ATOM     65  C   UNK d   0      -5.779   3.090 -14.770  0.00  0.00     0.052 C 
BRANCH  65  66
ATOM     66  C   UNK d   0      -7.246   2.848 -14.712  0.00  0.00     0.115 C 
BRANCH  66  67
ATOM     67  C   UNK d   0      -8.156   3.915 -15.019  0.00  0.00     0.139 C 
ATOM     68  O   UNK d   0      -8.895   4.382 -14.076  0.00  0.00    -0.650 OA
BRANCH  67  69
ATOM     69  O   UNK d   0      -8.356   4.538 -16.251  0.00  0.00    -0.776 OA
ATOM     70  H   UNK d   0      -8.278   5.566 -16.251  0.00  0.00     0.167 HD
ENDBRANCH  67  69
ENDBRANCH  66  67
ENDBRANCH  65  66
ENDBRANCH  14  65
ENDBRANCH   6   7
ENDBRANCH   5   6
ENDBRANCH   2   5
TORSDOF 28
ENDMDL
MODEL 4
REMARK VINA RESULT:      -9.9      1.225      1.819
REMARK  28 active torsions:
REMARK  status: ('A' for Active; 'I' for Inactive)
REMARK    1  A    between atoms: C_2  and  O_3 
REMARK    2  A    between atoms: C_2  and  C_4 
REMARK    3  A    between atoms: C_4  and  C_5 
REMARK    4  A    between atoms: C_5  and  C_6 
REMARK    5  A    between atoms: C_7  and  C_8 
REMARK    6  A    between atoms: C_8  and  C_9 
REMARK    7  A    between atoms: C_9  and  O_11 
REMARK    8  A    between atoms: C_28  and  C_29 
REMARK    9  A    between atoms: C_29  and  C_30 
REMARK   10  A    between atoms: C_30  and  O_32 
REMARK   11  A    between atoms: C_33  and  C_34 
REMARK   12  A    between atoms: C_34  and  C_35 
REMARK   13  A    between atoms: C_35  and  C_36 
REMARK   14  A    between atoms: C_36  and  O_38 
REMARK   15  A    between atoms: C_39  and  C_40 
REMARK   16  A    between atoms: C_40  and  C_41 
REMARK   17  A    between atoms: C_41  and  C_42 
REMARK   18  A    between atoms: C_42  and  O_44 
REMARK   19  A    between atoms: C_45  and  C_46 
REMARK   20  A    between atoms: C_46  and  C_47 
REMARK   21  A    between atoms: C_47  and  O_49 
REMARK   22  A    between atoms: C_50  and  C_51 
REMARK   23  A    between atoms: C_51  and  C_52 
REMARK   24  A    between atoms: C_52  and  O_54 
REMARK   25  A    between atoms: C_55  and  C_56 
REMARK   26  A    between atoms: C_56  and  C_57 
REMARK   27  A    between atoms: C_57  and  C_58 
REMARK   28  A    between atoms: C_58  and  O_60 
ROOT
ATOM      1  O   UNK d   0       4.305   5.518  -5.907  0.00  0.00    -0.650 OA
ATOM      2  C   UNK d   0       3.800   4.574  -6.555  0.00  0.00     0.139 C 
ENDROOT
BRANCH   2   3
ATOM      3  O   UNK d   0       4.306   3.306  -6.403  0.00  0.00    -0.776 OA
ATOM      4  H   UNK d   0       4.730   3.009  -5.522  0.00  0.00     0.167 HD
ENDBRANCH   2   3
BRANCH   2   5
ATOM      5  C   UNK d   0       2.661   4.829  -7.482  0.00  0.00     0.115 C 
BRANCH   5   6
ATOM      6  C   UNK d   0       1.436   4.091  -7.012  0.00  0.00     0.052 C 
BRANCH   6   7
ATOM      7  C   UNK d   0       0.772   3.304  -8.117  0.00  0.00    -0.020 A 
ATOM      8  C   UNK d   0       1.069   2.098  -8.528  0.00  0.00    -0.011 A 
ATOM      9  C   UNK d   0       0.166   1.764  -9.617  0.00  0.00     0.067 A 
ATOM     10  C   UNK d   0      -0.050   0.654 -10.448  0.00  0.00     0.062 C 
ATOM     11  N   UNK d   0      -0.643   2.827  -9.807  0.00  0.00    -0.248 NA
ATOM     12  C   UNK d   0      -1.160   0.411 -11.265  0.00  0.00     0.041 A 
ATOM     13  N   UNK d   0      -1.858   1.226 -12.078  0.00  0.00    -0.355 N 
ATOM     14  C   UNK d   0      -1.746  -0.868 -11.253  0.00  0.00    -0.022 A 
ATOM     15  C   UNK d   0      -2.876   0.499 -12.577  0.00  0.00     0.042 A 
ATOM     16  H   UNK d   0      -1.625   2.288 -12.310  0.00  0.00     0.166 HD
ATOM     17  C   UNK d   0      -3.902   0.859 -13.474  0.00  0.00     0.062 C 
ATOM     18  C   UNK d   0      -2.839  -0.819 -12.082  0.00  0.00    -0.013 A 
ATOM     19  C   UNK d   0      -4.679   1.989 -13.487  0.00  0.00     0.067 A 
ATOM     20  N   UNK d   0      -4.310   2.986 -12.677  0.00  0.00    -0.248 NA
ATOM     21  C   UNK d   0      -5.882   2.422 -14.177  0.00  0.00    -0.011 A 
ATOM     22  C   UNK d   0      -5.186   4.038 -12.788  0.00  0.00     0.066 A 
ATOM     23  C   UNK d   0      -4.899   5.161 -12.026  0.00  0.00     0.062 C 
ATOM     24  C   UNK d   0      -6.176   3.620 -13.760  0.00  0.00    -0.020 A 
ATOM     25  C   UNK d   0      -3.772   5.391 -11.222  0.00  0.00     0.041 A 
ATOM     26  N   UNK d   0      -3.087   4.585 -10.402  0.00  0.00    -0.355 N 
ATOM     27  C   UNK d   0      -3.182   6.674 -11.237  0.00  0.00    -0.022 A 
ATOM     28  C   UNK d   0      -2.076   5.309  -9.897  0.00  0.00     0.042 A 
ATOM     29  H   UNK d   0      -3.329   3.520 -10.162  0.00  0.00     0.166 HD
ATOM     30  C   UNK d   0      -1.055   4.967  -8.997  0.00  0.00     0.062 C 
ATOM     31  C   UNK d   0      -2.108   6.631 -10.402  0.00  0.00    -0.013 A 
ATOM     32  C   UNK d   0      -0.330   3.787  -8.935  0.00  0.00     0.066 A 
BRANCH   8  33
ATOM     33  C   UNK d   0       2.129   1.219  -8.000  0.00  0.00     0.151 C 
BRANCH  33  34
ATOM     34  C   UNK d   0       1.829   0.712  -6.649  0.00  0.00     0.143 C 
ATOM     35  O   UNK d   0       0.722   0.222  -6.384  0.00  0.00    -0.650 OA
BRANCH  34  36
ATOM     36  O   UNK d   0       2.793   0.786  -5.670  0.00  0.00    -0.776 OA
ATOM     37  H   UNK d   0       2.695   0.271  -4.784  0.00  0.00     0.167 HD
ENDBRANCH  34  36
ENDBRANCH  33  34
ENDBRANCH   8  33
BRANCH  31  38
ATOM     38  C   UNK d   0      -1.160   7.770 -10.110  0.00  0.00     0.151 C 
BRANCH  38  39
ATOM     39  C   UNK d   0      -1.421   8.405  -8.835  0.00  0.00     0.143 C 
ATOM     40  O   UNK d   0      -2.531   8.346  -8.277  0.00  0.00    -0.650 OA
BRANCH  39  41
ATOM     41  O   UNK d   0      -0.400   9.110  -8.198  0.00  0.00    -0.776 OA
ATOM     42  H   UNK d   0      -0.367   9.051  -7.175  0.00  0.00     0.167 HD
ENDBRANCH  39  41
ENDBRANCH  38  39
ENDBRANCH  31  38
BRANCH  27  43
ATOM     43  C   UNK d   0      -3.595   7.909 -11.998  0.00  0.00     0.052 C 
BRANCH  43  44
ATOM     44  C   UNK d   0      -4.559   8.770 -11.248  0.00  0.00     0.115 C 
BRANCH  44  45
ATOM     45  C   UNK d   0      -3.871  10.064 -11.004  0.00  0.00     0.139 C 
ATOM     46  O   UNK d   0      -3.280  10.611 -11.967  0.00  0.00    -0.650 OA
BRANCH  45  47
ATOM     47  O   UNK d   0      -3.862  10.685  -9.773  0.00  0.00    -0.776 OA
ATOM     48  H   UNK d   0      -3.454  11.622  -9.622  0.00  0.00     0.167 HD
ENDBRANCH  45  47
ENDBRANCH  44  45
ENDBRANCH  43  44
ENDBRANCH  27  43
BRANCH  24  49
ATOM     49  C   UNK d   0      -7.299   4.451 -14.228  0.00  0.00     0.052 C 
BRANCH  49  50
ATOM     50  C   UNK d   0      -8.400   4.472 -13.198  0.00  0.00     0.115 C 
BRANCH  50  51
ATOM     51  C   UNK d   0      -9.543   5.335 -13.465  0.00  0.00     0.139 C 
ATOM     52  O   UNK d   0     -10.538   5.393 -12.705  0.00  0.00    -0.650 OA
BRANCH  51  53
ATOM     53  O   UNK d   0      -9.552   6.130 -14.601  0.00  0.00    -0.776 OA
ATOM     54  H   UNK d   0     -10.435   6.483 -14.927  0.00  0.00     0.167 HD
ENDBRANCH  51  53
ENDBRANCH  50  51
ENDBRANCH  49  50
ENDBRANCH  24  49
BRANCH  21  55
ATOM     55  C   UNK d   0      -6.610   1.595 -15.184  0.00  0.00     0.151 C 
BRANCH  55  56
ATOM     56  C   UNK d   0      -6.434   2.108 -16.551  0.00  0.00     0.143 C 
ATOM     57  O   UNK d   0      -5.366   1.994 -17.182  0.00  0.00    -0.650 OA
BRANCH  56  58
ATOM     58  O   UNK d   0      -7.519   2.747 -17.149  0.00  0.00    -0.776 OA
ATOM     59  H   UNK d   0      -8.223   2.113 -17.568  0.00  0.00     0.167 HD
ENDBRANCH  56  58
ENDBRANCH  55  56
ENDBRANCH  21  55
BRANCH  18  60
ATOM     60  C   UNK d   0      -3.767  -1.975 -12.358  0.00  0.00     0.151 C 
BRANCH  60  61
ATOM     61  C   UNK d   0      -4.743  -1.982 -11.257  0.00  0.00     0.143 C 
ATOM     62  O   UNK d   0      -4.984  -1.063 -10.474  0.00  0.00    -0.650 OA
BRANCH  61  63
ATOM     63  O   UNK d   0      -5.469  -3.187 -11.103  0.00  0.00    -0.776 OA
ATOM     64  H   UNK d   0      -5.911  -3.630 -11.889  0.00  0.00     0.167 HD
ENDBRANCH  61  63
ENDBRANCH  60  61
ENDBRANCH  18  60
BRANCH  14  65
ATOM     65  C   UNK d   0      -1.298  -2.146 -10.603  0.00  0.00     0.052 C 
BRANCH  65  66
ATOM     66  C   UNK d   0      -1.560  -2.176  -9.139  0.00  0.00     0.115 C 
BRANCH  66  67
ATOM     67  C   UNK d   0      -0.509  -2.554  -8.236  0.00  0.00     0.139 C 
ATOM     68  O   UNK d   0      -0.788  -3.359  -7.272  0.00  0.00    -0.650 OA
BRANCH  67  69
ATOM     69  O   UNK d   0       0.825  -2.150  -8.262  0.00  0.00    -0.776 OA
ATOM     70  H   UNK d   0       1.407  -2.474  -7.476  0.00  0.00     0.167 HD
ENDBRANCH  67  69
ENDBRANCH  66  67
ENDBRANCH  65  66
ENDBRANCH  14  65
ENDBRANCH   6   7
ENDBRANCH   5   6
ENDBRANCH   2   5
TORSDOF 28
ENDMDL
MODEL 5
REMARK VINA RESULT:      -9.7      2.004      9.546
REMARK  28 active torsions:
REMARK  status: ('A' for Active; 'I' for Inactive)
REMARK    1  A    between atoms: C_2  and  O_3 
REMARK    2  A    between atoms: C_2  and  C_4 
REMARK    3  A    between atoms: C_4  and  C_5 
REMARK    4  A    between atoms: C_5  and  C_6 
REMARK    5  A    between atoms: C_7  and  C_8 
REMARK    6  A    between atoms: C_8  and  C_9 
REMARK    7  A    between atoms: C_9  and  O_11 
REMARK    8  A    between atoms: C_28  and  C_29 
REMARK    9  A    between atoms: C_29  and  C_30 
REMARK   10  A    between atoms: C_30  and  O_32 
REMARK   11  A    between atoms: C_33  and  C_34 
REMARK   12  A    between atoms: C_34  and  C_35 
REMARK   13  A    between atoms: C_35  and  C_36 
REMARK   14  A    between atoms: C_36  and  O_38 
REMARK   15  A    between atoms: C_39  and  C_40 
REMARK   16  A    between atoms: C_40  and  C_41 
REMARK   17  A    between atoms: C_41  and  C_42 
REMARK   18  A    between atoms: C_42  and  O_44 
REMARK   19  A    between atoms: C_45  and  C_46 
REMARK   20  A    between atoms: C_46  and  C_47 
REMARK   21  A    between atoms: C_47  and  O_49 
REMARK   22  A    between atoms: C_50  and  C_51 
REMARK   23  A    between atoms: C_51  and  C_52 
REMARK   24  A    between atoms: C_52  and  O_54 
REMARK   25  A    between atoms: C_55  and  C_56 
REMARK   26  A    between atoms: C_56  and  C_57 
REMARK   27  A    between atoms: C_57  and  C_58 
REMARK   28  A    between atoms: C_58  and  O_60 
ROOT
ATOM      1  O   UNK d   0      -9.455   7.031 -12.815  0.00  0.00    -0.650 OA
ATOM      2  C   UNK d   0      -8.453   7.242 -13.533  0.00  0.00     0.139 C 
ENDROOT
BRANCH   2   3
ATOM      3  O   UNK d   0      -8.235   6.451 -14.635  0.00  0.00    -0.776 OA
ATOM      4  H   UNK d   0      -7.288   6.217 -14.938  0.00  0.00     0.167 HD
ENDBRANCH   2   3
BRANCH   2   5
ATOM      5  C   UNK d   0      -7.506   8.341 -13.192  0.00  0.00     0.115 C 
BRANCH   5   6
ATOM      6  C   UNK d   0      -6.203   8.146 -13.918  0.00  0.00     0.052 C 
BRANCH   6   7
ATOM      7  C   UNK d   0      -5.085   7.710 -13.001  0.00  0.00    -0.020 A 
ATOM      8  C   UNK d   0      -4.199   8.467 -12.407  0.00  0.00    -0.011 A 
ATOM      9  C   UNK d   0      -3.321   7.602 -11.636  0.00  0.00     0.067 A 
ATOM     10  C   UNK d   0      -2.219   7.778 -10.784  0.00  0.00     0.062 C 
ATOM     11  N   UNK d   0      -3.743   6.334 -11.822  0.00  0.00    -0.248 NA
ATOM     12  C   UNK d   0      -1.671   6.840  -9.903  0.00  0.00     0.041 A 
ATOM     13  N   UNK d   0      -1.415   5.526 -10.054  0.00  0.00    -0.355 N 
ATOM     14  C   UNK d   0      -1.352   7.241  -8.593  0.00  0.00    -0.022 A 
ATOM     15  C   UNK d   0      -0.949   5.083  -8.871  0.00  0.00     0.042 A 
ATOM     16  H   UNK d   0      -1.542   4.929 -10.984  0.00  0.00     0.166 HD
ATOM     17  C   UNK d   0      -0.531   3.795  -8.479  0.00  0.00     0.062 C 
ATOM     18  C   UNK d   0      -0.896   6.129  -7.930  0.00  0.00    -0.013 A 
ATOM     19  C   UNK d   0      -1.128   2.584  -8.719  0.00  0.00     0.067 A 
ATOM     20  N   UNK d   0      -2.130   2.568  -9.601  0.00  0.00    -0.248 NA
ATOM     21  C   UNK d   0      -0.965   1.224  -8.232  0.00  0.00    -0.011 A 
ATOM     22  C   UNK d   0      -2.636   1.297  -9.725  0.00  0.00     0.066 A 
ATOM     23  C   UNK d   0      -3.663   1.129 -10.642  0.00  0.00     0.062 C 
ATOM     24  C   UNK d   0      -1.853   0.477  -8.822  0.00  0.00    -0.020 A 
ATOM     25  C   UNK d   0      -4.191   2.082 -11.527  0.00  0.00     0.041 A 
ATOM     26  N   UNK d   0      -4.459   3.384 -11.373  0.00  0.00    -0.355 N 
ATOM     27  C   UNK d   0      -4.506   1.679 -12.843  0.00  0.00    -0.022 A 
ATOM     28  C   UNK d   0      -4.932   3.827 -12.549  0.00  0.00     0.042 A 
ATOM     29  H   UNK d   0      -4.341   3.980 -10.435  0.00  0.00     0.166 HD
ATOM     30  C   UNK d   0      -5.360   5.102 -12.950  0.00  0.00     0.062 C 
ATOM     31  C   UNK d   0      -4.975   2.777 -13.497  0.00  0.00    -0.013 A 
ATOM     32  C   UNK d   0      -4.802   6.331 -12.633  0.00  0.00     0.066 A 
BRANCH   8  33
ATOM     33  C   UNK d   0      -4.087   9.934 -12.495  0.00  0.00     0.151 C 
BRANCH  33  34
ATOM     34  C   UNK d   0      -4.640  10.621 -11.314  0.00  0.00     0.143 C 
ATOM     35  O   UNK d   0      -3.894  11.101 -10.449  0.00  0.00    -0.650 OA
BRANCH  34  36
ATOM     36  O   UNK d   0      -6.005  10.726 -11.172  0.00  0.00    -0.776 OA
ATOM     37  H   UNK d   0      -6.624   9.926 -11.356  0.00  0.00     0.167 HD
ENDBRANCH  34  36
ENDBRANCH  33  34
ENDBRANCH   8  33
BRANCH  31  38
ATOM     38  C   UNK d   0      -5.425   2.833 -14.938  0.00  0.00     0.151 C 
BRANCH  38  39
ATOM     39  C   UNK d   0      -6.841   2.577 -15.094  0.00  0.00     0.143 C 
ATOM     40  O   UNK d   0      -7.706   3.422 -14.805  0.00  0.00    -0.650 OA
BRANCH  39  41
ATOM     41  O   UNK d   0      -7.265   1.343 -15.587  0.00  0.00    -0.776 OA
ATOM     42  H   UNK d   0      -6.535   0.657 -15.803  0.00  0.00     0.167 HD
ENDBRANCH  39  41
ENDBRANCH  38  39
ENDBRANCH  31  38
BRANCH  27  43
ATOM     43  C   UNK d   0      -4.382   0.320 -13.485  0.00  0.00     0.052 C 
BRANCH  43  44
ATOM     44  C   UNK d   0      -3.005  -0.252 -13.396  0.00  0.00     0.115 C 
BRANCH  44  45
ATOM     45  C   UNK d   0      -2.108   0.687 -14.119  0.00  0.00     0.139 C 
ATOM     46  O   UNK d   0      -2.326   0.893 -15.339  0.00  0.00    -0.650 OA
BRANCH  45  47
ATOM     47  O   UNK d   0      -1.058   1.338 -13.508  0.00  0.00    -0.776 OA
ATOM     48  H   UNK d   0      -0.070   1.162 -13.753  0.00  0.00     0.167 HD
ENDBRANCH  45  47
ENDBRANCH  44  45
ENDBRANCH  43  44
ENDBRANCH  27  43
BRANCH  24  49
ATOM     49  C   UNK d   0      -2.017  -0.977  -8.650  0.00  0.00     0.052 C 
BRANCH  49  50
ATOM     50  C   UNK d   0      -0.883  -1.714  -9.315  0.00  0.00     0.115 C 
BRANCH  50  51
ATOM     51  C   UNK d   0      -0.729  -1.540 -10.753  0.00  0.00     0.139 C 
ATOM     52  O   UNK d   0      -1.267  -2.304 -11.588  0.00  0.00    -0.650 OA
BRANCH  51  53
ATOM     53  O   UNK d   0       0.042  -0.495 -11.238  0.00  0.00    -0.776 OA
ATOM     54  H   UNK d   0      -0.429   0.318 -11.594  0.00  0.00     0.167 HD
ENDBRANCH  51  53
ENDBRANCH  50  51
ENDBRANCH  49  50
ENDBRANCH  24  49
BRANCH  21  55
ATOM     55  C   UNK d   0       0.064   0.813  -7.232  0.00  0.00     0.151 C 
BRANCH  55  56
ATOM     56  C   UNK d   0       1.369   0.552  -7.859  0.00  0.00     0.143 C 
ATOM     57  O   UNK d   0       1.665   0.963  -8.998  0.00  0.00    -0.650 OA
BRANCH  56  58
ATOM     58  O   UNK d   0       2.301  -0.188  -7.133  0.00  0.00    -0.776 OA
ATOM     59  H   UNK d   0       2.850  -0.866  -7.692  0.00  0.00     0.167 HD
ENDBRANCH  56  58
ENDBRANCH  55  56
ENDBRANCH  21  55
BRANCH  18  60
ATOM     60  C   UNK d   0      -0.450   6.104  -6.489  0.00  0.00     0.151 C 
BRANCH  60  61
ATOM     61  C   UNK d   0       1.002   6.337  -6.512  0.00  0.00     0.143 C 
ATOM     62  O   UNK d   0       1.873   5.557  -6.899  0.00  0.00    -0.650 OA
BRANCH  61  63
ATOM     63  O   UNK d   0       1.417   7.603  -6.033  0.00  0.00    -0.776 OA
ATOM     64  H   UNK d   0       2.044   8.179  -6.567  0.00  0.00     0.167 HD
ENDBRANCH  61  63
ENDBRANCH  60  61
ENDBRANCH  18  60
BRANCH  14  65
ATOM     65  C   UNK d   0      -1.353   8.602  -7.957  0.00  0.00     0.052 C 
BRANCH  65  66
ATOM     66  C   UNK d   0      -2.705   9.222  -7.912  0.00  0.00     0.115 C 
BRANCH  66  67
ATOM     67  C   UNK d   0      -2.904  10.443  -7.182  0.00  0.00     0.139 C 
ATOM     68  O   UNK d   0      -3.108  10.374  -5.914  0.00  0.00    -0.650 OA
BRANCH  67  69
ATOM     69  O   UNK d   0      -2.906  11.745  -7.681  0.00  0.00    -0.776 OA
ATOM     70  H   UNK d   0      -3.555  12.400  -7.222  0.00  0.00     0.167 HD
ENDBRANCH  67  69
ENDBRANCH  66  67
ENDBRANCH  65  66
ENDBRANCH  14  65
ENDBRANCH   6   7
ENDBRANCH   5   6
ENDBRANCH   2   5
TORSDOF 28
ENDMDL
MODEL 6
REMARK VINA RESULT:      -9.6      2.170      8.484
REMARK  28 active torsions:
REMARK  status: ('A' for Active; 'I' for Inactive)
REMARK    1  A    between atoms: C_2  and  O_3 
REMARK    2  A    between atoms: C_2  and  C_4 
REMARK    3  A    between atoms: C_4  and  C_5 
REMARK    4  A    between atoms: C_5  and  C_6 
REMARK    5  A    between atoms: C_7  and  C_8 
REMARK    6  A    between atoms: C_8  and  C_9 
REMARK    7  A    between atoms: C_9  and  O_11 
REMARK    8  A    between atoms: C_28  and  C_29 
REMARK    9  A    between atoms: C_29  and  C_30 
REMARK   10  A    between atoms: C_30  and  O_32 
REMARK   11  A    between atoms: C_33  and  C_34 
REMARK   12  A    between atoms: C_34  and  C_35 
REMARK   13  A    between atoms: C_35  and  C_36 
REMARK   14  A    between atoms: C_36  and  O_38 
REMARK   15  A    between atoms: C_39  and  C_40 
REMARK   16  A    between atoms: C_40  and  C_41 
REMARK   17  A    between atoms: C_41  and  C_42 
REMARK   18  A    between atoms: C_42  and  O_44 
REMARK   19  A    between atoms: C_45  and  C_46 
REMARK   20  A    between atoms: C_46  and  C_47 
REMARK   21  A    between atoms: C_47  and  O_49 
REMARK   22  A    between atoms: C_50  and  C_51 
REMARK   23  A    between atoms: C_51  and  C_52 
REMARK   24  A    between atoms: C_52  and  O_54 
REMARK   25  A    between atoms: C_55  and  C_56 
REMARK   26  A    between atoms: C_56  and  C_57 
REMARK   27  A    between atoms: C_57  and  C_58 
REMARK   28  A    between atoms: C_58  and  O_60 
ROOT
ATOM      1  O   UNK d   0      -6.090  10.003 -12.607  0.00  0.00    -0.650 OA
ATOM      2  C   UNK d   0      -5.350  10.165 -11.611  0.00  0.00     0.139 C 
ENDROOT
BRANCH   2   3
ATOM      3  O   UNK d   0      -5.507  11.285 -10.832  0.00  0.00    -0.776 OA
ATOM      4  H   UNK d   0      -4.856  12.070 -10.899  0.00  0.00     0.167 HD
ENDBRANCH   2   3
BRANCH   2   5
ATOM      5  C   UNK d   0      -4.311   9.150 -11.278  0.00  0.00     0.115 C 
BRANCH   5   6
ATOM      6  C   UNK d   0      -4.127   8.199 -12.429  0.00  0.00     0.052 C 
BRANCH   6   7
ATOM      7  C   UNK d   0      -3.944   6.770 -11.979  0.00  0.00    -0.020 A 
ATOM      8  C   UNK d   0      -4.627   5.720 -12.358  0.00  0.00    -0.011 A 
ATOM      9  C   UNK d   0      -4.097   4.566 -11.651  0.00  0.00     0.067 A 
ATOM     10  C   UNK d   0      -4.361   3.187 -11.621  0.00  0.00     0.062 C 
ATOM     11  N   UNK d   0      -3.097   5.005 -10.859  0.00  0.00    -0.248 NA
ATOM     12  C   UNK d   0      -3.554   2.182 -11.078  0.00  0.00     0.041 A 
ATOM     13  N   UNK d   0      -2.857   2.129  -9.928  0.00  0.00    -0.355 N 
ATOM     14  C   UNK d   0      -3.336   1.008 -11.823  0.00  0.00    -0.022 A 
ATOM     15  C   UNK d   0      -2.196   0.956  -9.927  0.00  0.00     0.042 A 
ATOM     16  H   UNK d   0      -2.848   2.897  -9.123  0.00  0.00     0.166 HD
ATOM     17  C   UNK d   0      -1.327   0.398  -8.967  0.00  0.00     0.062 C 
ATOM     18  C   UNK d   0      -2.471   0.226 -11.099  0.00  0.00    -0.013 A 
ATOM     19  C   UNK d   0      -0.303   0.996  -8.280  0.00  0.00     0.067 A 
ATOM     20  N   UNK d   0      -0.216   2.327  -8.361  0.00  0.00    -0.248 NA
ATOM     21  C   UNK d   0       0.796   0.547  -7.442  0.00  0.00    -0.011 A 
ATOM     22  C   UNK d   0       0.860   2.779  -7.638  0.00  0.00     0.066 A 
ATOM     23  C   UNK d   0       1.047   4.153  -7.605  0.00  0.00     0.062 C 
ATOM     24  C   UNK d   0       1.476   1.594  -7.073  0.00  0.00    -0.020 A 
ATOM     25  C   UNK d   0       0.218   5.147  -8.146  0.00  0.00     0.041 A 
ATOM     26  N   UNK d   0      -0.463   5.206  -9.297  0.00  0.00    -0.355 N 
ATOM     27  C   UNK d   0      -0.005   6.323  -7.396  0.00  0.00    -0.022 A 
ATOM     28  C   UNK d   0      -1.117   6.379  -9.304  0.00  0.00     0.042 A 
ATOM     29  H   UNK d   0      -0.463   4.438 -10.109  0.00  0.00     0.166 HD
ATOM     30  C   UNK d   0      -1.976   6.951 -10.255  0.00  0.00     0.062 C 
ATOM     31  C   UNK d   0      -0.848   7.107  -8.121  0.00  0.00    -0.013 A 
ATOM     32  C   UNK d   0      -2.954   6.323 -11.010  0.00  0.00     0.066 A 
BRANCH   8  33
ATOM     33  C   UNK d   0      -5.742   5.690 -13.322  0.00  0.00     0.151 C 
BRANCH  33  34
ATOM     34  C   UNK d   0      -6.360   4.357 -13.439  0.00  0.00     0.143 C 
ATOM     35  O   UNK d   0      -7.344   4.048 -12.752  0.00  0.00    -0.650 OA
BRANCH  34  36
ATOM     36  O   UNK d   0      -5.833   3.444 -14.323  0.00  0.00    -0.776 OA
ATOM     37  H   UNK d   0      -4.820   3.395 -14.502  0.00  0.00     0.167 HD
ENDBRANCH  34  36
ENDBRANCH  33  34
ENDBRANCH   8  33
BRANCH  31  38
ATOM     38  C   UNK d   0      -1.379   8.461  -7.711  0.00  0.00     0.151 C 
BRANCH  38  39
ATOM     39  C   UNK d   0      -2.697   8.391  -7.116  0.00  0.00     0.143 C 
ATOM     40  O   UNK d   0      -2.883   7.973  -5.960  0.00  0.00    -0.650 OA
BRANCH  39  41
ATOM     41  O   UNK d   0      -3.806   8.803  -7.854  0.00  0.00    -0.776 OA
ATOM     42  H   UNK d   0      -4.660   8.245  -7.755  0.00  0.00     0.167 HD
ENDBRANCH  39  41
ENDBRANCH  38  39
ENDBRANCH  31  38
BRANCH  27  43
ATOM     43  C   UNK d   0       0.545   6.718  -6.048  0.00  0.00     0.052 C 
BRANCH  43  44
ATOM     44  C   UNK d   0       0.796   8.185  -5.919  0.00  0.00     0.115 C 
BRANCH  44  45
ATOM     45  C   UNK d   0       2.244   8.344  -5.624  0.00  0.00     0.139 C 
ATOM     46  O   UNK d   0       2.652   9.473  -5.255  0.00  0.00    -0.650 OA
BRANCH  45  47
ATOM     47  O   UNK d   0       3.147   7.309  -5.734  0.00  0.00    -0.776 OA
ATOM     48  H   UNK d   0       3.486   6.773  -4.919  0.00  0.00     0.167 HD
ENDBRANCH  45  47
ENDBRANCH  44  45
ENDBRANCH  43  44
ENDBRANCH  27  43
BRANCH  24  49
ATOM     49  C   UNK d   0       2.650   1.599  -6.185  0.00  0.00     0.052 C 
BRANCH  49  50
ATOM     50  C   UNK d   0       3.847   2.172  -6.900  0.00  0.00     0.115 C 
BRANCH  50  51
ATOM     51  C   UNK d   0       5.135   1.539  -6.653  0.00  0.00     0.139 C 
ATOM     52  O   UNK d   0       5.553   1.284  -5.498  0.00  0.00    -0.650 OA
BRANCH  51  53
ATOM     53  O   UNK d   0       5.949   1.199  -7.722  0.00  0.00    -0.776 OA
ATOM     54  H   UNK d   0       5.518   1.033  -8.614  0.00  0.00     0.167 HD
ENDBRANCH  51  53
ENDBRANCH  50  51
ENDBRANCH  49  50
ENDBRANCH  24  49
BRANCH  21  55
ATOM     55  C   UNK d   0       1.050  -0.883  -7.094  0.00  0.00     0.151 C 
BRANCH  55  56
ATOM     56  C   UNK d   0       0.393  -1.269  -5.836  0.00  0.00     0.143 C 
ATOM     57  O   UNK d   0       0.453  -2.424  -5.370  0.00  0.00    -0.650 OA
BRANCH  56  58
ATOM     58  O   UNK d   0      -0.323  -0.289  -5.150  0.00  0.00    -0.776 OA
ATOM     59  H   UNK d   0      -0.800   0.405  -5.753  0.00  0.00     0.167 HD
ENDBRANCH  56  58
ENDBRANCH  55  56
ENDBRANCH  21  55
BRANCH  18  60
ATOM     60  C   UNK d   0      -1.959  -1.125 -11.532  0.00  0.00     0.151 C 
BRANCH  60  61
ATOM     61  C   UNK d   0      -2.954  -2.103 -11.066  0.00  0.00     0.143 C 
ATOM     62  O   UNK d   0      -3.831  -1.923 -10.221  0.00  0.00    -0.650 OA
BRANCH  61  63
ATOM     63  O   UNK d   0      -2.874  -3.380 -11.671  0.00  0.00    -0.776 OA
ATOM     64  H   UNK d   0      -3.703  -3.897 -11.903  0.00  0.00     0.167 HD
ENDBRANCH  61  63
ENDBRANCH  60  61
ENDBRANCH  18  60
BRANCH  14  65
ATOM     65  C   UNK d   0      -3.953   0.532 -13.108  0.00  0.00     0.052 C 
BRANCH  65  66
ATOM     66  C   UNK d   0      -3.355   1.169 -14.311  0.00  0.00     0.115 C 
BRANCH  66  67
ATOM     67  C   UNK d   0      -1.933   1.127 -14.506  0.00  0.00     0.139 C 
ATOM     68  O   UNK d   0      -1.202   1.982 -13.883  0.00  0.00    -0.650 OA
BRANCH  67  69
ATOM     69  O   UNK d   0      -1.208   0.250 -15.312  0.00  0.00    -0.776 OA
ATOM     70  H   UNK d   0      -0.468  -0.288 -14.837  0.00  0.00     0.167 HD
ENDBRANCH  67  69
ENDBRANCH  66  67
ENDBRANCH  65  66
ENDBRANCH  14  65
ENDBRANCH   6   7
ENDBRANCH   5   6
ENDBRANCH   2   5
TORSDOF 28
ENDMDL
MODEL 7
REMARK VINA RESULT:      -9.6      2.144      3.863
REMARK  28 active torsions:
REMARK  status: ('A' for Active; 'I' for Inactive)
REMARK    1  A    between atoms: C_2  and  O_3 
REMARK    2  A    between atoms: C_2  and  C_4 
REMARK    3  A    between atoms: C_4  and  C_5 
REMARK    4  A    between atoms: C_5  and  C_6 
REMARK    5  A    between atoms: C_7  and  C_8 
REMARK    6  A    between atoms: C_8  and  C_9 
REMARK    7  A    between atoms: C_9  and  O_11 
REMARK    8  A    between atoms: C_28  and  C_29 
REMARK    9  A    between atoms: C_29  and  C_30 
REMARK   10  A    between atoms: C_30  and  O_32 
REMARK   11  A    between atoms: C_33  and  C_34 
REMARK   12  A    between atoms: C_34  and  C_35 
REMARK   13  A    between atoms: C_35  and  C_36 
REMARK   14  A    between atoms: C_36  and  O_38 
REMARK   15  A    between atoms: C_39  and  C_40 
REMARK   16  A    between atoms: C_40  and  C_41 
REMARK   17  A    between atoms: C_41  and  C_42 
REMARK   18  A    between atoms: C_42  and  O_44 
REMARK   19  A    between atoms: C_45  and  C_46 
REMARK   20  A    between atoms: C_46  and  C_47 
REMARK   21  A    between atoms: C_47  and  O_49 
REMARK   22  A    between atoms: C_50  and  C_51 
REMARK   23  A    between atoms: C_51  and  C_52 
REMARK   24  A    between atoms: C_52  and  O_54 
REMARK   25  A    between atoms: C_55  and  C_56 
REMARK   26  A    between atoms: C_56  and  C_57 
REMARK   27  A    between atoms: C_57  and  C_58 
REMARK   28  A    between atoms: C_58  and  O_60 
ROOT
ATOM      1  O   UNK d   0       2.777   3.048  -6.791  0.00  0.00    -0.650 OA
ATOM      2  C   UNK d   0       3.070   1.861  -7.056  0.00  0.00     0.139 C 
ENDROOT
BRANCH   2   3
ATOM      3  O   UNK d   0       3.584   1.554  -8.293  0.00  0.00    -0.776 OA
ATOM      4  H   UNK d   0       3.378   2.134  -9.109  0.00  0.00     0.167 HD
ENDBRANCH   2   3
BRANCH   2   5
ATOM      5  C   UNK d   0       2.859   0.792  -6.038  0.00  0.00     0.115 C 
BRANCH   5   6
ATOM      6  C   UNK d   0       1.388   0.579  -5.808  0.00  0.00     0.052 C 
BRANCH   6   7
ATOM      7  C   UNK d   0       0.666   0.118  -7.052  0.00  0.00    -0.020 A 
ATOM      8  C   UNK d   0       0.637  -1.089  -7.556  0.00  0.00    -0.011 A 
ATOM      9  C   UNK d   0      -0.177  -1.048  -8.760  0.00  0.00     0.067 A 
ATOM     10  C   UNK d   0      -0.609  -1.975  -9.722  0.00  0.00     0.062 C 
ATOM     11  N   UNK d   0      -0.599   0.224  -8.916  0.00  0.00    -0.248 NA
ATOM     12  C   UNK d   0      -1.626  -1.803 -10.667  0.00  0.00     0.041 A 
ATOM     13  N   UNK d   0      -1.936  -0.756 -11.455  0.00  0.00    -0.355 N 
ATOM     14  C   UNK d   0      -2.565  -2.834 -10.851  0.00  0.00    -0.022 A 
ATOM     15  C   UNK d   0      -3.053  -1.094 -12.128  0.00  0.00     0.042 A 
ATOM     16  H   UNK d   0      -1.367   0.195 -11.548  0.00  0.00     0.166 HD
ATOM     17  C   UNK d   0      -3.799  -0.371 -13.081  0.00  0.00     0.062 C 
ATOM     18  C   UNK d   0      -3.477  -2.389 -11.776  0.00  0.00    -0.013 A 
ATOM     19  C   UNK d   0      -4.192   0.943 -13.051  0.00  0.00     0.067 A 
ATOM     20  N   UNK d   0      -3.648   1.716 -12.108  0.00  0.00    -0.248 NA
ATOM     21  C   UNK d   0      -5.111   1.776 -13.809  0.00  0.00    -0.011 A 
ATOM     22  C   UNK d   0      -4.145   2.993 -12.193  0.00  0.00     0.066 A 
ATOM     23  C   UNK d   0      -3.635   3.915 -11.292  0.00  0.00     0.062 C 
ATOM     24  C   UNK d   0      -5.082   2.973 -13.300  0.00  0.00    -0.020 A 
ATOM     25  C   UNK d   0      -2.603   3.726 -10.359  0.00  0.00     0.041 A 
ATOM     26  N   UNK d   0      -2.304   2.692  -9.564  0.00  0.00    -0.355 N 
ATOM     27  C   UNK d   0      -1.659   4.760 -10.178  0.00  0.00    -0.022 A 
ATOM     28  C   UNK d   0      -1.196   3.029  -8.885  0.00  0.00     0.042 A 
ATOM     29  H   UNK d   0      -2.883   1.741  -9.464  0.00  0.00     0.166 HD
ATOM     30  C   UNK d   0      -0.449   2.324  -7.929  0.00  0.00     0.062 C 
ATOM     31  C   UNK d   0      -0.764   4.327  -9.248  0.00  0.00    -0.013 A 
ATOM     32  C   UNK d   0      -0.126   0.976  -7.920  0.00  0.00     0.066 A 
BRANCH   8  33
ATOM     33  C   UNK d   0       1.306  -2.289  -7.021  0.00  0.00     0.151 C 
BRANCH  33  34
ATOM     34  C   UNK d   0       0.470  -3.026  -6.056  0.00  0.00     0.143 C 
ATOM     35  O   UNK d   0       0.591  -4.251  -5.915  0.00  0.00    -0.650 OA
BRANCH  34  36
ATOM     36  O   UNK d   0      -0.458  -2.342  -5.306  0.00  0.00    -0.776 OA
ATOM     37  H   UNK d   0      -0.423  -1.317  -5.217  0.00  0.00     0.167 HD
ENDBRANCH  34  36
ENDBRANCH  33  34
ENDBRANCH   8  33
BRANCH  31  38
ATOM     38  C   UNK d   0       0.437   5.092  -8.743  0.00  0.00     0.151 C 
BRANCH  38  39
ATOM     39  C   UNK d   0       0.230   5.653  -7.424  0.00  0.00     0.143 C 
ATOM     40  O   UNK d   0      -0.733   6.394  -7.160  0.00  0.00    -0.650 OA
BRANCH  39  41
ATOM     41  O   UNK d   0       1.136   5.361  -6.405  0.00  0.00    -0.776 OA
ATOM     42  H   UNK d   0       1.724   6.132  -6.075  0.00  0.00     0.167 HD
ENDBRANCH  39  41
ENDBRANCH  38  39
ENDBRANCH  31  38
BRANCH  27  43
ATOM     43  C   UNK d   0      -1.580   6.113 -10.841  0.00  0.00     0.052 C 
BRANCH  43  44
ATOM     44  C   UNK d   0      -2.396   7.157 -10.151  0.00  0.00     0.115 C 
BRANCH  44  45
ATOM     45  C   UNK d   0      -3.117   7.904 -11.214  0.00  0.00     0.139 C 
ATOM     46  O   UNK d   0      -3.165   9.156 -11.130  0.00  0.00    -0.650 OA
BRANCH  45  47
ATOM     47  O   UNK d   0      -3.724   7.282 -12.284  0.00  0.00    -0.776 OA
ATOM     48  H   UNK d   0      -4.715   6.989 -12.273  0.00  0.00     0.167 HD
ENDBRANCH  45  47
ENDBRANCH  44  45
ENDBRANCH  43  44
ENDBRANCH  27  43
BRANCH  24  49
ATOM     49  C   UNK d   0      -5.834   4.143 -13.787  0.00  0.00     0.052 C 
BRANCH  49  50
ATOM     50  C   UNK d   0      -7.274   4.059 -13.351  0.00  0.00     0.115 C 
BRANCH  50  51
ATOM     51  C   UNK d   0      -8.283   3.983 -14.399  0.00  0.00     0.139 C 
ATOM     52  O   UNK d   0      -9.040   2.994 -14.539  0.00  0.00    -0.650 OA
BRANCH  51  53
ATOM     53  O   UNK d   0      -8.426   5.035 -15.291  0.00  0.00    -0.776 OA
ATOM     54  H   UNK d   0      -8.301   4.848 -16.271  0.00  0.00     0.167 HD
ENDBRANCH  51  53
ENDBRANCH  50  51
ENDBRANCH  49  50
ENDBRANCH  24  49
BRANCH  21  55
ATOM     55  C   UNK d   0      -5.918   1.289 -14.967  0.00  0.00     0.151 C 
BRANCH  55  56
ATOM     56  C   UNK d   0      -5.349   1.714 -16.255  0.00  0.00     0.143 C 
ATOM     57  O   UNK d   0      -6.052   2.100 -17.209  0.00  0.00    -0.650 OA
BRANCH  56  58
ATOM     58  O   UNK d   0      -3.962   1.677 -16.395  0.00  0.00    -0.776 OA
ATOM     59  H   UNK d   0      -3.522   2.588 -16.620  0.00  0.00     0.167 HD
ENDBRANCH  56  58
ENDBRANCH  55  56
ENDBRANCH  21  55
BRANCH  18  60
ATOM     60  C   UNK d   0      -4.667  -3.178 -12.265  0.00  0.00     0.151 C 
BRANCH  60  61
ATOM     61  C   UNK d   0      -5.625  -3.196 -11.150  0.00  0.00     0.143 C 
ATOM     62  O   UNK d   0      -5.982  -2.239 -10.462  0.00  0.00    -0.650 OA
BRANCH  61  63
ATOM     63  O   UNK d   0      -6.184  -4.463 -10.857  0.00  0.00    -0.776 OA
ATOM     64  H   UNK d   0      -5.654  -5.163 -10.369  0.00  0.00     0.167 HD
ENDBRANCH  61  63
ENDBRANCH  60  61
ENDBRANCH  18  60
BRANCH  14  65
ATOM     65  C   UNK d   0      -2.610  -4.230 -10.298  0.00  0.00     0.052 C 
BRANCH  65  66
ATOM     66  C   UNK d   0      -1.766  -4.403  -9.085  0.00  0.00     0.115 C 
BRANCH  66  67
ATOM     67  C   UNK d   0      -1.789  -5.650  -8.373  0.00  0.00     0.139 C 
ATOM     68  O   UNK d   0      -2.111  -6.717  -9.015  0.00  0.00    -0.650 OA
BRANCH  67  69
ATOM     69  O   UNK d   0      -1.498  -5.870  -7.027  0.00  0.00    -0.776 OA
ATOM     70  H   UNK d   0      -1.168  -6.816  -6.789  0.00  0.00     0.167 HD
ENDBRANCH  67  69
ENDBRANCH  66  67
ENDBRANCH  65  66
ENDBRANCH  14  65
ENDBRANCH   6   7
ENDBRANCH   5   6
ENDBRANCH   2   5
TORSDOF 28
ENDMDL
MODEL 8
REMARK VINA RESULT:      -9.4      1.973      8.201
REMARK  28 active torsions:
REMARK  status: ('A' for Active; 'I' for Inactive)
REMARK    1  A    between atoms: C_2  and  O_3 
REMARK    2  A    between atoms: C_2  and  C_4 
REMARK    3  A    between atoms: C_4  and  C_5 
REMARK    4  A    between atoms: C_5  and  C_6 
REMARK    5  A    between atoms: C_7  and  C_8 
REMARK    6  A    between atoms: C_8  and  C_9 
REMARK    7  A    between atoms: C_9  and  O_11 
REMARK    8  A    between atoms: C_28  and  C_29 
REMARK    9  A    between atoms: C_29  and  C_30 
REMARK   10  A    between atoms: C_30  and  O_32 
REMARK   11  A    between atoms: C_33  and  C_34 
REMARK   12  A    between atoms: C_34  and  C_35 
REMARK   13  A    between atoms: C_35  and  C_36 
REMARK   14  A    between atoms: C_36  and  O_38 
REMARK   15  A    between atoms: C_39  and  C_40 
REMARK   16  A    between atoms: C_40  and  C_41 
REMARK   17  A    between atoms: C_41  and  C_42 
REMARK   18  A    between atoms: C_42  and  O_44 
REMARK   19  A    between atoms: C_45  and  C_46 
REMARK   20  A    between atoms: C_46  and  C_47 
REMARK   21  A    between atoms: C_47  and  O_49 
REMARK   22  A    between atoms: C_50  and  C_51 
REMARK   23  A    between atoms: C_51  and  C_52 
REMARK   24  A    between atoms: C_52  and  O_54 
REMARK   25  A    between atoms: C_55  and  C_56 
REMARK   26  A    between atoms: C_56  and  C_57 
REMARK   27  A    between atoms: C_57  and  C_58 
REMARK   28  A    between atoms: C_58  and  O_60 
ROOT
ATOM      1  O   UNK d   0      -1.465  -5.277  -8.575  0.00  0.00    -0.650 OA
ATOM      2  C   UNK d   0      -0.763  -4.420  -7.993  0.00  0.00     0.139 C 
ENDROOT
BRANCH   2   3
ATOM      3  O   UNK d   0       0.190  -4.829  -7.091  0.00  0.00    -0.776 OA
ATOM      4  H   UNK d   0       1.043  -4.286  -6.942  0.00  0.00     0.167 HD
ENDBRANCH   2   3
BRANCH   2   5
ATOM      5  C   UNK d   0      -0.964  -2.970  -8.276  0.00  0.00     0.115 C 
BRANCH   5   6
ATOM      6  C   UNK d   0       0.025  -2.504  -9.310  0.00  0.00     0.052 C 
BRANCH   6   7
ATOM      7  C   UNK d   0      -0.443  -1.272 -10.048  0.00  0.00    -0.020 A 
ATOM      8  C   UNK d   0      -1.082  -1.219 -11.188  0.00  0.00    -0.011 A 
ATOM      9  C   UNK d   0      -1.312   0.181 -11.505  0.00  0.00     0.067 A 
ATOM     10  C   UNK d   0      -1.940   0.895 -12.537  0.00  0.00     0.062 C 
ATOM     11  N   UNK d   0      -0.774   0.911 -10.505  0.00  0.00    -0.248 NA
ATOM     12  C   UNK d   0      -2.307   2.245 -12.531  0.00  0.00     0.041 A 
ATOM     13  N   UNK d   0      -1.654   3.340 -12.095  0.00  0.00    -0.355 N 
ATOM     14  C   UNK d   0      -3.586   2.605 -12.993  0.00  0.00    -0.022 A 
ATOM     15  C   UNK d   0      -2.489   4.383 -12.262  0.00  0.00     0.042 A 
ATOM     16  H   UNK d   0      -0.617   3.377 -11.695  0.00  0.00     0.166 HD
ATOM     17  C   UNK d   0      -2.310   5.751 -11.974  0.00  0.00     0.062 C 
ATOM     18  C   UNK d   0      -3.710   3.961 -12.822  0.00  0.00    -0.013 A 
ATOM     19  C   UNK d   0      -1.777   6.333 -10.852  0.00  0.00     0.067 A 
ATOM     20  N   UNK d   0      -1.159   5.526  -9.987  0.00  0.00    -0.248 NA
ATOM     21  C   UNK d   0      -1.709   7.678 -10.306  0.00  0.00    -0.011 A 
ATOM     22  C   UNK d   0      -0.693   6.245  -8.914  0.00  0.00     0.066 A 
ATOM     23  C   UNK d   0       0.006   5.532  -7.951  0.00  0.00     0.062 C 
ATOM     24  C   UNK d   0      -1.077   7.619  -9.169  0.00  0.00    -0.020 A 
ATOM     25  C   UNK d   0       0.376   4.178  -7.982  0.00  0.00     0.041 A 
ATOM     26  N   UNK d   0      -0.279   3.089  -8.401  0.00  0.00    -0.355 N 
ATOM     27  C   UNK d   0       1.662   3.819  -7.522  0.00  0.00    -0.022 A 
ATOM     28  C   UNK d   0       0.549   2.046  -8.228  0.00  0.00     0.042 A 
ATOM     29  H   UNK d   0      -1.325   3.052  -8.793  0.00  0.00     0.166 HD
ATOM     30  C   UNK d   0       0.381   0.679  -8.501  0.00  0.00     0.062 C 
ATOM     31  C   UNK d   0       1.779   2.472  -7.674  0.00  0.00    -0.013 A 
ATOM     32  C   UNK d   0      -0.236   0.096  -9.597  0.00  0.00     0.066 A 
BRANCH   8  33
ATOM     33  C   UNK d   0      -1.500  -2.361 -12.022  0.00  0.00     0.151 C 
BRANCH  33  34
ATOM     34  C   UNK d   0      -2.844  -2.859 -11.676  0.00  0.00     0.143 C 
ATOM     35  O   UNK d   0      -3.860  -2.241 -12.024  0.00  0.00    -0.650 OA
BRANCH  34  36
ATOM     36  O   UNK d   0      -2.968  -4.025 -10.956  0.00  0.00    -0.776 OA
ATOM     37  H   UNK d   0      -2.461  -4.878 -11.230  0.00  0.00     0.167 HD
ENDBRANCH  34  36
ENDBRANCH  33  34
ENDBRANCH   8  33
BRANCH  31  38
ATOM     38  C   UNK d   0       2.991   1.638  -7.328  0.00  0.00     0.151 C 
BRANCH  38  39
ATOM     39  C   UNK d   0       4.077   1.808  -8.270  0.00  0.00     0.143 C 
ATOM     40  O   UNK d   0       3.885   2.118  -9.459  0.00  0.00    -0.650 OA
BRANCH  39  41
ATOM     41  O   UNK d   0       5.392   1.623  -7.842  0.00  0.00    -0.776 OA
ATOM     42  H   UNK d   0       5.562   0.843  -7.200  0.00  0.00     0.167 HD
ENDBRANCH  39  41
ENDBRANCH  38  39
ENDBRANCH  31  38
BRANCH  27  43
ATOM     43  C   UNK d   0       2.754   4.690  -6.954  0.00  0.00     0.052 C 
BRANCH  43  44
ATOM     44  C   UNK d   0       2.241   5.936  -6.308  0.00  0.00     0.115 C 
BRANCH  44  45
ATOM     45  C   UNK d   0       3.431   6.690  -5.836  0.00  0.00     0.139 C 
ATOM     46  O   UNK d   0       3.434   7.939  -5.975  0.00  0.00    -0.650 OA
BRANCH  45  47
ATOM     47  O   UNK d   0       4.519   6.080  -5.251  0.00  0.00    -0.776 OA
ATOM     48  H   UNK d   0       4.541   5.807  -4.255  0.00  0.00     0.167 HD
ENDBRANCH  45  47
ENDBRANCH  44  45
ENDBRANCH  43  44
ENDBRANCH  27  43
BRANCH  24  49
ATOM     49  C   UNK d   0      -0.751   8.760  -8.296  0.00  0.00     0.052 C 
BRANCH  49  50
ATOM     50  C   UNK d   0      -1.047   8.421  -6.858  0.00  0.00     0.115 C 
BRANCH  50  51
ATOM     51  C   UNK d   0      -2.448   8.359  -6.464  0.00  0.00     0.139 C 
ATOM     52  O   UNK d   0      -3.377   8.205  -7.292  0.00  0.00    -0.650 OA
BRANCH  51  53
ATOM     53  O   UNK d   0      -2.791   8.475  -5.126  0.00  0.00    -0.776 OA
ATOM     54  H   UNK d   0      -3.358   9.256  -4.846  0.00  0.00     0.167 HD
ENDBRANCH  51  53
ENDBRANCH  50  51
ENDBRANCH  49  50
ENDBRANCH  24  49
BRANCH  21  55
ATOM     55  C   UNK d   0      -2.279   8.883 -10.979  0.00  0.00     0.151 C 
BRANCH  55  56
ATOM     56  C   UNK d   0      -3.740   8.962 -10.823  0.00  0.00     0.143 C 
ATOM     57  O   UNK d   0      -4.533   8.676 -11.741  0.00  0.00    -0.650 OA
BRANCH  56  58
ATOM     58  O   UNK d   0      -4.239   9.377  -9.589  0.00  0.00    -0.776 OA
ATOM     59  H   UNK d   0      -5.166   8.986  -9.340  0.00  0.00     0.167 HD
ENDBRANCH  56  58
ENDBRANCH  55  56
ENDBRANCH  21  55
BRANCH  18  60
ATOM     60  C   UNK d   0      -4.933   4.769 -13.180  0.00  0.00     0.151 C 
BRANCH  60  61
ATOM     61  C   UNK d   0      -6.003   4.299 -12.287  0.00  0.00     0.143 C 
ATOM     62  O   UNK d   0      -7.209   4.256 -12.532  0.00  0.00    -0.650 OA
BRANCH  61  63
ATOM     63  O   UNK d   0      -5.573   3.854 -11.014  0.00  0.00    -0.776 OA
ATOM     64  H   UNK d   0      -6.159   3.955 -10.204  0.00  0.00     0.167 HD
ENDBRANCH  61  63
ENDBRANCH  60  61
ENDBRANCH  18  60
BRANCH  14  65
ATOM     65  C   UNK d   0      -4.650   1.787 -13.668  0.00  0.00     0.052 C 
BRANCH  65  66
ATOM     66  C   UNK d   0      -4.670   1.963 -15.145  0.00  0.00     0.115 C 
BRANCH  66  67
ATOM     67  C   UNK d   0      -5.915   2.207 -15.817  0.00  0.00     0.139 C 
ATOM     68  O   UNK d   0      -5.997   1.943 -17.073  0.00  0.00    -0.650 OA
BRANCH  67  69
ATOM     69  O   UNK d   0      -7.095   2.711 -15.270  0.00  0.00    -0.776 OA
ATOM     70  H   UNK d   0      -7.271   3.713 -15.433  0.00  0.00     0.167 HD
ENDBRANCH  67  69
ENDBRANCH  66  67
ENDBRANCH  65  66
ENDBRANCH  14  65
ENDBRANCH   6   7
ENDBRANCH   5   6
ENDBRANCH   2   5
TORSDOF 28
ENDMDL
MODEL 9
REMARK VINA RESULT:      -9.3     29.211     32.706
REMARK  28 active torsions:
REMARK  status: ('A' for Active; 'I' for Inactive)
REMARK    1  A    between atoms: C_2  and  O_3 
REMARK    2  A    between atoms: C_2  and  C_4 
REMARK    3  A    between atoms: C_4  and  C_5 
REMARK    4  A    between atoms: C_5  and  C_6 
REMARK    5  A    between atoms: C_7  and  C_8 
REMARK    6  A    between atoms: C_8  and  C_9 
REMARK    7  A    between atoms: C_9  and  O_11 
REMARK    8  A    between atoms: C_28  and  C_29 
REMARK    9  A    between atoms: C_29  and  C_30 
REMARK   10  A    between atoms: C_30  and  O_32 
REMARK   11  A    between atoms: C_33  and  C_34 
REMARK   12  A    between atoms: C_34  and  C_35 
REMARK   13  A    between atoms: C_35  and  C_36 
REMARK   14  A    between atoms: C_36  and  O_38 
REMARK   15  A    between atoms: C_39  and  C_40 
REMARK   16  A    between atoms: C_40  and  C_41 
REMARK   17  A    between atoms: C_41  and  C_42 
REMARK   18  A    between atoms: C_42  and  O_44 
REMARK   19  A    between atoms: C_45  and  C_46 
REMARK   20  A    between atoms: C_46  and  C_47 
REMARK   21  A    between atoms: C_47  and  O_49 
REMARK   22  A    between atoms: C_50  and  C_51 
REMARK   23  A    between atoms: C_51  and  C_52 
REMARK   24  A    between atoms: C_52  and  O_54 
REMARK   25  A    between atoms: C_55  and  C_56 
REMARK   26  A    between atoms: C_56  and  C_57 
REMARK   27  A    between atoms: C_57  and  C_58 
REMARK   28  A    between atoms: C_58  and  O_60 
ROOT
ATOM      1  O   UNK d   0     -17.726  10.353  13.797  0.00  0.00    -0.650 OA
ATOM      2  C   UNK d   0     -17.823  11.210  12.890  0.00  0.00     0.139 C 
ENDROOT
BRANCH   2   3
ATOM      3  O   UNK d   0     -16.707  11.554  12.166  0.00  0.00    -0.776 OA
ATOM      4  H   UNK d   0     -16.783  11.860  11.194  0.00  0.00     0.167 HD
ENDBRANCH   2   3
BRANCH   2   5
ATOM      5  C   UNK d   0     -19.139  11.849  12.603  0.00  0.00     0.115 C 
BRANCH   5   6
ATOM      6  C   UNK d   0     -18.963  12.976  11.622  0.00  0.00     0.052 C 
BRANCH   6   7
ATOM      7  C   UNK d   0     -20.211  13.814  11.470  0.00  0.00    -0.020 A 
ATOM      8  C   UNK d   0     -20.448  14.992  11.986  0.00  0.00    -0.011 A 
ATOM      9  C   UNK d   0     -21.781  15.398  11.573  0.00  0.00     0.067 A 
ATOM     10  C   UNK d   0     -22.601  16.522  11.759  0.00  0.00     0.062 C 
ATOM     11  N   UNK d   0     -22.285  14.404  10.812  0.00  0.00    -0.248 NA
ATOM     12  C   UNK d   0     -23.759  16.854  11.047  0.00  0.00     0.041 A 
ATOM     13  N   UNK d   0     -24.795  16.098  10.638  0.00  0.00    -0.355 N 
ATOM     14  C   UNK d   0     -23.924  18.176  10.596  0.00  0.00    -0.022 A 
ATOM     15  C   UNK d   0     -25.609  16.904   9.931  0.00  0.00     0.042 A 
ATOM     16  H   UNK d   0     -24.957  15.020  10.860  0.00  0.00     0.166 HD
ATOM     17  C   UNK d   0     -26.829  16.628   9.282  0.00  0.00     0.062 C 
ATOM     18  C   UNK d   0     -25.096  18.215   9.882  0.00  0.00    -0.013 A 
ATOM     19  C   UNK d   0     -27.159  15.564   8.482  0.00  0.00     0.067 A 
ATOM     20  N   UNK d   0     -26.301  14.541   8.453  0.00  0.00    -0.248 NA
ATOM     21  C   UNK d   0     -28.254  15.230   7.587  0.00  0.00    -0.011 A 
ATOM     22  C   UNK d   0     -26.755  13.562   7.603  0.00  0.00     0.066 A 
ATOM     23  C   UNK d   0     -25.975  12.419   7.506  0.00  0.00     0.062 C 
ATOM     24  C   UNK d   0     -28.010  14.059   7.072  0.00  0.00    -0.020 A 
ATOM     25  C   UNK d   0     -24.822  12.100   8.239  0.00  0.00     0.041 A 
ATOM     26  N   UNK d   0     -23.785  12.848   8.634  0.00  0.00    -0.355 N 
ATOM     27  C   UNK d   0     -24.659  10.774   8.696  0.00  0.00    -0.022 A 
ATOM     28  C   UNK d   0     -22.967  12.044   9.331  0.00  0.00     0.042 A 
ATOM     29  H   UNK d   0     -23.618  13.928   8.400  0.00  0.00     0.166 HD
ATOM     30  C   UNK d   0     -21.746  12.303   9.974  0.00  0.00     0.062 C 
ATOM     31  C   UNK d   0     -23.488  10.730   9.389  0.00  0.00    -0.013 A 
ATOM     32  C   UNK d   0     -21.389  13.421  10.712  0.00  0.00     0.066 A 
BRANCH   8  33
ATOM     33  C   UNK d   0     -19.543  15.783  12.840  0.00  0.00     0.151 C 
BRANCH  33  34
ATOM     34  C   UNK d   0     -18.644  16.657  12.064  0.00  0.00     0.143 C 
ATOM     35  O   UNK d   0     -18.869  16.902  10.871  0.00  0.00    -0.650 OA
BRANCH  34  36
ATOM     36  O   UNK d   0     -17.540  17.204  12.676  0.00  0.00    -0.776 OA
ATOM     37  H   UNK d   0     -17.339  18.211  12.614  0.00  0.00     0.167 HD
ENDBRANCH  34  36
ENDBRANCH  33  34
ENDBRANCH   8  33
BRANCH  31  38
ATOM     38  C   UNK d   0     -22.904   9.518  10.076  0.00  0.00     0.151 C 
BRANCH  38  39
ATOM     39  C   UNK d   0     -23.123   9.523  11.506  0.00  0.00     0.143 C 
ATOM     40  O   UNK d   0     -22.233   9.837  12.315  0.00  0.00    -0.650 OA
BRANCH  39  41
ATOM     41  O   UNK d   0     -24.374   9.165  12.010  0.00  0.00    -0.776 OA
ATOM     42  H   UNK d   0     -24.398   8.382  12.670  0.00  0.00     0.167 HD
ENDBRANCH  39  41
ENDBRANCH  38  39
ENDBRANCH  31  38
BRANCH  27  43
ATOM     43  C   UNK d   0     -25.554   9.576   8.501  0.00  0.00     0.052 C 
BRANCH  43  44
ATOM     44  C   UNK d   0     -25.247   8.805   7.258  0.00  0.00     0.115 C 
BRANCH  44  45
ATOM     45  C   UNK d   0     -26.479   8.049   6.911  0.00  0.00     0.139 C 
ATOM     46  O   UNK d   0     -26.594   7.611   5.740  0.00  0.00    -0.650 OA
BRANCH  45  47
ATOM     47  O   UNK d   0     -27.487   7.808   7.819  0.00  0.00    -0.776 OA
ATOM     48  H   UNK d   0     -27.594   8.346   8.694  0.00  0.00     0.167 HD
ENDBRANCH  45  47
ENDBRANCH  44  45
ENDBRANCH  43  44
ENDBRANCH  27  43
BRANCH  24  49
ATOM     49  C   UNK d   0     -28.880  13.321   6.141  0.00  0.00     0.052 C 
BRANCH  49  50
ATOM     50  C   UNK d   0     -29.943  12.570   6.900  0.00  0.00     0.115 C 
BRANCH  50  51
ATOM     51  C   UNK d   0     -29.546  11.327   7.547  0.00  0.00     0.139 C 
ATOM     52  O   UNK d   0     -29.636  11.151   8.785  0.00  0.00    -0.650 OA
BRANCH  51  53
ATOM     53  O   UNK d   0     -29.044  10.285   6.782  0.00  0.00    -0.776 OA
ATOM     54  H   UNK d   0     -28.315   9.716   7.175  0.00  0.00     0.167 HD
ENDBRANCH  51  53
ENDBRANCH  50  51
ENDBRANCH  49  50
ENDBRANCH  24  49
BRANCH  21  55
ATOM     55  C   UNK d   0     -29.432  16.113   7.342  0.00  0.00     0.151 C 
BRANCH  55  56
ATOM     56  C   UNK d   0     -29.096  17.255   6.478  0.00  0.00     0.143 C 
ATOM     57  O   UNK d   0     -28.818  18.384   6.929  0.00  0.00    -0.650 OA
BRANCH  56  58
ATOM     58  O   UNK d   0     -29.092  17.047   5.100  0.00  0.00    -0.776 OA
ATOM     59  H   UNK d   0     -28.240  16.588   4.731  0.00  0.00     0.167 HD
ENDBRANCH  56  58
ENDBRANCH  55  56
ENDBRANCH  21  55
BRANCH  18  60
ATOM     60  C   UNK d   0     -25.658  19.442   9.209  0.00  0.00     0.151 C 
BRANCH  60  61
ATOM     61  C   UNK d   0     -26.897  19.768   9.931  0.00  0.00     0.143 C 
ATOM     62  O   UNK d   0     -27.092  19.686  11.144  0.00  0.00    -0.650 OA
BRANCH  61  63
ATOM     63  O   UNK d   0     -27.965  20.224   9.121  0.00  0.00    -0.776 OA
ATOM     64  H   UNK d   0     -28.912  19.943   9.305  0.00  0.00     0.167 HD
ENDBRANCH  61  63
ENDBRANCH  60  61
ENDBRANCH  18  60
BRANCH  14  65
ATOM     65  C   UNK d   0     -23.117  19.414  10.867  0.00  0.00     0.052 C 
BRANCH  65  66
ATOM     66  C   UNK d   0     -23.620  20.193  12.031  0.00  0.00     0.115 C 
BRANCH  66  67
ATOM     67  C   UNK d   0     -22.774  20.393  13.173  0.00  0.00     0.139 C 
ATOM     68  O   UNK d   0     -21.500  20.412  12.997  0.00  0.00    -0.650 OA
BRANCH  67  69
ATOM     69  O   UNK d   0     -23.161  20.575  14.500  0.00  0.00    -0.776 OA
ATOM     70  H   UNK d   0     -23.825  19.882  14.873  0.00  0.00     0.167 HD
ENDBRANCH  67  69
ENDBRANCH  66  67
ENDBRANCH  65  66
ENDBRANCH  14  65
ENDBRANCH   6   7
ENDBRANCH   5   6
ENDBRANCH   2   5
TORSDOF 28
ENDMDL
MODEL 10
REMARK VINA RESULT:      -9.3      1.514      7.760
REMARK  28 active torsions:
REMARK  status: ('A' for Active; 'I' for Inactive)
REMARK    1  A    between atoms: C_2  and  O_3 
REMARK    2  A    between atoms: C_2  and  C_4 
REMARK    3  A    between atoms: C_4  and  C_5 
REMARK    4  A    between atoms: C_5  and  C_6 
REMARK    5  A    between atoms: C_7  and  C_8 
REMARK    6  A    between atoms: C_8  and  C_9 
REMARK    7  A    between atoms: C_9  and  O_11 
REMARK    8  A    between atoms: C_28  and  C_29 
REMARK    9  A    between atoms: C_29  and  C_30 
REMARK   10  A    between atoms: C_30  and  O_32 
REMARK   11  A    between atoms: C_33  and  C_34 
REMARK   12  A    between atoms: C_34  and  C_35 
REMARK   13  A    between atoms: C_35  and  C_36 
REMARK   14  A    between atoms: C_36  and  O_38 
REMARK   15  A    between atoms: C_39  and  C_40 
REMARK   16  A    between atoms: C_40  and  C_41 
REMARK   17  A    between atoms: C_41  and  C_42 
REMARK   18  A    between atoms: C_42  and  O_44 
REMARK   19  A    between atoms: C_45  and  C_46 
REMARK   20  A    between atoms: C_46  and  C_47 
REMARK   21  A    between atoms: C_47  and  O_49 
REMARK   22  A    between atoms: C_50  and  C_51 
REMARK   23  A    between atoms: C_51  and  C_52 
REMARK   24  A    between atoms: C_52  and  O_54 
REMARK   25  A    between atoms: C_55  and  C_56 
REMARK   26  A    between atoms: C_56  and  C_57 
REMARK   27  A    between atoms: C_57  and  C_58 
REMARK   28  A    between atoms: C_58  and  O_60 
ROOT
ATOM      1  O   UNK d   0      -0.562  -1.714  -7.414  0.00  0.00    -0.650 OA
ATOM      2  C   UNK d   0      -0.200  -1.853  -8.603  0.00  0.00     0.139 C 
ENDROOT
BRANCH   2   3
ATOM      3  O   UNK d   0       1.075  -1.492  -8.966  0.00  0.00    -0.776 OA
ATOM      4  H   UNK d   0       1.859  -2.137  -8.850  0.00  0.00     0.167 HD
ENDBRANCH   2   3
BRANCH   2   5
ATOM      5  C   UNK d   0      -1.147  -2.404  -9.614  0.00  0.00     0.115 C 
BRANCH   5   6
ATOM      6  C   UNK d   0      -2.541  -1.911  -9.339  0.00  0.00     0.052 C 
BRANCH   6   7
ATOM      7  C   UNK d   0      -2.943  -0.770 -10.242  0.00  0.00    -0.020 A 
ATOM      8  C   UNK d   0      -3.561  -0.842 -11.393  0.00  0.00    -0.011 A 
ATOM      9  C   UNK d   0      -3.724   0.512 -11.896  0.00  0.00     0.067 A 
ATOM     10  C   UNK d   0      -4.303   1.109 -13.027  0.00  0.00     0.062 C 
ATOM     11  N   UNK d   0      -3.171   1.345 -10.990  0.00  0.00    -0.248 NA
ATOM     12  C   UNK d   0      -4.611   2.462 -13.206  0.00  0.00     0.041 A 
ATOM     13  N   UNK d   0      -3.918   3.577 -12.904  0.00  0.00    -0.355 N 
ATOM     14  C   UNK d   0      -5.866   2.810 -13.740  0.00  0.00    -0.022 A 
ATOM     15  C   UNK d   0      -4.704   4.622 -13.225  0.00  0.00     0.042 A 
ATOM     16  H   UNK d   0      -2.887   3.623 -12.491  0.00  0.00     0.166 HD
ATOM     17  C   UNK d   0      -4.470   6.007 -13.115  0.00  0.00     0.062 C 
ATOM     18  C   UNK d   0      -5.933   4.181 -13.752  0.00  0.00    -0.013 A 
ATOM     19  C   UNK d   0      -3.930   6.711 -12.069  0.00  0.00     0.067 A 
ATOM     20  N   UNK d   0      -3.362   6.000 -11.092  0.00  0.00    -0.248 NA
ATOM     21  C   UNK d   0      -3.812   8.112 -11.703  0.00  0.00    -0.011 A 
ATOM     22  C   UNK d   0      -2.882   6.835 -10.112  0.00  0.00     0.066 A 
ATOM     23  C   UNK d   0      -2.230   6.227  -9.049  0.00  0.00     0.062 C 
ATOM     24  C   UNK d   0      -3.202   8.178 -10.555  0.00  0.00    -0.020 A 
ATOM     25  C   UNK d   0      -1.920   4.867  -8.894  0.00  0.00     0.041 A 
ATOM     26  N   UNK d   0      -2.615   3.760  -9.181  0.00  0.00    -0.355 N 
ATOM     27  C   UNK d   0      -0.659   4.519  -8.363  0.00  0.00    -0.022 A 
ATOM     28  C   UNK d   0      -1.837   2.716  -8.853  0.00  0.00     0.042 A 
ATOM     29  H   UNK d   0      -3.655   3.715  -9.586  0.00  0.00     0.166 HD
ATOM     30  C   UNK d   0      -2.060   1.333  -8.948  0.00  0.00     0.062 C 
ATOM     31  C   UNK d   0      -0.598   3.160  -8.334  0.00  0.00    -0.013 A 
ATOM     32  C   UNK d   0      -2.683   0.636  -9.971  0.00  0.00     0.066 A 
BRANCH   8  33
ATOM     33  C   UNK d   0      -4.015  -2.066 -12.079  0.00  0.00     0.151 C 
BRANCH  33  34
ATOM     34  C   UNK d   0      -5.165  -2.701 -11.411  0.00  0.00     0.143 C 
ATOM     35  O   UNK d   0      -5.817  -2.092 -10.550  0.00  0.00    -0.650 OA
BRANCH  34  36
ATOM     36  O   UNK d   0      -5.517  -3.987 -11.749  0.00  0.00    -0.776 OA
ATOM     37  H   UNK d   0      -6.342  -4.442 -11.334  0.00  0.00     0.167 HD
ENDBRANCH  34  36
ENDBRANCH  33  34
ENDBRANCH   8  33
BRANCH  31  38
ATOM     38  C   UNK d   0       0.570   2.330  -7.855  0.00  0.00     0.151 C 
BRANCH  38  39
ATOM     39  C   UNK d   0       1.495   1.997  -8.918  0.00  0.00     0.143 C 
ATOM     40  O   UNK d   0       1.162   2.002 -10.116  0.00  0.00    -0.650 OA
BRANCH  39  41
ATOM     41  O   UNK d   0       2.811   1.658  -8.601  0.00  0.00    -0.776 OA
ATOM     42  H   UNK d   0       3.221   0.872  -9.115  0.00  0.00     0.167 HD
ENDBRANCH  39  41
ENDBRANCH  38  39
ENDBRANCH  31  38
BRANCH  27  43
ATOM     43  C   UNK d   0       0.461   5.412  -7.891  0.00  0.00     0.052 C 
BRANCH  43  44
ATOM     44  C   UNK d   0       0.377   5.747  -6.437  0.00  0.00     0.115 C 
BRANCH  44  45
ATOM     45  C   UNK d   0       0.326   7.230  -6.346  0.00  0.00     0.139 C 
ATOM     46  O   UNK d   0      -0.013   7.874  -7.369  0.00  0.00    -0.650 OA
BRANCH  45  47
ATOM     47  O   UNK d   0       0.627   7.918  -5.190  0.00  0.00    -0.776 OA
ATOM     48  H   UNK d   0       0.710   7.458  -4.269  0.00  0.00     0.167 HD
ENDBRANCH  45  47
ENDBRANCH  44  45
ENDBRANCH  43  44
ENDBRANCH  27  43
BRANCH  24  49
ATOM     49  C   UNK d   0      -2.841   9.410  -9.832  0.00  0.00     0.052 C 
BRANCH  49  50
ATOM     50  C   UNK d   0      -3.620   9.511  -8.546  0.00  0.00     0.115 C 
BRANCH  50  51
ATOM     51  C   UNK d   0      -2.941  10.105  -7.403  0.00  0.00     0.139 C 
ATOM     52  O   UNK d   0      -2.626   9.444  -6.385  0.00  0.00    -0.650 OA
BRANCH  51  53
ATOM     53  O   UNK d   0      -2.622  11.454  -7.419  0.00  0.00    -0.776 OA
ATOM     54  H   UNK d   0      -2.664  11.943  -8.296  0.00  0.00     0.167 HD
ENDBRANCH  51  53
ENDBRANCH  50  51
ENDBRANCH  49  50
ENDBRANCH  24  49
BRANCH  21  55
ATOM     55  C   UNK d   0      -4.318   9.240 -12.540  0.00  0.00     0.151 C 
BRANCH  55  56
ATOM     56  C   UNK d   0      -5.725   9.555 -12.249  0.00  0.00     0.143 C 
ATOM     57  O   UNK d   0      -6.673   9.068 -12.895  0.00  0.00    -0.650 OA
BRANCH  56  58
ATOM     58  O   UNK d   0      -5.989  10.438 -11.203  0.00  0.00    -0.776 OA
ATOM     59  H   UNK d   0      -6.457  11.319 -11.484  0.00  0.00     0.167 HD
ENDBRANCH  56  58
ENDBRANCH  55  56
ENDBRANCH  21  55
BRANCH  18  60
ATOM     60  C   UNK d   0      -7.113   4.984 -14.239  0.00  0.00     0.151 C 
BRANCH  60  61
ATOM     61  C   UNK d   0      -7.872   5.357 -13.036  0.00  0.00     0.143 C 
ATOM     62  O   UNK d   0      -8.067   4.665 -12.037  0.00  0.00    -0.650 OA
BRANCH  61  63
ATOM     63  O   UNK d   0      -8.428   6.659 -13.054  0.00  0.00    -0.776 OA
ATOM     64  H   UNK d   0      -8.935   6.995 -13.853  0.00  0.00     0.167 HD
ENDBRANCH  61  63
ENDBRANCH  60  61
ENDBRANCH  18  60
BRANCH  14  65
ATOM     65  C   UNK d   0      -6.954   1.955 -14.325  0.00  0.00     0.052 C 
BRANCH  65  66
ATOM     66  C   UNK d   0      -6.573   1.336 -15.622  0.00  0.00     0.115 C 
BRANCH  66  67
ATOM     67  C   UNK d   0      -6.610   2.121 -16.824  0.00  0.00     0.139 C 
ATOM     68  O   UNK d   0      -5.601   2.075 -17.619  0.00  0.00    -0.650 OA
BRANCH  67  69
ATOM     69  O   UNK d   0      -7.633   2.961 -17.263  0.00  0.00    -0.776 OA
ATOM     70  H   UNK d   0      -7.878   2.885 -18.261  0.00  0.00     0.167 HD
ENDBRANCH  67  69
ENDBRANCH  66  67
ENDBRANCH  65  66
ENDBRANCH  14  65
ENDBRANCH   6   7
ENDBRANCH   5   6
ENDBRANCH   2   5
TORSDOF 28
ENDMDL
MODEL 11
REMARK VINA RESULT:      -9.3      2.415      9.616
REMARK  28 active torsions:
REMARK  status: ('A' for Active; 'I' for Inactive)
REMARK    1  A    between atoms: C_2  and  O_3 
REMARK    2  A    between atoms: C_2  and  C_4 
REMARK    3  A    between atoms: C_4  and  C_5 
REMARK    4  A    between atoms: C_5  and  C_6 
REMARK    5  A    between atoms: C_7  and  C_8 
REMARK    6  A    between atoms: C_8  and  C_9 
REMARK    7  A    between atoms: C_9  and  O_11 
REMARK    8  A    between atoms: C_28  and  C_29 
REMARK    9  A    between atoms: C_29  and  C_30 
REMARK   10  A    between atoms: C_30  and  O_32 
REMARK   11  A    between atoms: C_33  and  C_34 
REMARK   12  A    between atoms: C_34  and  C_35 
REMARK   13  A    between atoms: C_35  and  C_36 
REMARK   14  A    between atoms: C_36  and  O_38 
REMARK   15  A    between atoms: C_39  and  C_40 
REMARK   16  A    between atoms: C_40  and  C_41 
REMARK   17  A    between atoms: C_41  and  C_42 
REMARK   18  A    between atoms: C_42  and  O_44 
REMARK   19  A    between atoms: C_45  and  C_46 
REMARK   20  A    between atoms: C_46  and  C_47 
REMARK   21  A    between atoms: C_47  and  O_49 
REMARK   22  A    between atoms: C_50  and  C_51 
REMARK   23  A    between atoms: C_51  and  C_52 
REMARK   24  A    between atoms: C_52  and  O_54 
REMARK   25  A    between atoms: C_55  and  C_56 
REMARK   26  A    between atoms: C_56  and  C_57 
REMARK   27  A    between atoms: C_57  and  C_58 
REMARK   28  A    between atoms: C_58  and  O_60 
ROOT
ATOM      1  O   UNK d   0      -1.479  -5.437  -6.351  0.00  0.00    -0.650 OA
ATOM      2  C   UNK d   0      -1.901  -5.890  -7.438  0.00  0.00     0.139 C 
ENDROOT
BRANCH   2   3
ATOM      3  O   UNK d   0      -2.690  -7.015  -7.437  0.00  0.00    -0.776 OA
ATOM      4  H   UNK d   0      -2.628  -7.704  -8.190  0.00  0.00     0.167 HD
ENDBRANCH   2   3
BRANCH   2   5
ATOM      5  C   UNK d   0      -1.548  -5.215  -8.719  0.00  0.00     0.115 C 
BRANCH   5   6
ATOM      6  C   UNK d   0      -2.797  -4.804  -9.449  0.00  0.00     0.052 C 
BRANCH   6   7
ATOM      7  C   UNK d   0      -2.668  -3.451 -10.106  0.00  0.00    -0.020 A 
ATOM      8  C   UNK d   0      -3.140  -3.079 -11.269  0.00  0.00    -0.011 A 
ATOM      9  C   UNK d   0      -2.759  -1.693 -11.481  0.00  0.00     0.067 A 
ATOM     10  C   UNK d   0      -2.962  -0.729 -12.481  0.00  0.00     0.062 C 
ATOM     11  N   UNK d   0      -2.052  -1.301 -10.400  0.00  0.00    -0.248 NA
ATOM     12  C   UNK d   0      -2.751   0.651 -12.383  0.00  0.00     0.041 A 
ATOM     13  N   UNK d   0      -1.748   1.357 -11.828  0.00  0.00    -0.355 N 
ATOM     14  C   UNK d   0      -3.736   1.526 -12.877  0.00  0.00    -0.022 A 
ATOM     15  C   UNK d   0      -2.075   2.658 -11.950  0.00  0.00     0.042 A 
ATOM     16  H   UNK d   0      -0.819   0.946 -11.376  0.00  0.00     0.166 HD
ATOM     17  C   UNK d   0      -1.382   3.816 -11.543  0.00  0.00     0.062 C 
ATOM     18  C   UNK d   0      -3.314   2.803 -12.603  0.00  0.00    -0.013 A 
ATOM     19  C   UNK d   0      -0.748   4.068 -10.353  0.00  0.00     0.067 A 
ATOM     20  N   UNK d   0      -0.579   3.032  -9.527  0.00  0.00    -0.248 NA
ATOM     21  C   UNK d   0      -0.186   5.236  -9.696  0.00  0.00    -0.011 A 
ATOM     22  C   UNK d   0       0.052   3.439  -8.377  0.00  0.00     0.066 A 
ATOM     23  C   UNK d   0       0.326   2.451  -7.442  0.00  0.00     0.062 C 
ATOM     24  C   UNK d   0       0.277   4.862  -8.538  0.00  0.00    -0.020 A 
ATOM     25  C   UNK d   0       0.119   1.068  -7.565  0.00  0.00     0.041 A 
ATOM     26  N   UNK d   0      -0.885   0.366  -8.104  0.00  0.00    -0.355 N 
ATOM     27  C   UNK d   0       1.109   0.191  -7.073  0.00  0.00    -0.022 A 
ATOM     28  C   UNK d   0      -0.566  -0.932  -7.975  0.00  0.00     0.042 A 
ATOM     29  H   UNK d   0      -1.823   0.781  -8.548  0.00  0.00     0.166 HD
ATOM     30  C   UNK d   0      -1.250  -2.093  -8.367  0.00  0.00     0.062 C 
ATOM     31  C   UNK d   0       0.684  -1.077  -7.329  0.00  0.00    -0.013 A 
ATOM     32  C   UNK d   0      -1.962  -2.313  -9.536  0.00  0.00     0.066 A 
BRANCH   8  33
ATOM     33  C   UNK d   0      -3.917  -3.903 -12.213  0.00  0.00     0.151 C 
BRANCH  33  34
ATOM     34  C   UNK d   0      -5.361  -3.905 -11.915  0.00  0.00     0.143 C 
ATOM     35  O   UNK d   0      -6.092  -2.983 -12.304  0.00  0.00    -0.650 OA
BRANCH  34  36
ATOM     36  O   UNK d   0      -5.901  -4.944 -11.193  0.00  0.00    -0.776 OA
ATOM     37  H   UNK d   0      -5.849  -4.965 -10.166  0.00  0.00     0.167 HD
ENDBRANCH  34  36
ENDBRANCH  33  34
ENDBRANCH   8  33
BRANCH  31  38
ATOM     38  C   UNK d   0       1.424  -2.350  -6.993  0.00  0.00     0.151 C 
BRANCH  38  39
ATOM     39  C   UNK d   0       0.871  -3.035  -5.844  0.00  0.00     0.143 C 
ATOM     40  O   UNK d   0       0.209  -2.445  -4.972  0.00  0.00    -0.650 OA
BRANCH  39  41
ATOM     41  O   UNK d   0       1.080  -4.406  -5.696  0.00  0.00    -0.776 OA
ATOM     42  H   UNK d   0       1.606  -4.876  -6.440  0.00  0.00     0.167 HD
ENDBRANCH  39  41
ENDBRANCH  38  39
ENDBRANCH  31  38
BRANCH  27  43
ATOM     43  C   UNK d   0       2.412   0.507  -6.383  0.00  0.00     0.052 C 
BRANCH  43  44
ATOM     44  C   UNK d   0       3.544   0.732  -7.332  0.00  0.00     0.115 C 
BRANCH  44  45
ATOM     45  C   UNK d   0       4.414   1.769  -6.717  0.00  0.00     0.139 C 
ATOM     46  O   UNK d   0       4.124   2.975  -6.911  0.00  0.00    -0.650 OA
BRANCH  45  47
ATOM     47  O   UNK d   0       5.513   1.460  -5.945  0.00  0.00    -0.776 OA
ATOM     48  H   UNK d   0       6.386   1.077  -6.341  0.00  0.00     0.167 HD
ENDBRANCH  45  47
ENDBRANCH  44  45
ENDBRANCH  43  44
ENDBRANCH  27  43
BRANCH  24  49
ATOM     49  C   UNK d   0       0.967   5.720  -7.560  0.00  0.00     0.052 C 
BRANCH  49  50
ATOM     50  C   UNK d   0       0.022   6.121  -6.456  0.00  0.00     0.115 C 
BRANCH  50  51
ATOM     51  C   UNK d   0      -0.098   7.544  -6.168  0.00  0.00     0.139 C 
ATOM     52  O   UNK d   0       0.898   8.295  -6.044  0.00  0.00    -0.650 OA
BRANCH  51  53
ATOM     53  O   UNK d   0      -1.355   8.110  -6.019  0.00  0.00    -0.776 OA
ATOM     54  H   UNK d   0      -1.762   8.578  -6.809  0.00  0.00     0.167 HD
ENDBRANCH  51  53
ENDBRANCH  50  51
ENDBRANCH  49  50
ENDBRANCH  24  49
BRANCH  21  55
ATOM     55  C   UNK d   0      -0.166   6.603 -10.296  0.00  0.00     0.151 C 
BRANCH  55  56
ATOM     56  C   UNK d   0      -1.458   7.289 -10.148  0.00  0.00     0.143 C 
ATOM     57  O   UNK d   0      -2.023   7.434  -9.046  0.00  0.00    -0.650 OA
BRANCH  56  58
ATOM     58  O   UNK d   0      -2.062   7.791 -11.299  0.00  0.00    -0.776 OA
ATOM     59  H   UNK d   0      -2.223   7.093 -12.047  0.00  0.00     0.167 HD
ENDBRANCH  56  58
ENDBRANCH  55  56
ENDBRANCH  21  55
BRANCH  18  60
ATOM     60  C   UNK d   0      -4.074   4.059 -12.953  0.00  0.00     0.151 C 
BRANCH  60  61
ATOM     61  C   UNK d   0      -5.299   4.029 -12.140  0.00  0.00     0.143 C 
ATOM     62  O   UNK d   0      -6.447   4.265 -12.519  0.00  0.00    -0.650 OA
BRANCH  61  63
ATOM     63  O   UNK d   0      -5.111   3.690 -10.779  0.00  0.00    -0.776 OA
ATOM     64  H   UNK d   0      -5.344   4.336 -10.046  0.00  0.00     0.167 HD
ENDBRANCH  61  63
ENDBRANCH  60  61
ENDBRANCH  18  60
BRANCH  14  65
ATOM     65  C   UNK d   0      -4.983   1.253 -13.668  0.00  0.00     0.052 C 
BRANCH  65  66
ATOM     66  C   UNK d   0      -4.833   1.560 -15.116  0.00  0.00     0.115 C 
BRANCH  66  67
ATOM     67  C   UNK d   0      -5.909   2.192 -15.826  0.00  0.00     0.139 C 
ATOM     68  O   UNK d   0      -6.072   1.912 -17.070  0.00  0.00    -0.650 OA
BRANCH  67  69
ATOM     69  O   UNK d   0      -6.838   3.105 -15.329  0.00  0.00    -0.776 OA
ATOM     70  H   UNK d   0      -6.513   3.698 -14.552  0.00  0.00     0.167 HD
ENDBRANCH  67  69
ENDBRANCH  66  67
ENDBRANCH  65  66
ENDBRANCH  14  65
ENDBRANCH   6   7
ENDBRANCH   5   6
ENDBRANCH   2   5
TORSDOF 28
ENDMDL
MODEL 12
REMARK VINA RESULT:      -9.3      2.024      4.846
REMARK  28 active torsions:
REMARK  status: ('A' for Active; 'I' for Inactive)
REMARK    1  A    between atoms: C_2  and  O_3 
REMARK    2  A    between atoms: C_2  and  C_4 
REMARK    3  A    between atoms: C_4  and  C_5 
REMARK    4  A    between atoms: C_5  and  C_6 
REMARK    5  A    between atoms: C_7  and  C_8 
REMARK    6  A    between atoms: C_8  and  C_9 
REMARK    7  A    between atoms: C_9  and  O_11 
REMARK    8  A    between atoms: C_28  and  C_29 
REMARK    9  A    between atoms: C_29  and  C_30 
REMARK   10  A    between atoms: C_30  and  O_32 
REMARK   11  A    between atoms: C_33  and  C_34 
REMARK   12  A    between atoms: C_34  and  C_35 
REMARK   13  A    between atoms: C_35  and  C_36 
REMARK   14  A    between atoms: C_36  and  O_38 
REMARK   15  A    between atoms: C_39  and  C_40 
REMARK   16  A    between atoms: C_40  and  C_41 
REMARK   17  A    between atoms: C_41  and  C_42 
REMARK   18  A    between atoms: C_42  and  O_44 
REMARK   19  A    between atoms: C_45  and  C_46 
REMARK   20  A    between atoms: C_46  and  C_47 
REMARK   21  A    between atoms: C_47  and  O_49 
REMARK   22  A    between atoms: C_50  and  C_51 
REMARK   23  A    between atoms: C_51  and  C_52 
REMARK   24  A    between atoms: C_52  and  O_54 
REMARK   25  A    between atoms: C_55  and  C_56 
REMARK   26  A    between atoms: C_56  and  C_57 
REMARK   27  A    between atoms: C_57  and  C_58 
REMARK   28  A    between atoms: C_58  and  O_60 
ROOT
ATOM      1  O   UNK d   0      -2.998   9.829  -6.012  0.00  0.00    -0.650 OA
ATOM      2  C   UNK d   0      -2.369  10.230  -7.016  0.00  0.00     0.139 C 
ENDROOT
BRANCH   2   3
ATOM      3  O   UNK d   0      -2.936  11.180  -7.831  0.00  0.00    -0.776 OA
ATOM      4  H   UNK d   0      -3.930  11.146  -8.068  0.00  0.00     0.167 HD
ENDBRANCH   2   3
BRANCH   2   5
ATOM      5  C   UNK d   0      -1.019   9.679  -7.323  0.00  0.00     0.115 C 
BRANCH   5   6
ATOM      6  C   UNK d   0      -0.612   8.687  -6.267  0.00  0.00     0.052 C 
BRANCH   6   7
ATOM      7  C   UNK d   0      -0.255   7.338  -6.844  0.00  0.00    -0.020 A 
ATOM      8  C   UNK d   0       0.743   6.563  -6.504  0.00  0.00    -0.011 A 
ATOM      9  C   UNK d   0       0.688   5.374  -7.338  0.00  0.00     0.067 A 
ATOM     10  C   UNK d   0       1.428   4.188  -7.460  0.00  0.00     0.062 C 
ATOM     11  N   UNK d   0      -0.372   5.512  -8.162  0.00  0.00    -0.248 NA
ATOM     12  C   UNK d   0       1.056   3.023  -8.140  0.00  0.00     0.041 A 
ATOM     13  N   UNK d   0       0.469   2.845  -9.339  0.00  0.00    -0.355 N 
ATOM     14  C   UNK d   0       1.243   1.779  -7.511  0.00  0.00    -0.022 A 
ATOM     15  C   UNK d   0       0.271   1.521  -9.483  0.00  0.00     0.042 A 
ATOM     16  H   UNK d   0       0.217   3.638 -10.077  0.00  0.00     0.166 HD
ATOM     17  C   UNK d   0      -0.303   0.794 -10.544  0.00  0.00     0.062 C 
ATOM     18  C   UNK d   0       0.743   0.820  -8.356  0.00  0.00    -0.013 A 
ATOM     19  C   UNK d   0      -1.446   1.060 -11.253  0.00  0.00     0.067 A 
ATOM     20  N   UNK d   0      -2.006   2.259 -11.071  0.00  0.00    -0.248 NA
ATOM     21  C   UNK d   0      -2.279   0.339 -12.202  0.00  0.00    -0.011 A 
ATOM     22  C   UNK d   0      -3.144   2.374 -11.831  0.00  0.00     0.066 A 
ATOM     23  C   UNK d   0      -3.808   3.590 -11.765  0.00  0.00     0.062 C 
ATOM     24  C   UNK d   0      -3.273   1.112 -12.533  0.00  0.00    -0.020 A 
ATOM     25  C   UNK d   0      -3.410   4.752 -11.087  0.00  0.00     0.041 A 
ATOM     26  N   UNK d   0      -2.840   4.930  -9.889  0.00  0.00    -0.355 N 
ATOM     27  C   UNK d   0      -3.594   6.000 -11.721  0.00  0.00    -0.022 A 
ATOM     28  C   UNK d   0      -2.650   6.250  -9.739  0.00  0.00     0.042 A 
ATOM     29  H   UNK d   0      -2.597   4.133  -9.144  0.00  0.00     0.166 HD
ATOM     30  C   UNK d   0      -2.089   6.988  -8.685  0.00  0.00     0.062 C 
ATOM     31  C   UNK d   0      -3.115   6.953 -10.876  0.00  0.00    -0.013 A 
ATOM     32  C   UNK d   0      -0.982   6.672  -7.915  0.00  0.00     0.066 A 
BRANCH   8  33
ATOM     33  C   UNK d   0       1.757   6.830  -5.467  0.00  0.00     0.151 C 
BRANCH  33  34
ATOM     34  C   UNK d   0       2.938   7.537  -5.992  0.00  0.00     0.143 C 
ATOM     35  O   UNK d   0       3.934   6.911  -6.381  0.00  0.00    -0.650 OA
BRANCH  34  36
ATOM     36  O   UNK d   0       2.933   8.912  -6.050  0.00  0.00    -0.776 OA
ATOM     37  H   UNK d   0       3.350   9.415  -6.844  0.00  0.00     0.167 HD
ENDBRANCH  34  36
ENDBRANCH  33  34
ENDBRANCH   8  33
BRANCH  31  38
ATOM     38  C   UNK d   0      -3.088   8.442 -11.135  0.00  0.00     0.151 C 
BRANCH  38  39
ATOM     39  C   UNK d   0      -4.247   9.126 -10.602  0.00  0.00     0.143 C 
ATOM     40  O   UNK d   0      -5.034   9.762 -11.325  0.00  0.00    -0.650 OA
BRANCH  39  41
ATOM     41  O   UNK d   0      -4.503   9.078  -9.232  0.00  0.00    -0.776 OA
ATOM     42  H   UNK d   0      -4.849   9.939  -8.797  0.00  0.00     0.167 HD
ENDBRANCH  39  41
ENDBRANCH  38  39
ENDBRANCH  31  38
BRANCH  27  43
ATOM     43  C   UNK d   0      -4.196   6.311 -13.069  0.00  0.00     0.052 C 
BRANCH  43  44
ATOM     44  C   UNK d   0      -5.678   6.502 -13.024  0.00  0.00     0.115 C 
BRANCH  44  45
ATOM     45  C   UNK d   0      -5.954   7.823 -13.645  0.00  0.00     0.139 C 
ATOM     46  O   UNK d   0      -7.140   8.238 -13.650  0.00  0.00    -0.650 OA
BRANCH  45  47
ATOM     47  O   UNK d   0      -4.969   8.607 -14.204  0.00  0.00    -0.776 OA
ATOM     48  H   UNK d   0      -4.095   8.216 -14.592  0.00  0.00     0.167 HD
ENDBRANCH  45  47
ENDBRANCH  44  45
ENDBRANCH  43  44
ENDBRANCH  27  43
BRANCH  24  49
ATOM     49  C   UNK d   0      -4.336   0.793 -13.501  0.00  0.00     0.052 C 
BRANCH  49  50
ATOM     50  C   UNK d   0      -4.162   1.605 -14.758  0.00  0.00     0.115 C 
BRANCH  50  51
ATOM     51  C   UNK d   0      -5.369   1.969 -15.488  0.00  0.00     0.139 C 
ATOM     52  O   UNK d   0      -6.443   2.267 -14.912  0.00  0.00    -0.650 OA
BRANCH  51  53
ATOM     53  O   UNK d   0      -5.353   1.991 -16.874  0.00  0.00    -0.776 OA
ATOM     54  H   UNK d   0      -4.588   2.452 -17.333  0.00  0.00     0.167 HD
ENDBRANCH  51  53
ENDBRANCH  50  51
ENDBRANCH  49  50
ENDBRANCH  24  49
BRANCH  21  55
ATOM     55  C   UNK d   0      -1.991  -1.045 -12.683  0.00  0.00     0.151 C 
BRANCH  55  56
ATOM     56  C   UNK d   0      -2.596  -2.066 -11.815  0.00  0.00     0.143 C 
ATOM     57  O   UNK d   0      -3.803  -2.373 -11.873  0.00  0.00    -0.650 OA
BRANCH  56  58
ATOM     58  O   UNK d   0      -1.769  -2.709 -10.894  0.00  0.00    -0.776 OA
ATOM     59  H   UNK d   0      -1.885  -3.737 -10.848  0.00  0.00     0.167 HD
ENDBRANCH  56  58
ENDBRANCH  55  56
ENDBRANCH  21  55
BRANCH  18  60
ATOM     60  C   UNK d   0       0.732  -0.662  -8.073  0.00  0.00     0.151 C 
BRANCH  60  61
ATOM     61  C   UNK d   0      -0.632  -0.975  -7.620  0.00  0.00     0.143 C 
ATOM     62  O   UNK d   0      -1.527  -1.511  -8.275  0.00  0.00    -0.650 OA
BRANCH  61  63
ATOM     63  O   UNK d   0      -0.921  -0.613  -6.282  0.00  0.00    -0.776 OA
ATOM     64  H   UNK d   0      -1.817  -0.813  -5.873  0.00  0.00     0.167 HD
ENDBRANCH  61  63
ENDBRANCH  60  61
ENDBRANCH  18  60
BRANCH  14  65
ATOM     65  C   UNK d   0       1.939   1.423  -6.228  0.00  0.00     0.052 C 
BRANCH  65  66
ATOM     66  C   UNK d   0       3.253   0.760  -6.444  0.00  0.00     0.115 C 
BRANCH  66  67
ATOM     67  C   UNK d   0       4.406   1.552  -6.768  0.00  0.00     0.139 C 
ATOM     68  O   UNK d   0       5.416   1.520  -5.972  0.00  0.00    -0.650 OA
BRANCH  67  69
ATOM     69  O   UNK d   0       4.586   2.386  -7.871  0.00  0.00    -0.776 OA
ATOM     70  H   UNK d   0       4.239   2.020  -8.770  0.00  0.00     0.167 HD
ENDBRANCH  67  69
ENDBRANCH  66  67
ENDBRANCH  65  66
ENDBRANCH  14  65
ENDBRANCH   6   7
ENDBRANCH   5   6
ENDBRANCH   2   5
TORSDOF 28
ENDMDL
MODEL 13
REMARK VINA RESULT:      -9.2     29.875     33.162
REMARK  28 active torsions:
REMARK  status: ('A' for Active; 'I' for Inactive)
REMARK    1  A    between atoms: C_2  and  O_3 
REMARK    2  A    between atoms: C_2  and  C_4 
REMARK    3  A    between atoms: C_4  and  C_5 
REMARK    4  A    between atoms: C_5  and  C_6 
REMARK    5  A    between atoms: C_7  and  C_8 
REMARK    6  A    between atoms: C_8  and  C_9 
REMARK    7  A    between atoms: C_9  and  O_11 
REMARK    8  A    between atoms: C_28  and  C_29 
REMARK    9  A    between atoms: C_29  and  C_30 
REMARK   10  A    between atoms: C_30  and  O_32 
REMARK   11  A    between atoms: C_33  and  C_34 
REMARK   12  A    between atoms: C_34  and  C_35 
REMARK   13  A    between atoms: C_35  and  C_36 
REMARK   14  A    between atoms: C_36  and  O_38 
REMARK   15  A    between atoms: C_39  and  C_40 
REMARK   16  A    between atoms: C_40  and  C_41 
REMARK   17  A    between atoms: C_41  and  C_42 
REMARK   18  A    between atoms: C_42  and  O_44 
REMARK   19  A    between atoms: C_45  and  C_46 
REMARK   20  A    between atoms: C_46  and  C_47 
REMARK   21  A    between atoms: C_47  and  O_49 
REMARK   22  A    between atoms: C_50  and  C_51 
REMARK   23  A    between atoms: C_51  and  C_52 
REMARK   24  A    between atoms: C_52  and  O_54 
REMARK   25  A    between atoms: C_55  and  C_56 
REMARK   26  A    between atoms: C_56  and  C_57 
REMARK   27  A    between atoms: C_57  and  C_58 
REMARK   28  A    between atoms: C_58  and  O_60 
ROOT
ATOM      1  O   UNK d   0     -27.607   8.743   7.825  0.00  0.00    -0.650 OA
ATOM      2  C   UNK d   0     -28.122   9.728   8.400  0.00  0.00     0.139 C 
ENDROOT
BRANCH   2   3
ATOM      3  O   UNK d   0     -28.853   9.533   9.546  0.00  0.00    -0.776 OA
ATOM      4  H   UNK d   0     -28.828  10.212  10.310  0.00  0.00     0.167 HD
ENDBRANCH   2   3
BRANCH   2   5
ATOM      5  C   UNK d   0     -27.942  11.098   7.841  0.00  0.00     0.115 C 
BRANCH   5   6
ATOM      6  C   UNK d   0     -26.582  11.225   7.210  0.00  0.00     0.052 C 
BRANCH   6   7
ATOM      7  C   UNK d   0     -25.643  12.087   8.020  0.00  0.00    -0.020 A 
ATOM      8  C   UNK d   0     -24.683  11.691   8.816  0.00  0.00    -0.011 A 
ATOM      9  C   UNK d   0     -24.058  12.875   9.382  0.00  0.00     0.067 A 
ATOM     10  C   UNK d   0     -22.995  13.137  10.260  0.00  0.00     0.062 C 
ATOM     11  N   UNK d   0     -24.705  13.948   8.881  0.00  0.00    -0.248 NA
ATOM     12  C   UNK d   0     -22.356  14.363  10.475  0.00  0.00     0.041 A 
ATOM     13  N   UNK d   0     -22.850  15.607  10.614  0.00  0.00    -0.355 N 
ATOM     14  C   UNK d   0     -20.950  14.400  10.512  0.00  0.00    -0.022 A 
ATOM     15  C   UNK d   0     -21.794  16.435  10.730  0.00  0.00     0.042 A 
ATOM     16  H   UNK d   0     -23.924  15.894  10.649  0.00  0.00     0.166 HD
ATOM     17  C   UNK d   0     -21.743  17.833  10.899  0.00  0.00     0.062 C 
ATOM     18  C   UNK d   0     -20.585  15.714  10.671  0.00  0.00    -0.013 A 
ATOM     19  C   UNK d   0     -22.456  18.806  10.248  0.00  0.00     0.067 A 
ATOM     20  N   UNK d   0     -23.479  18.402   9.490  0.00  0.00    -0.248 NA
ATOM     21  C   UNK d   0     -22.390  20.254  10.139  0.00  0.00    -0.011 A 
ATOM     22  C   UNK d   0     -24.085  19.480   8.893  0.00  0.00     0.066 A 
ATOM     23  C   UNK d   0     -25.193  19.206   8.104  0.00  0.00     0.062 C 
ATOM     24  C   UNK d   0     -23.343  20.642   9.342  0.00  0.00    -0.020 A 
ATOM     25  C   UNK d   0     -25.827  17.969   7.912  0.00  0.00     0.041 A 
ATOM     26  N   UNK d   0     -25.335  16.733   7.758  0.00  0.00    -0.355 N 
ATOM     27  C   UNK d   0     -27.238  17.932   7.879  0.00  0.00    -0.022 A 
ATOM     28  C   UNK d   0     -26.386  15.908   7.633  0.00  0.00     0.042 A 
ATOM     29  H   UNK d   0     -24.255  16.449   7.713  0.00  0.00     0.166 HD
ATOM     30  C   UNK d   0     -26.451  14.517   7.456  0.00  0.00     0.062 C 
ATOM     31  C   UNK d   0     -27.600  16.631   7.704  0.00  0.00    -0.013 A 
ATOM     32  C   UNK d   0     -25.669  13.541   8.054  0.00  0.00     0.066 A 
BRANCH   8  33
ATOM     33  C   UNK d   0     -24.291  10.299   9.106  0.00  0.00     0.151 C 
BRANCH  33  34
ATOM     34  C   UNK d   0     -24.372   9.971  10.540  0.00  0.00     0.143 C 
ATOM     35  O   UNK d   0     -23.420   9.436  11.126  0.00  0.00    -0.650 OA
BRANCH  34  36
ATOM     36  O   UNK d   0     -25.522  10.263  11.236  0.00  0.00    -0.776 OA
ATOM     37  H   UNK d   0     -25.633  11.156  11.736  0.00  0.00     0.167 HD
ENDBRANCH  34  36
ENDBRANCH  33  34
ENDBRANCH   8  33
BRANCH  31  38
ATOM     38  C   UNK d   0     -29.013  16.103   7.621  0.00  0.00     0.151 C 
BRANCH  38  39
ATOM     39  C   UNK d   0     -29.611  16.299   6.318  0.00  0.00     0.143 C 
ATOM     40  O   UNK d   0     -30.816  16.569   6.172  0.00  0.00    -0.650 OA
BRANCH  39  41
ATOM     41  O   UNK d   0     -28.819  16.186   5.176  0.00  0.00    -0.776 OA
ATOM     42  H   UNK d   0     -28.591  17.055   4.684  0.00  0.00     0.167 HD
ENDBRANCH  39  41
ENDBRANCH  38  39
ENDBRANCH  31  38
BRANCH  27  43
ATOM     43  C   UNK d   0     -28.229  19.061   8.003  0.00  0.00     0.052 C 
BRANCH  43  44
ATOM     44  C   UNK d   0     -29.017  19.020   9.272  0.00  0.00     0.115 C 
BRANCH  44  45
ATOM     45  C   UNK d   0     -28.385  19.998  10.196  0.00  0.00     0.139 C 
ATOM     46  O   UNK d   0     -28.941  21.114  10.345  0.00  0.00    -0.650 OA
BRANCH  45  47
ATOM     47  O   UNK d   0     -27.227  19.728  10.892  0.00  0.00    -0.776 OA
ATOM     48  H   UNK d   0     -26.840  20.368  11.605  0.00  0.00     0.167 HD
ENDBRANCH  45  47
ENDBRANCH  44  45
ENDBRANCH  43  44
ENDBRANCH  27  43
BRANCH  24  49
ATOM     49  C   UNK d   0     -23.662  22.034   8.983  0.00  0.00     0.052 C 
BRANCH  49  50
ATOM     50  C   UNK d   0     -23.023  22.397   7.667  0.00  0.00     0.115 C 
BRANCH  50  51
ATOM     51  C   UNK d   0     -21.821  23.218   7.716  0.00  0.00     0.139 C 
ATOM     52  O   UNK d   0     -21.858  24.471   7.731  0.00  0.00    -0.650 OA
BRANCH  51  53
ATOM     53  O   UNK d   0     -20.575  22.611   7.745  0.00  0.00    -0.776 OA
ATOM     54  H   UNK d   0     -19.775  23.152   7.467  0.00  0.00     0.167 HD
ENDBRANCH  51  53
ENDBRANCH  50  51
ENDBRANCH  49  50
ENDBRANCH  24  49
BRANCH  21  55
ATOM     55  C   UNK d   0     -21.383  21.099  10.847  0.00  0.00     0.151 C 
BRANCH  55  56
ATOM     56  C   UNK d   0     -21.891  21.603  12.132  0.00  0.00     0.143 C 
ATOM     57  O   UNK d   0     -22.370  22.746  12.267  0.00  0.00    -0.650 OA
BRANCH  56  58
ATOM     58  O   UNK d   0     -21.827  20.752  13.234  0.00  0.00    -0.776 OA
ATOM     59  H   UNK d   0     -20.876  20.602  13.614  0.00  0.00     0.167 HD
ENDBRANCH  56  58
ENDBRANCH  55  56
ENDBRANCH  21  55
BRANCH  18  60
ATOM     60  C   UNK d   0     -19.164  16.213  10.753  0.00  0.00     0.151 C 
BRANCH  60  61
ATOM     61  C   UNK d   0     -18.876  16.377  12.186  0.00  0.00     0.143 C 
ATOM     62  O   UNK d   0     -19.557  15.976  13.131  0.00  0.00    -0.650 OA
BRANCH  61  63
ATOM     63  O   UNK d   0     -17.681  17.074  12.484  0.00  0.00    -0.776 OA
ATOM     64  H   UNK d   0     -17.038  17.336  11.758  0.00  0.00     0.167 HD
ENDBRANCH  61  63
ENDBRANCH  60  61
ENDBRANCH  18  60
BRANCH  14  65
ATOM     65  C   UNK d   0     -19.939  13.289  10.508  0.00  0.00     0.052 C 
BRANCH  65  66
ATOM     66  C   UNK d   0     -19.773  12.648  11.840  0.00  0.00     0.115 C 
BRANCH  66  67
ATOM     67  C   UNK d   0     -20.288  11.326  12.063  0.00  0.00     0.139 C 
ATOM     68  O   UNK d   0     -19.576  10.320  11.696  0.00  0.00    -0.650 OA
BRANCH  67  69
ATOM     69  O   UNK d   0     -21.504  10.971  12.646  0.00  0.00    -0.776 OA
ATOM     70  H   UNK d   0     -22.301  11.587  12.430  0.00  0.00     0.167 HD
ENDBRANCH  67  69
ENDBRANCH  66  67
ENDBRANCH  65  66
ENDBRANCH  14  65
ENDBRANCH   6   7
ENDBRANCH   5   6
ENDBRANCH   2   5
TORSDOF 28
ENDMDL
MODEL 14
REMARK VINA RESULT:      -9.2      1.927      8.463
REMARK  28 active torsions:
REMARK  status: ('A' for Active; 'I' for Inactive)
REMARK    1  A    between atoms: C_2  and  O_3 
REMARK    2  A    between atoms: C_2  and  C_4 
REMARK    3  A    between atoms: C_4  and  C_5 
REMARK    4  A    between atoms: C_5  and  C_6 
REMARK    5  A    between atoms: C_7  and  C_8 
REMARK    6  A    between atoms: C_8  and  C_9 
REMARK    7  A    between atoms: C_9  and  O_11 
REMARK    8  A    between atoms: C_28  and  C_29 
REMARK    9  A    between atoms: C_29  and  C_30 
REMARK   10  A    between atoms: C_30  and  O_32 
REMARK   11  A    between atoms: C_33  and  C_34 
REMARK   12  A    between atoms: C_34  and  C_35 
REMARK   13  A    between atoms: C_35  and  C_36 
REMARK   14  A    between atoms: C_36  and  O_38 
REMARK   15  A    between atoms: C_39  and  C_40 
REMARK   16  A    between atoms: C_40  and  C_41 
REMARK   17  A    between atoms: C_41  and  C_42 
REMARK   18  A    between atoms: C_42  and  O_44 
REMARK   19  A    between atoms: C_45  and  C_46 
REMARK   20  A    between atoms: C_46  and  C_47 
REMARK   21  A    between atoms: C_47  and  O_49 
REMARK   22  A    between atoms: C_50  and  C_51 
REMARK   23  A    between atoms: C_51  and  C_52 
REMARK   24  A    between atoms: C_52  and  O_54 
REMARK   25  A    between atoms: C_55  and  C_56 
REMARK   26  A    between atoms: C_56  and  C_57 
REMARK   27  A    between atoms: C_57  and  C_58 
REMARK   28  A    between atoms: C_58  and  O_60 
ROOT
ATOM      1  O   UNK d   0      -4.429  11.015 -10.523  0.00  0.00    -0.650 OA
ATOM      2  C   UNK d   0      -4.811  10.097 -11.283  0.00  0.00     0.139 C 
ENDROOT
BRANCH   2   3
ATOM      3  O   UNK d   0      -6.142  10.005 -11.611  0.00  0.00    -0.776 OA
ATOM      4  H   UNK d   0      -6.847   9.790 -10.901  0.00  0.00     0.167 HD
ENDBRANCH   2   3
BRANCH   2   5
ATOM      5  C   UNK d   0      -3.828   9.117 -11.824  0.00  0.00     0.115 C 
BRANCH   5   6
ATOM      6  C   UNK d   0      -4.522   8.133 -12.727  0.00  0.00     0.052 C 
BRANCH   6   7
ATOM      7  C   UNK d   0      -4.307   6.700 -12.300  0.00  0.00    -0.020 A 
ATOM      8  C   UNK d   0      -4.976   5.644 -12.684  0.00  0.00    -0.011 A 
ATOM      9  C   UNK d   0      -4.415   4.490 -12.002  0.00  0.00     0.067 A 
ATOM     10  C   UNK d   0      -4.654   3.106 -11.989  0.00  0.00     0.062 C 
ATOM     11  N   UNK d   0      -3.413   4.936 -11.217  0.00  0.00    -0.248 NA
ATOM     12  C   UNK d   0      -3.821   2.108 -11.472  0.00  0.00     0.041 A 
ATOM     13  N   UNK d   0      -3.108   2.052 -10.331  0.00  0.00    -0.355 N 
ATOM     14  C   UNK d   0      -3.592   0.950 -12.236  0.00  0.00    -0.022 A 
ATOM     15  C   UNK d   0      -2.425   0.891 -10.356  0.00  0.00     0.042 A 
ATOM     16  H   UNK d   0      -3.101   2.808  -9.516  0.00  0.00     0.166 HD
ATOM     17  C   UNK d   0      -1.534   0.335  -9.417  0.00  0.00     0.062 C 
ATOM     18  C   UNK d   0      -2.703   0.173 -11.535  0.00  0.00    -0.013 A 
ATOM     19  C   UNK d   0      -0.511   0.943  -8.734  0.00  0.00     0.067 A 
ATOM     20  N   UNK d   0      -0.449   2.276  -8.797  0.00  0.00    -0.248 NA
ATOM     21  C   UNK d   0       0.608   0.501  -7.918  0.00  0.00    -0.011 A 
ATOM     22  C   UNK d   0       0.629   2.737  -8.083  0.00  0.00     0.066 A 
ATOM     23  C   UNK d   0       0.791   4.114  -8.032  0.00  0.00     0.062 C 
ATOM     24  C   UNK d   0       1.273   1.556  -7.543  0.00  0.00    -0.020 A 
ATOM     25  C   UNK d   0      -0.064   5.100  -8.547  0.00  0.00     0.041 A 
ATOM     26  N   UNK d   0      -0.762   5.163  -9.688  0.00  0.00    -0.355 N 
ATOM     27  C   UNK d   0      -0.297   6.261  -7.777  0.00  0.00    -0.022 A 
ATOM     28  C   UNK d   0      -1.436   6.324  -9.669  0.00  0.00     0.042 A 
ATOM     29  H   UNK d   0      -0.759   4.407 -10.511  0.00  0.00     0.166 HD
ATOM     30  C   UNK d   0      -2.319   6.893 -10.600  0.00  0.00     0.062 C 
ATOM     31  C   UNK d   0      -1.165   7.040  -8.479  0.00  0.00    -0.013 A 
ATOM     32  C   UNK d   0      -3.296   6.258 -11.351  0.00  0.00     0.066 A 
BRANCH   8  33
ATOM     33  C   UNK d   0      -6.103   5.607 -13.634  0.00  0.00     0.151 C 
BRANCH  33  34
ATOM     34  C   UNK d   0      -7.416   5.624 -12.963  0.00  0.00     0.143 C 
ATOM     35  O   UNK d   0      -7.874   4.600 -12.436  0.00  0.00    -0.650 OA
BRANCH  34  36
ATOM     36  O   UNK d   0      -8.140   6.793 -12.924  0.00  0.00    -0.776 OA
ATOM     37  H   UNK d   0      -8.731   7.082 -13.715  0.00  0.00     0.167 HD
ENDBRANCH  34  36
ENDBRANCH  33  34
ENDBRANCH   8  33
BRANCH  31  38
ATOM     38  C   UNK d   0      -1.715   8.377  -8.043  0.00  0.00     0.151 C 
BRANCH  38  39
ATOM     39  C   UNK d   0      -3.076   8.294  -7.558  0.00  0.00     0.143 C 
ATOM     40  O   UNK d   0      -3.401   7.558  -6.609  0.00  0.00    -0.650 OA
BRANCH  39  41
ATOM     41  O   UNK d   0      -4.070   9.060  -8.167  0.00  0.00    -0.776 OA
ATOM     42  H   UNK d   0      -4.362   8.775  -9.107  0.00  0.00     0.167 HD
ENDBRANCH  39  41
ENDBRANCH  38  39
ENDBRANCH  31  38
BRANCH  27  43
ATOM     43  C   UNK d   0       0.264   6.646  -6.431  0.00  0.00     0.052 C 
BRANCH  43  44
ATOM     44  C   UNK d   0      -0.006   8.070  -6.065  0.00  0.00     0.115 C 
BRANCH  44  45
ATOM     45  C   UNK d   0       1.319   8.723  -5.900  0.00  0.00     0.139 C 
ATOM     46  O   UNK d   0       1.618   9.660  -6.682  0.00  0.00    -0.650 OA
BRANCH  45  47
ATOM     47  O   UNK d   0       2.221   8.350  -4.927  0.00  0.00    -0.776 OA
ATOM     48  H   UNK d   0       1.957   8.224  -3.937  0.00  0.00     0.167 HD
ENDBRANCH  45  47
ENDBRANCH  44  45
ENDBRANCH  43  44
ENDBRANCH  27  43
BRANCH  24  49
ATOM     49  C   UNK d   0       2.459   1.569  -6.671  0.00  0.00     0.052 C 
BRANCH  49  50
ATOM     50  C   UNK d   0       3.615   0.875  -7.345  0.00  0.00     0.115 C 
BRANCH  50  51
ATOM     51  C   UNK d   0       4.703   1.714  -7.830  0.00  0.00     0.139 C 
ATOM     52  O   UNK d   0       4.507   2.793  -8.436  0.00  0.00    -0.650 OA
BRANCH  51  53
ATOM     53  O   UNK d   0       6.016   1.320  -7.624  0.00  0.00    -0.776 OA
ATOM     54  H   UNK d   0       6.328   0.464  -8.049  0.00  0.00     0.167 HD
ENDBRANCH  51  53
ENDBRANCH  50  51
ENDBRANCH  49  50
ENDBRANCH  24  49
BRANCH  21  55
ATOM     55  C   UNK d   0       0.892  -0.928  -7.594  0.00  0.00     0.151 C 
BRANCH  55  56
ATOM     56  C   UNK d   0      -0.064  -1.473  -6.619  0.00  0.00     0.143 C 
ATOM     57  O   UNK d   0      -0.879  -2.373  -6.903  0.00  0.00    -0.650 OA
BRANCH  56  58
ATOM     58  O   UNK d   0      -0.043  -0.950  -5.327  0.00  0.00    -0.776 OA
ATOM     59  H   UNK d   0       0.856  -0.521  -5.045  0.00  0.00     0.167 HD
ENDBRANCH  56  58
ENDBRANCH  55  56
ENDBRANCH  21  55
BRANCH  18  60
ATOM     60  C   UNK d   0      -2.172  -1.162 -11.995  0.00  0.00     0.151 C 
BRANCH  60  61
ATOM     61  C   UNK d   0      -0.831  -0.899 -12.537  0.00  0.00     0.143 C 
ATOM     62  O   UNK d   0       0.249  -1.127 -11.989  0.00  0.00    -0.650 OA
BRANCH  61  63
ATOM     63  O   UNK d   0      -0.806  -0.321 -13.829  0.00  0.00    -0.776 OA
ATOM     64  H   UNK d   0      -1.164  -0.817 -14.625  0.00  0.00     0.167 HD
ENDBRANCH  61  63
ENDBRANCH  60  61
ENDBRANCH  18  60
BRANCH  14  65
ATOM     65  C   UNK d   0      -4.218   0.481 -13.519  0.00  0.00     0.052 C 
BRANCH  65  66
ATOM     66  C   UNK d   0      -4.042   1.445 -14.638  0.00  0.00     0.115 C 
BRANCH  66  67
ATOM     67  C   UNK d   0      -5.184   1.877 -15.392  0.00  0.00     0.139 C 
ATOM     68  O   UNK d   0      -6.248   2.216 -14.754  0.00  0.00    -0.650 OA
BRANCH  67  69
ATOM     69  O   UNK d   0      -5.302   1.983 -16.777  0.00  0.00    -0.776 OA
ATOM     70  H   UNK d   0      -5.089   2.909 -17.176  0.00  0.00     0.167 HD
ENDBRANCH  67  69
ENDBRANCH  66  67
ENDBRANCH  65  66
ENDBRANCH  14  65
ENDBRANCH   6   7
ENDBRANCH   5   6
ENDBRANCH   2   5
TORSDOF 28
ENDMDL
MODEL 15
REMARK VINA RESULT:      -9.1     29.615     32.757
REMARK  28 active torsions:
REMARK  status: ('A' for Active; 'I' for Inactive)
REMARK    1  A    between atoms: C_2  and  O_3 
REMARK    2  A    between atoms: C_2  and  C_4 
REMARK    3  A    between atoms: C_4  and  C_5 
REMARK    4  A    between atoms: C_5  and  C_6 
REMARK    5  A    between atoms: C_7  and  C_8 
REMARK    6  A    between atoms: C_8  and  C_9 
REMARK    7  A    between atoms: C_9  and  O_11 
REMARK    8  A    between atoms: C_28  and  C_29 
REMARK    9  A    between atoms: C_29  and  C_30 
REMARK   10  A    between atoms: C_30  and  O_32 
REMARK   11  A    between atoms: C_33  and  C_34 
REMARK   12  A    between atoms: C_34  and  C_35 
REMARK   13  A    between atoms: C_35  and  C_36 
REMARK   14  A    between atoms: C_36  and  O_38 
REMARK   15  A    between atoms: C_39  and  C_40 
REMARK   16  A    between atoms: C_40  and  C_41 
REMARK   17  A    between atoms: C_41  and  C_42 
REMARK   18  A    between atoms: C_42  and  O_44 
REMARK   19  A    between atoms: C_45  and  C_46 
REMARK   20  A    between atoms: C_46  and  C_47 
REMARK   21  A    between atoms: C_47  and  O_49 
REMARK   22  A    between atoms: C_50  and  C_51 
REMARK   23  A    between atoms: C_51  and  C_52 
REMARK   24  A    between atoms: C_52  and  O_54 
REMARK   25  A    between atoms: C_55  and  C_56 
REMARK   26  A    between atoms: C_56  and  C_57 
REMARK   27  A    between atoms: C_57  and  C_58 
REMARK   28  A    between atoms: C_58  and  O_60 
ROOT
ATOM      1  O   UNK d   0     -18.496   9.709  12.281  0.00  0.00    -0.650 OA
ATOM      2  C   UNK d   0     -19.518  10.285  11.847  0.00  0.00     0.139 C 
ENDROOT
BRANCH   2   3
ATOM      3  O   UNK d   0     -20.308   9.649  10.919  0.00  0.00    -0.776 OA
ATOM      4  H   UNK d   0     -19.990   9.518   9.957  0.00  0.00     0.167 HD
ENDBRANCH   2   3
BRANCH   2   5
ATOM      5  C   UNK d   0     -19.872  11.649  12.334  0.00  0.00     0.115 C 
BRANCH   5   6
ATOM      6  C   UNK d   0     -19.700  12.654  11.229  0.00  0.00     0.052 C 
BRANCH   6   7
ATOM      7  C   UNK d   0     -20.882  13.584  11.100  0.00  0.00    -0.020 A 
ATOM      8  C   UNK d   0     -21.047  14.750  11.671  0.00  0.00    -0.011 A 
ATOM      9  C   UNK d   0     -22.341  15.269  11.258  0.00  0.00     0.067 A 
ATOM     10  C   UNK d   0     -23.083  16.437  11.489  0.00  0.00     0.062 C 
ATOM     11  N   UNK d   0     -22.897  14.352  10.439  0.00  0.00    -0.248 NA
ATOM     12  C   UNK d   0     -24.201  16.885  10.776  0.00  0.00     0.041 A 
ATOM     13  N   UNK d   0     -25.279  16.226  10.311  0.00  0.00    -0.355 N 
ATOM     14  C   UNK d   0     -24.265  18.237  10.390  0.00  0.00    -0.022 A 
ATOM     15  C   UNK d   0     -26.021  17.122   9.634  0.00  0.00     0.042 A 
ATOM     16  H   UNK d   0     -25.520  15.152  10.475  0.00  0.00     0.166 HD
ATOM     17  C   UNK d   0     -27.244  16.965   8.951  0.00  0.00     0.062 C 
ATOM     18  C   UNK d   0     -25.417  18.394   9.661  0.00  0.00    -0.013 A 
ATOM     19  C   UNK d   0     -27.631  15.969   8.093  0.00  0.00     0.067 A 
ATOM     20  N   UNK d   0     -26.846  14.890   8.025  0.00  0.00    -0.248 NA
ATOM     21  C   UNK d   0     -28.729  15.758   7.164  0.00  0.00    -0.011 A 
ATOM     22  C   UNK d   0     -27.350  13.990   7.118  0.00  0.00     0.066 A 
ATOM     23  C   UNK d   0     -26.650  12.801   6.975  0.00  0.00     0.062 C 
ATOM     24  C   UNK d   0     -28.556  14.600   6.593  0.00  0.00    -0.020 A 
ATOM     25  C   UNK d   0     -25.537  12.365   7.710  0.00  0.00     0.041 A 
ATOM     26  N   UNK d   0     -24.458  13.017   8.160  0.00  0.00    -0.355 N 
ATOM     27  C   UNK d   0     -25.476  11.009   8.101  0.00  0.00    -0.022 A 
ATOM     28  C   UNK d   0     -23.712  12.124   8.828  0.00  0.00     0.042 A 
ATOM     29  H   UNK d   0     -24.212  14.093   7.985  0.00  0.00     0.166 HD
ATOM     30  C   UNK d   0     -22.490  12.263   9.503  0.00  0.00     0.062 C 
ATOM     31  C   UNK d   0     -24.325  10.848   8.809  0.00  0.00    -0.013 A 
ATOM     32  C   UNK d   0     -22.070  13.315  10.303  0.00  0.00     0.066 A 
BRANCH   8  33
ATOM     33  C   UNK d   0     -20.107  15.431  12.580  0.00  0.00     0.151 C 
BRANCH  33  34
ATOM     34  C   UNK d   0     -19.079  16.205  11.862  0.00  0.00     0.143 C 
ATOM     35  O   UNK d   0     -19.100  16.298  10.626  0.00  0.00    -0.650 OA
BRANCH  34  36
ATOM     36  O   UNK d   0     -18.082  16.829  12.575  0.00  0.00    -0.776 OA
ATOM     37  H   UNK d   0     -17.527  17.592  12.163  0.00  0.00     0.167 HD
ENDBRANCH  34  36
ENDBRANCH  33  34
ENDBRANCH   8  33
BRANCH  31  38
ATOM     38  C   UNK d   0     -23.840   9.565   9.442  0.00  0.00     0.151 C 
BRANCH  38  39
ATOM     39  C   UNK d   0     -23.997   9.554  10.881  0.00  0.00     0.143 C 
ATOM     40  O   UNK d   0     -23.118   9.114  11.643  0.00  0.00    -0.650 OA
BRANCH  39  41
ATOM     41  O   UNK d   0     -25.169  10.054  11.448  0.00  0.00    -0.776 OA
ATOM     42  H   UNK d   0     -25.161  10.213  12.460  0.00  0.00     0.167 HD
ENDBRANCH  39  41
ENDBRANCH  38  39
ENDBRANCH  31  38
BRANCH  27  43
ATOM     43  C   UNK d   0     -26.448   9.889   7.829  0.00  0.00     0.052 C 
BRANCH  43  44
ATOM     44  C   UNK d   0     -27.545   9.800   8.840  0.00  0.00     0.115 C 
BRANCH  44  45
ATOM     45  C   UNK d   0     -28.768  10.338   8.187  0.00  0.00     0.139 C 
ATOM     46  O   UNK d   0     -29.602  10.945   8.903  0.00  0.00    -0.650 OA
BRANCH  45  47
ATOM     47  O   UNK d   0     -29.016  10.202   6.839  0.00  0.00    -0.776 OA
ATOM     48  H   UNK d   0     -28.406  10.611   6.113  0.00  0.00     0.167 HD
ENDBRANCH  45  47
ENDBRANCH  44  45
ENDBRANCH  43  44
ENDBRANCH  27  43
BRANCH  24  49
ATOM     49  C   UNK d   0     -29.457  13.973   5.611  0.00  0.00     0.052 C 
BRANCH  49  50
ATOM     50  C   UNK d   0     -30.644  13.358   6.306  0.00  0.00     0.115 C 
BRANCH  50  51
ATOM     51  C   UNK d   0     -31.436  12.400   5.546  0.00  0.00     0.139 C 
ATOM     52  O   UNK d   0     -32.660  12.222   5.751  0.00  0.00    -0.650 OA
BRANCH  51  53
ATOM     53  O   UNK d   0     -30.832  11.643   4.555  0.00  0.00    -0.776 OA
ATOM     54  H   UNK d   0     -29.988  11.147   4.783  0.00  0.00     0.167 HD
ENDBRANCH  51  53
ENDBRANCH  50  51
ENDBRANCH  49  50
ENDBRANCH  24  49
BRANCH  21  55
ATOM     55  C   UNK d   0     -29.837  16.733   6.946  0.00  0.00     0.151 C 
BRANCH  55  56
ATOM     56  C   UNK d   0     -29.469  17.780   5.980  0.00  0.00     0.143 C 
ATOM     57  O   UNK d   0     -29.512  17.606   4.747  0.00  0.00    -0.650 OA
BRANCH  56  58
ATOM     58  O   UNK d   0     -29.058  19.013   6.485  0.00  0.00    -0.776 OA
ATOM     59  H   UNK d   0     -29.817  19.705   6.619  0.00  0.00     0.167 HD
ENDBRANCH  56  58
ENDBRANCH  55  56
ENDBRANCH  21  55
BRANCH  18  60
ATOM     60  C   UNK d   0     -25.878  19.690   9.042  0.00  0.00     0.151 C 
BRANCH  60  61
ATOM     61  C   UNK d   0     -27.188  19.981   9.644  0.00  0.00     0.143 C 
ATOM     62  O   UNK d   0     -28.210  20.343   9.060  0.00  0.00    -0.650 OA
BRANCH  61  63
ATOM     63  O   UNK d   0     -27.255  19.820  11.049  0.00  0.00    -0.776 OA
ATOM     64  H   UNK d   0     -28.138  19.727  11.519  0.00  0.00     0.167 HD
ENDBRANCH  61  63
ENDBRANCH  60  61
ENDBRANCH  18  60
BRANCH  14  65
ATOM     65  C   UNK d   0     -23.379  19.399  10.739  0.00  0.00     0.052 C 
BRANCH  65  66
ATOM     66  C   UNK d   0     -22.180  19.499   9.864  0.00  0.00     0.115 C 
BRANCH  66  67
ATOM     67  C   UNK d   0     -20.873  19.292  10.422  0.00  0.00     0.139 C 
ATOM     68  O   UNK d   0     -20.759  19.195  11.699  0.00  0.00    -0.650 OA
BRANCH  67  69
ATOM     69  O   UNK d   0     -19.662  19.178   9.740  0.00  0.00    -0.776 OA
ATOM     70  H   UNK d   0     -18.822  19.450  10.270  0.00  0.00     0.167 HD
ENDBRANCH  67  69
ENDBRANCH  66  67
ENDBRANCH  65  66
ENDBRANCH  14  65
ENDBRANCH   6   7
ENDBRANCH   5   6
ENDBRANCH   2   5
TORSDOF 28
ENDMDL
MODEL 16
REMARK VINA RESULT:      -9.1     29.089     33.550
REMARK  28 active torsions:
REMARK  status: ('A' for Active; 'I' for Inactive)
REMARK    1  A    between atoms: C_2  and  O_3 
REMARK    2  A    between atoms: C_2  and  C_4 
REMARK    3  A    between atoms: C_4  and  C_5 
REMARK    4  A    between atoms: C_5  and  C_6 
REMARK    5  A    between atoms: C_7  and  C_8 
REMARK    6  A    between atoms: C_8  and  C_9 
REMARK    7  A    between atoms: C_9  and  O_11 
REMARK    8  A    between atoms: C_28  and  C_29 
REMARK    9  A    between atoms: C_29  and  C_30 
REMARK   10  A    between atoms: C_30  and  O_32 
REMARK   11  A    between atoms: C_33  and  C_34 
REMARK   12  A    between atoms: C_34  and  C_35 
REMARK   13  A    between atoms: C_35  and  C_36 
REMARK   14  A    between atoms: C_36  and  O_38 
REMARK   15  A    between atoms: C_39  and  C_40 
REMARK   16  A    between atoms: C_40  and  C_41 
REMARK   17  A    between atoms: C_41  and  C_42 
REMARK   18  A    between atoms: C_42  and  O_44 
REMARK   19  A    between atoms: C_45  and  C_46 
REMARK   20  A    between atoms: C_46  and  C_47 
REMARK   21  A    between atoms: C_47  and  O_49 
REMARK   22  A    between atoms: C_50  and  C_51 
REMARK   23  A    between atoms: C_51  and  C_52 
REMARK   24  A    between atoms: C_52  and  O_54 
REMARK   25  A    between atoms: C_55  and  C_56 
REMARK   26  A    between atoms: C_56  and  C_57 
REMARK   27  A    between atoms: C_57  and  C_58 
REMARK   28  A    between atoms: C_58  and  O_60 
ROOT
ATOM      1  O   UNK d   0     -26.658   7.860   5.818  0.00  0.00    -0.650 OA
ATOM      2  C   UNK d   0     -26.666   8.255   7.005  0.00  0.00     0.139 C 
ENDROOT
BRANCH   2   3
ATOM      3  O   UNK d   0     -27.628   7.783   7.866  0.00  0.00    -0.776 OA
ATOM      4  H   UNK d   0     -28.623   7.889   7.654  0.00  0.00     0.167 HD
ENDBRANCH   2   3
BRANCH   2   5
ATOM      5  C   UNK d   0     -25.641   9.228   7.477  0.00  0.00     0.115 C 
BRANCH   5   6
ATOM      6  C   UNK d   0     -26.190  10.048   8.613  0.00  0.00     0.052 C 
BRANCH   6   7
ATOM      7  C   UNK d   0     -26.198  11.528   8.310  0.00  0.00    -0.020 A 
ATOM      8  C   UNK d   0     -26.991  12.170   7.492  0.00  0.00    -0.011 A 
ATOM      9  C   UNK d   0     -26.619  13.575   7.523  0.00  0.00     0.067 A 
ATOM     10  C   UNK d   0     -27.072  14.756   6.914  0.00  0.00     0.062 C 
ATOM     11  N   UNK d   0     -25.586  13.697   8.382  0.00  0.00    -0.248 NA
ATOM     12  C   UNK d   0     -26.765  16.070   7.282  0.00  0.00     0.041 A 
ATOM     13  N   UNK d   0     -25.600  16.639   7.646  0.00  0.00    -0.355 N 
ATOM     14  C   UNK d   0     -27.803  17.015   7.364  0.00  0.00    -0.022 A 
ATOM     15  C   UNK d   0     -25.874  17.918   7.964  0.00  0.00     0.042 A 
ATOM     16  H   UNK d   0     -24.600  16.151   7.659  0.00  0.00     0.166 HD
ATOM     17  C   UNK d   0     -25.024  18.952   8.404  0.00  0.00     0.062 C 
ATOM     18  C   UNK d   0     -27.246  18.191   7.800  0.00  0.00    -0.013 A 
ATOM     19  C   UNK d   0     -24.034  18.910   9.353  0.00  0.00     0.067 A 
ATOM     20  N   UNK d   0     -23.671  17.703   9.795  0.00  0.00    -0.248 NA
ATOM     21  C   UNK d   0     -23.228  19.887  10.066  0.00  0.00    -0.011 A 
ATOM     22  C   UNK d   0     -22.688  17.820  10.746  0.00  0.00     0.066 A 
ATOM     23  C   UNK d   0     -22.189  16.634  11.266  0.00  0.00     0.062 C 
ATOM     24  C   UNK d   0     -22.445  19.243  10.883  0.00  0.00    -0.020 A 
ATOM     25  C   UNK d   0     -22.502  15.324  10.874  0.00  0.00     0.041 A 
ATOM     26  N   UNK d   0     -23.663  14.755  10.526  0.00  0.00    -0.355 N 
ATOM     27  C   UNK d   0     -21.458  14.377  10.788  0.00  0.00    -0.022 A 
ATOM     28  C   UNK d   0     -23.393  13.476  10.217  0.00  0.00     0.042 A 
ATOM     29  H   UNK d   0     -24.668  15.243  10.524  0.00  0.00     0.166 HD
ATOM     30  C   UNK d   0     -24.230  12.435   9.787  0.00  0.00     0.062 C 
ATOM     31  C   UNK d   0     -22.013  13.206  10.373  0.00  0.00    -0.013 A 
ATOM     32  C   UNK d   0     -25.285  12.501   8.890  0.00  0.00     0.066 A 
BRANCH   8  33
ATOM     33  C   UNK d   0     -28.072  11.593   6.670  0.00  0.00     0.151 C 
BRANCH  33  34
ATOM     34  C   UNK d   0     -29.263  11.239   7.462  0.00  0.00     0.143 C 
ATOM     35  O   UNK d   0     -29.592  10.055   7.624  0.00  0.00    -0.650 OA
BRANCH  34  36
ATOM     36  O   UNK d   0     -30.020  12.239   8.028  0.00  0.00    -0.776 OA
ATOM     37  H   UNK d   0     -30.117  12.323   9.049  0.00  0.00     0.167 HD
ENDBRANCH  34  36
ENDBRANCH  33  34
ENDBRANCH   8  33
BRANCH  31  38
ATOM     38  C   UNK d   0     -21.277  11.910  10.125  0.00  0.00     0.151 C 
BRANCH  38  39
ATOM     39  C   UNK d   0     -20.820  11.281  11.346  0.00  0.00     0.143 C 
ATOM     40  O   UNK d   0     -21.575  11.079  12.313  0.00  0.00    -0.650 OA
BRANCH  39  41
ATOM     41  O   UNK d   0     -19.489  10.881  11.455  0.00  0.00    -0.776 OA
ATOM     42  H   UNK d   0     -18.867  11.491  11.994  0.00  0.00     0.167 HD
ENDBRANCH  39  41
ENDBRANCH  38  39
ENDBRANCH  31  38
BRANCH  27  43
ATOM     43  C   UNK d   0     -19.988  14.543  11.082  0.00  0.00     0.052 C 
BRANCH  43  44
ATOM     44  C   UNK d   0     -19.179  14.884   9.873  0.00  0.00     0.115 C 
BRANCH  44  45
ATOM     45  C   UNK d   0     -18.024  13.949   9.857  0.00  0.00     0.139 C 
ATOM     46  O   UNK d   0     -17.329  13.884   8.812  0.00  0.00    -0.650 OA
BRANCH  45  47
ATOM     47  O   UNK d   0     -17.686  13.160  10.935  0.00  0.00    -0.776 OA
ATOM     48  H   UNK d   0     -16.782  12.667  11.007  0.00  0.00     0.167 HD
ENDBRANCH  45  47
ENDBRANCH  44  45
ENDBRANCH  43  44
ENDBRANCH  27  43
BRANCH  24  49
ATOM     49  C   UNK d   0     -21.435  19.842  11.772  0.00  0.00     0.052 C 
BRANCH  49  50
ATOM     50  C   UNK d   0     -21.943  19.884  13.190  0.00  0.00     0.115 C 
BRANCH  50  51
ATOM     51  C   UNK d   0     -22.645  21.090  13.610  0.00  0.00     0.139 C 
ATOM     52  O   UNK d   0     -22.499  22.193  13.031  0.00  0.00    -0.650 OA
BRANCH  51  53
ATOM     53  O   UNK d   0     -23.511  21.039  14.691  0.00  0.00    -0.776 OA
ATOM     54  H   UNK d   0     -23.578  20.179  15.206  0.00  0.00     0.167 HD
ENDBRANCH  51  53
ENDBRANCH  50  51
ENDBRANCH  49  50
ENDBRANCH  24  49
BRANCH  21  55
ATOM     55  C   UNK d   0     -23.321  21.361   9.854  0.00  0.00     0.151 C 
BRANCH  55  56
ATOM     56  C   UNK d   0     -22.589  21.793   8.654  0.00  0.00     0.143 C 
ATOM     57  O   UNK d   0     -23.161  22.130   7.598  0.00  0.00    -0.650 OA
BRANCH  56  58
ATOM     58  O   UNK d   0     -21.197  21.821   8.718  0.00  0.00    -0.776 OA
ATOM     59  H   UNK d   0     -20.756  20.930   9.008  0.00  0.00     0.167 HD
ENDBRANCH  56  58
ENDBRANCH  55  56
ENDBRANCH  21  55
BRANCH  18  60
ATOM     60  C   UNK d   0     -28.005  19.473   8.036  0.00  0.00     0.151 C 
BRANCH  60  61
ATOM     61  C   UNK d   0     -28.225  19.550   9.488  0.00  0.00     0.143 C 
ATOM     62  O   UNK d   0     -28.154  18.627  10.300  0.00  0.00    -0.650 OA
BRANCH  61  63
ATOM     63  O   UNK d   0     -28.553  20.837   9.980  0.00  0.00    -0.776 OA
ATOM     64  H   UNK d   0     -28.138  21.189  10.825  0.00  0.00     0.167 HD
ENDBRANCH  61  63
ENDBRANCH  60  61
ENDBRANCH  18  60
BRANCH  14  65
ATOM     65  C   UNK d   0     -29.250  16.919   6.971  0.00  0.00     0.052 C 
BRANCH  65  66
ATOM     66  C   UNK d   0     -29.470  17.108   5.511  0.00  0.00     0.115 C 
BRANCH  66  67
ATOM     67  C   UNK d   0     -29.599  18.434   4.977  0.00  0.00     0.139 C 
ATOM     68  O   UNK d   0     -30.761  18.983   4.971  0.00  0.00    -0.650 OA
BRANCH  67  69
ATOM     69  O   UNK d   0     -28.594  19.239   4.441  0.00  0.00    -0.776 OA
ATOM     70  H   UNK d   0     -27.921  19.626   5.119  0.00  0.00     0.167 HD
ENDBRANCH  67  69
ENDBRANCH  66  67
ENDBRANCH  65  66
ENDBRANCH  14  65
ENDBRANCH   6   7
ENDBRANCH   5   6
ENDBRANCH   2   5
TORSDOF 28
ENDMDL
MODEL 17
REMARK VINA RESULT:      -9.0     29.596     33.404
REMARK  28 active torsions:
REMARK  status: ('A' for Active; 'I' for Inactive)
REMARK    1  A    between atoms: C_2  and  O_3 
REMARK    2  A    between atoms: C_2  and  C_4 
REMARK    3  A    between atoms: C_4  and  C_5 
REMARK    4  A    between atoms: C_5  and  C_6 
REMARK    5  A    between atoms: C_7  and  C_8 
REMARK    6  A    between atoms: C_8  and  C_9 
REMARK    7  A    between atoms: C_9  and  O_11 
REMARK    8  A    between atoms: C_28  and  C_29 
REMARK    9  A    between atoms: C_29  and  C_30 
REMARK   10  A    between atoms: C_30  and  O_32 
REMARK   11  A    between atoms: C_33  and  C_34 
REMARK   12  A    between atoms: C_34  and  C_35 
REMARK   13  A    between atoms: C_35  and  C_36 
REMARK   14  A    between atoms: C_36  and  O_38 
REMARK   15  A    between atoms: C_39  and  C_40 
REMARK   16  A    between atoms: C_40  and  C_41 
REMARK   17  A    between atoms: C_41  and  C_42 
REMARK   18  A    between atoms: C_42  and  O_44 
REMARK   19  A    between atoms: C_45  and  C_46 
REMARK   20  A    between atoms: C_46  and  C_47 
REMARK   21  A    between atoms: C_47  and  O_49 
REMARK   22  A    between atoms: C_50  and  C_51 
REMARK   23  A    between atoms: C_51  and  C_52 
REMARK   24  A    between atoms: C_52  and  O_54 
REMARK   25  A    between atoms: C_55  and  C_56 
REMARK   26  A    between atoms: C_56  and  C_57 
REMARK   27  A    between atoms: C_57  and  C_58 
REMARK   28  A    between atoms: C_58  and  O_60 
ROOT
ATOM      1  O   UNK d   0     -23.192   9.050  10.919  0.00  0.00    -0.650 OA
ATOM      2  C   UNK d   0     -22.969   9.055   9.688  0.00  0.00     0.139 C 
ENDROOT
BRANCH   2   3
ATOM      3  O   UNK d   0     -21.678   8.920   9.237  0.00  0.00    -0.776 OA
ATOM      4  H   UNK d   0     -20.883   9.061   9.864  0.00  0.00     0.167 HD
ENDBRANCH   2   3
BRANCH   2   5
ATOM      5  C   UNK d   0     -24.095   9.207   8.724  0.00  0.00     0.115 C 
BRANCH   5   6
ATOM      6  C   UNK d   0     -25.279   9.838   9.406  0.00  0.00     0.052 C 
BRANCH   6   7
ATOM      7  C   UNK d   0     -25.500  11.270   8.981  0.00  0.00    -0.020 A 
ATOM      8  C   UNK d   0     -26.428  11.731   8.183  0.00  0.00    -0.011 A 
ATOM      9  C   UNK d   0     -26.238  13.167   8.062  0.00  0.00     0.067 A 
ATOM     10  C   UNK d   0     -26.883  14.222   7.398  0.00  0.00     0.062 C 
ATOM     11  N   UNK d   0     -25.167  13.494   8.816  0.00  0.00    -0.248 NA
ATOM     12  C   UNK d   0     -26.719  15.593   7.625  0.00  0.00     0.041 A 
ATOM     13  N   UNK d   0     -25.613  16.330   7.837  0.00  0.00    -0.355 N 
ATOM     14  C   UNK d   0     -27.862  16.409   7.716  0.00  0.00    -0.022 A 
ATOM     15  C   UNK d   0     -26.024  17.591   8.068  0.00  0.00     0.042 A 
ATOM     16  H   UNK d   0     -24.561  15.970   7.805  0.00  0.00     0.166 HD
ATOM     17  C   UNK d   0     -25.283  18.757   8.344  0.00  0.00     0.062 C 
ATOM     18  C   UNK d   0     -27.428  17.680   8.001  0.00  0.00    -0.013 A 
ATOM     19  C   UNK d   0     -24.227  18.925   9.203  0.00  0.00     0.067 A 
ATOM     20  N   UNK d   0     -23.680  17.818   9.713  0.00  0.00    -0.248 NA
ATOM     21  C   UNK d   0     -23.501  20.055   9.759  0.00  0.00    -0.011 A 
ATOM     22  C   UNK d   0     -22.651  18.142  10.562  0.00  0.00     0.066 A 
ATOM     23  C   UNK d   0     -21.966  17.080  11.135  0.00  0.00     0.062 C 
ATOM     24  C   UNK d   0     -22.583  19.591  10.556  0.00  0.00    -0.020 A 
ATOM     25  C   UNK d   0     -22.138  15.710  10.883  0.00  0.00     0.041 A 
ATOM     26  N   UNK d   0     -23.239  14.975  10.688  0.00  0.00    -0.355 N 
ATOM     27  C   UNK d   0     -20.991  14.893  10.788  0.00  0.00    -0.022 A 
ATOM     28  C   UNK d   0     -22.832  13.715  10.466  0.00  0.00     0.042 A 
ATOM     29  H   UNK d   0     -24.296  15.336  10.731  0.00  0.00     0.166 HD
ATOM     30  C   UNK d   0     -23.558  12.544  10.199  0.00  0.00     0.062 C 
ATOM     31  C   UNK d   0     -21.420  13.629  10.523  0.00  0.00    -0.013 A 
ATOM     32  C   UNK d   0     -24.678  12.397   9.395  0.00  0.00     0.066 A 
BRANCH   8  33
ATOM     33  C   UNK d   0     -27.484  10.952   7.510  0.00  0.00     0.151 C 
BRANCH  33  34
ATOM     34  C   UNK d   0     -28.562  10.541   8.428  0.00  0.00     0.143 C 
ATOM     35  O   UNK d   0     -29.488  11.315   8.710  0.00  0.00    -0.650 OA
BRANCH  34  36
ATOM     36  O   UNK d   0     -28.536   9.281   8.978  0.00  0.00    -0.776 OA
ATOM     37  H   UNK d   0     -28.743   9.129   9.975  0.00  0.00     0.167 HD
ENDBRANCH  34  36
ENDBRANCH  33  34
ENDBRANCH   8  33
BRANCH  31  38
ATOM     38  C   UNK d   0     -20.546  12.414  10.323  0.00  0.00     0.151 C 
BRANCH  38  39
ATOM     39  C   UNK d   0     -20.383  11.633  11.531  0.00  0.00     0.143 C 
ATOM     40  O   UNK d   0     -20.336  12.155  12.659  0.00  0.00    -0.650 OA
BRANCH  39  41
ATOM     41  O   UNK d   0     -20.276  10.246  11.442  0.00  0.00    -0.776 OA
ATOM     42  H   UNK d   0     -21.055   9.750  10.997  0.00  0.00     0.167 HD
ENDBRANCH  39  41
ENDBRANCH  38  39
ENDBRANCH  31  38
BRANCH  27  43
ATOM     43  C   UNK d   0     -19.536  15.262  10.938  0.00  0.00     0.052 C 
BRANCH  43  44
ATOM     44  C   UNK d   0     -19.202  15.810  12.287  0.00  0.00     0.115 C 
BRANCH  44  45
ATOM     45  C   UNK d   0     -18.340  16.999  12.061  0.00  0.00     0.139 C 
ATOM     46  O   UNK d   0     -17.580  17.366  12.991  0.00  0.00    -0.650 OA
BRANCH  45  47
ATOM     47  O   UNK d   0     -18.338  17.706  10.878  0.00  0.00    -0.776 OA
ATOM     48  H   UNK d   0     -19.169  18.205  10.521  0.00  0.00     0.167 HD
ENDBRANCH  45  47
ENDBRANCH  44  45
ENDBRANCH  43  44
ENDBRANCH  27  43
BRANCH  24  49
ATOM     49  C   UNK d   0     -21.594  20.389  11.300  0.00  0.00     0.052 C 
BRANCH  49  50
ATOM     50  C   UNK d   0     -21.803  20.233  12.784  0.00  0.00     0.115 C 
BRANCH  50  51
ATOM     51  C   UNK d   0     -22.618  21.241  13.450  0.00  0.00     0.139 C 
ATOM     52  O   UNK d   0     -22.708  22.420  13.035  0.00  0.00    -0.650 OA
BRANCH  51  53
ATOM     53  O   UNK d   0     -23.328  20.904  14.592  0.00  0.00    -0.776 OA
ATOM     54  H   UNK d   0     -24.310  20.712  14.502  0.00  0.00     0.167 HD
ENDBRANCH  51  53
ENDBRANCH  50  51
ENDBRANCH  49  50
ENDBRANCH  24  49
BRANCH  21  55
ATOM     55  C   UNK d   0     -23.798  21.481   9.431  0.00  0.00     0.151 C 
BRANCH  55  56
ATOM     56  C   UNK d   0     -22.588  22.220   9.040  0.00  0.00     0.143 C 
ATOM     57  O   UNK d   0     -22.119  23.155   9.719  0.00  0.00    -0.650 OA
BRANCH  56  58
ATOM     58  O   UNK d   0     -21.954  21.847   7.856  0.00  0.00    -0.776 OA
ATOM     59  H   UNK d   0     -21.172  21.176   7.973  0.00  0.00     0.167 HD
ENDBRANCH  56  58
ENDBRANCH  55  56
ENDBRANCH  21  55
BRANCH  18  60
ATOM     60  C   UNK d   0     -28.325  18.877   8.193  0.00  0.00     0.151 C 
BRANCH  60  61
ATOM     61  C   UNK d   0     -28.230  19.228   9.618  0.00  0.00     0.143 C 
ATOM     62  O   UNK d   0     -28.156  20.359  10.100  0.00  0.00    -0.650 OA
BRANCH  61  63
ATOM     63  O   UNK d   0     -28.226  18.130  10.510  0.00  0.00    -0.776 OA
ATOM     64  H   UNK d   0     -28.340  18.265  11.499  0.00  0.00     0.167 HD
ENDBRANCH  61  63
ENDBRANCH  60  61
ENDBRANCH  18  60
BRANCH  14  65
ATOM     65  C   UNK d   0     -29.310  16.101   7.459  0.00  0.00     0.052 C 
BRANCH  65  66
ATOM     66  C   UNK d   0     -29.718  16.359   6.052  0.00  0.00     0.115 C 
BRANCH  66  67
ATOM     67  C   UNK d   0     -29.531  15.339   5.059  0.00  0.00     0.139 C 
ATOM     68  O   UNK d   0     -30.497  14.523   4.827  0.00  0.00    -0.650 OA
BRANCH  67  69
ATOM     69  O   UNK d   0     -28.398  15.104   4.281  0.00  0.00    -0.776 OA
ATOM     70  H   UNK d   0     -27.742  15.893   4.194  0.00  0.00     0.167 HD
ENDBRANCH  67  69
ENDBRANCH  66  67
ENDBRANCH  65  66
ENDBRANCH  14  65
ENDBRANCH   6   7
ENDBRANCH   5   6
ENDBRANCH   2   5
TORSDOF 28
ENDMDL
MODEL 18
REMARK VINA RESULT:      -9.0     29.197     32.840
REMARK  28 active torsions:
REMARK  status: ('A' for Active; 'I' for Inactive)
REMARK    1  A    between atoms: C_2  and  O_3 
REMARK    2  A    between atoms: C_2  and  C_4 
REMARK    3  A    between atoms: C_4  and  C_5 
REMARK    4  A    between atoms: C_5  and  C_6 
REMARK    5  A    between atoms: C_7  and  C_8 
REMARK    6  A    between atoms: C_8  and  C_9 
REMARK    7  A    between atoms: C_9  and  O_11 
REMARK    8  A    between atoms: C_28  and  C_29 
REMARK    9  A    between atoms: C_29  and  C_30 
REMARK   10  A    between atoms: C_30  and  O_32 
REMARK   11  A    between atoms: C_33  and  C_34 
REMARK   12  A    between atoms: C_34  and  C_35 
REMARK   13  A    between atoms: C_35  and  C_36 
REMARK   14  A    between atoms: C_36  and  O_38 
REMARK   15  A    between atoms: C_39  and  C_40 
REMARK   16  A    between atoms: C_40  and  C_41 
REMARK   17  A    between atoms: C_41  and  C_42 
REMARK   18  A    between atoms: C_42  and  O_44 
REMARK   19  A    between atoms: C_45  and  C_46 
REMARK   20  A    between atoms: C_46  and  C_47 
REMARK   21  A    between atoms: C_47  and  O_49 
REMARK   22  A    between atoms: C_50  and  C_51 
REMARK   23  A    between atoms: C_51  and  C_52 
REMARK   24  A    between atoms: C_52  and  O_54 
REMARK   25  A    between atoms: C_55  and  C_56 
REMARK   26  A    between atoms: C_56  and  C_57 
REMARK   27  A    between atoms: C_57  and  C_58 
REMARK   28  A    between atoms: C_58  and  O_60 
ROOT
ATOM      1  O   UNK d   0     -30.009  11.908   3.556  0.00  0.00    -0.650 OA
ATOM      2  C   UNK d   0     -29.896  12.702   4.517  0.00  0.00     0.139 C 
ENDROOT
BRANCH   2   3
ATOM      3  O   UNK d   0     -30.425  13.966   4.412  0.00  0.00    -0.776 OA
ATOM      4  H   UNK d   0     -30.057  14.740   4.969  0.00  0.00     0.167 HD
ENDBRANCH   2   3
BRANCH   2   5
ATOM      5  C   UNK d   0     -29.192  12.277   5.760  0.00  0.00     0.115 C 
BRANCH   5   6
ATOM      6  C   UNK d   0     -27.784  11.855   5.438  0.00  0.00     0.052 C 
BRANCH   6   7
ATOM      7  C   UNK d   0     -26.821  12.136   6.567  0.00  0.00    -0.020 A 
ATOM      8  C   UNK d   0     -26.283  11.274   7.391  0.00  0.00    -0.011 A 
ATOM      9  C   UNK d   0     -25.432  12.009   8.312  0.00  0.00     0.067 A 
ATOM     10  C   UNK d   0     -24.586  11.687   9.385  0.00  0.00     0.062 C 
ATOM     11  N   UNK d   0     -25.516  13.314   7.980  0.00  0.00    -0.248 NA
ATOM     12  C   UNK d   0     -23.624  12.509   9.981  0.00  0.00     0.041 A 
ATOM     13  N   UNK d   0     -23.661  13.810  10.327  0.00  0.00    -0.355 N 
ATOM     14  C   UNK d   0     -22.349  11.979  10.250  0.00  0.00    -0.022 A 
ATOM     15  C   UNK d   0     -22.439  14.121  10.802  0.00  0.00     0.042 A 
ATOM     16  H   UNK d   0     -24.538  14.490  10.256  0.00  0.00     0.166 HD
ATOM     17  C   UNK d   0     -21.936  15.339  11.300  0.00  0.00     0.062 C 
ATOM     18  C   UNK d   0     -21.589  12.999  10.769  0.00  0.00    -0.013 A 
ATOM     19  C   UNK d   0     -22.080  16.604  10.790  0.00  0.00     0.067 A 
ATOM     20  N   UNK d   0     -22.969  16.762   9.806  0.00  0.00    -0.248 NA
ATOM     21  C   UNK d   0     -21.479  17.905  11.037  0.00  0.00    -0.011 A 
ATOM     22  C   UNK d   0     -22.991  18.071   9.390  0.00  0.00     0.066 A 
ATOM     23  C   UNK d   0     -23.902  18.385   8.392  0.00  0.00     0.062 C 
ATOM     24  C   UNK d   0     -22.013  18.757  10.211  0.00  0.00    -0.020 A 
ATOM     25  C   UNK d   0     -24.869  17.547   7.815  0.00  0.00     0.041 A 
ATOM     26  N   UNK d   0     -24.828  16.258   7.457  0.00  0.00    -0.355 N 
ATOM     27  C   UNK d   0     -26.150  18.079   7.550  0.00  0.00    -0.022 A 
ATOM     28  C   UNK d   0     -26.042  15.948   6.975  0.00  0.00     0.042 A 
ATOM     29  H   UNK d   0     -23.942  15.579   7.519  0.00  0.00     0.166 HD
ATOM     30  C   UNK d   0     -26.553  14.743   6.468  0.00  0.00     0.062 C 
ATOM     31  C   UNK d   0     -26.899  17.074   7.019  0.00  0.00    -0.013 A 
ATOM     32  C   UNK d   0     -26.335  13.457   6.937  0.00  0.00     0.066 A 
BRANCH   8  33
ATOM     33  C   UNK d   0     -26.493   9.814   7.405  0.00  0.00     0.151 C 
BRANCH  33  34
ATOM     34  C   UNK d   0     -27.616   9.407   8.269  0.00  0.00     0.143 C 
ATOM     35  O   UNK d   0     -28.191  10.231   8.995  0.00  0.00    -0.650 OA
BRANCH  34  36
ATOM     36  O   UNK d   0     -28.027   8.095   8.268  0.00  0.00    -0.776 OA
ATOM     37  H   UNK d   0     -27.439   7.351   7.869  0.00  0.00     0.167 HD
ENDBRANCH  34  36
ENDBRANCH  33  34
ENDBRANCH   8  33
BRANCH  31  38
ATOM     38  C   UNK d   0     -28.344  17.169   6.590  0.00  0.00     0.151 C 
BRANCH  38  39
ATOM     39  C   UNK d   0     -29.212  16.284   7.338  0.00  0.00     0.143 C 
ATOM     40  O   UNK d   0     -30.171  15.692   6.812  0.00  0.00    -0.650 OA
BRANCH  39  41
ATOM     41  O   UNK d   0     -28.975  16.078   8.696  0.00  0.00    -0.776 OA
ATOM     42  H   UNK d   0     -29.780  16.166   9.324  0.00  0.00     0.167 HD
ENDBRANCH  39  41
ENDBRANCH  38  39
ENDBRANCH  31  38
BRANCH  27  43
ATOM     43  C   UNK d   0     -26.674  19.475   7.776  0.00  0.00     0.052 C 
BRANCH  43  44
ATOM     44  C   UNK d   0     -27.787  19.535   8.771  0.00  0.00     0.115 C 
BRANCH  44  45
ATOM     45  C   UNK d   0     -27.239  19.015  10.051  0.00  0.00     0.139 C 
ATOM     46  O   UNK d   0     -26.335  19.676  10.620  0.00  0.00    -0.650 OA
BRANCH  45  47
ATOM     47  O   UNK d   0     -27.685  17.849  10.636  0.00  0.00    -0.776 OA
ATOM     48  H   UNK d   0     -27.838  16.978  10.104  0.00  0.00     0.167 HD
ENDBRANCH  45  47
ENDBRANCH  44  45
ENDBRANCH  43  44
ENDBRANCH  27  43
BRANCH  24  49
ATOM     49  C   UNK d   0     -21.722  20.200  10.142  0.00  0.00     0.052 C 
BRANCH  49  50
ATOM     50  C   UNK d   0     -22.696  20.973  10.994  0.00  0.00     0.115 C 
BRANCH  50  51
ATOM     51  C   UNK d   0     -22.138  21.923  11.947  0.00  0.00     0.139 C 
ATOM     52  O   UNK d   0     -21.794  21.594  13.107  0.00  0.00    -0.650 OA
BRANCH  51  53
ATOM     53  O   UNK d   0     -21.975  23.249  11.578  0.00  0.00    -0.776 OA
ATOM     54  H   UNK d   0     -21.959  23.472  10.598  0.00  0.00     0.167 HD
ENDBRANCH  51  53
ENDBRANCH  50  51
ENDBRANCH  49  50
ENDBRANCH  24  49
BRANCH  21  55
ATOM     55  C   UNK d   0     -20.437  18.160  12.074  0.00  0.00     0.151 C 
BRANCH  55  56
ATOM     56  C   UNK d   0     -19.183  17.448  11.783  0.00  0.00     0.143 C 
ATOM     57  O   UNK d   0     -18.426  17.019  12.676  0.00  0.00    -0.650 OA
BRANCH  56  58
ATOM     58  O   UNK d   0     -18.842  17.254  10.445  0.00  0.00    -0.776 OA
ATOM     59  H   UNK d   0     -19.320  16.459   9.984  0.00  0.00     0.167 HD
ENDBRANCH  56  58
ENDBRANCH  55  56
ENDBRANCH  21  55
BRANCH  18  60
ATOM     60  C   UNK d   0     -20.147  12.873  11.192  0.00  0.00     0.151 C 
BRANCH  60  61
ATOM     61  C   UNK d   0     -19.359  13.543  10.145  0.00  0.00     0.143 C 
ATOM     62  O   UNK d   0     -18.423  14.326  10.308  0.00  0.00    -0.650 OA
BRANCH  61  63
ATOM     63  O   UNK d   0     -19.739  13.235   8.817  0.00  0.00    -0.776 OA
ATOM     64  H   UNK d   0     -19.244  12.542   8.284  0.00  0.00     0.167 HD
ENDBRANCH  61  63
ENDBRANCH  60  61
ENDBRANCH  18  60
BRANCH  14  65
ATOM     65  C   UNK d   0     -21.829  10.574  10.147  0.00  0.00     0.052 C 
BRANCH  65  66
ATOM     66  C   UNK d   0     -21.835   9.854  11.449  0.00  0.00     0.115 C 
BRANCH  66  67
ATOM     67  C   UNK d   0     -23.040   9.804  12.228  0.00  0.00     0.139 C 
ATOM     68  O   UNK d   0     -23.029  10.314  13.408  0.00  0.00    -0.650 OA
BRANCH  67  69
ATOM     69  O   UNK d   0     -24.269   9.254  11.865  0.00  0.00    -0.776 OA
ATOM     70  H   UNK d   0     -24.847   9.828  11.235  0.00  0.00     0.167 HD
ENDBRANCH  67  69
ENDBRANCH  66  67
ENDBRANCH  65  66
ENDBRANCH  14  65
ENDBRANCH   6   7
ENDBRANCH   5   6
ENDBRANCH   2   5
TORSDOF 28
ENDMDL
MODEL 19
REMARK VINA RESULT:      -8.9     29.397     31.831
REMARK  28 active torsions:
REMARK  status: ('A' for Active; 'I' for Inactive)
REMARK    1  A    between atoms: C_2  and  O_3 
REMARK    2  A    between atoms: C_2  and  C_4 
REMARK    3  A    between atoms: C_4  and  C_5 
REMARK    4  A    between atoms: C_5  and  C_6 
REMARK    5  A    between atoms: C_7  and  C_8 
REMARK    6  A    between atoms: C_8  and  C_9 
REMARK    7  A    between atoms: C_9  and  O_11 
REMARK    8  A    between atoms: C_28  and  C_29 
REMARK    9  A    between atoms: C_29  and  C_30 
REMARK   10  A    between atoms: C_30  and  O_32 
REMARK   11  A    between atoms: C_33  and  C_34 
REMARK   12  A    between atoms: C_34  and  C_35 
REMARK   13  A    between atoms: C_35  and  C_36 
REMARK   14  A    between atoms: C_36  and  O_38 
REMARK   15  A    between atoms: C_39  and  C_40 
REMARK   16  A    between atoms: C_40  and  C_41 
REMARK   17  A    between atoms: C_41  and  C_42 
REMARK   18  A    between atoms: C_42  and  O_44 
REMARK   19  A    between atoms: C_45  and  C_46 
REMARK   20  A    between atoms: C_46  and  C_47 
REMARK   21  A    between atoms: C_47  and  O_49 
REMARK   22  A    between atoms: C_50  and  C_51 
REMARK   23  A    between atoms: C_51  and  C_52 
REMARK   24  A    between atoms: C_52  and  O_54 
REMARK   25  A    between atoms: C_55  and  C_56 
REMARK   26  A    between atoms: C_56  and  C_57 
REMARK   27  A    between atoms: C_57  and  C_58 
REMARK   28  A    between atoms: C_58  and  O_60 
ROOT
ATOM      1  O   UNK d   0     -22.904  20.937  12.382  0.00  0.00    -0.650 OA
ATOM      2  C   UNK d   0     -23.057  20.166  13.355  0.00  0.00     0.139 C 
ENDROOT
BRANCH   2   3
ATOM      3  O   UNK d   0     -23.296  20.692  14.601  0.00  0.00    -0.776 OA
ATOM      4  H   UNK d   0     -23.458  21.693  14.729  0.00  0.00     0.167 HD
ENDBRANCH   2   3
BRANCH   2   5
ATOM      5  C   UNK d   0     -22.979  18.690  13.159  0.00  0.00     0.115 C 
BRANCH   5   6
ATOM      6  C   UNK d   0     -21.891  18.355  12.175  0.00  0.00     0.052 C 
BRANCH   6   7
ATOM      7  C   UNK d   0     -22.009  16.950  11.634  0.00  0.00    -0.020 A 
ATOM      8  C   UNK d   0     -21.218  15.935  11.871  0.00  0.00    -0.011 A 
ATOM      9  C   UNK d   0     -21.723  14.794  11.127  0.00  0.00     0.067 A 
ATOM     10  C   UNK d   0     -21.361  13.447  10.970  0.00  0.00     0.062 C 
ATOM     11  N   UNK d   0     -22.822  15.205  10.460  0.00  0.00    -0.248 NA
ATOM     12  C   UNK d   0     -22.138  12.419  10.424  0.00  0.00     0.041 A 
ATOM     13  N   UNK d   0     -22.932  12.390   9.337  0.00  0.00    -0.355 N 
ATOM     14  C   UNK d   0     -22.199  11.183  11.093  0.00  0.00    -0.022 A 
ATOM     15  C   UNK d   0     -23.502  11.170   9.304  0.00  0.00     0.042 A 
ATOM     16  H   UNK d   0     -23.073  13.208   8.597  0.00  0.00     0.166 HD
ATOM     17  C   UNK d   0     -24.411  10.611   8.384  0.00  0.00     0.062 C 
ATOM     18  C   UNK d   0     -23.066  10.385  10.389  0.00  0.00    -0.013 A 
ATOM     19  C   UNK d   0     -25.536  11.171   7.835  0.00  0.00     0.067 A 
ATOM     20  N   UNK d   0     -25.713  12.481   8.024  0.00  0.00    -0.248 NA
ATOM     21  C   UNK d   0     -26.671  10.693   7.063  0.00  0.00    -0.011 A 
ATOM     22  C   UNK d   0     -26.883  12.894   7.434  0.00  0.00     0.066 A 
ATOM     23  C   UNK d   0     -27.173  14.248   7.522  0.00  0.00     0.062 C 
ATOM     24  C   UNK d   0     -27.458  11.705   6.835  0.00  0.00    -0.020 A 
ATOM     25  C   UNK d   0     -26.374  15.266   8.063  0.00  0.00     0.041 A 
ATOM     26  N   UNK d   0     -25.596  15.300   9.152  0.00  0.00    -0.355 N 
ATOM     27  C   UNK d   0     -26.309  16.505   7.388  0.00  0.00    -0.022 A 
ATOM     28  C   UNK d   0     -25.034  16.518   9.192  0.00  0.00     0.042 A 
ATOM     29  H   UNK d   0     -25.464  14.480   9.900  0.00  0.00     0.166 HD
ATOM     30  C   UNK d   0     -24.135  17.090  10.106  0.00  0.00     0.062 C 
ATOM     31  C   UNK d   0     -25.463  17.302   8.095  0.00  0.00    -0.013 A 
ATOM     32  C   UNK d   0     -23.048  16.493  10.724  0.00  0.00     0.066 A 
BRANCH   8  33
ATOM     33  C   UNK d   0     -20.019  15.929  12.731  0.00  0.00     0.151 C 
BRANCH  33  34
ATOM     34  C   UNK d   0     -18.823  16.451  12.046  0.00  0.00     0.143 C 
ATOM     35  O   UNK d   0     -18.739  16.433  10.810  0.00  0.00    -0.650 OA
BRANCH  34  36
ATOM     36  O   UNK d   0     -17.787  16.963  12.792  0.00  0.00    -0.776 OA
ATOM     37  H   UNK d   0     -17.564  17.968  12.777  0.00  0.00     0.167 HD
ENDBRANCH  34  36
ENDBRANCH  33  34
ENDBRANCH   8  33
BRANCH  31  38
ATOM     38  C   UNK d   0     -25.074  18.720   7.746  0.00  0.00     0.151 C 
BRANCH  38  39
ATOM     39  C   UNK d   0     -25.952  19.706   8.340  0.00  0.00     0.143 C 
ATOM     40  O   UNK d   0     -26.817  20.310   7.681  0.00  0.00    -0.650 OA
BRANCH  39  41
ATOM     41  O   UNK d   0     -25.835  19.999   9.698  0.00  0.00    -0.776 OA
ATOM     42  H   UNK d   0     -25.950  20.980   9.970  0.00  0.00     0.167 HD
ENDBRANCH  39  41
ENDBRANCH  38  39
ENDBRANCH  31  38
BRANCH  27  43
ATOM     43  C   UNK d   0     -27.009  16.946   6.127  0.00  0.00     0.052 C 
BRANCH  43  44
ATOM     44  C   UNK d   0     -28.370  17.511   6.373  0.00  0.00     0.115 C 
BRANCH  44  45
ATOM     45  C   UNK d   0     -29.308  16.751   5.507  0.00  0.00     0.139 C 
ATOM     46  O   UNK d   0     -30.525  16.741   5.818  0.00  0.00    -0.650 OA
BRANCH  45  47
ATOM     47  O   UNK d   0     -28.899  16.067   4.382  0.00  0.00    -0.776 OA
ATOM     48  H   UNK d   0     -29.506  15.933   3.557  0.00  0.00     0.167 HD
ENDBRANCH  45  47
ENDBRANCH  44  45
ENDBRANCH  43  44
ENDBRANCH  27  43
BRANCH  24  49
ATOM     49  C   UNK d   0     -28.706  11.676   6.055  0.00  0.00     0.052 C 
BRANCH  49  50
ATOM     50  C   UNK d   0     -29.805  11.015   6.847  0.00  0.00     0.115 C 
BRANCH  50  51
ATOM     51  C   UNK d   0     -30.147  11.608   8.133  0.00  0.00     0.139 C 
ATOM     52  O   UNK d   0     -30.823  12.659   8.234  0.00  0.00    -0.650 OA
BRANCH  51  53
ATOM     53  O   UNK d   0     -29.715  11.004   9.304  0.00  0.00    -0.776 OA
ATOM     54  H   UNK d   0     -29.132  11.536   9.926  0.00  0.00     0.167 HD
ENDBRANCH  51  53
ENDBRANCH  50  51
ENDBRANCH  49  50
ENDBRANCH  24  49
BRANCH  21  55
ATOM     55  C   UNK d   0     -26.849   9.276   6.631  0.00  0.00     0.151 C 
BRANCH  55  56
ATOM     56  C   UNK d   0     -27.371   8.429   7.715  0.00  0.00     0.143 C 
ATOM     57  O   UNK d   0     -27.463   7.190   7.619  0.00  0.00    -0.650 OA
BRANCH  56  58
ATOM     58  O   UNK d   0     -27.774   9.058   8.892  0.00  0.00    -0.776 OA
ATOM     59  H   UNK d   0     -27.991  10.066   8.796  0.00  0.00     0.167 HD
ENDBRANCH  56  58
ENDBRANCH  55  56
ENDBRANCH  21  55
BRANCH  18  60
ATOM     60  C   UNK d   0     -23.435   8.970  10.761  0.00  0.00     0.151 C 
BRANCH  60  61
ATOM     61  C   UNK d   0     -22.604   8.101   9.913  0.00  0.00     0.143 C 
ATOM     62  O   UNK d   0     -22.768   6.900   9.696  0.00  0.00    -0.650 OA
BRANCH  61  63
ATOM     63  O   UNK d   0     -21.505   8.739   9.291  0.00  0.00    -0.776 OA
ATOM     64  H   UNK d   0     -21.550   9.030   8.330  0.00  0.00     0.167 HD
ENDBRANCH  61  63
ENDBRANCH  60  61
ENDBRANCH  18  60
BRANCH  14  65
ATOM     65  C   UNK d   0     -21.432  10.671  12.280  0.00  0.00     0.052 C 
BRANCH  65  66
ATOM     66  C   UNK d   0     -20.110  10.095  11.913  0.00  0.00     0.115 C 
BRANCH  66  67
ATOM     67  C   UNK d   0     -18.929  10.527  12.607  0.00  0.00     0.139 C 
ATOM     68  O   UNK d   0     -19.060  11.338  13.595  0.00  0.00    -0.650 OA
BRANCH  67  69
ATOM     69  O   UNK d   0     -17.607  10.171  12.343  0.00  0.00    -0.776 OA
ATOM     70  H   UNK d   0     -16.919  10.936  12.394  0.00  0.00     0.167 HD
ENDBRANCH  67  69
ENDBRANCH  66  67
ENDBRANCH  65  66
ENDBRANCH  14  65
ENDBRANCH   6   7
ENDBRANCH   5   6
ENDBRANCH   2   5
TORSDOF 28
ENDMDL
MODEL 20
REMARK VINA RESULT:      -8.9     29.784     32.791
REMARK  28 active torsions:
REMARK  status: ('A' for Active; 'I' for Inactive)
REMARK    1  A    between atoms: C_2  and  O_3 
REMARK    2  A    between atoms: C_2  and  C_4 
REMARK    3  A    between atoms: C_4  and  C_5 
REMARK    4  A    between atoms: C_5  and  C_6 
REMARK    5  A    between atoms: C_7  and  C_8 
REMARK    6  A    between atoms: C_8  and  C_9 
REMARK    7  A    between atoms: C_9  and  O_11 
REMARK    8  A    between atoms: C_28  and  C_29 
REMARK    9  A    between atoms: C_29  and  C_30 
REMARK   10  A    between atoms: C_30  and  O_32 
REMARK   11  A    between atoms: C_33  and  C_34 
REMARK   12  A    between atoms: C_34  and  C_35 
REMARK   13  A    between atoms: C_35  and  C_36 
REMARK   14  A    between atoms: C_36  and  O_38 
REMARK   15  A    between atoms: C_39  and  C_40 
REMARK   16  A    between atoms: C_40  and  C_41 
REMARK   17  A    between atoms: C_41  and  C_42 
REMARK   18  A    between atoms: C_42  and  O_44 
REMARK   19  A    between atoms: C_45  and  C_46 
REMARK   20  A    between atoms: C_46  and  C_47 
REMARK   21  A    between atoms: C_47  and  O_49 
REMARK   22  A    between atoms: C_50  and  C_51 
REMARK   23  A    between atoms: C_51  and  C_52 
REMARK   24  A    between atoms: C_52  and  O_54 
REMARK   25  A    between atoms: C_55  and  C_56 
REMARK   26  A    between atoms: C_56  and  C_57 
REMARK   27  A    between atoms: C_57  and  C_58 
REMARK   28  A    between atoms: C_58  and  O_60 
ROOT
ATOM      1  O   UNK d   0     -22.386  20.543  14.300  0.00  0.00    -0.650 OA
ATOM      2  C   UNK d   0     -22.621  21.076  13.193  0.00  0.00     0.139 C 
ENDROOT
BRANCH   2   3
ATOM      3  O   UNK d   0     -21.823  22.106  12.758  0.00  0.00    -0.776 OA
ATOM      4  H   UNK d   0     -20.987  22.382  13.278  0.00  0.00     0.167 HD
ENDBRANCH   2   3
BRANCH   2   5
ATOM      5  C   UNK d   0     -23.758  20.596  12.358  0.00  0.00     0.115 C 
BRANCH   5   6
ATOM      6  C   UNK d   0     -24.348  19.347  12.955  0.00  0.00     0.052 C 
BRANCH   6   7
ATOM      7  C   UNK d   0     -24.173  18.139  12.065  0.00  0.00    -0.020 A 
ATOM      8  C   UNK d   0     -23.158  17.315  12.028  0.00  0.00    -0.011 A 
ATOM      9  C   UNK d   0     -23.434  16.315  11.011  0.00  0.00     0.067 A 
ATOM     10  C   UNK d   0     -22.783  15.178  10.506  0.00  0.00     0.062 C 
ATOM     11  N   UNK d   0     -24.636  16.609  10.475  0.00  0.00    -0.248 NA
ATOM     12  C   UNK d   0     -23.336  14.169   9.709  0.00  0.00     0.041 A 
ATOM     13  N   UNK d   0     -24.168  14.230   8.653  0.00  0.00    -0.355 N 
ATOM     14  C   UNK d   0     -23.071  12.826  10.031  0.00  0.00    -0.022 A 
ATOM     15  C   UNK d   0     -24.444  12.960   8.301  0.00  0.00     0.042 A 
ATOM     16  H   UNK d   0     -24.538  15.153   8.153  0.00  0.00     0.166 HD
ATOM     17  C   UNK d   0     -25.257  12.455   7.266  0.00  0.00     0.062 C 
ATOM     18  C   UNK d   0     -23.774  12.051   9.143  0.00  0.00    -0.013 A 
ATOM     19  C   UNK d   0     -26.512  12.853   6.883  0.00  0.00     0.067 A 
ATOM     20  N   UNK d   0     -26.973  13.990   7.409  0.00  0.00    -0.248 NA
ATOM     21  C   UNK d   0     -27.553  12.331   6.013  0.00  0.00    -0.011 A 
ATOM     22  C   UNK d   0     -28.240  14.250   6.947  0.00  0.00     0.066 A 
ATOM     23  C   UNK d   0     -28.826  15.428   7.387  0.00  0.00     0.062 C 
ATOM     24  C   UNK d   0     -28.563  13.152   6.058  0.00  0.00    -0.020 A 
ATOM     25  C   UNK d   0     -28.249  16.434   8.176  0.00  0.00     0.041 A 
ATOM     26  N   UNK d   0     -27.434  16.373   9.236  0.00  0.00    -0.355 N 
ATOM     27  C   UNK d   0     -28.512  17.783   7.850  0.00  0.00    -0.022 A 
ATOM     28  C   UNK d   0     -27.164  17.639   9.594  0.00  0.00     0.042 A 
ATOM     29  H   UNK d   0     -27.072  15.446   9.743  0.00  0.00     0.166 HD
ATOM     30  C   UNK d   0     -26.366  18.156  10.626  0.00  0.00     0.062 C 
ATOM     31  C   UNK d   0     -27.829  18.551   8.741  0.00  0.00    -0.013 A 
ATOM     32  C   UNK d   0     -25.134  17.696  11.066  0.00  0.00     0.066 A 
BRANCH   8  33
ATOM     33  C   UNK d   0     -21.939  17.375  12.856  0.00  0.00     0.151 C 
BRANCH  33  34
ATOM     34  C   UNK d   0     -20.736  17.721  12.077  0.00  0.00     0.143 C 
ATOM     35  O   UNK d   0     -20.744  18.674  11.285  0.00  0.00    -0.650 OA
BRANCH  34  36
ATOM     36  O   UNK d   0     -19.592  16.973  12.233  0.00  0.00    -0.776 OA
ATOM     37  H   UNK d   0     -18.933  17.160  13.001  0.00  0.00     0.167 HD
ENDBRANCH  34  36
ENDBRANCH  33  34
ENDBRANCH   8  33
BRANCH  31  38
ATOM     38  C   UNK d   0     -27.798  20.061   8.775  0.00  0.00     0.151 C 
BRANCH  38  39
ATOM     39  C   UNK d   0     -26.707  20.618   8.003  0.00  0.00     0.143 C 
ATOM     40  O   UNK d   0     -25.653  19.992   7.794  0.00  0.00    -0.650 OA
BRANCH  39  41
ATOM     41  O   UNK d   0     -26.829  21.900   7.469  0.00  0.00    -0.776 OA
ATOM     42  H   UNK d   0     -27.384  22.573   8.006  0.00  0.00     0.167 HD
ENDBRANCH  39  41
ENDBRANCH  38  39
ENDBRANCH  31  38
BRANCH  27  43
ATOM     43  C   UNK d   0     -29.371  18.352   6.748  0.00  0.00     0.052 C 
BRANCH  43  44
ATOM     44  C   UNK d   0     -28.632  18.547   5.464  0.00  0.00     0.115 C 
BRANCH  44  45
ATOM     45  C   UNK d   0     -29.456  19.467   4.637  0.00  0.00     0.139 C 
ATOM     46  O   UNK d   0     -28.882  20.123   3.732  0.00  0.00    -0.650 OA
BRANCH  45  47
ATOM     47  O   UNK d   0     -30.813  19.624   4.818  0.00  0.00    -0.776 OA
ATOM     48  H   UNK d   0     -31.446  18.832   5.017  0.00  0.00     0.167 HD
ENDBRANCH  45  47
ENDBRANCH  44  45
ENDBRANCH  43  44
ENDBRANCH  27  43
BRANCH  24  49
ATOM     49  C   UNK d   0     -29.818  13.027   5.297  0.00  0.00     0.052 C 
BRANCH  49  50
ATOM     50  C   UNK d   0     -30.965  12.720   6.224  0.00  0.00     0.115 C 
BRANCH  50  51
ATOM     51  C   UNK d   0     -30.752  11.684   7.226  0.00  0.00     0.139 C 
ATOM     52  O   UNK d   0     -30.759  11.921   8.457  0.00  0.00    -0.650 OA
BRANCH  51  53
ATOM     53  O   UNK d   0     -30.526  10.376   6.824  0.00  0.00    -0.776 OA
ATOM     54  H   UNK d   0     -30.179  10.218   5.894  0.00  0.00     0.167 HD
ENDBRANCH  51  53
ENDBRANCH  50  51
ENDBRANCH  49  50
ENDBRANCH  24  49
BRANCH  21  55
ATOM     55  C   UNK d   0     -27.428  11.070   5.224  0.00  0.00     0.151 C 
BRANCH  55  56
ATOM     56  C   UNK d   0     -27.017   9.934   6.062  0.00  0.00     0.143 C 
ATOM     57  O   UNK d   0     -27.715   9.499   6.999  0.00  0.00    -0.650 OA
BRANCH  56  58
ATOM     58  O   UNK d   0     -25.792   9.330   5.782  0.00  0.00    -0.776 OA
ATOM     59  H   UNK d   0     -24.996   9.675   6.348  0.00  0.00     0.167 HD
ENDBRANCH  56  58
ENDBRANCH  55  56
ENDBRANCH  21  55
BRANCH  18  60
ATOM     60  C   UNK d   0     -23.785  10.543   9.130  0.00  0.00     0.151 C 
BRANCH  60  61
ATOM     61  C   UNK d   0     -24.810  10.138  10.104  0.00  0.00     0.143 C 
ATOM     62  O   UNK d   0     -24.654   9.950  11.311  0.00  0.00    -0.650 OA
BRANCH  61  63
ATOM     63  O   UNK d   0     -26.108   9.951   9.570  0.00  0.00    -0.776 OA
ATOM     64  H   UNK d   0     -26.747  10.721   9.481  0.00  0.00     0.167 HD
ENDBRANCH  61  63
ENDBRANCH  60  61
ENDBRANCH  18  60
BRANCH  14  65
ATOM     65  C   UNK d   0     -22.135  12.225  11.042  0.00  0.00     0.052 C 
BRANCH  65  66
ATOM     66  C   UNK d   0     -20.702  12.384  10.674  0.00  0.00     0.115 C 
BRANCH  66  67
ATOM     67  C   UNK d   0     -19.757  12.820  11.663  0.00  0.00     0.139 C 
ATOM     68  O   UNK d   0     -20.057  13.836  12.392  0.00  0.00    -0.650 OA
BRANCH  67  69
ATOM     69  O   UNK d   0     -18.509  12.269  11.953  0.00  0.00    -0.776 OA
ATOM     70  H   UNK d   0     -18.323  12.079  12.948  0.00  0.00     0.167 HD
ENDBRANCH  67  69
ENDBRANCH  66  67
ENDBRANCH  65  66
ENDBRANCH  14  65
ENDBRANCH   6   7
ENDBRANCH   5   6
ENDBRANCH   2   5
TORSDOF 28
ENDMDL
